#------------------------------------------------------------------------------
#$Date: 2019-08-01 07:03:08 +0300 (Thu, 01 Aug 2019) $
#$Revision: 217345 $
#$URL: file:///home/coder/svn-repositories/cod/cif/2/10/84/2108450.cif $
#------------------------------------------------------------------------------
#
# This file is available in the Crystallography Open Database (COD),
# http://www.crystallography.net/. The original data for this entry
# were provided by IUCr Journals, http://journals.iucr.org/.
#
# The file may be used within the scientific community so long as
# proper attribution is given to the journal article from which the
# data were obtained.
#
data_2108450
loop_
_publ_author_name
'Fukui, Hiroshi'
'Fujimoto, Manato'
'Akahama, Yuichi'
'Sano-Furukawa, Asami'
'Hattori, Takanori'
_publ_section_title
;
 Structure change of monoclinic ZrO~2~ baddeleyite involving softenings of
 bulk modulus and atom vibrations
;
_journal_issue                   4
_journal_name_full               'Acta Crystallographica Section B'
_journal_page_first
;
;
_journal_paper_doi               10.1107/S2052520619007923
_journal_volume                  75
_journal_year                    2019
_chemical_formula_sum            'O2 Zr'
_chemical_formula_weight         123.22
_space_group_IT_number           14
_space_group_name_Hall           '-P 2ybc'
_space_group_name_H-M_alt        'P 1 21/c 1'
_symmetry_cell_setting           monoclinic
_symmetry_space_group_name_Hall  '-P 2ybc'
_symmetry_space_group_name_H-M   'P 1 21/c 1'
_audit_creation_date             2019-05-07T13:08
_audit_creation_method           'from EXP file using GSAS2CIF'
_audit_update_record
' 2019-05-07T13:08  Initial CIF as created by GSAS2CIF'
_cell_angle_alpha                90.0
_cell_angle_beta                 99.2056(33)
_cell_angle_gamma                90.0
_cell_formula_units_Z            4
_cell_length_a                   5.14730(20)
_cell_length_b                   5.20878(23)
_cell_length_c                   5.31657(22)
_cell_volume                     140.708(10)
_computing_structure_refinement  GSAS
_diffrn_radiation_probe          neutron
_exptl_absorpt_correction_T_max  1.00000
_exptl_absorpt_correction_T_min  1.00000
_exptl_absorpt_process_details
;   GSAS Absorption/surface roughness correction: function number 0
 No correction is applied.
;
_pd_block_id                     2019-05-07T13:08|34744|FUKUI,_Hiroshi|PLANET
_pd_calc_method                  'Rietveld Refinement'
_pd_instr_location               ' ?'
_pd_meas_2theta_fixed            90.00
_pd_meas_number_of_points        3712
_pd_phase_name
'from Z:/2017A/Fukui/V-can/gsas034583/34583.EXP'
_pd_proc_info_datetime           2019-05-07T13:08:12
_pd_proc_info_excluded_regions   ' ?'
_pd_proc_ls_background_function
;   GSAS Background function number 1 with 12 terms.
 Shifted Chebyshev function of 1st kind
      1:   0.209201     2:   6.290160E-02 3:   2.598780E-02 4:   5.436260E-03
      5:   2.672990E-03 6:   1.514170E-03 7:  -1.827530E-03 8:   1.994330E-03
      9:  -1.515970E-0310:   1.382260E-0311:   7.833570E-0412:  -9.672290E-04
;
_pd_proc_ls_peak_cutoff          0.00100
_pd_proc_ls_profile_function
;
 TOF Profile function number 3 with  21 terms
 Profile coefficients for exponential pseudovoigt
  convolution Von Dreele, 1990 (unpublished)
 #1 (alp  ) = ******** #2 (bet-0) = 0.015258 #3 (bet-1) = 0.731691
 #4 (sig-0) =      2.8 #5 (sig-1) =    443.0 #6 (sig-2) =    101.7
 #7 (gam-0) =     0.00 #8 (gam-1) =    20.17 #9 (gam-2) =     0.93
 #10(gsf  ) =     0.00 #11(g1ec ) =     0.00 #12(g2ec ) =     0.00
 #13(rstr ) =    0.000 #14(rsta ) =    0.000 #15(rsca ) =    0.000
 #16(L11)   =    0.000 #17(L22)   =    0.000 #18(L33)   =    0.000
 #19(L12)   =    0.000 #20(L13)   =    0.000 #21(L23)   =    0.000
 Peak tails are ignored  where the intensity is below 0.0010 times the peak
   Aniso. broadening axis   0.0   0.0   1.0
;
_pd_proc_ls_prof_R_factor        0.0184
_pd_proc_ls_prof_wR_expected     0.0180
_pd_proc_ls_prof_wR_factor       0.0197
_pd_proc_number_of_points        3712
_pd_spec_mounting                ' ?'
_refine_ls_goodness_of_fit_all   1.10
_refine_ls_matrix_type           full
_refine_ls_number_parameters     29
_refine_ls_number_restraints     0
_refine_ls_R_Fsqd_factor         0.03690
_refine_ls_shift/su_max          0.01
_refine_ls_shift/su_mean         0.00
_reflns_d_resolution_high        0.799
_reflns_d_resolution_low         3.164
_reflns_limit_h_max              6
_reflns_limit_h_min              0
_reflns_limit_k_max              6
_reflns_limit_k_min              0
_reflns_limit_l_max              7
_reflns_limit_l_min              -7
_reflns_number_total             290
_cod_data_source_file            xk5055sup1.cif
_cod_data_source_block           34744
_cod_depositor_comments
;
The following automatic conversions were performed:

'_geom_bond_publ_flag' value 'N' changed to 'n' according to
/home/data/users/saulius/crontab/automatic-downloads/rss-feeds/IUCr/lib/dictionaries/cif_core.dic
dictionary named 'cif_core.dic' version 2.4.2 from 2011-04-26 (21
time).

'_geom_angle_publ_flag' value 'N' changed to 'n' according to
/home/data/users/saulius/crontab/automatic-downloads/rss-feeds/IUCr/lib/dictionaries/cif_core.dic
dictionary named 'cif_core.dic' version 2.4.2 from 2011-04-26 (30
times).

Automatic conversion script
Id: cif_fix_values 4973 2017-02-22 13:04:09Z antanas 
;
_cod_original_cell_volume        140.707(7)
_cod_database_code               2108450
_gsas_exptl_extinct_corr_t_min   1.00000
_gsas_exptl_extinct_corr_t_max   1.00000
loop_
_symmetry_equiv_pos_site_id
_symmetry_equiv_pos_as_xyz
1 +x,+y,+z
2 -x,+y+1/2,-z+1/2
-1 -x,-y,-z
-2 +x,-y+1/2,+z+1/2
loop_
_atom_site_type_symbol
_atom_site_label
_atom_site_fract_x
_atom_site_fract_y
_atom_site_fract_z
_atom_site_occupancy
_atom_site_thermal_displace_type
_atom_site_U_iso_or_equiv
_atom_site_symmetry_multiplicity
Zr Zr 0.2751(4) 0.0402(4) 0.2097(4) 1.0 Uiso 0.00204 4
O O1 0.0693(6) 0.3320(5) 0.3441(5) 1.0 Uiso 0.00363 4
O O2 0.4501(4) 0.7557(5) 0.4780(4) 1.0 Uiso 0.00101 4
loop_
_atom_type_symbol
_atom_type_number_in_cell
_atom_type_scat_length_neutron
_atom_type_scat_source
Zr 4.0 0.7160 International_Tables_Vol_C
O 8.0 0.5803 International_Tables_Vol_C
loop_
_geom_angle_atom_site_label_1
_geom_angle_atom_site_label_2
_geom_angle_atom_site_label_3
_geom_angle
_geom_angle_site_symmetry_1
_geom_angle_site_symmetry_3
_geom_angle_publ_flag
O1 Zr O1 87.56(10) 1_555 2_545 n
O1 Zr O1 83.04(11) 1_555 -2_565 n
O1 Zr O2 117.72(14) 1_555 1_545 n
O1 Zr O2 100.86(14) 1_555 2_645 n
O1 Zr O2 72.12(14) 1_555 -1_666 n
O1 Zr O2 167.30(16) 1_555 -2_565 n
O1 Zr O1 75.56(12) 2_545 -2_565 n
O1 Zr O2 89.37(12) 2_545 1_545 n
O1 Zr O2 144.99(13) 2_545 2_645 n
O1 Zr O2 140.47(12) 2_545 -1_666 n
O1 Zr O2 88.53(13) 2_545 -2_565 n
O1 Zr O2 154.15(11) -2_565 1_545 n
O1 Zr O2 71.90(12) -2_565 2_645 n
O1 Zr O2 132.24(11) -2_565 -1_666 n
O1 Zr O2 84.28(11) -2_565 -2_565 n
O2 Zr O2 115.24(11) 1_545 2_645 n
O2 Zr O2 72.01(14) 1_545 -1_666 n
O2 Zr O2 74.29(9) 1_545 -2_565 n
O2 Zr O2 73.61(9) 2_645 -1_666 n
O2 Zr O2 75.83(11) 2_645 -2_565 n
O2 Zr O2 117.71(12) -1_666 -2_565 n
Zr O1 Zr 145.63(14) 1_555 2_555 n
Zr O1 Zr 109.63(16) 1_555 -2_555 n
Zr O1 Zr 104.44(12) 2_555 -2_555 n
Zr O2 Zr 106.62(12) 1_565 2_655 n
Zr O2 Zr 107.99(14) 1_565 -1_666 n
Zr O2 Zr 132.30(16) 1_565 -2_555 n
Zr O2 Zr 101.72(12) 2_655 -1_666 n
Zr O2 Zr 104.17(11) 2_655 -2_555 n
Zr O2 Zr 100.24(10) -1_666 -2_555 n
loop_
_geom_bond_atom_site_label_1
_geom_bond_atom_site_label_2
_geom_bond_distance
_geom_bond_site_symmetry_2
_geom_bond_publ_flag
Zr Zr 3.4656(30) 2_645 n
Zr Zr 3.4656(30) 2_655 n
Zr Zr 3.338(4) -1_555 n
Zr Zr 3.487(4) -1_655 n
Zr Zr 3.575(4) -1_656 n
Zr Zr 3.4413(26) -2_554 n
Zr Zr 3.4413(26) -2_555 n
Zr O1 2.046(4) 1_555 n
Zr O1 2.0587(33) 2_545 n
Zr O1 2.164(4) -2_554 n
Zr O2 2.1520(31) 1_545 n
Zr O2 2.1697(33) 2_645 n
Zr O2 2.267(4) -1_666 n
Zr O2 2.249(4) -2_554 n
O1 Zr 2.046(4) 1_555 n
O1 Zr 2.0587(33) 2_555 n
O1 Zr 2.164(4) -2_555 n
O2 Zr 2.1520(31) 1_565 n
O2 Zr 2.1697(33) 2_655 n
O2 Zr 2.267(4) -1_666 n
O2 Zr 2.249(4) -2_555 n
loop_
_pd_meas_time_of_flight
_pd_proc_d_spacing
_pd_meas_intensity_total
_pd_proc_ls_weight
_pd_proc_intensity_bkg_calc
_pd_calc_intensity_total
2855.00 . 0.1606(26) . . .
2865.00 . 0.1609(26) . . .
2875.00 . 0.1600(26) . . .
2885.00 . 0.1550(25) . . .
2895.00 . 0.1528(25) . . .
2905.00 . 0.1538(25) . . .
2915.00 . 0.1528(25) . . .
2925.00 . 0.1529(25) . . .
2935.00 . 0.1513(25) . . .
2945.00 . 0.1527(25) . . .
2955.00 . 0.1553(25) . . .
2965.00 . 0.1459(24) . . .
2975.00 . 0.1505(24) . . .
2985.00 . 0.1536(24) . . .
2995.00 . 0.1487(24) . . .
3005.00 . 0.1480(24) . . .
3015.00 . 0.1446(24) . . .
3025.00 . 0.1499(24) . . .
3035.00 . 0.1445(23) . . .
3045.00 . 0.1497(24) . . .
3055.00 . 0.1487(23) . . .
3065.00 . 0.1474(23) . . .
3075.00 . 0.1464(23) . . .
3085.00 . 0.1515(23) . . .
3095.00 . 0.1468(23) . . .
3105.00 . 0.1415(23) . . .
3115.00 . 0.1434(23) . . .
3125.00 . 0.1443(23) . . .
3135.00 . 0.1510(23) . . .
3145.00 . 0.1453(23) . . .
3155.00 . 0.1460(23) . . .
3165.00 . 0.1518(23) . . .
3175.00 . 0.1469(22) . . .
3185.00 . 0.1462(22) . . .
3195.00 . 0.1428(22) . . .
3205.00 . 0.1426(22) . . .
3215.00 . 0.1378(22) . . .
3225.00 . 0.1411(22) . . .
3235.00 . 0.1453(22) . . .
3245.00 . 0.1475(22) . . .
3255.00 . 0.1470(22) . . .
3265.00 . 0.1434(22) . . .
3275.00 . 0.1406(22) . . .
3285.00 . 0.1441(22) . . .
3295.00 . 0.1449(22) . . .
3305.00 . 0.1457(22) . . .
3315.00 . 0.1451(22) . . .
3325.00 . 0.1431(22) . . .
3335.00 . 0.1398(21) . . .
3345.00 . 0.1422(21) . . .
3355.00 . 0.1484(22) . . .
3365.00 . 0.1433(21) . . .
3375.00 . 0.1519(22) . . .
3385.00 . 0.1440(21) . . .
3395.00 . 0.1388(21) . . .
3405.00 . 0.1423(21) . . .
3415.00 . 0.1386(21) . . .
3425.00 . 0.1374(21) . . .
3435.00 . 0.1398(21) . . .
3445.00 . 0.1412(21) . . .
3455.00 . 0.1326(20) . . .
3465.00 . 0.1327(20) . . .
3475.00 . 0.1299(20) . . .
3485.00 . 0.1327(20) . . .
3495.00 . 0.1320(20) . . .
3505.00 . 0.1337(20) . . .
3515.0 . 0.1340(20) . . .
3525.0 . 0.1314(20) . . .
3535.0 . 0.1323(20) . . .
3545.0 . 0.1318(20) . . .
3555.0 . 0.1301(19) . . .
3565.0 . 0.1326(20) . . .
3575.0 . 0.1373(20) . . .
3585.0 . 0.1386(20) . . .
3595.0 . 0.1390(20) . . .
3605.0 . 0.1317(19) . . .
3615.0 . 0.1324(19) . . .
3625.0 . 0.1333(19) . . .
3635.0 . 0.1360(19) . . .
3645.0 . 0.1375(19) . . .
3655.0 . 0.1335(19) . . .
3665.0 . 0.1338(19) . . .
3675.0 . 0.1307(19) . . .
3685.0 . 0.1380(19) . . .
3695.0 . 0.1333(19) . . .
3705.0 . 0.1333(19) . . .
3715.0 . 0.1308(19) . . .
3725.0 . 0.1370(19) . . .
3735.0 . 0.1341(19) . . .
3745.0 . 0.1379(19) . . .
3755.0 . 0.1419(19) . . .
3765.0 . 0.1364(19) . . .
3775.0 . 0.1349(19) . . .
3785.0 . 0.1353(19) . . .
3795.0 . 0.1404(19) . . .
3805.0 . 0.1411(19) . . .
3815.0 . 0.1408(19) . . .
3825.0 . 0.1414(19) . . .
3835.0 . 0.1395(19) . . .
3845.0 . 0.1412(19) . . .
3855.0 . 0.1411(19) . . .
3865.0 . 0.1388(18) . . .
3875.0 . 0.1430(19) . . .
3885.0 . 0.1357(18) . . .
3895.0 . 0.1351(18) . . .
3905.0 . 0.1355(18) . . .
3915.0 . 0.1395(18) . . .
3925.0 . 0.1376(18) . . .
3935.0 . 0.1319(18) . . .
3945.0 . 0.1298(18) . . .
3955.0 . 0.1363(18) . . .
3965.0 . 0.1365(18) . . .
3975.0 . 0.1416(18) . . .
3985.0 . 0.1433(18) . . .
3995.0 . 0.1432(18) . . .
4005.0 . 0.1375(18) . . .
4015.0 . 0.1346(18) . . .
4025.0 . 0.1376(18) . . .
4035.0 . 0.1393(18) . . .
4045.0 . 0.1418(18) . . .
4055.0 . 0.1395(18) . . .
4065.0 . 0.1420(18) . . .
4075.0 . 0.1409(18) . . .
4085.0 . 0.1364(18) . . .
4095.0 . 0.1375(18) . . .
4105.0 . 0.1372(18) . . .
4115.0 . 0.1404(18) . . .
4125.0 . 0.1389(18) . . .
4135.0 . 0.1365(18) . . .
4145.0 . 0.1348(18) . . .
4155.0 . 0.1366(18) . . .
4165.0 . 0.1377(18) . . .
4175.0 . 0.1406(18) . . .
4185.0 . 0.1396(18) . . .
4195.0 . 0.1434(18) . . .
4205.0 . 0.1409(18) . . .
4215.0 . 0.1412(18) . . .
4225.0 . 0.1392(18) . . .
4235.0 . 0.1372(18) . . .
4245.0 . 0.1374(18) . . .
4255.0 . 0.1393(18) . . .
4265.0 . 0.1401(18) . . .
4275.0 . 0.1405(18) . . .
4285.0 . 0.1406(18) . . .
4295.0 . 0.1398(18) . . .
4305.0 . 0.1375(18) . . .
4315.0 . 0.1393(18) . . .
4325.0 . 0.1411(18) . . .
4335.0 . 0.1415(18) . . .
4345.0 . 0.1430(18) . . .
4355.0 . 0.1437(18) . . .
4365.0 . 0.1432(18) . . .
4375.0 . 0.1463(18) . . .
4385.0 . 0.1445(18) . . .
4395.0 . 0.1459(18) . . .
4405.0 . 0.1422(18) . . .
4415.0 . 0.1441(18) . . .
4425.0 . 0.1398(18) . . .
4435.0 . 0.1369(18) . . .
4445.0 . 0.1411(18) . . .
4455.0 . 0.1471(18) . . .
4465.0 . 0.1503(18) . . .
4475.0 . 0.1503(18) . . .
4485.0 . 0.1505(18) . . .
4495.0 . 0.1494(18) . . .
4505.0 . 0.1480(18) . . .
4515.0 . 0.1502(18) . . .
4525.0 . 0.1507(18) . . .
4535.0 . 0.1485(18) . . .
4545.0 . 0.1469(18) . . .
4555.0 . 0.1505(18) . . .
4565.0 . 0.1553(19) . . .
4575.0 . 0.1542(19) . . .
4585.0 . 0.1526(18) . . .
4595.0 . 0.1528(18) . . .
4605.0 . 0.1539(19) . . .
4615.0 . 0.1511(18) . . .
4625.0 . 0.1460(18) . . .
4635.0 . 0.1445(18) . . .
4645.0 . 0.1534(19) . . .
4655.0 . 0.1567(19) . . .
4665.0 . 0.1517(19) . . .
4675.0 . 0.1467(18) . . .
4685.0 . 0.1489(18) . . .
4695.0 . 0.1499(18) . . .
4705.0 . 0.1542(19) . . .
4715.0 . 0.1525(19) . . .
4725.0 . 0.1518(19) . . .
4735.0 . 0.1495(19) . . .
4745.0 . 0.1476(18) . . .
4755.0 . 0.1440(18) . . .
4765.0 . 0.1443(18) . . .
4775.0 . 0.1458(18) . . .
4785.0 . 0.1473(19) . . .
4795.0 . 0.1442(18) . . .
4805.0 . 0.1433(18) . . .
4815.0 . 0.1468(19) . . .
4825.0 . 0.1433(18) . . .
4835.0 . 0.1460(19) . . .
4845.0 . 0.1489(19) . . .
4855.0 . 0.1501(19) . . .
4865.0 . 0.1497(19) . . .
4875.0 . 0.1552(19) . . .
4885.0 . 0.1570(19) . . .
4895.0 . 0.1543(19) . . .
4905.0 . 0.1560(19) . . .
4915.0 . 0.1567(19) . . .
4925.0 . 0.1542(19) . . .
4935.0 . 0.1543(19) . . .
4945.0 . 0.1503(19) . . .
4955.0 . 0.1522(19) . . .
4965.0 . 0.1524(19) . . .
4975.0 . 0.1513(19) . . .
4985.0 . 0.1564(19) . . .
4995.0 . 0.1495(19) . . .
5005.0 . 0.1462(19) . . .
5015.0 . 0.1432(19) . . .
5025.0 . 0.1422(19) . . .
5035.0 . 0.1409(19) . . .
5045.0 . 0.1432(19) . . .
5055.0 . 0.1437(19) . . .
5065.0 . 0.1448(19) . . .
5075.0 . 0.1454(19) . . .
5085.0 . 0.1447(19) . . .
5095.0 . 0.1452(19) . . .
5105.0 . 0.1443(19) . . .
5115.0 . 0.1473(19) . . .
5125.0 . 0.1453(19) . . .
5135.0 . 0.1464(19) . . .
5145.0 . 0.1432(19) . . .
5155.0 . 0.1435(19) . . .
5165.0 . 0.1441(19) . . .
5175.0 . 0.1500(20) . . .
5185.0 . 0.1449(19) . . .
5195.0 . 0.1490(20) . . .
5205.0 . 0.1488(20) . . .
5215.0 . 0.1536(20) . . .
5225.0 . 0.1488(20) . . .
5235.0 . 0.1451(19) . . .
5245.0 . 0.1441(19) . . .
5255.0 . 0.1429(19) . . .
5265.0 . 0.1460(20) . . .
5275.0 . 0.1523(20) . . .
5285.0 . 0.1509(20) . . .
5295.0 . 0.1518(20) . . .
5305.0 . 0.1483(20) . . .
5315.0 . 0.1431(20) . . .
5325.0 . 0.1438(20) . . .
5335.0 . 0.1512(20) . . .
5345.0 . 0.1491(20) . . .
5355.0 . 0.1485(20) . . .
5365.0 . 0.1483(20) . . .
5375.0 . 0.1449(20) . . .
5385.0 . 0.1484(20) . . .
5395.0 . 0.1494(20) . . .
5405.0 . 0.1494(20) . . .
5415.0 . 0.1456(20) . . .
5425.0 . 0.1409(20) . . .
5435.0 . 0.1413(20) . . .
5445.0 . 0.1434(20) . . .
5455.0 . 0.1471(20) . . .
5465.0 . 0.1438(20) . . .
5475.0 . 0.1399(20) . . .
5485.0 . 0.1416(20) . . .
5495.0 . 0.1327(20) . . .
5505.0 . 0.1354(20) . . .
5515.0 . 0.1368(20) . . .
5525.0 . 0.1399(20) . . .
5535.0 . 0.1382(20) . . .
5545.0 . 0.1408(20) . . .
5555.0 . 0.1385(20) . . .
5565.0 . 0.1405(20) . . .
5575.0 . 0.1448(21) . . .
5585.0 . 0.1482(21) . . .
5595.0 . 0.1478(21) . . .
5605.0 . 0.1486(21) . . .
5615.0 . 0.1507(21) . . .
5625.0 . 0.1509(21) . . .
5635.0 . 0.1528(21) . . .
5645.0 . 0.1565(21) . . .
5655.0 . 0.1504(21) . . .
5665.0 . 0.1540(21) . . .
5675.0 . 0.1585(22) . . .
5685.0 . 0.1625(22) . . .
5695.0 . 0.1552(22) . . .
5705.0 . 0.1505(21) . . .
5715.0 . 0.1501(21) . . .
5725.0 . 0.1478(21) . . .
5735.0 . 0.1495(21) . . .
5745.0 . 0.1552(22) . . .
5755.0 . 0.1522(22) . . .
5765.0 . 0.1518(22) . . .
5775.0 . 0.1506(22) . . .
5785.0 . 0.1533(22) . . .
5795.0 . 0.1507(22) . . .
5805.0 . 0.1523(22) . . .
5815.0 . 0.1467(22) . . .
5825.0 . 0.1524(22) . . .
5835.0 . 0.1511(22) . . .
5845.0 . 0.1495(22) . . .
5855.0 . 0.1481(22) . . .
5865.0 . 0.1502(22) . . .
5875.0 . 0.1471(22) . . .
5885.0 . 0.1483(22) . . .
5895.0 . 0.1536(22) . . .
5905.0 . 0.1532(22) . . .
5915.0 . 0.1541(22) . . .
5925.0 . 0.1614(23) . . .
5935.0 . 0.1689(23) . . .
5945.0 . 0.1710(23) . . .
5955.0 . 0.1666(23) . . .
5965.0 . 0.1691(23) . . .
5975.0 . 0.1654(23) . . .
5985.0 . 0.1673(23) . . .
5995.0 . 0.1714(24) . . .
6005.0 . 0.1743(24) . . .
6015.0 . 0.1714(24) . . .
6025.0 . 0.1667(23) . . .
6035.0 . 0.1604(23) . . .
6045.0 . 0.1618(23) . . .
6055.0 . 0.1580(23) . . .
6065.0 . 0.1637(23) . . .
6075.0 . 0.1587(23) . . .
6085.0 . 0.1556(23) . . .
6095.0 . 0.1578(23) . . .
6105.0 . 0.1621(23) . . .
6115.0 . 0.1659(24) . . .
6125.0 . 0.1626(24) . . .
6135.0 . 0.1606(23) . . .
6145.0 . 0.1640(24) . . .
6155.0 . 0.1664(24) . . .
6165.0 . 0.1617(24) . . .
6175.0 . 0.1583(23) . . .
6185.0 . 0.1667(24) . . .
6195.0 . 0.1756(24) . . .
6205.0 . 0.1769(25) . . .
6215.0 . 0.1731(24) . . .
6225.0 . 0.1722(24) . . .
6235.0 . 0.1636(24) . . .
6245.0 . 0.1639(24) . . .
6255.0 . 0.1638(24) . . .
6265.0 . 0.1631(24) . . .
6275.0 . 0.1712(24) . . .
6285.0 . 0.1697(24) . . .
6295.0 . 0.1687(24) . . .
6305.0 . 0.1691(24) . . .
6315.0 . 0.1700(25) . . .
6325.0 . 0.1685(24) . . .
6335.0 . 0.1718(25) . . .
6345.0 . 0.1747(25) . . .
6355.0 . 0.1684(25) . . .
6365.0 . 0.1646(24) . . .
6375.0 . 0.1632(24) . . .
6385.0 . 0.1563(24) . . .
6395.0 . 0.1527(24) . . .
6405.0 . 0.1555(24) . . .
6415.0 . 0.1647(25) . . .
6425.0 . 0.1699(25) . . .
6435.0 . 0.1720(25) . . .
6445.0 . 0.1711(25) . . .
6455.0 . 0.1708(25) . . .
6465.0 . 0.1694(25) . . .
6475.0 . 0.1640(25) . . .
6485.0 . 0.1642(25) . . .
6495.0 . 0.1741(25) . . .
6505.0 . 0.1733(25) . . .
6515.0 . 0.1752(25) . . .
6525.0 . 0.1695(25) . . .
6535.0 . 0.1644(25) . . .
6545.0 . 0.1582(24) . . .
6555.0 . 0.1542(24) . . .
6565.0 . 0.1551(24) . . .
6575.0 . 0.1571(24) . . .
6585.0 . 0.1584(25) . . .
6595.0 . 0.1624(25) . . .
6605.0 . 0.1578(25) . . .
6615.0 . 0.1683(25) . . .
6625.0 . 0.1716(25) . . .
6635.0 . 0.1763(26) . . .
6645.0 . 0.1861(26) . . .
6655.0 . 0.1813(26) . . .
6665.0 . 0.1816(26) . . .
6675.0 . 0.1770(26) . . .
6685.0 . 0.1700(26) . . .
6695.0 . 0.1659(25) . . .
6705.0 . 0.1649(25) . . .
6715.0 . 0.1566(25) . . .
6725.0 . 0.1629(25) . . .
6735.0 . 0.1609(25) . . .
6745.0 . 0.1611(25) . . .
6755.0 . 0.1574(25) . . .
6765.0 . 0.1611(25) . . .
6775.0 . 0.1701(26) . . .
6785.0 . 0.1750(26) . . .
6795.0 . 0.1783(26) . . .
6805.0 . 0.1847(27) . . .
6815.0 . 0.1838(27) . . .
6825.0 . 0.1845(27) . . .
6835.0 . 0.1850(27) . . .
6845.0 . 0.1835(27) . . .
6855.0 . 0.1835(27) . . .
6865.0 . 0.1780(27) . . .
6875.0 . 0.1724(26) . . .
6885.0 . 0.1653(26) . . .
6895.0 . 0.1658(26) . . .
6905.0 . 0.1563(25) . . .
6915.0 . 0.1629(26) . . .
6925.0 . 0.1594(25) . . .
6935.0 . 0.1574(25) . . .
6945.0 . 0.1597(26) . . .
6955.0 . 0.1650(26) . . .
6965.0 . 0.1709(26) . . .
6975.0 . 0.1714(26) . . .
6985.0 . 0.1714(26) . . .
6995.0 . 0.1691(26) . . .
7005.0 . 0.1640(26) . . .
7015.0 . 0.1636(26) . . .
7025.0 . 0.1597(26) . . .
7035.0 . 0.1592(26) . . .
7045.0 . 0.1566(26) . . .
7055.0 . 0.1601(26) . . .
7065.0 . 0.1619(26) . . .
7075.0 . 0.1617(26) . . .
7085.0 . 0.1688(26) . . .
7095.0 . 0.1700(27) . . .
7105.0 . 0.1703(27) . . .
7115.0 . 0.1704(27) . . .
7125.0 . 0.1732(27) . . .
7135.0 . 0.1734(27) . . .
7145.0 . 0.1743(27) . . .
7155.0 . 0.1679(26) . . .
7165.0 . 0.1705(27) . . .
7175.0 . 0.1780(27) . . .
7185.0 . 0.1812(27) . . .
7195.0 . 0.1827(28) . . .
7205.0 . 0.1822(28) . . .
7215.0 . 0.1719(27) . . .
7225.0 . 0.1743(27) . . .
7235.0 . 0.1680(27) . . .
7245.0 . 0.1658(27) . . .
7255.0 . 0.1656(27) . . .
7265.0 . 0.1678(27) . . .
7275.0 . 0.1671(27) . . .
7285.0 . 0.1678(27) . . .
7295.0 . 0.1683(27) . . .
7305.0 . 0.1709(27) . . .
7315.0 . 0.1737(27) . . .
7325.0 . 0.1744(27) . . .
7335.0 . 0.1794(28) . . .
7345.0 . 0.1801(28) . . .
7355.0 . 0.1845(28) . . .
7365.0 . 0.1816(28) . . .
7375.0 . 0.1823(28) . . .
7385.0 . 0.1747(27) . . .
7395.0 . 0.1759(27) . . .
7405.0 . 0.1682(27) . . .
7415.0 . 0.1643(27) . . .
7425.0 . 0.1656(27) . . .
7435.0 . 0.1610(27) . . .
7445.0 . 0.1647(27) . . .
7455.0 . 0.1633(27) . . .
7465.0 . 0.1639(27) . . .
7475.0 . 0.1626(27) . . .
7485.0 . 0.1673(27) . . .
7495.0 . 0.1685(27) . . .
7505.0 . 0.1753(28) . . .
7515.0 . 0.1685(27) . . .
7525.0 . 0.1757(28) . . .
7535.0 0.79677 0.1741(28) 0.0 0.16275 .
7545.0 0.79782 0.1742(28) 0.0 0.16289 .
7555.0 0.79888 0.1746(28) 130382. 0.16304 0.17413
7565.0 0.79994 0.1727(28) 131437. 0.16319 0.17404
7575.0 0.80100 0.1761(28) 128830. 0.16333 0.17615
7585.0 0.80206 0.1822(28) 125079. 0.16348 0.18113
7595.0 0.80312 0.1890(29) 121124. 0.16363 0.18847
7605.0 0.80418 0.1923(29) 119212. 0.16377 0.19573
7615.0 0.80523 0.1962(29) 117096. 0.16392 0.19900
7625.0 0.80629 0.1955(29) 117139. 0.16406 0.19634
7635.0 0.80735 0.1895(29) 120222. 0.16421 0.18993
7645.0 0.80841 0.1823(28) 124071. 0.16435 0.18329
7655.0 0.80947 0.1769(28) 127041. 0.16450 0.17896
7665.0 0.81053 0.1765(28) 127199. 0.16464 0.17770
7675.0 0.81159 0.1785(28) 125833. 0.16478 0.17881
7685.0 0.81264 0.1812(28) 124149. 0.16492 0.18084
7695.0 0.81370 0.1871(29) 120608. 0.16507 0.18261
7705.0 0.81476 0.1814(28) 123635. 0.16521 0.18419
7715.0 0.81582 0.1814(28) 123552. 0.16535 0.18590
7725.0 0.81688 0.1914(29) 117777. 0.16549 0.18764
7735.0 0.81794 0.1891(29) 118878. 0.16563 0.18884
7745.0 0.81900 0.1928(29) 116755. 0.16577 0.18948
7755.0 0.82005 0.1919(29) 117081. 0.16590 0.19068
7765.0 0.82111 0.1987(30) 113511. 0.16604 0.19339
7775.0 0.82217 0.1965(30) 114674. 0.16618 0.19709
7785.0 0.82323 0.1991(30) 113321. 0.16631 0.19994
7795.0 0.82429 0.1998(30) 112834. 0.16645 0.20071
7805.0 0.82535 0.2004(30) 112493. 0.16658 0.19968
7815.0 0.82641 0.1948(29) 115204. 0.16671 0.19755
7825.0 0.82746 0.1933(29) 115815. 0.16685 0.19523
7835.0 0.82852 0.1940(29) 115379. 0.16698 0.19301
7845.0 0.82958 0.1903(29) 117161. 0.16711 0.19056
7855.0 0.83064 0.1877(29) 118480. 0.16724 0.18810
7865.0 0.83170 0.1852(29) 119761. 0.16737 0.18641
7875.0 0.83276 0.1855(29) 119401. 0.16749 0.18584
7885.0 0.83382 0.1845(29) 119695. 0.16762 0.18616
7895.0 0.83488 0.1857(29) 118880. 0.16775 0.18699
7905.0 0.83593 0.1929(30) 114869. 0.16787 0.18788
7915.0 0.83699 0.1885(29) 116930. 0.16799 0.18858
7925.0 0.83805 0.1891(29) 116546. 0.16812 0.18877
7935.0 0.83911 0.1901(29) 115812. 0.16824 0.18795
7945.0 0.84017 0.1905(29) 115359. 0.16836 0.18663
7955.0 0.84123 0.1807(29) 120584. 0.16848 0.18619
7965.0 0.84229 0.1909(29) 115070. 0.16859 0.18768
7975.0 0.84334 0.1945(30) 113023. 0.16871 0.19135
7985.0 0.84440 0.1940(30) 113005. 0.16883 0.19653
7995.0 0.84546 0.2038(30) 108086. 0.16894 0.20117
8005.0 0.84652 0.2015(30) 109117. 0.16905 0.20242
8015.0 0.84758 0.1954(30) 111881. 0.16917 0.19932
8025.0 0.84864 0.1995(30) 109640. 0.16928 0.19405
8035.0 0.84970 0.1936(30) 112423. 0.16939 0.18954
8045.0 0.85075 0.1890(30) 114624. 0.16949 0.18763
8055.0 0.85181 0.1881(29) 114958. 0.16960 0.18864
8065.0 0.85287 0.1877(29) 115011. 0.16971 0.19164
8075.0 0.85393 0.1927(30) 112331. 0.16981 0.19503
8085.0 0.85499 0.1976(30) 109812. 0.16992 0.19711
8095.0 0.85605 0.1963(30) 110331. 0.17002 0.19655
8105.0 0.85711 0.1942(30) 111187. 0.17012 0.19399
8115.0 0.85816 0.1939(30) 111210. 0.17022 0.19158
8125.0 0.85922 0.1857(29) 115405. 0.17032 0.19090
8135.0 0.86028 0.1939(30) 111240. 0.17041 0.19204
8145.0 0.86134 0.1929(30) 111610. 0.17051 0.19368
8155.0 0.86240 0.1980(30) 109016. 0.17060 0.19397
8165.0 0.86346 0.1898(30) 113143. 0.17070 0.19243
8175.0 0.86452 0.1940(30) 110922. 0.17079 0.19050
8185.0 0.86557 0.1863(30) 114815. 0.17088 0.18983
8195.0 0.86663 0.1903(30) 112545. 0.17097 0.19096
8205.0 0.86769 0.1948(30) 110148. 0.17105 0.19310
8215.0 0.86875 0.1937(30) 110579. 0.17114 0.19468
8225.0 0.86981 0.1988(30) 108018. 0.17123 0.19483
8235.0 0.87087 0.1931(30) 110633. 0.17131 0.19408
8245.0 0.87193 0.1928(30) 110705. 0.17139 0.19344
8255.0 0.87298 0.1917(30) 111137. 0.17147 0.19360
8265.0 0.87404 0.1947(30) 109533. 0.17155 0.19439
8275.0 0.87510 0.1935(30) 110104. 0.17163 0.19507
8285.0 0.87616 0.1933(30) 110059. 0.17171 0.19487
8295.0 0.87722 0.1978(30) 107756. 0.17178 0.19327
8305.0 0.87828 0.1887(30) 112249. 0.17185 0.19086
8315.0 0.87934 0.1967(30) 108228. 0.17193 0.18927
8325.0 0.88040 0.1918(30) 110613. 0.17200 0.19031
8335.0 0.88145 0.1923(30) 110291. 0.17207 0.19554
8345.0 0.88251 0.2060(31) 103694. 0.17214 0.20579
8355.0 0.88357 0.2223(32) 96798. 0.17220 0.22033
8365.0 0.88463 0.2357(33) 91598. 0.17227 0.23613
8375.0 0.88569 0.2517(34) 86259. 0.17233 0.24817
8385.0 0.88675 0.2512(34) 86409. 0.17240 0.25174
8395.0 0.88781 0.2403(33) 89732. 0.17246 0.24541
8405.0 0.88886 0.2353(33) 91411. 0.17252 0.23270
8415.0 0.88992 0.2166(32) 98355. 0.17258 0.21868
8425.0 0.89098 0.2077(31) 101955. 0.17263 0.20673
8435.0 0.89204 0.1986(31) 105907. 0.17269 0.19848
8445.0 0.89310 0.1912(30) 109369. 0.17274 0.19407
8455.0 0.89416 0.1884(30) 110734. 0.17280 0.19274
8465.0 0.89522 0.1924(30) 108654. 0.17285 0.19348
8475.0 0.89627 0.1971(31) 106296. 0.17290 0.19553
8485.0 0.89733 0.1996(31) 105034. 0.17295 0.19805
8495.0 0.89839 0.2061(31) 101961. 0.17299 0.19980
8505.0 0.89945 0.2036(31) 102921. 0.17304 0.19991
8515.0 0.90051 0.2007(31) 104081. 0.17309 0.19860
8525.0 0.90157 0.2001(31) 104251. 0.17313 0.19677
8535.0 0.90263 0.1974(31) 105481. 0.17317 0.19527
8545.0 0.90369 0.1923(30) 107818. 0.17321 0.19444
8555.0 0.90474 0.1936(31) 107078. 0.17325 0.19389
8565.0 0.90580 0.1992(31) 104249. 0.17329 0.19293
8575.0 0.90686 0.1950(31) 106009. 0.17333 0.19142
8585.0 0.90792 0.1923(31) 107160. 0.17336 0.18972
8595.0 0.90898 0.1860(30) 110344. 0.17340 0.18812
8605.0 0.91004 0.1857(30) 110444. 0.17343 0.18688
8615.0 0.91110 0.1839(30) 111403. 0.17346 0.18639
8625.0 0.91215 0.1895(30) 108599. 0.17349 0.18671
8635.0 0.91321 0.1815(30) 112701. 0.17352 0.18741
8645.0 0.91427 0.1869(30) 109951. 0.17355 0.18777
8655.0 0.91533 0.1889(30) 108855. 0.17357 0.18733
8665.0 0.91639 0.1857(30) 110431. 0.17360 0.18619
8675.0 0.91745 0.1852(30) 110434. 0.17362 0.18512
8685.0 0.91851 0.1854(30) 110437. 0.17364 0.18505
8695.0 0.91956 0.1899(30) 108134. 0.17366 0.18661
8705.0 0.92062 0.1866(30) 109680. 0.17368 0.18992
8715.0 0.92168 0.1936(31) 106131. 0.17370 0.19463
8725.0 0.92274 0.2023(31) 102101. 0.17372 0.19987
8735.0 0.92380 0.2081(32) 99589. 0.17373 0.20485
8745.0 0.92486 0.2095(32) 98835. 0.17375 0.20959
8755.0 0.92592 0.2188(32) 95115. 0.17376 0.21494
8765.0 0.92698 0.2185(32) 95290. 0.17378 0.22113
8775.0 0.92803 0.2291(33) 91343. 0.17379 0.22692
8785.0 0.92909 0.2306(33) 90792. 0.17380 0.23043
8795.0 0.93015 0.2289(33) 91309. 0.17380 0.23039
8805.0 0.93121 0.2294(33) 91123. 0.17381 0.22761
8815.0 0.93227 0.2289(33) 91227. 0.17382 0.22451
8825.0 0.93333 0.2279(33) 91560. 0.17382 0.22273
8835.0 0.93439 0.2217(33) 93781. 0.17383 0.22175
8845.0 0.93544 0.2192(32) 94756. 0.17383 0.21946
8855.0 0.93650 0.2118(32) 97715. 0.17383 0.21471
8865.0 0.93756 0.2044(31) 100806. 0.17383 0.20832
8875.0 0.93862 0.2064(32) 99894. 0.17383 0.20178
8885.0 0.93968 0.1997(31) 102806. 0.17383 0.19616
8895.0 0.94074 0.1908(31) 107042. 0.17382 0.19198
8905.0 0.94180 0.1894(30) 107722. 0.17382 0.18951
8915.0 0.94286 0.1914(31) 106733. 0.17382 0.18904
8925.0 0.94391 0.1894(30) 107801. 0.17381 0.19067
8935.0 0.94497 0.1944(31) 105316. 0.17380 0.19409
8945.0 0.94603 0.1988(31) 103261. 0.17379 0.19835
8955.0 0.94709 0.2055(32) 100362. 0.17378 0.20199
8965.0 0.94815 0.1957(31) 104749. 0.17377 0.20356
8975.0 0.94921 0.2042(31) 100906. 0.17376 0.20232
8985.0 0.95027 0.2021(31) 101858. 0.17375 0.19889
8995.0 0.95132 0.1906(31) 107341. 0.17373 0.19475
9005.0 0.95238 0.1962(31) 104662. 0.17372 0.19105
9015.0 0.95344 0.1869(30) 109215. 0.17370 0.18828
9025.0 0.95450 0.1884(30) 108558. 0.17369 0.18674
9035.0 0.95556 0.1821(30) 111852. 0.17367 0.18655
9045.0 0.95662 0.1868(30) 109355. 0.17365 0.18755
9055.0 0.95768 0.1867(30) 109269. 0.17363 0.18947
9065.0 0.95874 0.1916(31) 107002. 0.17361 0.19205
9075.0 0.95979 0.1989(31) 103475. 0.17359 0.19493
9085.0 0.96085 0.1980(31) 103987. 0.17356 0.19746
9095.0 0.96191 0.1992(31) 103425. 0.17354 0.19902
9105.0 0.96297 0.2019(31) 102330. 0.17351 0.19973
9115.0 0.96403 0.1959(31) 105154. 0.17349 0.20018
9125.0 0.96509 0.2031(31) 101760. 0.17346 0.20052
9135.0 0.96615 0.1992(31) 103544. 0.17343 0.20063
9145.0 0.96720 0.1965(31) 104885. 0.17341 0.20009
9155.0 0.96826 0.2002(31) 102972. 0.17338 0.19833
9165.0 0.96932 0.1928(31) 106349. 0.17335 0.19538
9175.0 0.97038 0.1900(30) 107817. 0.17331 0.19215
9185.0 0.97144 0.1823(30) 111832. 0.17328 0.18943
9195.0 0.97250 0.1860(30) 109747. 0.17325 0.18746
9205.0 0.97356 0.1865(30) 109590. 0.17322 0.18601
9215.0 0.97462 0.1834(30) 111232. 0.17318 0.18495
9225.0 0.97567 0.1829(30) 111573. 0.17315 0.18444
9235.0 0.97673 0.1823(30) 111842. 0.17311 0.18465
9245.0 0.97779 0.1797(30) 113256. 0.17307 0.18569
9255.0 0.97885 0.1883(30) 108797. 0.17304 0.18759
9265.0 0.97991 0.1913(31) 107241. 0.17300 0.19043
9275.0 0.98097 0.1907(30) 107634. 0.17296 0.19411
9285.0 0.98203 0.1917(31) 107167. 0.17292 0.19805
9295.0 0.98309 0.1951(31) 105616. 0.17288 0.20125
9305.0 0.98414 0.1996(31) 103667. 0.17284 0.20256
9315.0 0.98520 0.2009(31) 103000. 0.17280 0.20119
9325.0 0.98626 0.1938(31) 106429. 0.17275 0.19750
9335.0 0.98732 0.1916(31) 107451. 0.17271 0.19311
9345.0 0.98838 0.1841(30) 111208. 0.17266 0.18971
9355.0 0.98944 0.1856(30) 110502. 0.17262 0.18846
9365.0 0.99050 0.1841(30) 111337. 0.17257 0.18997
9375.0 0.99155 0.1924(31) 107155. 0.17253 0.19425
9385.0 0.99261 0.1974(31) 104784. 0.17248 0.20068
9395.0 0.99367 0.2044(31) 101594. 0.17243 0.20805
9405.0 0.99473 0.2133(32) 97733. 0.17239 0.21467
9415.0 0.99579 0.2136(32) 97602. 0.17234 0.21908
9425.0 0.99685 0.2222(33) 94233. 0.17229 0.22093
9435.0 0.99791 0.2222(33) 94268. 0.17224 0.22076
9445.0 0.99897 0.2166(32) 96442. 0.17219 0.21857
9455.0 1.00002 0.2139(32) 97534. 0.17214 0.21388
9465.0 1.00108 0.2095(32) 99394. 0.17208 0.20705
9475.0 1.00214 0.1985(31) 104323. 0.17203 0.19964
9485.0 1.00320 0.1886(30) 109249. 0.17198 0.19317
9495.0 1.00426 0.1917(30) 107880. 0.17193 0.18856
9505.0 1.00532 0.1856(30) 110866. 0.17187 0.18606
9515.0 1.00638 0.1785(30) 114749. 0.17182 0.18544
9525.0 1.00744 0.1855(30) 110837. 0.17176 0.18611
9535.0 1.00849 0.1831(30) 111969. 0.17171 0.18737
9545.0 1.00955 0.1888(30) 108834. 0.17165 0.18865
9555.0 1.01061 0.1922(31) 107023. 0.17160 0.18955
9565.0 1.01167 0.1868(30) 109785. 0.17154 0.19006
9575.0 1.01273 0.1909(30) 107619. 0.17148 0.19042
9585.0 1.01379 0.1909(30) 107598. 0.17142 0.19060
9595.0 1.01485 0.1862(30) 110075. 0.17137 0.19029
9605.0 1.01591 0.1887(30) 108736. 0.17131 0.18919
9615.0 1.01696 0.1883(30) 108868. 0.17125 0.18742
9625.0 1.01802 0.1786(30) 113995. 0.17119 0.18547
9635.0 1.01908 0.1833(30) 111397. 0.17113 0.18385
9645.0 1.02014 0.1853(30) 110319. 0.17107 0.18297
9655.0 1.02120 0.1821(30) 112087. 0.17101 0.18302
9665.0 1.02226 0.1843(30) 110741. 0.17095 0.18418
9675.0 1.02332 0.1875(30) 109004. 0.17089 0.18665
9685.0 1.02437 0.1871(30) 109124. 0.17083 0.19055
9695.0 1.02543 0.1993(31) 103197. 0.17076 0.19595
9705.0 1.02649 0.2061(32) 100252. 0.17070 0.20293
9715.0 1.02755 0.2165(32) 95990. 0.17064 0.21147
9725.0 1.02861 0.2197(32) 94685. 0.17058 0.22104
9735.0 1.02967 0.2340(33) 89431. 0.17051 0.23052
9745.0 1.03073 0.2392(34) 87664. 0.17045 0.23821
9755.0 1.03179 0.2461(34) 85390. 0.17039 0.24214
9765.0 1.03284 0.2404(34) 87092. 0.17032 0.24131
9775.0 1.03390 0.2429(34) 86353. 0.17026 0.23635
9785.0 1.03496 0.2267(33) 91812. 0.17019 0.22837
9795.0 1.03602 0.2178(32) 95230. 0.17013 0.21852
9805.0 1.03708 0.2037(31) 101092. 0.17006 0.20849
9815.0 1.03814 0.1996(31) 102997. 0.17000 0.19988
9825.0 1.03920 0.1942(31) 105444. 0.16993 0.19363
9835.0 1.04026 0.1894(30) 107840. 0.16987 0.18994
9845.0 1.04131 0.1903(31) 107243. 0.16980 0.18845
9855.0 1.04237 0.1871(30) 108804. 0.16974 0.18857
9865.0 1.04343 0.1906(31) 107035. 0.16967 0.18955
9875.0 1.04449 0.1957(31) 104483. 0.16960 0.19069
9885.0 1.04555 0.1921(31) 106059. 0.16954 0.19136
9895.0 1.04661 0.1910(31) 106517. 0.16947 0.19114
9905.0 1.04767 0.1854(30) 109420. 0.16940 0.19021
9915.0 1.04873 0.1921(31) 105899. 0.16934 0.18948
9925.0 1.04978 0.1866(30) 108436. 0.16927 0.19004
9935.0 1.05084 0.1894(31) 107091. 0.16920 0.19253
9945.0 1.05190 0.2037(32) 100379. 0.16914 0.19688
9955.0 1.05296 0.2051(32) 99755. 0.16907 0.20216
9965.0 1.05402 0.2025(31) 100951. 0.16900 0.20666
9975.0 1.05508 0.2075(32) 98660. 0.16893 0.20839
9985.0 1.05614 0.2111(32) 97106. 0.16887 0.20635
9995.0 1.05720 0.2045(32) 99851. 0.16880 0.20147
10005.0 1.05825 0.1976(31) 102722. 0.16873 0.19561
10015.0 1.05931 0.1867(30) 107767. 0.16866 0.19029
10025.0 1.06037 0.1876(31) 107282. 0.16860 0.18623
10035.0 1.06143 0.1851(30) 108628. 0.16853 0.18340
10045.0 1.06249 0.1854(30) 108201. 0.16846 0.18132
10055.0 1.06355 0.1813(30) 110223. 0.16839 0.17950
10065.0 1.06461 0.1771(30) 112437. 0.16833 0.17789
10075.0 1.06567 0.1782(30) 111804. 0.16826 0.17661
10085.0 1.06672 0.1747(30) 113774. 0.16819 0.17592
10095.0 1.06778 0.1834(30) 109053. 0.16812 0.17597
10105.0 1.06884 0.1763(30) 112919. 0.16806 0.17673
10115.0 1.06990 0.1781(30) 112050. 0.16799 0.17801
10125.0 1.07096 0.1831(30) 109349. 0.16792 0.17941
10135.0 1.07202 0.1841(30) 108788. 0.16785 0.18034
10145.0 1.07308 0.1826(30) 109487. 0.16779 0.18035
10155.0 1.07414 0.1741(30) 114176. 0.16772 0.17946
10165.0 1.07519 0.1828(30) 109446. 0.16765 0.17811
10175.0 1.07625 0.1816(30) 110146. 0.16758 0.17686
10185.0 1.07731 0.1816(30) 110047. 0.16752 0.17616
10195.0 1.07837 0.1733(30) 114734. 0.16745 0.17629
10205.0 1.07943 0.1784(30) 111856. 0.16738 0.17733
10215.0 1.08049 0.1794(30) 111384. 0.16732 0.17923
10225.0 1.08155 0.1798(30) 111094. 0.16725 0.18183
10235.0 1.08261 0.1892(31) 106215. 0.16718 0.18491
10245.0 1.08366 0.1925(31) 104667. 0.16712 0.18834
10255.0 1.08472 0.1935(31) 104140. 0.16705 0.19230
10265.0 1.08578 0.1973(31) 102180. 0.16699 0.19717
10275.0 1.08684 0.2048(32) 98872. 0.16692 0.20302
10285.0 1.08790 0.2188(33) 93254. 0.16685 0.20914
10295.0 1.08896 0.2120(32) 95876. 0.16679 0.21407
10305.0 1.09002 0.2161(33) 94246. 0.16672 0.21616
10315.0 1.09108 0.2208(33) 92348. 0.16666 0.21474
10325.0 1.09213 0.2100(32) 96531. 0.16659 0.21059
10335.0 1.09319 0.2096(32) 96670. 0.16653 0.20529
10345.0 1.09425 0.2090(32) 96894. 0.16646 0.20026
10355.0 1.09531 0.1998(31) 101066. 0.16640 0.19630
10365.0 1.09637 0.1920(31) 104756. 0.16633 0.19363
10375.0 1.09743 0.1975(31) 102137. 0.16627 0.19240
10385.0 1.09849 0.1956(31) 103049. 0.16621 0.19290
10395.0 1.09955 0.2016(32) 100362. 0.16614 0.19540
10405.0 1.10060 0.2049(32) 98941. 0.16608 0.19983
10415.0 1.10166 0.2100(32) 96847. 0.16602 0.20562
10425.0 1.10272 0.2182(33) 93584. 0.16595 0.21181
10435.0 1.10378 0.2182(33) 93599. 0.16589 0.21733
10445.0 1.10484 0.2237(33) 91556. 0.16583 0.22134
10455.0 1.10590 0.2247(33) 91172. 0.16577 0.22318
10465.0 1.10696 0.2268(33) 90449. 0.16570 0.22206
10475.0 1.10802 0.2199(33) 93047. 0.16564 0.21757
10485.0 1.10907 0.2152(32) 94960. 0.16558 0.21053
10495.0 1.11013 0.2025(32) 100380. 0.16552 0.20275
10505.0 1.11119 0.1949(31) 103885. 0.16546 0.19577
10515.0 1.11225 0.1921(31) 105348. 0.16540 0.19044
10525.0 1.11331 0.1925(31) 105171. 0.16534 0.18697
10535.0 1.11437 0.1864(30) 108214. 0.16528 0.18503
10545.0 1.11543 0.1859(30) 108488. 0.16522 0.18413
10555.0 1.11649 0.1861(30) 108528. 0.16516 0.18392
10565.0 1.11755 0.1892(31) 107070. 0.16510 0.18409
10575.0 1.11860 0.1832(30) 110245. 0.16504 0.18429
10585.0 1.11966 0.1816(30) 111285. 0.16499 0.18424
10595.0 1.12072 0.1853(30) 109469. 0.16493 0.18396
10605.0 1.12178 0.1770(30) 114048. 0.16487 0.18388
10615.0 1.12284 0.1845(30) 109911. 0.16481 0.18440
10625.0 1.12390 0.1845(30) 110020. 0.16476 0.18558
10635.0 1.12496 0.1900(31) 107264. 0.16470 0.18707
10645.0 1.12602 0.1842(30) 110466. 0.16465 0.18808
10655.0 1.12707 0.1839(30) 110725. 0.16459 0.18780
10665.0 1.12813 0.1817(30) 111902. 0.16453 0.18587
10675.0 1.12919 0.1785(30) 113776. 0.16448 0.18269
10685.0 1.13025 0.1720(29) 117662. 0.16443 0.17905
10695.0 1.13131 0.1774(30) 114562. 0.16437 0.17554
10705.0 1.13237 0.1711(29) 118176. 0.16432 0.17262
10715.0 1.13343 0.1698(29) 119033. 0.16426 0.17052
10725.0 1.13449 0.1685(29) 119906. 0.16421 0.16923
10735.0 1.13554 0.1705(29) 118678. 0.16416 0.16864
10745.0 1.13660 0.1633(28) 123311. 0.16411 0.16860
10755.0 1.13766 0.1694(29) 119473. 0.16406 0.16894
10765.0 1.13872 0.1673(29) 120972. 0.16400 0.16950
10775.0 1.13978 0.1724(29) 117907. 0.16395 0.17009
10785.0 1.14084 0.1677(29) 120745. 0.16390 0.17053
10795.0 1.14190 0.1668(29) 121415. 0.16385 0.17069
10805.0 1.14296 0.1730(29) 117659. 0.16380 0.17064
10815.0 1.14402 0.1739(29) 117144. 0.16375 0.17060
10825.0 1.14507 0.1757(29) 116120. 0.16371 0.17086
10835.0 1.14613 0.1726(29) 117937. 0.16366 0.17163
10845.0 1.14719 0.1723(29) 118133. 0.16361 0.17303
10855.0 1.14825 0.1733(29) 117624. 0.16356 0.17496
10865.0 1.14931 0.1788(30) 114401. 0.16351 0.17718
10875.0 1.15037 0.1747(29) 116808. 0.16347 0.17926
10885.0 1.15143 0.1793(30) 113955. 0.16342 0.18074
10895.0 1.15249 0.1843(30) 111229. 0.16338 0.18141
10905.0 1.15354 0.1800(30) 113496. 0.16333 0.18161
10915.0 1.15460 0.1818(30) 112648. 0.16329 0.18200
10925.0 1.15566 0.1788(30) 114242. 0.16324 0.18327
10935.0 1.15672 0.1836(30) 111619. 0.16320 0.18582
10945.0 1.15778 0.1911(30) 107653. 0.16315 0.18966
10955.0 1.15884 0.1951(31) 105775. 0.16311 0.19428
10965.0 1.15990 0.1979(31) 104392. 0.16307 0.19878
10975.0 1.16096 0.2021(31) 102470. 0.16303 0.20212
10985.0 1.16201 0.2072(32) 100226. 0.16299 0.20363
10995.0 1.16307 0.2057(31) 100871. 0.16295 0.20363
11005.0 1.16413 0.2050(31) 101121. 0.16290 0.20290
11015.0 1.16519 0.2034(31) 101975. 0.16286 0.20192
11025.0 1.16625 0.2012(31) 102956. 0.16283 0.20054
11035.0 1.16731 0.1945(31) 106284. 0.16279 0.19819
11045.0 1.16837 0.1945(31) 106242. 0.16275 0.19447
11055.0 1.16943 0.1944(31) 106416. 0.16271 0.18958
11065.0 1.17049 0.1895(30) 108886. 0.16267 0.18421
11075.0 1.17154 0.1752(29) 116757. 0.16264 0.17908
11085.0 1.17260 0.1728(29) 118209. 0.16260 0.17469
11095.0 1.17366 0.1669(29) 121788. 0.16256 0.17123
11105.0 1.17472 0.1675(29) 121453. 0.16253 0.16875
11115.0 1.17578 0.1676(29) 121468. 0.16249 0.16711
11125.0 1.17684 0.1633(28) 124268. 0.16246 0.16608
11135.0 1.17790 0.1645(28) 123472. 0.16242 0.16547
11145.0 1.17896 0.1633(28) 124295. 0.16239 0.16509
11155.0 1.18001 0.1651(28) 123219. 0.16236 0.16483
11165.0 1.18107 0.1600(28) 126666. 0.16232 0.16465
11175.0 1.18213 0.1668(29) 122207. 0.16229 0.16450
11185.0 1.18319 0.1657(29) 122955. 0.16226 0.16438
11195.0 1.18425 0.1665(29) 122520. 0.16223 0.16431
11205.0 1.18531 0.1641(28) 124076. 0.16220 0.16429
11215.0 1.18637 0.1598(28) 126904. 0.16217 0.16433
11225.0 1.18743 0.1628(28) 124834. 0.16214 0.16444
11235.0 1.18849 0.1658(29) 122773. 0.16211 0.16461
11245.0 1.18954 0.1589(28) 127535. 0.16208 0.16480
11255.0 1.19060 0.1675(29) 121832. 0.16205 0.16496
11265.0 1.19166 0.1631(28) 124619. 0.16203 0.16503
11275.0 1.19272 0.1677(29) 121760. 0.16200 0.16501
11285.0 1.19378 0.1646(28) 123797. 0.16197 0.16489
11295.0 1.19484 0.1684(29) 121389. 0.16195 0.16470
11305.0 1.19590 0.1677(29) 121799. 0.16192 0.16446
11315.0 1.19696 0.1624(28) 125406. 0.16190 0.16422
11325.0 1.19802 0.1622(28) 125647. 0.16187 0.16403
11335.0 1.19907 0.1626(28) 125371. 0.16185 0.16390
11345.0 1.20013 0.1674(29) 122153. 0.16183 0.16386
11355.0 1.20119 0.1625(28) 125425. 0.16180 0.16393
11365.0 1.20225 0.1624(28) 125443. 0.16178 0.16414
11375.0 1.20331 0.1561(28) 129824. 0.16176 0.16454
11385.0 1.20437 0.1642(28) 124154. 0.16174 0.16523
11395.0 1.20543 0.1677(29) 122027. 0.16172 0.16634
11405.0 1.20649 0.1688(29) 121372. 0.16170 0.16801
11415.0 1.20754 0.1681(29) 121865. 0.16168 0.17036
11425.0 1.20860 0.1700(29) 120695. 0.16166 0.17343
11435.0 1.20966 0.1792(29) 115281. 0.16164 0.17715
11445.0 1.21072 0.1858(30) 111682. 0.16162 0.18121
11455.0 1.21178 0.1847(30) 112318. 0.16161 0.18517
11465.0 1.21284 0.1869(30) 111234. 0.16159 0.18835
11475.0 1.21390 0.1876(30) 110852. 0.16157 0.19024
11485.0 1.21496 0.1874(30) 111170. 0.16156 0.19055
11495.0 1.21602 0.1853(30) 112302. 0.16154 0.18926
11505.0 1.21707 0.1841(30) 113036. 0.16153 0.18679
11515.0 1.21813 0.1777(29) 116806. 0.16151 0.18383
11525.0 1.21919 0.1846(30) 113079. 0.16150 0.18102
11535.0 1.22025 0.1763(29) 117918. 0.16149 0.17877
11545.0 1.22131 0.1755(29) 118621. 0.16147 0.17719
11555.0 1.22237 0.1766(29) 118186. 0.16146 0.17625
11565.0 1.22343 0.1697(29) 122432. 0.16145 0.17588
11575.0 1.22449 0.1732(29) 120289. 0.16144 0.17618
11585.0 1.22555 0.1749(29) 119238. 0.16143 0.17746
11595.0 1.22660 0.1844(30) 113909. 0.16142 0.18009
11605.0 1.22766 0.1846(30) 113804. 0.16141 0.18439
11615.0 1.22872 0.1930(30) 109577. 0.16140 0.19044
11625.0 1.22978 0.2004(31) 106045. 0.16139 0.19791
11635.0 1.23084 0.2100(31) 101777. 0.16138 0.20603
11645.0 1.23190 0.2144(32) 99938. 0.16137 0.21352
11655.0 1.23296 0.2239(32) 96225. 0.16137 0.21875
11665.0 1.23402 0.2263(32) 95313. 0.16136 0.22022
11675.0 1.23508 0.2185(32) 98424. 0.16136 0.21746
11685.0 1.23613 0.2171(32) 99107. 0.16135 0.21132
11695.0 1.23719 0.2073(31) 103372. 0.16135 0.20338
11705.0 1.23825 0.2003(31) 106680. 0.16134 0.19511
11715.0 1.23931 0.1912(30) 111322. 0.16134 0.18763
11725.0 1.24037 0.1808(29) 117030. 0.16133 0.18157
11735.0 1.24143 0.1787(29) 118437. 0.16133 0.17719
11745.0 1.24249 0.1761(29) 120018. 0.16133 0.17434
11755.0 1.24355 0.1701(28) 123813. 0.16133 0.17275
11765.0 1.24460 0.1729(29) 121928. 0.16132 0.17200
11775.0 1.24566 0.1712(28) 123148. 0.16132 0.17175
11785.0 1.24672 0.1656(28) 126918. 0.16132 0.17174
11795.0 1.24778 0.1694(28) 124601. 0.16132 0.17185
11805.0 1.24884 0.1664(28) 126583. 0.16132 0.17199
11815.0 1.24990 0.1728(29) 122500. 0.16133 0.17215
11825.0 1.25096 0.1690(28) 124986. 0.16133 0.17242
11835.0 1.25202 0.1718(28) 123269. 0.16133 0.17305
11845.0 1.25308 0.1727(29) 122788. 0.16133 0.17448
11855.0 1.25413 0.1738(29) 122169. 0.16133 0.17715
11865.0 1.25519 0.1803(29) 118388. 0.16134 0.18148
11875.0 1.25625 0.1905(30) 112870. 0.16134 0.18772
11885.0 1.25731 0.1962(30) 110043. 0.16135 0.19589
11895.0 1.25837 0.2125(31) 102438. 0.16135 0.20557
11905.0 1.25943 0.2190(32) 99831. 0.16136 0.21589
11915.0 1.26049 0.2258(32) 97190. 0.16136 0.22546
11925.0 1.26155 0.2337(33) 94369. 0.16137 0.23268
11935.0 1.26261 0.2351(33) 94021. 0.16138 0.23631
11945.0 1.26366 0.2395(33) 92471. 0.16138 0.23578
11955.0 1.26472 0.2329(32) 95016. 0.16139 0.23151
11965.0 1.26578 0.2291(32) 96450. 0.16140 0.22479
11975.0 1.26684 0.2187(32) 100700. 0.16141 0.21723
11985.0 1.26790 0.2126(31) 103270. 0.16142 0.21008
11995.0 1.26896 0.1995(30) 109399. 0.16143 0.20395
12005.0 1.27002 0.1986(30) 109863. 0.16144 0.19884
12015.0 1.27108 0.1905(30) 114164. 0.16145 0.19442
12025.0 1.27214 0.1901(30) 114464. 0.16146 0.19031
12035.0 1.27319 0.1847(29) 117442. 0.16147 0.18631
12045.0 1.27425 0.1751(28) 123189. 0.16148 0.18249
12055.0 1.27531 0.1722(28) 124992. 0.16149 0.17906
12065.0 1.27637 0.1737(28) 124026. 0.16151 0.17626
12075.0 1.27743 0.1737(28) 124122. 0.16152 0.17426
12085.0 1.27849 0.1702(28) 126401. 0.16153 0.17314
12095.0 1.27955 0.1735(28) 124355. 0.16155 0.17293
12105.0 1.28061 0.1762(29) 122572. 0.16156 0.17357
12115.0 1.28167 0.1710(28) 126067. 0.16158 0.17494
12125.0 1.28272 0.1750(28) 123644. 0.16159 0.17690
12135.0 1.28378 0.1837(29) 118693. 0.16161 0.17925
12145.0 1.28484 0.1831(29) 119151. 0.16163 0.18173
12155.0 1.28590 0.1775(29) 122572. 0.16164 0.18395
12165.0 1.28696 0.1845(29) 118718. 0.16166 0.18540
12175.0 1.28802 0.1822(29) 120118. 0.16168 0.18562
12185.0 1.28908 0.1826(29) 120059. 0.16170 0.18446
12195.0 1.29014 0.1785(29) 122707. 0.16171 0.18220
12205.0 1.29120 0.1751(28) 125075. 0.16173 0.17939
12215.0 1.29226 0.1719(28) 127131. 0.16175 0.17657
12225.0 1.29331 0.1755(28) 124905. 0.16177 0.17419
12235.0 1.29437 0.1708(28) 128105. 0.16179 0.17253
12245.0 1.29543 0.1714(28) 127605. 0.16181 0.17173
12255.0 1.29649 0.1758(28) 124796. 0.16183 0.17178
12265.0 1.29755 0.1762(28) 124705. 0.16186 0.17254
12275.0 1.29861 0.1732(28) 126700. 0.16188 0.17379
12285.0 1.29967 0.1755(28) 125268. 0.16190 0.17521
12295.0 1.30073 0.1751(28) 125649. 0.16192 0.17645
12305.0 1.30179 0.1728(28) 127332. 0.16194 0.17718
12315.0 1.30284 0.1743(28) 126341. 0.16197 0.17721
12325.0 1.30390 0.1786(28) 123779. 0.16199 0.17665
12335.0 1.30496 0.1733(28) 127162. 0.16202 0.17575
12345.0 1.30602 0.1766(28) 125177. 0.16204 0.17482
12355.0 1.30708 0.1705(28) 129236. 0.16206 0.17407
12365.0 1.30814 0.1754(28) 126079. 0.16209 0.17362
12375.0 1.30920 0.1739(28) 127164. 0.16211 0.17349
12385.0 1.31026 0.1697(28) 130123. 0.16214 0.17367
12395.0 1.31132 0.1748(28) 126810. 0.16217 0.17415
12405.0 1.31237 0.1723(28) 128552. 0.16219 0.17497
12415.0 1.31343 0.1735(28) 127742. 0.16222 0.17633
12425.0 1.31449 0.1811(29) 122908. 0.16225 0.17852
12435.0 1.31555 0.1781(28) 124762. 0.16228 0.18187
12445.0 1.31661 0.1858(29) 120211. 0.16230 0.18655
12455.0 1.31767 0.1954(30) 114899. 0.16233 0.19253
12465.0 1.31873 0.1977(30) 113856. 0.16236 0.19945
12475.0 1.31979 0.2056(30) 109981. 0.16239 0.20657
12485.0 1.32085 0.2131(31) 106438. 0.16242 0.21286
12495.0 1.32190 0.2197(31) 103617. 0.16245 0.21705
12505.0 1.32296 0.2179(31) 104326. 0.16248 0.21816
12515.0 1.32402 0.2205(31) 103285. 0.16251 0.21599
12525.0 1.32508 0.2118(31) 107264. 0.16254 0.21120
12535.0 1.32614 0.2059(30) 110205. 0.16257 0.20482
12545.0 1.32720 0.2054(30) 110469. 0.16260 0.19785
12555.0 1.32826 0.1966(29) 114975. 0.16263 0.19115
12565.0 1.32932 0.1890(29) 119213. 0.16267 0.18525
12575.0 1.33038 0.1840(29) 122295. 0.16270 0.18058
12585.0 1.33144 0.1762(28) 127218. 0.16273 0.17717
12595.0 1.33249 0.1769(28) 126941. 0.16276 0.17506
12605.0 1.33355 0.1750(28) 128220. 0.16280 0.17408
12615.0 1.33461 0.1746(28) 128501. 0.16283 0.17402
12625.0 1.33567 0.1713(28) 130616. 0.16286 0.17463
12635.0 1.33673 0.1750(28) 128163. 0.16290 0.17563
12645.0 1.33779 0.1734(28) 129191. 0.16293 0.17672
12655.0 1.33885 0.1785(28) 126033. 0.16297 0.17761
12665.0 1.33991 0.1785(28) 126270. 0.16300 0.17809
12675.0 1.34097 0.1779(28) 126704. 0.16304 0.17816
12685.0 1.34202 0.1774(28) 127127. 0.16307 0.17803
12695.0 1.34308 0.1798(28) 125720. 0.16311 0.17802
12705.0 1.34414 0.1842(28) 123125. 0.16314 0.17842
12715.0 1.34520 0.1839(28) 123260. 0.16318 0.17936
12725.0 1.34626 0.1818(28) 124637. 0.16322 0.18090
12735.0 1.34732 0.1798(28) 125900. 0.16325 0.18282
12745.0 1.34838 0.1925(29) 118408. 0.16329 0.18479
12755.0 1.34944 0.1826(28) 124276. 0.16333 0.18636
12765.0 1.35050 0.1851(29) 122822. 0.16336 0.18711
12775.0 1.35156 0.1885(29) 120954. 0.16340 0.18681
12785.0 1.35261 0.1865(29) 122148. 0.16344 0.18539
12795.0 1.35367 0.1807(28) 125752. 0.16348 0.18307
12805.0 1.35473 0.1771(28) 128154. 0.16352 0.18024
12815.0 1.35579 0.1803(28) 126055. 0.16356 0.17731
12825.0 1.35685 0.1758(28) 129087. 0.16359 0.17456
12835.0 1.35791 0.1729(28) 131096. 0.16363 0.17222
12845.0 1.35897 0.1695(27) 133355. 0.16367 0.17033
12855.0 1.36003 0.1681(27) 134359. 0.16371 0.16891
12865.0 1.36109 0.1656(27) 136106. 0.16375 0.16787
12875.0 1.36214 0.1690(27) 133887. 0.16379 0.16709
12885.0 1.36320 0.1674(27) 135076. 0.16383 0.16655
12895.0 1.36426 0.1692(27) 133899. 0.16387 0.16615
12905.0 1.36532 0.1705(27) 132942. 0.16391 0.16585
12915.0 1.36638 0.1676(27) 135000. 0.16396 0.16562
12925.0 1.36744 0.1647(27) 137240. 0.16400 0.16545
12935.0 1.36850 0.1651(27) 137134. 0.16404 0.16532
12945.0 1.36956 0.1678(27) 135216. 0.16408 0.16523
12955.0 1.37062 0.1671(27) 135819. 0.16412 0.16517
12965.0 1.37168 0.1634(27) 138588. 0.16416 0.16513
12975.0 1.37273 0.1688(27) 134755. 0.16421 0.16511
12985.0 1.37379 0.1671(27) 136025. 0.16425 0.16511
12995.0 1.37485 0.1625(27) 139551. 0.16429 0.16511
13005.0 1.37591 0.1661(27) 137107. 0.16433 0.16512
13015.0 1.37697 0.1689(27) 135095. 0.16438 0.16514
13025.0 1.37803 0.1657(27) 137473. 0.16442 0.16516
13035.0 1.37909 0.1644(27) 138463. 0.16446 0.16519
13045.0 1.38015 0.1688(27) 135255. 0.16450 0.16522
13055.0 1.38121 0.1659(27) 137472. 0.16455 0.16525
13065.0 1.38226 0.1638(27) 139126. 0.16459 0.16529
13075.0 1.38332 0.1621(27) 140451. 0.16464 0.16532
13085.0 1.38438 0.1600(27) 142227. 0.16468 0.16537
13095.0 1.38544 0.1619(27) 140774. 0.16472 0.16540
13105.0 1.38650 0.1661(27) 137511. 0.16477 0.16545
13115.0 1.38756 0.1613(27) 141292. 0.16481 0.16550
13125.0 1.38862 0.1649(27) 138752. 0.16486 0.16555
13135.0 1.38968 0.1649(27) 138873. 0.16490 0.16560
13145.0 1.39074 0.1677(27) 136739. 0.16495 0.16566
13155.0 1.39180 0.1668(27) 137577. 0.16499 0.16572
13165.0 1.39285 0.1672(27) 137255. 0.16504 0.16578
13175.0 1.39391 0.1660(27) 138143. 0.16508 0.16585
13185.0 1.39497 0.1637(27) 139929. 0.16513 0.16592
13195.0 1.39603 0.1692(27) 136017. 0.16517 0.16600
13205.0 1.39709 0.1692(27) 136059. 0.16522 0.16608
13215.0 1.39815 0.1713(27) 134568. 0.16526 0.16616
13225.0 1.39921 0.1690(27) 136206. 0.16531 0.16626
13235.0 1.40027 0.1711(27) 134801. 0.16535 0.16636
13245.0 1.40133 0.1670(27) 137770. 0.16540 0.16647
13255.0 1.40239 0.1666(27) 138015. 0.16545 0.16660
13265.0 1.40344 0.1699(27) 135584. 0.16549 0.16674
13275.0 1.40450 0.1638(27) 140073. 0.16554 0.16693
13285.0 1.40556 0.1703(27) 135397. 0.16559 0.16716
13295.0 1.40662 0.1691(27) 136341. 0.16563 0.16748
13305.0 1.40768 0.1715(27) 134592. 0.16568 0.16792
13315.0 1.40874 0.1639(27) 140134. 0.16572 0.16856
13325.0 1.40980 0.1703(27) 135510. 0.16577 0.16945
13335.0 1.41086 0.1743(27) 133004. 0.16582 0.17069
13345.0 1.41192 0.1770(28) 131373. 0.16587 0.17233
13355.0 1.41298 0.1734(27) 133914. 0.16591 0.17449
13365.0 1.41403 0.1771(28) 131457. 0.16596 0.17703
13375.0 1.41509 0.1797(28) 129933. 0.16601 0.17994
13385.0 1.41615 0.1797(28) 130190. 0.16605 0.18307
13395.0 1.41721 0.1862(28) 126179. 0.16610 0.18616
13405.0 1.41827 0.1875(28) 125545. 0.16615 0.18891
13415.0 1.41933 0.1934(29) 122077. 0.16619 0.19095
13425.0 1.42039 0.1920(29) 122676. 0.16624 0.19208
13435.0 1.42145 0.1921(29) 122665. 0.16629 0.19231
13445.0 1.42251 0.1936(29) 121866. 0.16634 0.19186
13455.0 1.42357 0.1935(29) 121909. 0.16638 0.19103
13465.0 1.42462 0.1855(28) 126540. 0.16643 0.19007
13475.0 1.42568 0.1931(29) 122223. 0.16648 0.18913
13485.0 1.42674 0.1863(28) 126479. 0.16653 0.18837
13495.0 1.42780 0.1908(28) 123719. 0.16657 0.18782
13505.0 1.42886 0.1865(28) 126299. 0.16662 0.18757
13515.0 1.42992 0.1944(29) 121750. 0.16667 0.18757
13525.0 1.43098 0.1853(28) 127203. 0.16672 0.18768
13535.0 1.43204 0.1866(28) 126284. 0.16677 0.18762
13545.0 1.43310 0.1889(28) 125063. 0.16681 0.18724
13555.0 1.43416 0.1879(28) 125740. 0.16686 0.18632
13565.0 1.43521 0.1815(28) 129904. 0.16691 0.18490
13575.0 1.43627 0.1847(28) 127921. 0.16696 0.18313
13585.0 1.43733 0.1801(28) 130991. 0.16700 0.18129
13595.0 1.43839 0.1806(28) 130808. 0.16705 0.17964
13605.0 1.43945 0.1736(27) 135608. 0.16710 0.17837
13615.0 1.44051 0.1815(28) 130399. 0.16715 0.17765
13625.0 1.44157 0.1772(27) 133271. 0.16720 0.17754
13635.0 1.44263 0.1821(28) 130136. 0.16724 0.17804
13645.0 1.44369 0.1792(28) 132162. 0.16729 0.17908
13655.0 1.44475 0.1796(28) 131987. 0.16734 0.18053
13665.0 1.44580 0.1849(28) 128632. 0.16739 0.18215
13675.0 1.44686 0.1844(28) 129062. 0.16743 0.18374
13685.0 1.44792 0.1855(28) 128458. 0.16748 0.18504
13695.0 1.44898 0.1877(28) 127061. 0.16753 0.18585
13705.0 1.45004 0.1891(28) 126274. 0.16758 0.18605
13715.0 1.45110 0.1956(29) 122517. 0.16763 0.18567
13725.0 1.45216 0.1869(28) 127851. 0.16767 0.18472
13735.0 1.45322 0.1870(28) 127853. 0.16772 0.18331
13745.0 1.45428 0.1819(28) 131147. 0.16777 0.18159
13755.0 1.45534 0.1793(27) 132992. 0.16782 0.17975
13765.0 1.45639 0.1843(28) 129870. 0.16786 0.17798
13775.0 1.45745 0.1788(27) 133513. 0.16791 0.17639
13785.0 1.45851 0.1748(27) 136336. 0.16796 0.17508
13795.0 1.45957 0.1705(27) 139581. 0.16801 0.17409
13805.0 1.46063 0.1693(27) 140681. 0.16805 0.17341
13815.0 1.46169 0.1691(27) 140997. 0.16810 0.17306
13825.0 1.46275 0.1780(27) 134733. 0.16815 0.17305
13835.0 1.46381 0.1687(27) 141611. 0.16820 0.17340
13845.0 1.46487 0.1731(27) 138642. 0.16824 0.17419
13855.0 1.46593 0.1775(27) 135827. 0.16829 0.17552
13865.0 1.46698 0.1765(27) 136638. 0.16834 0.17757
13875.0 1.46804 0.1778(27) 135914. 0.16838 0.18052
13885.0 1.46910 0.1817(27) 133452. 0.16843 0.18454
13895.0 1.47016 0.1860(28) 130805. 0.16848 0.18977
13905.0 1.47122 0.1951(28) 125509. 0.16853 0.19622
13915.0 1.47228 0.2036(29) 120884. 0.16857 0.20371
13925.0 1.47334 0.2138(29) 115704. 0.16862 0.21189
13935.0 1.47440 0.2181(30) 113701. 0.16867 0.21998
13945.0 1.47546 0.2213(30) 112442. 0.16871 0.22741
13955.0 1.47652 0.2324(30) 107592. 0.16876 0.23301
13965.0 1.47758 0.2288(30) 109280. 0.16881 0.23585
13975.0 1.47863 0.2350(31) 106703. 0.16885 0.23539
13985.0 1.47969 0.2284(30) 109573. 0.16890 0.23175
13995.0 1.48075 0.2252(30) 111086. 0.16894 0.22564
14005.0 1.48181 0.2190(30) 114094. 0.16899 0.21808
14015.0 1.48287 0.2083(29) 119608. 0.16904 0.21004
14025.0 1.48393 0.2038(29) 122182. 0.16908 0.20233
14035.0 1.48499 0.1934(28) 128278. 0.16913 0.19550
14045.0 1.48605 0.1905(28) 130234. 0.16917 0.18989
14055.0 1.48711 0.1839(27) 134686. 0.16922 0.18562
14065.0 1.48817 0.1841(27) 134771. 0.16927 0.18265
14075.0 1.48922 0.1801(27) 137627. 0.16931 0.18085
14085.0 1.49028 0.1868(27) 133289. 0.16936 0.18001
14095.0 1.49134 0.1847(27) 134708. 0.16940 0.17986
14105.0 1.49240 0.1735(26) 142596. 0.16945 0.18022
14115.0 1.49346 0.1737(26) 142754. 0.16949 0.18082
14125.0 1.49452 0.1806(27) 138060. 0.16954 0.18145
14135.0 1.49558 0.1773(27) 140509. 0.16958 0.18191
14145.0 1.49664 0.1822(27) 137134. 0.16963 0.18206
14155.0 1.49770 0.1767(27) 140947. 0.16967 0.18186
14165.0 1.49876 0.1781(27) 140068. 0.16972 0.18137
14175.0 1.49981 0.1797(27) 139061. 0.16976 0.18071
14185.0 1.50087 0.1720(26) 144799. 0.16981 0.18008
14195.0 1.50193 0.1766(27) 141475. 0.16985 0.17957
14205.0 1.50299 0.1730(26) 144230. 0.16989 0.17930
14215.0 1.50405 0.1778(27) 140856. 0.16994 0.17933
14225.0 1.50511 0.1776(27) 141097. 0.16998 0.17962
14235.0 1.50617 0.1813(27) 138462. 0.17003 0.18018
14245.0 1.50723 0.1754(26) 142945. 0.17007 0.18086
14255.0 1.50829 0.1795(27) 140052. 0.17011 0.18154
14265.0 1.50935 0.1814(27) 138807. 0.17016 0.18208
14275.0 1.51041 0.1814(27) 138790. 0.17020 0.18230
14285.0 1.51146 0.1816(27) 138664. 0.17024 0.18215
14295.0 1.51252 0.1754(26) 143163. 0.17029 0.18164
14305.0 1.51358 0.1795(27) 140118. 0.17033 0.18088
14315.0 1.51464 0.1764(26) 142495. 0.17037 0.17998
14325.0 1.51570 0.1807(27) 139523. 0.17041 0.17909
14335.0 1.51676 0.1734(26) 145019. 0.17046 0.17825
14345.0 1.51782 0.1763(26) 143074. 0.17050 0.17756
14355.0 1.51888 0.1678(26) 149856. 0.17054 0.17704
14365.0 1.51994 0.1785(27) 141747. 0.17058 0.17674
14375.0 1.52100 0.1717(26) 146938. 0.17063 0.17666
14385.0 1.52206 0.1749(26) 144424. 0.17067 0.17680
14395.0 1.52311 0.1748(26) 144599. 0.17071 0.17720
14405.0 1.52417 0.1745(26) 144999. 0.17075 0.17791
14415.0 1.52523 0.1837(27) 138440. 0.17079 0.17902
14425.0 1.52629 0.1770(26) 143286. 0.17083 0.18068
14435.0 1.52735 0.1814(27) 140251. 0.17088 0.18309
14445.0 1.52841 0.1856(27) 137483. 0.17092 0.18653
14455.0 1.52947 0.1914(27) 133616. 0.17096 0.19131
14465.0 1.53053 0.1952(28) 131297. 0.17100 0.19774
14475.0 1.53159 0.2067(28) 124684. 0.17104 0.20601
14485.0 1.53265 0.2126(29) 121448. 0.17108 0.21646
14495.0 1.53370 0.2311(30) 112579. 0.17112 0.22906
14505.0 1.53476 0.2427(30) 107672. 0.17116 0.24360
14515.0 1.53582 0.2558(31) 102564. 0.17120 0.25956
14525.0 1.53688 0.2781(32) 94872. 0.17124 0.27610
14535.0 1.53794 0.2898(33) 91349. 0.17128 0.29193
14545.0 1.53900 0.2948(33) 89932. 0.17132 0.30586
14555.0 1.54006 0.3122(34) 85152. 0.17136 0.31658
14565.0 1.54112 0.3169(35) 83964. 0.17140 0.32334
14575.0 1.54218 0.3227(35) 82493. 0.17144 0.32596
14585.0 1.54324 0.3189(35) 83406. 0.17148 0.32456
14595.0 1.54430 0.3124(34) 85044. 0.17151 0.31930
14605.0 1.54535 0.3100(34) 85713. 0.17155 0.31037
14615.0 1.54641 0.3021(34) 87801. 0.17159 0.29821
14625.0 1.54747 0.2859(33) 92462. 0.17163 0.28371
14635.0 1.54853 0.2750(32) 95852. 0.17167 0.26801
14645.0 1.54959 0.2617(32) 100479. 0.17171 0.25228
14655.0 1.55065 0.2366(30) 110430. 0.17174 0.23747
14665.0 1.55171 0.2307(30) 112915. 0.17178 0.22426
14675.0 1.55277 0.2230(29) 116471. 0.17182 0.21290
14685.0 1.55383 0.2084(28) 124041. 0.17186 0.20356
14695.0 1.55489 0.2003(28) 128707. 0.17189 0.19616
14705.0 1.55595 0.1950(28) 131925. 0.17193 0.19050
14715.0 1.55700 0.1896(27) 135251. 0.17197 0.18630
14725.0 1.55806 0.1913(27) 134358. 0.17200 0.18326
14735.0 1.55912 0.1824(27) 140526. 0.17204 0.18111
14745.0 1.56018 0.1816(27) 141135. 0.17208 0.17961
14755.0 1.56124 0.1809(27) 141597. 0.17211 0.17855
14765.0 1.56230 0.1799(27) 142371. 0.17215 0.17780
14775.0 1.56336 0.1789(26) 143031. 0.17218 0.17727
14785.0 1.56442 0.1772(26) 144447. 0.17222 0.17687
14795.0 1.56548 0.1765(26) 144960. 0.17225 0.17656
14805.0 1.56654 0.1809(27) 141836. 0.17229 0.17633
14815.0 1.56760 0.1799(26) 142485. 0.17232 0.17616
14825.0 1.56865 0.1771(26) 144622. 0.17236 0.17603
14835.0 1.56971 0.1818(27) 141255. 0.17239 0.17595
14845.0 1.57077 0.1790(26) 143274. 0.17243 0.17592
14855.0 1.57183 0.1782(26) 143966. 0.17246 0.17593
14865.0 1.57289 0.1708(26) 149732. 0.17250 0.17600
14875.0 1.57395 0.1739(26) 147398. 0.17253 0.17612
14885.0 1.57501 0.1795(26) 143284. 0.17257 0.17630
14895.0 1.57607 0.1767(26) 145294. 0.17260 0.17654
14905.0 1.57713 0.1770(26) 145216. 0.17263 0.17683
14915.0 1.57819 0.1743(26) 147355. 0.17267 0.17719
14925.0 1.57925 0.1866(27) 138428. 0.17270 0.17760
14935.0 1.58030 0.1749(26) 146796. 0.17273 0.17806
14945.0 1.58136 0.1787(26) 144089. 0.17277 0.17856
14955.0 1.58242 0.1770(26) 145419. 0.17280 0.17912
14965.0 1.58348 0.1803(26) 143018. 0.17283 0.17972
14975.0 1.58454 0.1843(27) 140179. 0.17286 0.18039
14985.0 1.58560 0.1814(27) 142182. 0.17289 0.18113
14995.0 1.58666 0.1773(26) 145217. 0.17293 0.18192
15005.0 1.58772 0.1822(27) 141732. 0.17296 0.18273
15015.0 1.58878 0.1817(27) 142289. 0.17299 0.18351
15025.0 1.58984 0.1855(27) 139784. 0.17302 0.18417
15035.0 1.59090 0.1814(26) 142644. 0.17305 0.18462
15045.0 1.59196 0.1809(26) 143104. 0.17308 0.18481
15055.0 1.59301 0.1849(27) 140210. 0.17312 0.18474
15065.0 1.59407 0.1837(27) 140960. 0.17315 0.18447
15075.0 1.59513 0.1857(27) 139620. 0.17318 0.18411
15085.0 1.59619 0.1858(27) 139608. 0.17321 0.18383
15095.0 1.59725 0.1903(27) 136677. 0.17324 0.18378
15105.0 1.59831 0.1865(27) 139368. 0.17327 0.18412
15115.0 1.59937 0.1851(27) 140360. 0.17330 0.18496
15125.0 1.60043 0.1900(27) 137091. 0.17333 0.18650
15135.0 1.60149 0.1904(27) 136769. 0.17336 0.18877
15145.0 1.60255 0.1982(28) 131816. 0.17339 0.19177
15155.0 1.60361 0.2014(28) 129849. 0.17342 0.19545
15165.0 1.60466 0.2014(28) 129830. 0.17344 0.19965
15175.0 1.60572 0.2053(28) 127474. 0.17347 0.20411
15185.0 1.60678 0.2121(28) 123753. 0.17350 0.20849
15195.0 1.60784 0.2108(28) 124602. 0.17353 0.21234
15205.0 1.60890 0.2140(29) 122839. 0.17356 0.21520
15215.0 1.60996 0.2138(29) 123093. 0.17359 0.21664
15225.0 1.61102 0.2148(29) 122632. 0.17362 0.21643
15235.0 1.61208 0.2128(28) 123823. 0.17364 0.21462
15245.0 1.61314 0.2100(28) 125428. 0.17367 0.21151
15255.0 1.61420 0.2071(28) 126969. 0.17370 0.20752
15265.0 1.61526 0.1976(27) 132743. 0.17373 0.20309
15275.0 1.61631 0.1969(27) 133215. 0.17375 0.19862
15285.0 1.61737 0.1955(27) 134143. 0.17378 0.19440
15295.0 1.61843 0.1890(27) 138500. 0.17381 0.19065
15305.0 1.61949 0.1849(27) 141280. 0.17383 0.18749
15315.0 1.62055 0.1906(27) 137337. 0.17386 0.18494
15325.0 1.62161 0.1813(26) 143850. 0.17389 0.18299
15335.0 1.62267 0.1859(27) 140541. 0.17391 0.18157
15345.0 1.62373 0.1852(27) 140851. 0.17394 0.18062
15355.0 1.62479 0.1828(26) 142626. 0.17396 0.18004
15365.0 1.62585 0.1843(27) 141567. 0.17399 0.17978
15375.0 1.62691 0.1852(27) 141082. 0.17402 0.17979
15385.0 1.62797 0.1820(26) 143497. 0.17404 0.18008
15395.0 1.62902 0.1837(27) 142336. 0.17407 0.18064
15405.0 1.63008 0.1798(26) 145377. 0.17409 0.18153
15415.0 1.63114 0.1836(26) 142696. 0.17412 0.18284
15425.0 1.63220 0.1814(26) 144276. 0.17414 0.18459
15435.0 1.63326 0.1897(27) 138690. 0.17417 0.18687
15445.0 1.63432 0.1914(27) 137671. 0.17419 0.18977
15455.0 1.63538 0.1958(27) 134888. 0.17421 0.19330
15465.0 1.63644 0.1973(27) 134115. 0.17424 0.19747
15475.0 1.63750 0.2041(28) 130037. 0.17426 0.20220
15485.0 1.63856 0.2073(28) 128260. 0.17429 0.20738
15495.0 1.63962 0.2154(28) 123740. 0.17431 0.21283
15505.0 1.64068 0.2212(29) 120712. 0.17433 0.21828
15515.0 1.64173 0.2279(29) 117402. 0.17436 0.22347
15525.0 1.64279 0.2283(29) 117360. 0.17438 0.22816
15535.0 1.64385 0.2321(29) 115719. 0.17440 0.23223
15545.0 1.64491 0.2426(30) 111047. 0.17443 0.23577
15555.0 1.64597 0.2401(30) 112303. 0.17445 0.23903
15565.0 1.64703 0.2450(30) 110230. 0.17447 0.24232
15575.0 1.64809 0.2502(30) 108004. 0.17449 0.24589
15585.0 1.64915 0.2441(30) 110480. 0.17452 0.24988
15595.0 1.65021 0.2562(31) 105627. 0.17454 0.25424
15605.0 1.65127 0.2560(31) 105716. 0.17456 0.25876
15615.0 1.65233 0.2656(31) 102173. 0.17458 0.26325
15625.0 1.65338 0.2670(31) 101726. 0.17460 0.26718
15635.0 1.65444 0.2675(31) 101448. 0.17463 0.27040
15645.0 1.65550 0.2761(32) 98427. 0.17465 0.27264
15655.0 1.65656 0.2712(32) 100104. 0.17467 0.27360
15665.0 1.65762 0.2782(32) 97710. 0.17469 0.27296
15675.0 1.65868 0.2759(32) 98514. 0.17471 0.27052
15685.0 1.65974 0.2626(31) 103365. 0.17473 0.26596
15695.0 1.66080 0.2589(31) 104770. 0.17475 0.25948
15705.0 1.66186 0.2533(31) 107020. 0.17477 0.25162
15715.0 1.66292 0.2472(30) 109563. 0.17479 0.24289
15725.0 1.66398 0.2352(30) 114874. 0.17481 0.23387
15735.0 1.66504 0.2242(29) 120288. 0.17483 0.22510
15745.0 1.66609 0.2228(29) 121049. 0.17485 0.21695
15755.0 1.66715 0.2146(28) 125435. 0.17487 0.20981
15765.0 1.66821 0.2045(28) 131102. 0.17489 0.20381
15775.0 1.66927 0.1999(27) 133834. 0.17491 0.19898
15785.0 1.67033 0.1970(27) 135627. 0.17493 0.19528
15795.0 1.67139 0.1943(27) 137294. 0.17495 0.19262
15805.0 1.67245 0.1905(27) 139981. 0.17497 0.19082
15815.0 1.67351 0.1915(27) 139377. 0.17499 0.18972
15825.0 1.67457 0.1914(27) 139472. 0.17501 0.18914
15835.0 1.67563 0.1919(27) 139176. 0.17503 0.18893
15845.0 1.67669 0.1890(27) 141219. 0.17505 0.18896
15855.0 1.67775 0.1925(27) 138871. 0.17507 0.18915
15865.0 1.67880 0.1866(26) 142936. 0.17508 0.18950
15875.0 1.67986 0.1928(27) 138611. 0.17510 0.19009
15885.0 1.68092 0.1928(27) 138772. 0.17512 0.19103
15895.0 1.68198 0.1954(27) 137219. 0.17514 0.19253
15905.0 1.68304 0.1928(27) 139057. 0.17516 0.19476
15915.0 1.68410 0.1953(27) 137611. 0.17517 0.19792
15925.0 1.68516 0.2019(27) 133588. 0.17519 0.20216
15935.0 1.68622 0.2037(27) 132427. 0.17521 0.20758
15945.0 1.68728 0.2126(28) 127306. 0.17523 0.21415
15955.0 1.68834 0.2200(28) 123187. 0.17525 0.22180
15965.0 1.68940 0.2298(29) 118216. 0.17526 0.23011
15975.0 1.69046 0.2379(30) 114424. 0.17528 0.23869
15985.0 1.69151 0.2491(30) 109573. 0.17530 0.24694
15995.0 1.69257 0.2467(30) 110680. 0.17531 0.25413
16005.0 1.69363 0.2571(31) 106454. 0.17533 0.25945
16015.0 1.69469 0.2625(31) 104254. 0.17535 0.26224
16025.0 1.69575 0.2603(31) 105048. 0.17536 0.26209
16035.0 1.69681 0.2534(30) 107643. 0.17538 0.25902
16045.0 1.69787 0.2496(30) 109256. 0.17540 0.25346
16055.0 1.69893 0.2428(30) 112146. 0.17541 0.24608
16065.0 1.69999 0.2423(30) 112462. 0.17543 0.23764
16075.0 1.70105 0.2267(29) 119802. 0.17545 0.22880
16085.0 1.70211 0.2152(28) 125868. 0.17546 0.22016
16095.0 1.70317 0.2144(28) 126253. 0.17548 0.21214
16105.0 1.70423 0.2045(28) 131900. 0.17550 0.20504
16115.0 1.70528 0.2021(27) 133342. 0.17551 0.19899
16125.0 1.70634 0.1939(27) 138598. 0.17553 0.19402
16135.0 1.70740 0.1916(27) 140050. 0.17554 0.19008
16145.0 1.70846 0.1896(27) 141302. 0.17556 0.18704
16155.0 1.70952 0.1843(26) 144998. 0.17557 0.18476
16165.0 1.71058 0.1886(27) 141830. 0.17559 0.18308
16175.0 1.71164 0.1810(26) 147206. 0.17561 0.18187
16185.0 1.71270 0.1840(26) 144740. 0.17562 0.18100
16195.0 1.71376 0.1796(26) 148018. 0.17564 0.18037
16205.0 1.71482 0.1802(26) 147545. 0.17565 0.17992
16215.0 1.71588 0.1807(26) 147151. 0.17567 0.17958
16225.0 1.71694 0.1788(26) 148658. 0.17568 0.17933
16235.0 1.71799 0.1819(26) 146259. 0.17570 0.17913
16245.0 1.71905 0.1769(26) 150045. 0.17571 0.17898
16255.0 1.72011 0.1824(26) 145552. 0.17573 0.17885
16265.0 1.72117 0.1781(26) 148571. 0.17574 0.17874
16275.0 1.72223 0.1835(26) 144473. 0.17575 0.17865
16285.0 1.72329 0.1784(26) 148372. 0.17577 0.17858
16295.0 1.72435 0.1773(26) 149267. 0.17578 0.17851
16305.0 1.72541 0.1783(26) 148469. 0.17580 0.17846
16315.0 1.72647 0.1757(26) 150547. 0.17581 0.17842
16325.0 1.72753 0.1779(26) 148623. 0.17583 0.17839
16335.0 1.72859 0.1771(26) 149168. 0.17584 0.17836
16345.0 1.72965 0.1824(26) 145077. 0.17586 0.17834
16355.0 1.73071 0.1824(26) 145007. 0.17587 0.17833
16365.0 1.73176 0.1759(26) 149802. 0.17588 0.17833
16375.0 1.73282 0.1785(26) 147797. 0.17590 0.17833
16385.0 1.73388 0.1799(26) 146646. 0.17591 0.17833
16395.0 1.73494 0.1746(26) 150681. 0.17593 0.17834
16405.0 1.73600 0.1762(26) 149538. 0.17594 0.17836
16415.0 1.73706 0.1821(26) 144986. 0.17595 0.17838
16425.0 1.73812 0.1774(26) 148618. 0.17597 0.17841
16435.0 1.73918 0.1718(26) 153175. 0.17598 0.17841
16445.0 1.74024 0.1758(26) 149744. 0.17599 0.17845
16455.0 1.74130 0.1798(26) 146524. 0.17601 0.17849
16465.0 1.74236 0.1754(26) 149692. 0.17602 0.17853
16475.0 1.74342 0.1779(26) 147674. 0.17604 0.17858
16485.0 1.74448 0.1791(26) 146784. 0.17605 0.17864
16495.0 1.74553 0.1794(26) 146390. 0.17606 0.17870
16505.0 1.74659 0.1750(26) 149730. 0.17608 0.17877
16515.0 1.74765 0.1709(26) 153072. 0.17609 0.17885
16525.0 1.74871 0.1765(26) 148486. 0.17610 0.17893
16535.0 1.74977 0.1800(26) 145895. 0.17612 0.17902
16545.0 1.75083 0.1714(26) 152635. 0.17613 0.17911
16555.0 1.75189 0.1796(26) 146218. 0.17614 0.17921
16565.0 1.75295 0.1774(26) 147771. 0.17616 0.17933
16575.0 1.75401 0.1755(26) 149289. 0.17617 0.17945
16585.0 1.75507 0.1788(26) 146682. 0.17618 0.17959
16595.0 1.75613 0.1800(26) 145692. 0.17620 0.17973
16605.0 1.75719 0.1819(26) 144191. 0.17621 0.17990
16615.0 1.75824 0.1728(26) 151244. 0.17622 0.18008
16625.0 1.75930 0.1811(26) 144669. 0.17624 0.18028
16635.0 1.76036 0.1802(26) 145158. 0.17625 0.18052
16645.0 1.76142 0.1776(26) 147117. 0.17626 0.18080
16655.0 1.76248 0.1760(26) 148245. 0.17628 0.18113
16665.0 1.76354 0.1776(26) 146830. 0.17629 0.18155
16675.0 1.76460 0.1814(26) 143836. 0.17630 0.18209
16685.0 1.76566 0.1774(26) 146773. 0.17631 0.18278
16695.0 1.76672 0.1830(26) 142440. 0.17633 0.18369
16705.0 1.76778 0.1829(26) 142509. 0.17634 0.18490
16715.0 1.76884 0.1849(27) 140842. 0.17635 0.18647
16725.0 1.76990 0.1850(27) 140796. 0.17637 0.18851
16735.0 1.77096 0.1873(27) 139108. 0.17638 0.19110
16745.0 1.77201 0.1921(27) 136016. 0.17639 0.19432
16755.0 1.77307 0.1930(27) 135184. 0.17641 0.19823
16765.0 1.77413 0.2029(28) 128891. 0.17642 0.20284
16775.0 1.77519 0.2082(28) 125605. 0.17643 0.20811
16785.0 1.77625 0.2135(29) 122566. 0.17645 0.21392
16795.0 1.77731 0.2188(29) 119720. 0.17646 0.22008
16805.0 1.77837 0.2262(29) 115940. 0.17647 0.22631
16815.0 1.77943 0.2244(29) 116652. 0.17648 0.23228
16825.0 1.78049 0.2317(30) 113014. 0.17650 0.23756
16835.0 1.78155 0.2383(30) 109947. 0.17651 0.24170
16845.0 1.78261 0.2446(31) 107235. 0.17652 0.24441
16855.0 1.78367 0.2422(30) 108187. 0.17654 0.24547
16865.0 1.78473 0.2444(31) 107100. 0.17655 0.24493
16875.0 1.78579 0.2404(30) 108740. 0.17656 0.24310
16885.0 1.78684 0.2400(30) 108762. 0.17658 0.24044
16895.0 1.78790 0.2332(30) 111649. 0.17659 0.23755
16905.0 1.78896 0.2338(30) 111290. 0.17660 0.23504
16915.0 1.79002 0.2267(30) 114434. 0.17662 0.23345
16925.0 1.79108 0.2363(30) 110011. 0.17663 0.23337
16935.0 1.79214 0.2296(30) 113000. 0.17664 0.23522
16945.0 1.79320 0.2411(30) 107881. 0.17666 0.23931
16955.0 1.79426 0.2433(31) 106879. 0.17667 0.24581
16965.0 1.79532 0.2535(31) 102604. 0.17668 0.25475
16975.0 1.79638 0.2682(32) 97030. 0.17670 0.26590
16985.0 1.79744 0.2820(33) 92448. 0.17671 0.27897
16995.0 1.79850 0.2957(34) 88388. 0.17672 0.29334
17005.0 1.79956 0.3059(34) 85463. 0.17674 0.30828
17015.0 1.80061 0.3218(35) 81351. 0.17675 0.32285
17025.0 1.80167 0.334(4) 78382. 0.1768 0.3360
17035.0 1.80273 0.344(4) 76174. 0.1768 0.3469
17045.0 1.80379 0.360(4) 72842. 0.1768 0.3546
17055.0 1.80485 0.353(4) 74164. 0.1768 0.3590
17065.0 1.80591 0.362(4) 72446. 0.1768 0.3602
17075.0 1.80697 0.353(4) 74251. 0.1768 0.3591
17085.0 1.80803 0.351(4) 74534. 0.1768 0.3567
17095.0 1.80909 0.350(4) 74678. 0.1769 0.3543
17105.0 1.81015 0.350(4) 74557. 0.1769 0.3527
17115.0 1.81121 0.356(4) 73301. 0.1769 0.3528
17125.0 1.81227 0.359(4) 72657. 0.1769 0.3549
17135.0 1.81333 0.359(4) 72629. 0.1769 0.3590
17145.0 1.81439 0.369(4) 70607. 0.1769 0.3644
17155.0 1.81544 0.376(4) 69270. 0.1769 0.3705
17165.0 1.81650 0.386(4) 67451. 0.1770 0.3760
17175.0 1.81756 0.385(4) 67610. 0.1770 0.3796
17185.0 1.81862 0.394(4) 66109. 0.1770 0.3801
17195.0 1.81968 0.389(4) 66762. 0.1770 0.3767
17205.0 1.82074 0.380(4) 68275. 0.1770 0.3691
17215.0 1.82180 0.365(4) 70912. 0.1770 0.3577
17225.0 1.82286 0.346(4) 74508. 0.1770 0.3433
17235.0 1.82392 0.336(4) 76597. 0.1771 0.3269
17245.0 1.82498 0.3074(35) 83501. 0.17708 0.30951
17255.0 1.82604 0.2954(34) 86700. 0.17709 0.29210
17265.0 1.82710 0.2707(33) 94301. 0.17711 0.27548
17275.0 1.82816 0.2511(31) 101165. 0.17712 0.26029
17285.0 1.82921 0.2427(31) 104399. 0.17714 0.24696
17295.0 1.83027 0.2314(30) 109127. 0.17715 0.23576
17305.0 1.83133 0.2286(30) 110400. 0.17717 0.22684
17315.0 1.83239 0.2183(29) 115036. 0.17718 0.22015
17325.0 1.83345 0.2120(29) 118092. 0.17720 0.21577
17335.0 1.83451 0.2145(29) 116716. 0.17721 0.21356
17345.0 1.83557 0.2174(29) 115142. 0.17723 0.21344
17355.0 1.83663 0.2148(29) 116248. 0.17724 0.21531
17365.0 1.83769 0.2172(29) 115046. 0.17726 0.21908
17375.0 1.83875 0.2235(30) 111865. 0.17728 0.22465
17385.0 1.83981 0.2392(31) 104801. 0.17729 0.23188
17395.0 1.84087 0.2425(31) 103463. 0.17731 0.24055
17405.0 1.84193 0.2581(32) 97506. 0.17732 0.25040
17415.0 1.84299 0.2668(33) 94473. 0.17734 0.26111
17425.0 1.84404 0.2814(33) 89759. 0.17736 0.27202
17435.0 1.84510 0.2847(34) 88642. 0.17737 0.28262
17445.0 1.84616 0.2985(34) 84672. 0.17739 0.29219
17455.0 1.84722 0.3045(35) 83031. 0.17741 0.30002
17465.0 1.84828 0.312(4) 81027. 0.1774 0.3054
17475.0 1.84934 0.313(4) 80813. 0.1774 0.3080
17485.0 1.85040 0.3074(35) 82111. 0.17746 0.30766
17495.0 1.85146 0.3099(35) 81463. 0.17747 0.30457
17505.0 1.85252 0.2990(34) 84224. 0.17749 0.29924
17515.0 1.85358 0.2886(34) 87076. 0.17751 0.29229
17525.0 1.85464 0.2896(34) 86707. 0.17752 0.28435
17535.0 1.85570 0.2680(33) 93270. 0.17754 0.27596
17545.0 1.85676 0.2653(33) 94082. 0.17756 0.26755
17555.0 1.85782 0.2566(32) 96958. 0.17758 0.25940
17565.0 1.85887 0.2484(32) 99905. 0.17759 0.25167
17575.0 1.85993 0.2395(31) 103291. 0.17761 0.24438
17585.0 1.86099 0.2318(31) 106399. 0.17763 0.23753
17595.0 1.86205 0.2228(30) 110304. 0.17765 0.23108
17605.0 1.86311 0.2255(30) 108908. 0.17767 0.22503
17615.0 1.86417 0.2193(30) 111695. 0.17768 0.21938
17625.0 1.86523 0.2116(29) 115339. 0.17770 0.21414
17635.0 1.86629 0.2062(29) 118065. 0.17772 0.20933
17645.0 1.86735 0.2014(29) 120534. 0.17774 0.20498
17655.0 1.86841 0.2009(29) 120656. 0.17776 0.20108
17665.0 1.86947 0.2019(29) 119780. 0.17778 0.19764
17675.0 1.87053 0.1982(29) 121715. 0.17780 0.19465
17685.0 1.87159 0.1971(29) 122160. 0.17782 0.19210
17695.0 1.87265 0.1872(28) 127968. 0.17783 0.18994
17705.0 1.87371 0.1885(28) 127009. 0.17785 0.18816
17715.0 1.87476 0.1828(28) 130474. 0.17787 0.18670
17725.0 1.87582 0.1871(28) 127580. 0.17789 0.18553
17735.0 1.87688 0.1839(28) 129487. 0.17791 0.18459
17745.0 1.87794 0.1802(28) 131811. 0.17793 0.18385
17755.0 1.87900 0.1856(28) 128007. 0.17795 0.18326
17765.0 1.88006 0.1837(28) 129038. 0.17797 0.18280
17775.0 1.88112 0.1857(28) 127494. 0.17799 0.18242
17785.0 1.88218 0.1869(28) 126539. 0.17801 0.18212
17795.0 1.88324 0.1831(28) 128800. 0.17803 0.18188
17805.0 1.88430 0.1799(28) 130740. 0.17805 0.18168
17815.0 1.88536 0.1818(28) 129219. 0.17807 0.18150
17825.0 1.88642 0.1778(28) 131713. 0.17809 0.18136
17835.0 1.88748 0.1852(28) 126439. 0.17812 0.18123
17845.0 1.88854 0.1847(28) 126439. 0.17814 0.18111
17855.0 1.88959 0.1839(28) 126652. 0.17816 0.18101
17865.0 1.89065 0.1856(28) 125436. 0.17818 0.18092
17875.0 1.89171 0.1811(28) 128127. 0.17820 0.18083
17885.0 1.89277 0.1766(28) 130803. 0.17822 0.18076
17895.0 1.89383 0.1792(28) 128683. 0.17824 0.18069
17905.0 1.89489 0.1812(28) 127053. 0.17827 0.18063
17915.0 1.89595 0.1740(28) 131823. 0.17829 0.18057
17925.0 1.89701 0.1820(28) 126276. 0.17831 0.18052
17935.0 1.89807 0.1802(28) 127098. 0.17833 0.18048
17945.0 1.89913 0.1805(28) 126741. 0.17835 0.18044
17955.0 1.90019 0.1796(28) 127070. 0.17838 0.18040
17965.0 1.90125 0.1819(28) 125298. 0.17840 0.18037
17975.0 1.90231 0.1782(28) 127394. 0.17842 0.18034
17985.0 1.90337 0.1817(28) 124757. 0.17845 0.18031
17995.0 1.90443 0.1846(29) 122682. 0.17847 0.18029
18005.0 1.90548 0.1820(28) 124147. 0.17849 0.18027
18015.0 1.90654 0.1774(28) 126784. 0.17852 0.18026
18025.0 1.90760 0.1815(28) 123750. 0.17854 0.18024
18035.0 1.90866 0.1825(29) 122825. 0.17856 0.18023
18045.0 1.90972 0.1827(29) 122640. 0.17859 0.18022
18055.0 1.91078 0.1806(28) 123715. 0.17861 0.18021
18065.0 1.91184 0.1755(28) 126857. 0.17864 0.18021
18075.0 1.91290 0.1796(28) 123846. 0.17866 0.18021
18085.0 1.91396 0.1830(29) 121460. 0.17868 0.18020
18095.0 1.91502 0.1792(28) 123728. 0.17871 0.18021
18105.0 1.91608 0.1777(28) 124457. 0.17873 0.18021
18115.0 1.91714 0.1834(29) 120719. 0.17876 0.18021
18125.0 1.91820 0.1770(28) 124646. 0.17878 0.18022
18135.0 1.91926 0.1799(29) 122568. 0.17881 0.18023
18145.0 1.92032 0.1799(29) 122336. 0.17883 0.18023
18155.0 1.92137 0.1787(29) 122923. 0.17886 0.18024
18165.0 1.92243 0.1783(29) 122895. 0.17889 0.18026
18175.0 1.92349 0.1796(29) 121720. 0.17891 0.18027
18185.0 1.92455 0.1789(29) 121887. 0.17894 0.18028
18195.0 1.92561 0.1804(29) 120613. 0.17896 0.18030
18205.0 1.92667 0.1796(29) 120837. 0.17899 0.18032
18215.0 1.92773 0.1793(29) 120840. 0.17902 0.18034
18225.0 1.92879 0.1767(29) 122120. 0.17904 0.18036
18235.0 1.92985 0.1810(29) 119154. 0.17907 0.18034
18245.0 1.93091 0.1774(29) 121175. 0.17910 0.18036
18255.0 1.93197 0.1834(29) 117287. 0.17912 0.18038
18265.0 1.93303 0.1795(29) 119608. 0.17915 0.18041
18275.0 1.93409 0.1785(29) 119969. 0.17918 0.18044
18285.0 1.93515 0.1812(29) 117880. 0.17921 0.18047
18295.0 1.93621 0.1817(29) 117408. 0.17924 0.18050
18305.0 1.93726 0.1804(29) 117909. 0.17926 0.18053
18315.0 1.93832 0.1793(29) 118378. 0.17929 0.18056
18325.0 1.93938 0.1783(29) 118873. 0.17932 0.18059
18335.0 1.94044 0.1809(29) 117132. 0.17935 0.18063
18345.0 1.94150 0.1826(29) 115883. 0.17938 0.18067
18355.0 1.94256 0.1793(29) 117613. 0.17941 0.18070
18365.0 1.94362 0.1888(30) 111653. 0.17943 0.18074
18375.0 1.94468 0.1833(30) 114579. 0.17946 0.18079
18385.0 1.94574 0.1842(30) 113867. 0.17949 0.18083
18395.0 1.94680 0.1781(29) 117324. 0.17952 0.18087
18405.0 1.94786 0.1769(29) 117873. 0.17955 0.18092
18415.0 1.94892 0.1814(29) 114961. 0.17958 0.18097
18425.0 1.94998 0.1753(29) 118589. 0.17961 0.18102
18435.0 1.95104 0.1743(29) 119117. 0.17964 0.18097
18445.0 1.95210 0.1787(29) 116210. 0.17967 0.18102
18455.0 1.95316 0.1843(30) 112678. 0.17970 0.18108
18465.0 1.95421 0.1822(30) 113627. 0.17973 0.18114
18475.0 1.95527 0.1799(30) 114775. 0.17976 0.18121
18485.0 1.95633 0.1776(29) 115901. 0.17979 0.18128
18495.0 1.95739 0.1839(30) 111976. 0.17983 0.18135
18505.0 1.95845 0.1813(30) 113265. 0.17986 0.18143
18515.0 1.95951 0.1829(30) 112115. 0.17989 0.18151
18525.0 1.96057 0.1824(30) 112121. 0.17992 0.18159
18535.0 1.96163 0.1784(30) 114196. 0.17995 0.18168
18545.0 1.96269 0.1791(30) 113622. 0.17998 0.18178
18555.0 1.96375 0.1743(29) 116277. 0.18002 0.18188
18565.0 1.96481 0.1841(30) 110319. 0.18005 0.18199
18575.0 1.96587 0.1854(30) 109462. 0.18008 0.18212
18585.0 1.96693 0.1819(30) 111321. 0.18011 0.18226
18595.0 1.96799 0.1830(30) 110550. 0.18015 0.18243
18605.0 1.96905 0.1790(30) 112680. 0.18018 0.18262
18615.0 1.97011 0.1791(30) 112472. 0.18021 0.18285
18625.0 1.97116 0.1816(30) 110776. 0.18025 0.18313
18635.0 1.97222 0.1849(30) 108695. 0.18028 0.18348
18645.0 1.97328 0.1865(30) 107602. 0.18031 0.18392
18655.0 1.97434 0.1858(30) 107774. 0.18035 0.18435
18665.0 1.97540 0.1838(30) 108744. 0.18038 0.18504
18675.0 1.97646 0.1884(31) 105946. 0.18042 0.18590
18685.0 1.97752 0.1856(31) 107236. 0.18045 0.18696
18695.0 1.97858 0.1937(31) 102804. 0.18048 0.18824
18705.0 1.97964 0.1883(31) 105374. 0.18052 0.18976
18715.0 1.98070 0.1933(31) 102685. 0.18055 0.19155
18725.0 1.98176 0.1912(31) 103460. 0.18059 0.19365
18735.0 1.98282 0.1918(31) 103100. 0.18062 0.19595
18745.0 1.98388 0.1980(32) 99796. 0.18066 0.19847
18755.0 1.98494 0.1958(32) 100598. 0.18069 0.20114
18765.0 1.98600 0.2051(32) 96000. 0.18073 0.20390
18775.0 1.98706 0.1996(32) 98182. 0.18077 0.20663
18785.0 1.98811 0.2122(33) 92528. 0.18080 0.20922
18795.0 1.98917 0.2124(33) 92314. 0.18084 0.21154
18805.0 1.99023 0.2109(33) 92782. 0.18087 0.21344
18815.0 1.99129 0.2135(33) 91577. 0.18091 0.21479
18825.0 1.99235 0.2201(34) 88972. 0.18095 0.21552
18835.0 1.99341 0.2190(33) 89226. 0.18098 0.21560
18845.0 1.99447 0.2132(33) 91321. 0.18102 0.21508
18855.0 1.99553 0.2136(33) 90966. 0.18106 0.21401
18865.0 1.99659 0.2161(33) 89850. 0.18110 0.21254
18875.0 1.99765 0.2135(33) 90719. 0.18113 0.21084
18885.0 1.99871 0.2074(33) 93040. 0.18117 0.20907
18895.0 1.99977 0.2097(33) 91993. 0.18121 0.20741
18905.0 2.00083 0.2029(32) 94716. 0.18125 0.20602
18915.0 2.00189 0.1996(32) 96024. 0.18129 0.20508
18925.0 2.00295 0.2083(33) 92162. 0.18132 0.20475
18935.0 2.00401 0.2035(33) 94016. 0.18136 0.20518
18945.0 2.00506 0.2085(33) 91765. 0.18140 0.20645
18955.0 2.00612 0.2168(34) 88195. 0.18144 0.20884
18965.0 2.00718 0.2107(33) 90369. 0.18148 0.21241
18975.0 2.00824 0.2200(34) 86639. 0.18152 0.21726
18985.0 2.00930 0.2253(34) 84631. 0.18156 0.22344
18995.0 2.01036 0.2238(34) 84946. 0.18160 0.23098
19005.0 2.01142 0.246(4) 77616. 0.1816 0.2398
19015.0 2.01248 0.249(4) 76277. 0.1817 0.2499
19025.0 2.01354 0.261(4) 72796. 0.1817 0.2609
19035.0 2.01460 0.277(4) 68576. 0.1818 0.2727
19045.0 2.01566 0.281(4) 67567. 0.1818 0.2847
19055.0 2.01672 0.304(4) 62526. 0.1818 0.2966
19065.0 2.01778 0.305(4) 62273. 0.1819 0.3077
19075.0 2.01884 0.319(4) 59511. 0.1819 0.3174
19085.0 2.01990 0.323(4) 58801. 0.1820 0.3251
19095.0 2.02096 0.332(4) 57152. 0.1820 0.3302
19105.0 2.02202 0.335(4) 56680. 0.1820 0.3323
19115.0 2.02307 0.329(4) 57581. 0.1821 0.3312
19125.0 2.02413 0.320(4) 59084. 0.1821 0.3272
19135.0 2.02519 0.314(4) 60062. 0.1822 0.3204
19145.0 2.02625 0.308(4) 61108. 0.1822 0.3115
19155.0 2.02731 0.302(4) 62081. 0.1823 0.3011
19165.0 2.02837 0.294(4) 63584. 0.1823 0.2896
19175.0 2.02943 0.275(4) 67686. 0.1823 0.2777
19185.0 2.03049 0.269(4) 68891. 0.1824 0.2658
19195.0 2.03155 0.256(4) 72228. 0.1824 0.2544
19205.0 2.03261 0.240(4) 76778. 0.1825 0.2438
19215.0 2.03367 0.236(4) 77744. 0.1825 0.2341
19225.0 2.03473 0.228(4) 80427. 0.1826 0.2255
19235.0 2.03579 0.2189(35) 83299. 0.18260 0.21805
19245.0 2.03685 0.2117(34) 85919. 0.18264 0.21173
19255.0 2.03791 0.2148(34) 84559. 0.18268 0.20647
19265.0 2.03897 0.2091(34) 86570. 0.18273 0.20218
19275.0 2.04003 0.2106(34) 85855. 0.18277 0.19872
19285.0 2.04109 0.2068(34) 87253. 0.18282 0.19599
19295.0 2.04214 0.1953(33) 91886. 0.18286 0.19386
19305.0 2.04320 0.2025(34) 88713. 0.18291 0.19223
19315.0 2.04426 0.1959(33) 91299. 0.18295 0.19098
19325.0 2.04532 0.1931(33) 92492. 0.18299 0.19005
19335.0 2.04638 0.1971(33) 90572. 0.18304 0.18936
19345.0 2.04744 0.1958(33) 90983. 0.18308 0.18887
19355.0 2.04850 0.1905(33) 93038. 0.18313 0.18854
19365.0 2.04956 0.1935(33) 91469. 0.18318 0.18834
19375.0 2.05062 0.1909(33) 92466. 0.18322 0.18824
19385.0 2.05168 0.1886(33) 93397. 0.18327 0.18825
19395.0 2.05274 0.1892(33) 92843. 0.18331 0.18834
19405.0 2.05380 0.1893(33) 92679. 0.18336 0.18851
19415.0 2.05486 0.1884(33) 92865. 0.18340 0.18876
19425.0 2.05592 0.1925(33) 90890. 0.18345 0.18907
19435.0 2.05698 0.1889(33) 92337. 0.18350 0.18944
19445.0 2.05804 0.1966(34) 88775. 0.18354 0.18986
19455.0 2.05910 0.1969(34) 88544. 0.18359 0.19031
19465.0 2.06015 0.1967(34) 88445. 0.18364 0.19077
19475.0 2.06121 0.1990(34) 87265. 0.18368 0.19122
19485.0 2.06227 0.1929(33) 89612. 0.18373 0.19164
19495.0 2.06333 0.1967(34) 87812. 0.18378 0.19199
19505.0 2.06439 0.1956(34) 88133. 0.18383 0.19225
19515.0 2.06545 0.1957(34) 88011. 0.18387 0.19241
19525.0 2.06651 0.1956(34) 87801. 0.18392 0.19244
19535.0 2.06757 0.1923(34) 89061. 0.18397 0.19235
19545.0 2.06863 0.1905(33) 89636. 0.18402 0.19213
19555.0 2.06969 0.1997(34) 85579. 0.18407 0.19181
19565.0 2.07075 0.1958(34) 86941. 0.18411 0.19141
19575.0 2.07181 0.1913(34) 88680. 0.18416 0.19095
19585.0 2.07287 0.1899(34) 89097. 0.18421 0.19046
19595.0 2.07393 0.1916(34) 88272. 0.18426 0.18995
19605.0 2.07499 0.1918(34) 87944. 0.18431 0.18950
19615.0 2.07605 0.1921(34) 87676. 0.18436 0.18902
19625.0 2.07711 0.1893(34) 88680. 0.18441 0.18857
19635.0 2.07817 0.1886(34) 88789. 0.18446 0.18816
19645.0 2.07922 0.1900(34) 88072. 0.18451 0.18781
19655.0 2.08028 0.1883(34) 88722. 0.18455 0.18750
19665.0 2.08134 0.1882(34) 88600. 0.18460 0.18724
19675.0 2.08240 0.1930(34) 86443. 0.18465 0.18702
19685.0 2.08346 0.1894(34) 87812. 0.18470 0.18685
19695.0 2.08452 0.1895(34) 87672. 0.18475 0.18672
19705.0 2.08558 0.1867(34) 88733. 0.18480 0.18663
19715.0 2.08664 0.1898(34) 87231. 0.18485 0.18656
19725.0 2.08770 0.1852(33) 89154. 0.18490 0.18651
19735.0 2.08876 0.1926(34) 85787. 0.18495 0.18648
19745.0 2.08982 0.1938(34) 85178. 0.18501 0.18647
19755.0 2.09088 0.1834(33) 89578. 0.18506 0.18647
19765.0 2.09194 0.1830(33) 89695. 0.18511 0.18648
19775.0 2.09300 0.1869(34) 87791. 0.18516 0.18649
19785.0 2.09406 0.1882(34) 87158. 0.18521 0.18652
19795.0 2.09512 0.1865(34) 87694. 0.18526 0.18654
19805.0 2.09618 0.1938(34) 84454. 0.18531 0.18658
19815.0 2.09724 0.1889(34) 86401. 0.18536 0.18661
19825.0 2.09829 0.1894(34) 86057. 0.18541 0.18665
19835.0 2.09935 0.1847(34) 87998. 0.18547 0.18669
19845.0 2.10041 0.1887(34) 86114. 0.18552 0.18673
19855.0 2.10147 0.1914(34) 84881. 0.18557 0.18677
19865.0 2.10253 0.1905(34) 85159. 0.18562 0.18682
19875.0 2.10359 0.1840(34) 87967. 0.18567 0.18687
19885.0 2.10465 0.1817(34) 88848. 0.18573 0.18691
19895.0 2.10571 0.1871(34) 86385. 0.18578 0.18696
19905.0 2.10677 0.1901(34) 85131. 0.18583 0.18702
19915.0 2.10783 0.1890(34) 85666. 0.18588 0.18707
19925.0 2.10889 0.1877(34) 86106. 0.18594 0.18712
19935.0 2.10995 0.1893(34) 85272. 0.18599 0.18718
19945.0 2.11101 0.1849(34) 87156. 0.18604 0.18724
19955.0 2.11207 0.1845(34) 87316. 0.18609 0.18730
19965.0 2.11313 0.1897(34) 85040. 0.18615 0.18736
19975.0 2.11419 0.1853(34) 86835. 0.18620 0.18742
19985.0 2.11525 0.1929(35) 83565. 0.18625 0.18748
19995.0 2.11631 0.1863(34) 86230. 0.18631 0.18755
20005.0 2.11737 0.1754(33) 91134. 0.18636 0.18761
20015.0 2.11842 0.1838(34) 87192. 0.18641 0.18768
20025.0 2.11948 0.1893(34) 84632. 0.18647 0.18775
20035.0 2.12054 0.1860(34) 86073. 0.18652 0.18782
20045.0 2.12160 0.1898(34) 84437. 0.18657 0.18789
20055.0 2.12266 0.1904(34) 84065. 0.18663 0.18796
20065.0 2.12372 0.1868(34) 85416. 0.18668 0.18804
20075.0 2.12478 0.1882(34) 84666. 0.18674 0.18812
20085.0 2.12584 0.1952(35) 81694. 0.18679 0.18820
20095.0 2.12690 0.1833(34) 86549. 0.18685 0.18828
20105.0 2.12796 0.1811(34) 87445. 0.18690 0.18836
20115.0 2.12902 0.1835(34) 86161. 0.18695 0.18845
20125.0 2.13008 0.1827(34) 86419. 0.18701 0.18854
20135.0 2.13114 0.1861(34) 84866. 0.18706 0.18862
20145.0 2.13220 0.1943(35) 81410. 0.18712 0.18872
20155.0 2.13326 0.1891(35) 83390. 0.18717 0.18881
20165.0 2.13432 0.1843(34) 85394. 0.18723 0.18891
20175.0 2.13538 0.1850(34) 85093. 0.18728 0.18901
20185.0 2.13644 0.1858(34) 84570. 0.18734 0.18912
20195.0 2.13750 0.1879(35) 83611. 0.18739 0.18922
20205.0 2.13856 0.1925(35) 81509. 0.18745 0.18934
20215.0 2.13961 0.1842(34) 84815. 0.18750 0.18945
20225.0 2.14067 0.1824(34) 85445. 0.18756 0.18957
20235.0 2.14173 0.1824(34) 85281. 0.18761 0.18970
20245.0 2.14279 0.1870(35) 83114. 0.18767 0.18983
20255.0 2.14385 0.1894(35) 81832. 0.18772 0.18997
20265.0 2.14491 0.1885(35) 82081. 0.18778 0.19012
20275.0 2.14597 0.1835(34) 84111. 0.18784 0.19027
20285.0 2.14703 0.1846(35) 83537. 0.18789 0.19044
20295.0 2.14809 0.1884(35) 81722. 0.18795 0.19062
20305.0 2.14915 0.190(4) 80687. 0.1880 0.1908
20315.0 2.15021 0.1856(35) 82380. 0.18806 0.19102
20325.0 2.15127 0.190(4) 80631. 0.1881 0.1913
20335.0 2.15233 0.191(4) 79707. 0.1882 0.1915
20345.0 2.15339 0.1866(35) 81502. 0.18823 0.19183
20355.0 2.15445 0.189(4) 80162. 0.1883 0.1922
20365.0 2.15551 0.192(4) 78939. 0.1883 0.1926
20375.0 2.15657 0.187(4) 80486. 0.1884 0.1931
20385.0 2.15763 0.199(4) 75903. 0.1885 0.1938
20395.0 2.15869 0.198(4) 76136. 0.1885 0.1946
20405.0 2.15974 0.199(4) 75640. 0.1886 0.1955
20415.0 2.16080 0.188(4) 79385. 0.1886 0.1967
20425.0 2.16186 0.202(4) 74223. 0.1887 0.1982
20435.0 2.16292 0.195(4) 76532. 0.1887 0.2000
20445.0 2.16398 0.196(4) 76222. 0.1888 0.2021
20455.0 2.16504 0.199(4) 74841. 0.1888 0.2047
20465.0 2.16610 0.209(4) 71264. 0.1889 0.2077
20475.0 2.16716 0.210(4) 70730. 0.1890 0.2112
20485.0 2.16822 0.215(4) 69270. 0.1890 0.2153
20495.0 2.16928 0.219(4) 67743. 0.1891 0.2198
20505.0 2.17034 0.222(4) 66903. 0.1891 0.2248
20515.0 2.17140 0.235(4) 63137. 0.1892 0.2303
20525.0 2.17246 0.239(4) 61908. 0.1892 0.2361
20535.0 2.17352 0.241(4) 61306. 0.1893 0.2422
20545.0 2.17458 0.253(4) 58248. 0.1894 0.2485
20555.0 2.17564 0.251(4) 58619. 0.1894 0.2547
20565.0 2.17670 0.261(4) 56120. 0.1895 0.2607
20575.0 2.17776 0.262(4) 55773. 0.1895 0.2663
20585.0 2.17882 0.275(4) 53151. 0.1896 0.2713
20595.0 2.17988 0.282(4) 51753. 0.1896 0.2755
20605.0 2.18094 0.287(4) 50746. 0.1897 0.2788
20615.0 2.18199 0.283(4) 51343. 0.1898 0.2812
20625.0 2.18305 0.275(4) 52684. 0.1898 0.2826
20635.0 2.18411 0.283(4) 51175. 0.1899 0.2832
20645.0 2.18517 0.275(4) 52422. 0.1899 0.2831
20655.0 2.18623 0.276(4) 52140. 0.1900 0.2823
20665.0 2.18729 0.277(4) 51773. 0.1901 0.2811
20675.0 2.18835 0.278(4) 51557. 0.1901 0.2794
20685.0 2.18941 0.282(4) 50755. 0.1902 0.2775
20695.0 2.19047 0.274(4) 51956. 0.1902 0.2753
20705.0 2.19153 0.275(4) 51692. 0.1903 0.2728
20715.0 2.19259 0.276(4) 51468. 0.1903 0.2701
20725.0 2.19365 0.263(4) 53648. 0.1904 0.2671
20735.0 2.19471 0.259(4) 54397. 0.1905 0.2640
20745.0 2.19577 0.259(4) 54227. 0.1905 0.2607
20755.0 2.19683 0.259(4) 54225. 0.1906 0.2573
20765.0 2.19789 0.250(4) 55756. 0.1906 0.2539
20775.0 2.19895 0.243(4) 57182. 0.1907 0.2507
20785.0 2.20001 0.248(4) 55977. 0.1907 0.2477
20795.0 2.20107 0.245(4) 56517. 0.1908 0.2451
20805.0 2.20213 0.235(4) 58895. 0.1909 0.2428
20815.0 2.20319 0.239(4) 57658. 0.1909 0.2411
20825.0 2.20424 0.242(4) 56797. 0.1910 0.2398
20835.0 2.20530 0.242(4) 56701. 0.1910 0.2389
20845.0 2.20636 0.240(4) 56966. 0.1911 0.2386
20855.0 2.20742 0.239(4) 57089. 0.1912 0.2386
20865.0 2.20848 0.245(4) 55785. 0.1912 0.2390
20875.0 2.20954 0.242(4) 56310. 0.1913 0.2395
20885.0 2.21060 0.242(4) 56074. 0.1913 0.2401
20895.0 2.21166 0.246(4) 55012. 0.1914 0.2407
20905.0 2.21272 0.235(4) 57370. 0.1914 0.2410
20915.0 2.21378 0.245(4) 55035. 0.1915 0.2410
20925.0 2.21484 0.243(4) 55340. 0.1916 0.2405
20935.0 2.21590 0.239(4) 56113. 0.1916 0.2396
20945.0 2.21696 0.243(4) 55178. 0.1917 0.2381
20955.0 2.21802 0.234(4) 56954. 0.1917 0.2362
20965.0 2.21908 0.238(4) 56059. 0.1918 0.2339
20975.0 2.22014 0.239(4) 55625. 0.1918 0.2312
20985.0 2.22120 0.227(4) 58536. 0.1919 0.2284
20995.0 2.22226 0.224(4) 59093. 0.1920 0.2253
21005.0 2.22332 0.223(4) 59263. 0.1920 0.2223
21015.0 2.22438 0.213(4) 61793. 0.1921 0.2193
21025.0 2.22544 0.218(4) 60236. 0.1921 0.2164
21035.0 2.22650 0.207(4) 63121. 0.1922 0.2136
21045.0 2.22755 0.210(4) 62348. 0.1923 0.2111
21055.0 2.22861 0.212(4) 61578. 0.1923 0.2088
21065.0 2.22967 0.210(4) 61908. 0.1924 0.2068
21075.0 2.23073 0.208(4) 62376. 0.1924 0.2050
21085.0 2.23179 0.199(4) 64966. 0.1925 0.2035
21095.0 2.23285 0.199(4) 64750. 0.1925 0.2022
21105.0 2.23391 0.196(4) 65509. 0.1926 0.2012
21115.0 2.23497 0.191(4) 67030. 0.1927 0.2004
21125.0 2.23603 0.193(4) 66227. 0.1927 0.1998
21135.0 2.23709 0.195(4) 65444. 0.1928 0.1993
21145.0 2.23815 0.198(4) 64509. 0.1928 0.1990
21155.0 2.23921 0.200(4) 63790. 0.1929 0.1989
21165.0 2.24027 0.203(4) 62687. 0.1929 0.1989
21175.0 2.24133 0.198(4) 64055. 0.1930 0.1990
21185.0 2.24239 0.197(4) 64400. 0.1931 0.1992
21195.0 2.24345 0.195(4) 64751. 0.1931 0.1994
21205.0 2.24451 0.195(4) 64529. 0.1932 0.1998
21215.0 2.24557 0.198(4) 63766. 0.1932 0.2002
21225.0 2.24663 0.197(4) 63842. 0.1933 0.2006
21235.0 2.24769 0.197(4) 63617. 0.1934 0.2011
21245.0 2.24875 0.204(4) 61376. 0.1934 0.2016
21255.0 2.24981 0.202(4) 62081. 0.1935 0.2021
21265.0 2.25086 0.194(4) 64266. 0.1935 0.2026
21275.0 2.25192 0.205(4) 60731. 0.1936 0.2031
21285.0 2.25298 0.200(4) 62017. 0.1936 0.2035
21295.0 2.25404 0.201(4) 61825. 0.1937 0.2039
21305.0 2.25510 0.215(4) 57983. 0.1938 0.2043
21315.0 2.25616 0.200(4) 61857. 0.1938 0.2046
21325.0 2.25722 0.198(4) 62308. 0.1939 0.2049
21335.0 2.25828 0.203(4) 60627. 0.1939 0.2052
21345.0 2.25934 0.201(4) 61067. 0.1940 0.2055
21355.0 2.26040 0.214(4) 57498. 0.1940 0.2059
21365.0 2.26146 0.204(4) 60032. 0.1941 0.2064
21375.0 2.26252 0.211(4) 57894. 0.1942 0.2071
21385.0 2.26358 0.202(4) 60280. 0.1942 0.2081
21395.0 2.26464 0.205(4) 59206. 0.1943 0.2093
21405.0 2.26570 0.210(4) 57690. 0.1943 0.2109
21415.0 2.26676 0.210(4) 57663. 0.1944 0.2129
21425.0 2.26782 0.214(4) 56294. 0.1944 0.2154
21435.0 2.26888 0.222(4) 54325. 0.1945 0.2184
21445.0 2.26994 0.223(4) 53820. 0.1946 0.2219
21455.0 2.27100 0.226(4) 53156. 0.1946 0.2260
21465.0 2.27206 0.229(4) 52548. 0.1947 0.2307
21475.0 2.27312 0.225(4) 53119. 0.1947 0.2358
21485.0 2.27418 0.234(4) 51244. 0.1948 0.2414
21495.0 2.27524 0.246(5) 48662. 0.1948 0.2473
21505.0 2.27629 0.262(5) 45705. 0.1949 0.2535
21515.0 2.27735 0.256(5) 46588. 0.1950 0.2598
21525.0 2.27841 0.272(5) 43895. 0.1950 0.2660
21535.0 2.27947 0.274(5) 43439. 0.1951 0.2718
21545.0 2.28053 0.278(5) 42838. 0.1951 0.2772
21555.0 2.28159 0.292(5) 40720. 0.1952 0.2818
21565.0 2.28265 0.291(5) 40792. 0.1952 0.2855
21575.0 2.28371 0.297(5) 39903. 0.1953 0.2879
21585.0 2.28477 0.300(5) 39460. 0.1953 0.2891
21595.0 2.28583 0.288(5) 40931. 0.1954 0.2890
21605.0 2.28689 0.291(5) 40378. 0.1955 0.2876
21615.0 2.28795 0.287(5) 40808. 0.1955 0.2849
21625.0 2.28901 0.281(5) 41591. 0.1956 0.2812
21635.0 2.29007 0.273(5) 42559. 0.1956 0.2766
21645.0 2.29113 0.274(5) 42385. 0.1957 0.2713
21655.0 2.29219 0.269(5) 42912. 0.1957 0.2656
21665.0 2.29325 0.254(5) 45258. 0.1958 0.2596
21675.0 2.29431 0.250(5) 45851. 0.1959 0.2535
21685.0 2.29537 0.243(5) 46946. 0.1959 0.2475
21695.0 2.29643 0.239(5) 47667. 0.1960 0.2418
21705.0 2.29749 0.232(5) 48802. 0.1960 0.2364
21715.0 2.29855 0.234(5) 48333. 0.1961 0.2314
21725.0 2.29961 0.220(4) 51078. 0.1961 0.2269
21735.0 2.30067 0.218(4) 51299. 0.1962 0.2229
21745.0 2.30173 0.217(4) 51562. 0.1962 0.2194
21755.0 2.30278 0.208(4) 53379. 0.1963 0.2165
21765.0 2.30384 0.209(4) 53099. 0.1964 0.2140
21775.0 2.30490 0.204(4) 54143. 0.1964 0.2120
21785.0 2.30596 0.211(4) 52470. 0.1965 0.2104
21795.0 2.30702 0.205(4) 53582. 0.1965 0.2092
21805.0 2.30808 0.201(4) 54578. 0.1966 0.2083
21815.0 2.30914 0.204(4) 53556. 0.1966 0.2077
21825.0 2.31020 0.211(4) 51925. 0.1967 0.2074
21835.0 2.31126 0.207(4) 52722. 0.1967 0.2072
21845.0 2.31232 0.203(4) 53621. 0.1968 0.2072
21855.0 2.31338 0.209(4) 51960. 0.1968 0.2072
21865.0 2.31444 0.200(4) 53865. 0.1969 0.2074
21875.0 2.31550 0.216(4) 50015. 0.1970 0.2075
21885.0 2.31656 0.206(4) 52206. 0.1970 0.2077
21895.0 2.31762 0.210(4) 51054. 0.1971 0.2078
21905.0 2.31868 0.208(4) 51458. 0.1971 0.2079
21915.0 2.31974 0.210(4) 50894. 0.1972 0.2080
21925.0 2.32080 0.215(4) 49605. 0.1972 0.2080
21935.0 2.32186 0.214(4) 49764. 0.1973 0.2080
21945.0 2.32292 0.196(4) 53771. 0.1973 0.2079
21955.0 2.32398 0.205(4) 51548. 0.1974 0.2078
21965.0 2.32504 0.207(4) 51064. 0.1974 0.2076
21975.0 2.32610 0.206(4) 51082. 0.1975 0.2075
21985.0 2.32716 0.206(4) 51097. 0.1976 0.2074
21995.0 2.32822 0.206(4) 50896. 0.1976 0.2074
22005.0 2.32928 0.203(4) 51360. 0.1977 0.2074
22015.0 2.33033 0.214(5) 48714. 0.1977 0.2075
22025.0 2.33139 0.209(4) 49848. 0.1978 0.2076
22035.0 2.33245 0.203(4) 50978. 0.1978 0.2078
22045.0 2.33351 0.207(4) 50100. 0.1979 0.2080
22055.0 2.33457 0.209(4) 49683. 0.1979 0.2084
22065.0 2.33563 0.205(4) 50491. 0.1980 0.2087
22075.0 2.33669 0.208(4) 49789. 0.1980 0.2091
22085.0 2.33775 0.204(4) 50596. 0.1981 0.2095
22095.0 2.33881 0.216(5) 47759. 0.1981 0.2099
22105.0 2.33987 0.207(4) 49606. 0.1982 0.2103
22115.0 2.34093 0.209(5) 48996. 0.1982 0.2107
22125.0 2.34199 0.212(5) 48093. 0.1983 0.2110
22135.0 2.34305 0.204(4) 49691. 0.1984 0.2112
22145.0 2.34411 0.206(5) 49325. 0.1984 0.2112
22155.0 2.34517 0.215(5) 47349. 0.1985 0.2112
22165.0 2.34623 0.212(5) 47678. 0.1985 0.2110
22175.0 2.34729 0.214(5) 47177. 0.1986 0.2108
22185.0 2.34835 0.212(5) 47531. 0.1986 0.2104
22195.0 2.34941 0.212(5) 47331. 0.1987 0.2099
22205.0 2.35047 0.212(5) 47266. 0.1987 0.2093
22215.0 2.35153 0.206(5) 48208. 0.1988 0.2087
22225.0 2.35259 0.207(5) 47878. 0.1988 0.2080
22235.0 2.35365 0.206(5) 48000. 0.1989 0.2073
22245.0 2.35471 0.204(5) 48366. 0.1989 0.2066
22255.0 2.35577 0.205(5) 47950. 0.1990 0.2060
22265.0 2.35683 0.215(5) 45716. 0.1990 0.2053
22275.0 2.35789 0.202(5) 48298. 0.1991 0.2047
22285.0 2.35894 0.211(5) 46330. 0.1991 0.2041
22295.0 2.36000 0.210(5) 46460. 0.1992 0.2036
22305.0 2.36106 0.207(5) 46990. 0.1992 0.2032
22315.0 2.36212 0.206(5) 47134. 0.1993 0.2027
22325.0 2.36318 0.209(5) 46329. 0.1993 0.2024
22335.0 2.36424 0.197(5) 48870. 0.1994 0.2021
22345.0 2.36530 0.207(5) 46739. 0.1994 0.2018
22355.0 2.36636 0.202(5) 47808. 0.1995 0.2016
22365.0 2.36742 0.203(5) 47354. 0.1996 0.2014
22375.0 2.36848 0.206(5) 46523. 0.1996 0.2013
22385.0 2.36954 0.202(5) 47517. 0.1997 0.2012
22395.0 2.37060 0.209(5) 45870. 0.1997 0.2011
22405.0 2.37166 0.194(5) 49248. 0.1998 0.2010
22415.0 2.37272 0.196(5) 48627. 0.1998 0.2010
22425.0 2.37378 0.201(5) 47413. 0.1999 0.2010
22435.0 2.37484 0.205(5) 46575. 0.1999 0.2010
22445.0 2.37590 0.201(5) 47347. 0.2000 0.2009
22455.0 2.37696 0.199(5) 47774. 0.2000 0.2009
22465.0 2.37802 0.201(5) 47103. 0.2001 0.2009
22475.0 2.37908 0.203(5) 46612. 0.2001 0.2010
22485.0 2.38014 0.197(5) 47727. 0.2002 0.2010
22495.0 2.38120 0.200(5) 47002. 0.2002 0.2010
22505.0 2.38226 0.196(5) 47837. 0.2003 0.2010
22515.0 2.38332 0.202(5) 46434. 0.2003 0.2011
22525.0 2.38438 0.194(5) 48068. 0.2004 0.2011
22535.0 2.38544 0.199(5) 46725. 0.2004 0.2011
22545.0 2.38650 0.196(5) 47333. 0.2005 0.2012
22555.0 2.38756 0.209(5) 44511. 0.2005 0.2012
22565.0 2.38862 0.205(5) 45359. 0.2006 0.2012
22575.0 2.38967 0.201(5) 46165. 0.2006 0.2012
22585.0 2.39073 0.204(5) 45465. 0.2007 0.2013
22595.0 2.39179 0.196(5) 46918. 0.2007 0.2013
22605.0 2.39285 0.204(5) 45190. 0.2008 0.2013
22615.0 2.39391 0.200(5) 45945. 0.2008 0.2014
22625.0 2.39497 0.203(5) 45248. 0.2009 0.2014
22635.0 2.39603 0.193(5) 47292. 0.2009 0.2015
22645.0 2.39709 0.205(5) 44630. 0.2010 0.2015
22655.0 2.39815 0.204(5) 44725. 0.2010 0.2016
22665.0 2.39921 0.202(5) 45212. 0.2011 0.2016
22675.0 2.40027 0.198(5) 45904. 0.2011 0.2016
22685.0 2.40133 0.198(5) 45802. 0.2012 0.2017
22695.0 2.40239 0.203(5) 44503. 0.2012 0.2017
22705.0 2.40345 0.198(5) 45578. 0.2012 0.2018
22715.0 2.40451 0.200(5) 45062. 0.2013 0.2018
22725.0 2.40557 0.208(5) 43402. 0.2013 0.2019
22735.0 2.40663 0.210(5) 42941. 0.2014 0.2019
22745.0 2.40769 0.208(5) 43213. 0.2014 0.2019
22755.0 2.40875 0.209(5) 42825. 0.2015 0.2020
22765.0 2.40981 0.198(5) 45153. 0.2015 0.2020
22775.0 2.41087 0.203(5) 43959. 0.2016 0.2021
22785.0 2.41193 0.204(5) 43647. 0.2016 0.2021
22795.0 2.41299 0.207(5) 42756. 0.2017 0.2022
22805.0 2.41405 0.201(5) 43863. 0.2017 0.2022
22815.0 2.41511 0.210(5) 42019. 0.2018 0.2022
22825.0 2.41617 0.214(5) 41268. 0.2018 0.2023
22835.0 2.41723 0.207(5) 42347. 0.2019 0.2023
22845.0 2.41829 0.209(5) 42000. 0.2019 0.2024
22855.0 2.41935 0.205(5) 42627. 0.2020 0.2024
22865.0 2.42041 0.199(5) 43809. 0.2020 0.2025
22875.0 2.42147 0.201(5) 43291. 0.2021 0.2025
22885.0 2.42252 0.196(5) 44244. 0.2021 0.2026
22895.0 2.42358 0.213(5) 40640. 0.2022 0.2026
22905.0 2.42464 0.206(5) 41903. 0.2022 0.2027
22915.0 2.42570 0.199(5) 43296. 0.2023 0.2027
22925.0 2.42676 0.205(5) 41986. 0.2023 0.2028
22935.0 2.42782 0.199(5) 43078. 0.2024 0.2028
22945.0 2.42888 0.201(5) 42446. 0.2024 0.2029
22955.0 2.42994 0.202(5) 42335. 0.2025 0.2029
22965.0 2.43100 0.210(5) 40805. 0.2025 0.2030
22975.0 2.43206 0.205(5) 41719. 0.2025 0.2030
22985.0 2.43312 0.204(5) 41669. 0.2026 0.2031
22995.0 2.43418 0.206(5) 41173. 0.2026 0.2032
23005.0 2.43524 0.204(5) 41589. 0.2027 0.2032
23015.0 2.43630 0.204(5) 41388. 0.2027 0.2033
23025.0 2.43736 0.203(5) 41747. 0.2028 0.2033
23035.0 2.43842 0.199(5) 42460. 0.2028 0.2034
23045.0 2.43948 0.204(5) 41467. 0.2029 0.2034
23055.0 2.44054 0.205(5) 41131. 0.2029 0.2035
23065.0 2.44160 0.195(5) 42984. 0.2030 0.2035
23075.0 2.44266 0.206(5) 40681. 0.2030 0.2036
23085.0 2.44372 0.197(5) 42325. 0.2031 0.2037
23095.0 2.44478 0.205(5) 40866. 0.2031 0.2037
23105.0 2.44584 0.202(5) 41425. 0.2032 0.2038
23115.0 2.44690 0.205(5) 40899. 0.2032 0.2038
23125.0 2.44796 0.195(5) 42612. 0.2033 0.2039
23135.0 2.44902 0.209(5) 39899. 0.2033 0.2040
23145.0 2.45008 0.197(5) 42053. 0.2033 0.2040
23155.0 2.45114 0.209(5) 39774. 0.2034 0.2041
23165.0 2.45220 0.205(5) 40229. 0.2034 0.2042
23175.0 2.45326 0.209(5) 39610. 0.2035 0.2042
23185.0 2.45432 0.201(5) 41049. 0.2035 0.2043
23195.0 2.45538 0.207(5) 39782. 0.2036 0.2044
23205.0 2.45643 0.203(5) 40417. 0.2036 0.2044
23215.0 2.45749 0.207(5) 39768. 0.2037 0.2045
23225.0 2.45855 0.199(5) 41047. 0.2037 0.2046
23235.0 2.45961 0.197(5) 41226. 0.2038 0.2047
23245.0 2.46067 0.212(5) 38520. 0.2038 0.2047
23255.0 2.46173 0.205(5) 39688. 0.2039 0.2048
23265.0 2.46279 0.210(5) 38582. 0.2039 0.2049
23275.0 2.46385 0.204(5) 39644. 0.2039 0.2050
23285.0 2.46491 0.207(5) 39074. 0.2040 0.2051
23295.0 2.46597 0.214(5) 37645. 0.2040 0.2052
23305.0 2.46703 0.215(5) 37510. 0.2041 0.2054
23315.0 2.46809 0.212(5) 37840. 0.2041 0.2055
23325.0 2.46915 0.207(5) 38613. 0.2042 0.2057
23335.0 2.47021 0.214(5) 37488. 0.2042 0.2058
23345.0 2.47127 0.208(5) 38488. 0.2043 0.2061
23355.0 2.47233 0.208(5) 38356. 0.2043 0.2063
23365.0 2.47339 0.207(5) 38439. 0.2044 0.2066
23375.0 2.47445 0.206(5) 38469. 0.2044 0.2069
23385.0 2.47551 0.212(5) 37427. 0.2045 0.2073
23395.0 2.47657 0.210(5) 37776. 0.2045 0.2078
23405.0 2.47763 0.218(5) 36372. 0.2045 0.2084
23415.0 2.47869 0.221(5) 35889. 0.2046 0.2090
23425.0 2.47975 0.215(5) 36684. 0.2046 0.2098
23435.0 2.48081 0.218(5) 36160. 0.2047 0.2107
23445.0 2.48187 0.206(5) 38062. 0.2047 0.2117
23455.0 2.48293 0.214(5) 36807. 0.2048 0.2130
23465.0 2.48399 0.205(5) 38258. 0.2048 0.2143
23475.0 2.48505 0.218(5) 36046. 0.2049 0.2159
23485.0 2.48611 0.213(5) 36792. 0.2049 0.2176
23495.0 2.48717 0.223(5) 35216. 0.2050 0.2195
23505.0 2.48823 0.224(5) 35064. 0.2050 0.2215
23515.0 2.48929 0.231(5) 33935. 0.2050 0.2237
23525.0 2.49035 0.232(5) 33778. 0.2051 0.2260
23535.0 2.49141 0.238(6) 32994. 0.2051 0.2284
23545.0 2.49247 0.230(5) 34001. 0.2052 0.2309
23555.0 2.49353 0.234(5) 33265. 0.2052 0.2334
23565.0 2.49459 0.230(5) 33849. 0.2053 0.2359
23575.0 2.49564 0.236(5) 33114. 0.2053 0.2383
23585.0 2.49670 0.240(6) 32595. 0.2054 0.2405
23595.0 2.49776 0.242(6) 32255. 0.2054 0.2425
23605.0 2.49882 0.244(6) 32017. 0.2055 0.2442
23615.0 2.49988 0.249(6) 31268. 0.2055 0.2455
23625.0 2.50094 0.233(5) 33305. 0.2056 0.2465
23635.0 2.50200 0.245(6) 31656. 0.2056 0.2470
23645.0 2.50306 0.257(6) 30296. 0.2056 0.2471
23655.0 2.50412 0.238(6) 32417. 0.2057 0.2467
23665.0 2.50518 0.247(6) 31316. 0.2057 0.2459
23675.0 2.50624 0.246(6) 31314. 0.2058 0.2447
23685.0 2.50730 0.245(6) 31438. 0.2058 0.2432
23695.0 2.50836 0.252(6) 30499. 0.2059 0.2414
23705.0 2.50942 0.233(6) 32905. 0.2059 0.2394
23715.0 2.51048 0.239(6) 32167. 0.2060 0.2372
23725.0 2.51154 0.249(6) 30854. 0.2060 0.2349
23735.0 2.51260 0.235(6) 32555. 0.2061 0.2326
23745.0 2.51366 0.236(6) 32447. 0.2061 0.2303
23755.0 2.51472 0.226(5) 33856. 0.2062 0.2281
23765.0 2.51578 0.226(5) 33737. 0.2062 0.2259
23775.0 2.51684 0.227(5) 33532. 0.2062 0.2239
23785.0 2.51790 0.210(5) 36072. 0.2063 0.2220
23795.0 2.51896 0.218(5) 34855. 0.2063 0.2202
23805.0 2.52002 0.222(5) 34153. 0.2064 0.2187
23815.0 2.52108 0.221(5) 34248. 0.2064 0.2173
23825.0 2.52214 0.219(5) 34610. 0.2065 0.2160
23835.0 2.52320 0.212(5) 35565. 0.2065 0.2150
23845.0 2.52426 0.210(5) 35858. 0.2066 0.2141
23855.0 2.52532 0.215(5) 35070. 0.2066 0.2133
23865.0 2.52638 0.218(5) 34520. 0.2067 0.2128
23875.0 2.52744 0.213(5) 35317. 0.2067 0.2123
23885.0 2.52850 0.220(5) 34092. 0.2068 0.2119
23895.0 2.52956 0.213(5) 35196. 0.2068 0.2117
23905.0 2.53062 0.220(5) 34107. 0.2068 0.2115
23915.0 2.53168 0.209(5) 35655. 0.2069 0.2114
23925.0 2.53274 0.210(5) 35548. 0.2069 0.2114
23935.0 2.53380 0.214(5) 34868. 0.2070 0.2114
23945.0 2.53486 0.213(5) 34917. 0.2070 0.2115
23955.0 2.53592 0.212(5) 34986. 0.2071 0.2116
23965.0 2.53698 0.221(5) 33585. 0.2071 0.2117
23975.0 2.53803 0.207(5) 35587. 0.2072 0.2118
23985.0 2.53909 0.212(5) 34758. 0.2072 0.2118
23995.0 2.54015 0.209(5) 35124. 0.2073 0.2119
24005.0 2.54121 0.211(5) 34793. 0.2073 0.2120
24015.0 2.54227 0.215(5) 34019. 0.2074 0.2120
24025.0 2.54333 0.215(5) 34111. 0.2074 0.2120
24035.0 2.54439 0.219(5) 33514. 0.2075 0.2120
24045.0 2.54545 0.216(5) 33814. 0.2075 0.2119
24055.0 2.54651 0.204(5) 35661. 0.2076 0.2118
24065.0 2.54757 0.211(5) 34516. 0.2076 0.2117
24075.0 2.54863 0.217(5) 33544. 0.2077 0.2116
24085.0 2.54969 0.217(5) 33636. 0.2077 0.2114
24095.0 2.55075 0.219(5) 33168. 0.2077 0.2113
24105.0 2.55181 0.212(5) 34222. 0.2078 0.2111
24115.0 2.55287 0.212(5) 34100. 0.2078 0.2109
24125.0 2.55393 0.215(5) 33696. 0.2079 0.2108
24135.0 2.55499 0.211(5) 34225. 0.2079 0.2106
24145.0 2.55605 0.208(5) 34824. 0.2080 0.2105
24155.0 2.55711 0.206(5) 35012. 0.2080 0.2103
24165.0 2.55817 0.196(5) 36688. 0.2081 0.2102
24175.0 2.55923 0.205(5) 35173. 0.2081 0.2101
24185.0 2.56029 0.205(5) 35110. 0.2082 0.2099
24195.0 2.56135 0.204(5) 35076. 0.2082 0.2098
24205.0 2.56241 0.211(5) 34027. 0.2083 0.2098
24215.0 2.56347 0.211(5) 33931. 0.2083 0.2097
24225.0 2.56453 0.200(5) 35582. 0.2084 0.2097
24235.0 2.56559 0.218(6) 32830. 0.2084 0.2096
24245.0 2.56665 0.218(6) 32681. 0.2085 0.2097
24255.0 2.56771 0.215(5) 33072. 0.2085 0.2096
24265.0 2.56877 0.213(5) 33452. 0.2086 0.2097
24275.0 2.56983 0.209(5) 33884. 0.2086 0.2097
24285.0 2.57089 0.206(5) 34408. 0.2087 0.2097
24295.0 2.57195 0.213(5) 33213. 0.2087 0.2097
24305.0 2.57301 0.202(5) 34873. 0.2088 0.2098
24315.0 2.57407 0.206(5) 34202. 0.2088 0.2098
24325.0 2.57513 0.211(5) 33317. 0.2089 0.2099
24335.0 2.57619 0.208(5) 33693. 0.2089 0.2100
24345.0 2.57725 0.218(6) 32225. 0.2090 0.2101
24355.0 2.57831 0.208(5) 33526. 0.2090 0.2102
24365.0 2.57937 0.215(6) 32489. 0.2091 0.2104
24375.0 2.58043 0.212(6) 32849. 0.2091 0.2105
24385.0 2.58149 0.214(6) 32507. 0.2092 0.2107
24395.0 2.58255 0.216(6) 32201. 0.2092 0.2109
24405.0 2.58361 0.215(6) 32291. 0.2093 0.2111
24415.0 2.58467 0.205(5) 33756. 0.2093 0.2114
24425.0 2.58573 0.215(6) 32161. 0.2094 0.2117
24435.0 2.58678 0.211(6) 32723. 0.2094 0.2120
24445.0 2.58784 0.209(6) 32853. 0.2095 0.2123
24455.0 2.58890 0.212(6) 32521. 0.2095 0.2127
24465.0 2.58996 0.213(6) 32347. 0.2096 0.2132
24475.0 2.59102 0.207(6) 33035. 0.2096 0.2136
24485.0 2.59208 0.219(6) 31260. 0.2097 0.2141
24495.0 2.59314 0.207(6) 32911. 0.2097 0.2147
24505.0 2.59420 0.218(6) 31374. 0.2098 0.2153
24515.0 2.59526 0.210(6) 32517. 0.2098 0.2159
24525.0 2.59632 0.218(6) 31415. 0.2099 0.2165
24535.0 2.59738 0.222(6) 30793. 0.2099 0.2172
24545.0 2.59844 0.216(6) 31604. 0.2100 0.2178
24555.0 2.59950 0.217(6) 31414. 0.2100 0.2185
24565.0 2.60056 0.232(6) 29517. 0.2101 0.2191
24575.0 2.60162 0.219(6) 31109. 0.2102 0.2198
24585.0 2.60268 0.223(6) 30573. 0.2102 0.2204
24595.0 2.60374 0.222(6) 30608. 0.2103 0.2210
24605.0 2.60480 0.218(6) 31229. 0.2103 0.2215
24615.0 2.60586 0.228(6) 29871. 0.2104 0.2220
24625.0 2.60692 0.221(6) 30747. 0.2104 0.2225
24635.0 2.60798 0.225(6) 30060. 0.2105 0.2229
24645.0 2.60904 0.233(6) 29113. 0.2105 0.2233
24655.0 2.61010 0.232(6) 29081. 0.2106 0.2236
24665.0 2.61116 0.220(6) 30558. 0.2106 0.2240
24675.0 2.61222 0.225(6) 29949. 0.2107 0.2243
24685.0 2.61328 0.231(6) 29120. 0.2107 0.2245
24695.0 2.61434 0.231(6) 29060. 0.2108 0.2248
24705.0 2.61540 0.233(6) 28714. 0.2108 0.2250
24715.0 2.61646 0.225(6) 29654. 0.2109 0.2252
24725.0 2.61752 0.221(6) 30118. 0.2110 0.2255
24735.0 2.61858 0.243(6) 27442. 0.2110 0.2257
24745.0 2.61964 0.220(6) 30220. 0.2111 0.2258
24755.0 2.62070 0.238(6) 28056. 0.2111 0.2260
24765.0 2.62176 0.235(6) 28226. 0.2112 0.2261
24775.0 2.62282 0.224(6) 29586. 0.2112 0.2261
24785.0 2.62388 0.235(6) 28304. 0.2113 0.2261
24795.0 2.62494 0.231(6) 28680. 0.2113 0.2260
24805.0 2.62600 0.226(6) 29279. 0.2114 0.2259
24815.0 2.62706 0.221(6) 29841. 0.2115 0.2257
24825.0 2.62812 0.225(6) 29330. 0.2115 0.2253
24835.0 2.62918 0.218(6) 30174. 0.2116 0.2250
24845.0 2.63024 0.228(6) 28767. 0.2116 0.2245
24855.0 2.63130 0.222(6) 29514. 0.2117 0.2240
24865.0 2.63236 0.216(6) 30290. 0.2117 0.2234
24875.0 2.63342 0.228(6) 28723. 0.2118 0.2228
24885.0 2.63448 0.219(6) 29841. 0.2119 0.2222
24895.0 2.63554 0.224(6) 29210. 0.2119 0.2215
24905.0 2.63660 0.223(6) 29335. 0.2120 0.2209
24915.0 2.63766 0.208(6) 31332. 0.2120 0.2202
24925.0 2.63872 0.224(6) 29170. 0.2121 0.2196
24935.0 2.63978 0.226(6) 28888. 0.2122 0.2190
24945.0 2.64084 0.214(6) 30451. 0.2122 0.2184
24955.0 2.64190 0.211(6) 30709. 0.2123 0.2178
24965.0 2.64296 0.221(6) 29376. 0.2123 0.2173
24975.0 2.64402 0.217(6) 29953. 0.2124 0.2168
24985.0 2.64508 0.210(6) 30897. 0.2124 0.2164
24995.0 2.64613 0.208(6) 31079. 0.2125 0.2160
25005.0 2.64719 0.209(6) 30978. 0.2126 0.2157
25015.0 2.64825 0.214(6) 30324. 0.2126 0.2154
25025.0 2.64931 0.207(6) 31320. 0.2127 0.2151
25035.0 2.65037 0.212(6) 30598. 0.2127 0.2149
25045.0 2.65143 0.218(6) 29617. 0.2128 0.2147
25055.0 2.65249 0.213(6) 30171. 0.2129 0.2146
25065.0 2.65355 0.215(6) 29924. 0.2129 0.2144
25075.0 2.65461 0.206(6) 31097. 0.2130 0.2143
25085.0 2.65567 0.221(6) 29025. 0.2131 0.2143
25095.0 2.65673 0.222(6) 28825. 0.2131 0.2142
25105.0 2.65779 0.217(6) 29374. 0.2132 0.2142
25115.0 2.65885 0.222(6) 28857. 0.2132 0.2141
25125.0 2.65991 0.221(6) 28876. 0.2133 0.2141
25135.0 2.66097 0.215(6) 29466. 0.2134 0.2141
25145.0 2.66203 0.219(6) 28980. 0.2134 0.2142
25155.0 2.66309 0.216(6) 29264. 0.2135 0.2142
25165.0 2.66415 0.206(6) 30572. 0.2136 0.2142
25175.0 2.66521 0.210(6) 30004. 0.2136 0.2142
25185.0 2.66627 0.217(6) 29088. 0.2137 0.2143
25195.0 2.66733 0.215(6) 29345. 0.2137 0.2143
25205.0 2.66839 0.218(6) 28876. 0.2138 0.2143
25215.0 2.66945 0.223(6) 28273. 0.2139 0.2144
25225.0 2.67051 0.224(6) 28071. 0.2139 0.2144
25235.0 2.67157 0.218(6) 28830. 0.2140 0.2145
25245.0 2.67263 0.213(6) 29477. 0.2141 0.2145
25255.0 2.67369 0.214(6) 29372. 0.2141 0.2146
25265.0 2.67475 0.212(6) 29733. 0.2142 0.2146
25275.0 2.67581 0.218(6) 28902. 0.2143 0.2147
25285.0 2.67687 0.209(6) 29968. 0.2143 0.2147
25295.0 2.67793 0.218(6) 28870. 0.2144 0.2148
25305.0 2.67899 0.209(6) 30062. 0.2145 0.2149
25315.0 2.68005 0.219(6) 28635. 0.2145 0.2149
25325.0 2.68111 0.209(6) 29980. 0.2146 0.2150
25335.0 2.68217 0.218(6) 28705. 0.2147 0.2150
25345.0 2.68323 0.213(6) 29196. 0.2147 0.2151
25355.0 2.68429 0.209(6) 29815. 0.2148 0.2152
25365.0 2.68535 0.218(6) 28612. 0.2149 0.2152
25375.0 2.68641 0.217(6) 28615. 0.2149 0.2153
25385.0 2.68747 0.216(6) 28737. 0.2150 0.2154
25395.0 2.68853 0.212(6) 29156. 0.2151 0.2154
25405.0 2.68959 0.212(6) 29165. 0.2151 0.2155
25415.0 2.69065 0.222(6) 27897. 0.2152 0.2155
25425.0 2.69171 0.206(6) 29919. 0.2153 0.2156
25435.0 2.69277 0.218(6) 28195. 0.2153 0.2157
25445.0 2.69383 0.217(6) 28367. 0.2154 0.2157
25455.0 2.69489 0.225(6) 27374. 0.2155 0.2158
25465.0 2.69595 0.211(6) 29191. 0.2155 0.2159
25475.0 2.69701 0.211(6) 29176. 0.2156 0.2159
25485.0 2.69807 0.212(6) 29072. 0.2157 0.2160
25495.0 2.69913 0.215(6) 28699. 0.2158 0.2161
25505.0 2.70019 0.214(6) 28772. 0.2158 0.2161
25515.0 2.70125 0.210(6) 29261. 0.2159 0.2162
25525.0 2.70231 0.208(6) 29416. 0.2160 0.2163
25535.0 2.70337 0.210(6) 29111. 0.2160 0.2164
25545.0 2.70443 0.216(6) 28397. 0.2161 0.2164
25555.0 2.70549 0.213(6) 28821. 0.2162 0.2165
25565.0 2.70655 0.214(6) 28652. 0.2163 0.2166
25575.0 2.70761 0.216(6) 28483. 0.2163 0.2166
25585.0 2.70867 0.211(6) 29114. 0.2164 0.2167
25595.0 2.70973 0.210(6) 29066. 0.2165 0.2168
25605.0 2.71079 0.218(6) 28067. 0.2165 0.2169
25615.0 2.71185 0.206(6) 29652. 0.2166 0.2169
25625.0 2.71291 0.202(6) 30076. 0.2167 0.2170
25635.0 2.71397 0.215(6) 28318. 0.2168 0.2171
25645.0 2.71503 0.211(6) 28886. 0.2168 0.2172
25655.0 2.71609 0.218(6) 27946. 0.2169 0.2172
25665.0 2.71715 0.222(6) 27390. 0.2170 0.2173
25675.0 2.71821 0.220(6) 27645. 0.2171 0.2174
25685.0 2.71927 0.215(6) 28213. 0.2171 0.2175
25695.0 2.72033 0.218(6) 27846. 0.2172 0.2175
25705.0 2.72139 0.216(6) 27980. 0.2173 0.2176
25715.0 2.72245 0.216(6) 27995. 0.2174 0.2177
25725.0 2.72351 0.207(6) 29115. 0.2174 0.2178
25735.0 2.72456 0.214(6) 28150. 0.2175 0.2179
25745.0 2.72562 0.217(6) 27663. 0.2176 0.2179
25755.0 2.72668 0.213(6) 28206. 0.2177 0.2180
25765.0 2.72774 0.210(6) 28476. 0.2178 0.2181
25775.0 2.72880 0.212(6) 28320. 0.2178 0.2181
25785.0 2.72986 0.219(6) 27355. 0.2179 0.2182
25795.0 2.73092 0.226(6) 26589. 0.2180 0.2183
25805.0 2.73198 0.231(6) 25927. 0.2181 0.2184
25815.0 2.73304 0.225(6) 26538. 0.2181 0.2185
25825.0 2.73410 0.220(6) 27059. 0.2182 0.2185
25835.0 2.73516 0.217(6) 27350. 0.2183 0.2186
25845.0 2.73622 0.215(6) 27559. 0.2184 0.2187
25855.0 2.73728 0.225(6) 26379. 0.2185 0.2188
25865.0 2.73834 0.224(6) 26510. 0.2185 0.2189
25875.0 2.73940 0.213(6) 27777. 0.2186 0.2190
25885.0 2.74046 0.222(6) 26634. 0.2187 0.2191
25895.0 2.74152 0.220(6) 26873. 0.2188 0.2191
25905.0 2.74258 0.216(6) 27242. 0.2189 0.2192
25915.0 2.74364 0.220(6) 26733. 0.2189 0.2193
25925.0 2.74470 0.218(6) 27010. 0.2190 0.2194
25935.0 2.74576 0.222(6) 26515. 0.2191 0.2195
25945.0 2.74682 0.218(6) 26882. 0.2192 0.2196
25955.0 2.74788 0.218(6) 26887. 0.2193 0.2197
25965.0 2.74894 0.223(6) 26300. 0.2194 0.2198
25975.0 2.75000 0.223(6) 26148. 0.2194 0.2198
25985.0 2.75106 0.212(6) 27418. 0.2195 0.2199
25995.0 2.75212 0.220(6) 26513. 0.2196 0.2200
26005.0 2.75318 0.218(6) 26676. 0.2197 0.2201
26015.0 2.75424 0.221(6) 26338. 0.2198 0.2202
26025.0 2.75530 0.231(6) 25124. 0.2199 0.2203
26035.0 2.75636 0.214(6) 27014. 0.2199 0.2204
26045.0 2.75742 0.213(6) 27101. 0.2200 0.2205
26055.0 2.75848 0.221(6) 26119. 0.2201 0.2206
26065.0 2.75954 0.221(6) 26143. 0.2202 0.2207
26075.0 2.76060 0.222(6) 26041. 0.2203 0.2208
26085.0 2.76166 0.227(6) 25439. 0.2204 0.2209
26095.0 2.76272 0.227(6) 25442. 0.2205 0.2210
26105.0 2.76378 0.219(6) 26331. 0.2205 0.2211
26115.0 2.76484 0.213(6) 27081. 0.2206 0.2212
26125.0 2.76590 0.222(6) 25992. 0.2207 0.2213
26135.0 2.76696 0.220(6) 26160. 0.2208 0.2214
26145.0 2.76802 0.226(6) 25460. 0.2209 0.2215
26155.0 2.76908 0.224(6) 25575. 0.2210 0.2216
26165.0 2.77014 0.223(6) 25656. 0.2211 0.2217
26175.0 2.77120 0.209(6) 27282. 0.2211 0.2218
26185.0 2.77226 0.230(6) 24905. 0.2212 0.2219
26195.0 2.77332 0.217(6) 26284. 0.2213 0.2220
26205.0 2.77438 0.226(6) 25269. 0.2214 0.2221
26215.0 2.77544 0.232(6) 24562. 0.2215 0.2222
26225.0 2.77650 0.225(6) 25216. 0.2216 0.2223
26235.0 2.77756 0.214(6) 26475. 0.2217 0.2224
26245.0 2.77862 0.215(6) 26251. 0.2218 0.2225
26255.0 2.77968 0.219(6) 25714. 0.2219 0.2226
26265.0 2.78074 0.235(6) 24059. 0.2220 0.2227
26275.0 2.78180 0.222(6) 25324. 0.2220 0.2229
26285.0 2.78286 0.225(6) 25054. 0.2221 0.2230
26295.0 2.78392 0.228(6) 24674. 0.2222 0.2231
26305.0 2.78498 0.228(6) 24651. 0.2223 0.2232
26315.0 2.78604 0.223(6) 25243. 0.2224 0.2233
26325.0 2.78710 0.226(6) 24889. 0.2225 0.2235
26335.0 2.78816 0.222(6) 25298. 0.2226 0.2236
26345.0 2.78922 0.230(6) 24399. 0.2227 0.2237
26355.0 2.79028 0.233(6) 24085. 0.2228 0.2238
26365.0 2.79134 0.219(6) 25487. 0.2229 0.2240
26375.0 2.79240 0.228(6) 24626. 0.2230 0.2241
26385.0 2.79346 0.218(6) 25610. 0.2231 0.2243
26395.0 2.79452 0.218(6) 25529. 0.2232 0.2244
26405.0 2.79558 0.227(6) 24482. 0.2233 0.2246
26415.0 2.79664 0.220(6) 25232. 0.2233 0.2247
26425.0 2.79770 0.229(6) 24261. 0.2234 0.2249
26435.0 2.79876 0.222(6) 25045. 0.2235 0.2251
26445.0 2.79982 0.223(6) 24907. 0.2236 0.2252
26455.0 2.80088 0.228(6) 24387. 0.2237 0.2254
26465.0 2.80194 0.226(6) 24470. 0.2238 0.2257
26475.0 2.80300 0.221(6) 25028. 0.2239 0.2259
26485.0 2.80406 0.223(6) 24768. 0.2240 0.2262
26495.0 2.80512 0.230(6) 23954. 0.2241 0.2264
26505.0 2.80618 0.228(6) 24168. 0.2242 0.2268
26515.0 2.80724 0.213(6) 25810. 0.2243 0.2271
26525.0 2.80830 0.235(7) 23438. 0.2244 0.2275
26535.0 2.80936 0.231(6) 23808. 0.2245 0.2280
26545.0 2.81042 0.231(6) 23814. 0.2246 0.2285
26555.0 2.81148 0.225(6) 24377. 0.2247 0.2291
26565.0 2.81254 0.239(7) 22962. 0.2248 0.2298
26575.0 2.81360 0.231(6) 23731. 0.2249 0.2305
26585.0 2.81466 0.239(7) 22887. 0.2250 0.2314
26595.0 2.81572 0.221(6) 24679. 0.2251 0.2324
26605.0 2.81678 0.249(7) 22028. 0.2252 0.2336
26615.0 2.81784 0.249(7) 22017. 0.2253 0.2349
26625.0 2.81890 0.234(7) 23304. 0.2254 0.2363
26635.0 2.81996 0.229(6) 23810. 0.2255 0.2379
26645.0 2.82102 0.238(7) 22874. 0.2256 0.2397
26655.0 2.82208 0.248(7) 22005. 0.2257 0.2417
26665.0 2.82314 0.249(7) 21931. 0.2258 0.2438
26675.0 2.82420 0.245(7) 22275. 0.2259 0.2461
26685.0 2.82526 0.248(7) 21968. 0.2260 0.2487
26695.0 2.82632 0.249(7) 21823. 0.2261 0.2514
26705.0 2.82738 0.247(7) 22025. 0.2262 0.2542
26715.0 2.82844 0.252(7) 21509. 0.2263 0.2572
26725.0 2.82950 0.242(7) 22391. 0.2264 0.2603
26735.0 2.83056 0.260(7) 20803. 0.2265 0.2636
26745.0 2.83162 0.256(7) 21111. 0.2266 0.2668
26755.0 2.83268 0.255(7) 21218. 0.2267 0.2701
26765.0 2.83374 0.276(7) 19601. 0.2268 0.2734
26775.0 2.83480 0.274(7) 19727. 0.2269 0.2766
26785.0 2.83586 0.264(7) 20407. 0.2270 0.2797
26795.0 2.83692 0.280(7) 19294. 0.2271 0.2825
26805.0 2.83798 0.288(7) 18723. 0.2272 0.2852
26815.0 2.83904 0.275(7) 19566. 0.2273 0.2875
26825.0 2.84010 0.286(7) 18754. 0.2274 0.2895
26835.0 2.84116 0.282(7) 18978. 0.2276 0.2911
26845.0 2.84222 0.289(7) 18536. 0.2277 0.2922
26855.0 2.84328 0.296(7) 18113. 0.2278 0.2929
26865.0 2.84434 0.278(7) 19229. 0.2279 0.2931
26875.0 2.84540 0.290(7) 18471. 0.2280 0.2929
26885.0 2.84646 0.290(7) 18468. 0.2281 0.2922
26895.0 2.84752 0.289(7) 18520. 0.2282 0.2910
26905.0 2.84858 0.288(7) 18504. 0.2283 0.2895
26915.0 2.84964 0.278(7) 19072. 0.2284 0.2876
26925.0 2.85070 0.273(7) 19432. 0.2285 0.2854
26935.0 2.85176 0.284(7) 18632. 0.2286 0.2830
26945.0 2.85282 0.278(7) 19008. 0.2287 0.2805
26955.0 2.85388 0.273(7) 19326. 0.2288 0.2777
26965.0 2.85494 0.270(7) 19540. 0.2289 0.2748
26975.0 2.85600 0.252(7) 20919. 0.2291 0.2718
26985.0 2.85706 0.260(7) 20237. 0.2292 0.2689
26995.0 2.85812 0.254(7) 20712. 0.2293 0.2659
27005.0 2.85918 0.246(7) 21277. 0.2294 0.2630
27015.0 2.86024 0.257(7) 20417. 0.2295 0.2603
27025.0 2.86130 0.236(7) 22129. 0.2296 0.2576
27035.0 2.86236 0.255(7) 20531. 0.2297 0.2551
27045.0 2.86342 0.251(7) 20798. 0.2298 0.2527
27055.0 2.86448 0.232(7) 22443. 0.2299 0.2505
27065.0 2.86554 0.242(7) 21522. 0.2300 0.2485
27075.0 2.86660 0.254(7) 20486. 0.2302 0.2466
27085.0 2.86766 0.244(7) 21374. 0.2303 0.2449
27095.0 2.86872 0.234(7) 22158. 0.2304 0.2434
27105.0 2.86978 0.242(7) 21431. 0.2305 0.2420
27115.0 2.87084 0.254(7) 20436. 0.2306 0.2408
27125.0 2.87190 0.244(7) 21134. 0.2307 0.2398
27135.0 2.87296 0.222(7) 23182. 0.2308 0.2388
27145.0 2.87402 0.244(7) 21061. 0.2309 0.2380
27155.0 2.87508 0.225(7) 22821. 0.2310 0.2373
27165.0 2.87614 0.227(7) 22520. 0.2312 0.2368
27175.0 2.87720 0.236(7) 21737. 0.2313 0.2363
27185.0 2.87826 0.246(7) 20825. 0.2314 0.2358
27195.0 2.87932 0.248(7) 20663. 0.2315 0.2355
27205.0 2.88038 0.238(7) 21408. 0.2316 0.2352
27215.0 2.88144 0.224(7) 22653. 0.2317 0.2350
27225.0 2.88250 0.228(7) 22244. 0.2318 0.2348
27235.0 2.88356 0.230(7) 22079. 0.2320 0.2347
27245.0 2.88462 0.242(7) 20991. 0.2321 0.2346
27255.0 2.88568 0.242(7) 21005. 0.2322 0.2345
27265.0 2.88674 0.237(7) 21398. 0.2323 0.2345
27275.0 2.88780 0.232(7) 21904. 0.2324 0.2344
27285.0 2.88886 0.230(7) 22071. 0.2325 0.2344
27295.0 2.88992 0.232(7) 21828. 0.2326 0.2344
27305.0 2.89098 0.249(7) 20380. 0.2328 0.2345
27315.0 2.89204 0.220(7) 22952. 0.2329 0.2345
27325.0 2.89310 0.241(7) 20949. 0.2330 0.2345
27335.0 2.89416 0.233(7) 21592. 0.2331 0.2346
27345.0 2.89522 0.250(7) 20169. 0.2332 0.2347
27355.0 2.89628 0.240(7) 20935. 0.2333 0.2347
27365.0 2.89734 0.240(7) 20899. 0.2335 0.2348
27375.0 2.89840 0.223(7) 22366. 0.2336 0.2349
27385.0 2.89946 0.236(7) 21104. 0.2337 0.2349
27395.0 2.90052 0.237(7) 20978. 0.2338 0.2350
27405.0 2.90158 0.241(7) 20713. 0.2339 0.2351
27415.0 2.90264 0.249(7) 20008. 0.2340 0.2352
27425.0 2.90370 0.235(7) 21052. 0.2342 0.2353
27435.0 2.90476 0.235(7) 21071. 0.2343 0.2354
27445.0 2.90582 0.244(7) 20345. 0.2344 0.2354
27455.0 2.90688 0.246(7) 20098. 0.2345 0.2355
27465.0 2.90794 0.247(7) 20067. 0.2346 0.2356
27475.0 2.90900 0.242(7) 20516. 0.2348 0.2357
27485.0 2.91006 0.244(7) 20265. 0.2349 0.2358
27495.0 2.91112 0.241(7) 20524. 0.2350 0.2359
27505.0 2.91218 0.235(7) 21043. 0.2351 0.2360
27515.0 2.91324 0.236(7) 20867. 0.2352 0.2361
27525.0 2.91430 0.235(7) 20927. 0.2354 0.2362
27535.0 2.91536 0.240(7) 20486. 0.2355 0.2363
27545.0 2.91642 0.234(7) 21012. 0.2356 0.2364
27555.0 2.91748 0.243(7) 20205. 0.2357 0.2365
27565.0 2.91854 0.237(7) 20684. 0.2358 0.2366
27575.0 2.91960 0.226(7) 21692. 0.2360 0.2368
27585.0 2.92066 0.229(7) 21375. 0.2361 0.2369
27595.0 2.92172 0.240(7) 20480. 0.2362 0.2370
27605.0 2.92278 0.241(7) 20295. 0.2363 0.2371
27615.0 2.92384 0.245(7) 19963. 0.2364 0.2372
27625.0 2.92490 0.250(7) 19597. 0.2366 0.2373
27635.0 2.92596 0.239(7) 20413. 0.2367 0.2374
27645.0 2.92702 0.230(7) 21235. 0.2368 0.2375
27655.0 2.92808 0.235(7) 20739. 0.2369 0.2376
27665.0 2.92914 0.251(7) 19502. 0.2370 0.2378
27675.0 2.93020 0.231(7) 21043. 0.2372 0.2379
27685.0 2.93126 0.228(7) 21332. 0.2373 0.2380
27695.0 2.93232 0.246(7) 19778. 0.2374 0.2381
27705.0 2.93338 0.242(7) 20081. 0.2375 0.2382
27715.0 2.93444 0.246(7) 19684. 0.2377 0.2383
27725.0 2.93550 0.236(7) 20487. 0.2378 0.2384
27735.0 2.93656 0.241(7) 20117. 0.2379 0.2386
27745.0 2.93762 0.232(7) 20834. 0.2380 0.2387
27755.0 2.93868 0.236(7) 20494. 0.2382 0.2388
27765.0 2.93974 0.233(7) 20761. 0.2383 0.2389
27775.0 2.94080 0.237(7) 20320. 0.2384 0.2390
27785.0 2.94186 0.246(7) 19640. 0.2385 0.2391
27795.0 2.94292 0.243(7) 19791. 0.2386 0.2393
27805.0 2.94398 0.247(7) 19506. 0.2388 0.2394
27815.0 2.94504 0.227(7) 21138. 0.2389 0.2395
27825.0 2.94610 0.249(7) 19288. 0.2390 0.2396
27835.0 2.94716 0.234(7) 20431. 0.2391 0.2398
27845.0 2.94822 0.241(7) 19920. 0.2393 0.2399
27855.0 2.94928 0.241(7) 19824. 0.2394 0.2400
27865.0 2.95034 0.246(7) 19510. 0.2395 0.2401
27875.0 2.95140 0.238(7) 20086. 0.2396 0.2402
27885.0 2.95246 0.242(7) 19759. 0.2398 0.2404
27895.0 2.95352 0.247(7) 19396. 0.2399 0.2405
27905.0 2.95458 0.240(7) 19886. 0.2400 0.2406
27915.0 2.95564 0.258(7) 18510. 0.2401 0.2407
27925.0 2.95670 0.243(7) 19636. 0.2403 0.2409
27935.0 2.95776 0.243(7) 19598. 0.2404 0.2410
27945.0 2.95882 0.252(7) 18984. 0.2405 0.2411
27955.0 2.95988 0.236(7) 20166. 0.2406 0.2412
27965.0 2.96094 0.239(7) 19938. 0.2408 0.2414
27975.0 2.96200 0.253(7) 18818. 0.2409 0.2415
27985.0 2.96306 0.249(7) 19143. 0.2410 0.2416
27995.0 2.96412 0.243(7) 19578. 0.2411 0.2417
28005.0 2.96518 0.253(7) 18801. 0.2413 0.2419
28015.0 2.96624 0.248(7) 19130. 0.2414 0.2420
28025.0 2.96730 0.232(7) 20380. 0.2415 0.2421
28035.0 2.96836 0.247(7) 19163. 0.2417 0.2422
28045.0 2.96942 0.259(7) 18279. 0.2418 0.2424
28055.0 2.97048 0.244(7) 19301. 0.2419 0.2425
28065.0 2.97154 0.248(7) 18969. 0.2420 0.2426
28075.0 2.97260 0.254(7) 18520. 0.2422 0.2427
28085.0 2.97366 0.246(7) 19064. 0.2423 0.2429
28095.0 2.97472 0.233(7) 19984. 0.2424 0.2430
28105.0 2.97578 0.241(7) 19338. 0.2425 0.2431
28115.0 2.97684 0.245(7) 19038. 0.2427 0.2433
28125.0 2.97790 0.247(7) 18829. 0.2428 0.2434
28135.0 2.97896 0.244(7) 19069. 0.2429 0.2435
28145.0 2.98002 0.239(7) 19420. 0.2431 0.2437
28155.0 2.98108 0.239(7) 19360. 0.2432 0.2438
28165.0 2.98214 0.245(7) 18913. 0.2433 0.2439
28175.0 2.98320 0.240(7) 19302. 0.2434 0.2440
28185.0 2.98426 0.240(7) 19311. 0.2436 0.2442
28195.0 2.98532 0.243(7) 18952. 0.2437 0.2443
28205.0 2.98638 0.239(7) 19238. 0.2438 0.2444
28215.0 2.98744 0.253(7) 18192. 0.2439 0.2446
28225.0 2.98850 0.241(7) 19032. 0.2441 0.2447
28235.0 2.98956 0.254(7) 18055. 0.2442 0.2448
28245.0 2.99062 0.249(7) 18407. 0.2443 0.2450
28255.0 2.99168 0.249(7) 18371. 0.2445 0.2451
28265.0 2.99274 0.241(7) 18872. 0.2446 0.2452
28275.0 2.99380 0.260(8) 17586. 0.2447 0.2454
28285.0 2.99486 0.246(7) 18497. 0.2448 0.2455
28295.0 2.99592 0.252(7) 18060. 0.2450 0.2456
28305.0 2.99698 0.241(7) 18840. 0.2451 0.2458
28315.0 2.99804 0.253(7) 17893. 0.2452 0.2459
28325.0 2.99910 0.255(8) 17692. 0.2454 0.2460
28335.0 3.00016 0.257(8) 17540. 0.2455 0.2462
28345.0 3.00122 0.249(7) 18087. 0.2456 0.2463
28355.0 3.00228 0.252(7) 17850. 0.2458 0.2464
28365.0 3.00334 0.249(7) 18011. 0.2459 0.2466
28375.0 3.00440 0.249(7) 18071. 0.2460 0.2467
28385.0 3.00546 0.252(7) 17820. 0.2461 0.2468
28395.0 3.00652 0.257(8) 17520. 0.2463 0.2470
28405.0 3.00758 0.257(8) 17414. 0.2464 0.2471
28415.0 3.00864 0.261(8) 17178. 0.2465 0.2472
28425.0 3.00970 0.254(8) 17636. 0.2467 0.2474
28435.0 3.01076 0.249(7) 17977. 0.2468 0.2475
28445.0 3.01182 0.243(7) 18409. 0.2469 0.2476
28455.0 3.01288 0.254(8) 17626. 0.2470 0.2478
28465.0 3.01394 0.260(8) 17218. 0.2472 0.2479
28475.0 3.01500 0.256(8) 17479. 0.2473 0.2481
28485.0 3.01606 0.244(7) 18316. 0.2474 0.2482
28495.0 3.01712 0.261(8) 17135. 0.2476 0.2483
28505.0 3.01818 0.243(7) 18314. 0.2477 0.2485
28515.0 3.01924 0.248(7) 17936. 0.2478 0.2486
28525.0 3.02030 0.246(7) 18066. 0.2480 0.2487
28535.0 3.02136 0.257(8) 17271. 0.2481 0.2489
28545.0 3.02242 0.255(8) 17440. 0.2482 0.2490
28555.0 3.02348 0.242(7) 18336. 0.2483 0.2492
28565.0 3.02454 0.253(8) 17580. 0.2485 0.2493
28575.0 3.02560 0.262(8) 16942. 0.2486 0.2494
28585.0 3.02666 0.245(7) 18075. 0.2487 0.2496
28595.0 3.02772 0.253(8) 17526. 0.2489 0.2497
28605.0 3.02878 0.269(8) 16548. 0.2490 0.2499
28615.0 3.02984 0.259(8) 17154. 0.2491 0.2500
28625.0 3.03091 0.249(7) 17801. 0.2493 0.2501
28635.0 3.03197 0.252(8) 17581. 0.2494 0.2503
28645.0 3.03303 0.250(8) 17748. 0.2495 0.2504
28655.0 3.03409 0.238(7) 18545. 0.2497 0.2506
28665.0 3.03515 0.263(8) 16852. 0.2498 0.2507
28675.0 3.03621 0.245(7) 18042. 0.2499 0.2509
28685.0 3.03727 0.251(8) 17622. 0.2500 0.2510
28695.0 3.03833 0.242(7) 18229. 0.2502 0.2511
28705.0 3.03939 0.253(8) 17428. 0.2503 0.2513
28715.0 3.04045 0.250(8) 17583. 0.2504 0.2514
28725.0 3.04151 0.250(8) 17618. 0.2506 0.2516
28735.0 3.04257 0.260(8) 16952. 0.2507 0.2517
28745.0 3.04363 0.242(7) 18230. 0.2508 0.2519
28755.0 3.04469 0.239(7) 18456. 0.2510 0.2520
28765.0 3.04575 0.254(8) 17372. 0.2511 0.2522
28775.0 3.04681 0.259(8) 17010. 0.2512 0.2523
28785.0 3.04787 0.251(8) 17545. 0.2514 0.2525
28795.0 3.04893 0.237(7) 18538. 0.2515 0.2526
28805.0 3.04999 0.257(8) 17087. 0.2516 0.2528
28815.0 3.05105 0.255(8) 17152. 0.2517 0.2529
28825.0 3.05211 0.270(8) 16171. 0.2519 0.2531
28835.0 3.05317 0.255(8) 17064. 0.2520 0.2532
28845.0 3.05423 0.255(8) 17093. 0.2521 0.2534
28855.0 3.05529 0.261(8) 16659. 0.2523 0.2535
28865.0 3.05635 0.269(8) 16181. 0.2524 0.2537
28875.0 3.05741 0.262(8) 16624. 0.2525 0.2538
28885.0 3.05847 0.256(8) 16986. 0.2527 0.2540
28895.0 3.05953 0.249(8) 17437. 0.2528 0.2541
28905.0 3.06059 0.253(8) 17112. 0.2529 0.2543
28915.0 3.06165 0.260(8) 16640. 0.2531 0.2544
28925.0 3.06271 0.257(8) 16822. 0.2532 0.2546
28935.0 3.06377 0.261(8) 16517. 0.2533 0.2548
28945.0 3.06483 0.246(8) 17486. 0.2535 0.2549
28955.0 3.06589 0.246(8) 17465. 0.2536 0.2551
28965.0 3.06695 0.261(8) 16496. 0.2537 0.2552
28975.0 3.06801 0.257(8) 16729. 0.2539 0.2554
28985.0 3.06907 0.250(8) 17199. 0.2540 0.2556
28995.0 3.07013 0.256(8) 16779. 0.2541 0.2557
29005.0 3.07119 0.258(8) 16686. 0.2543 0.2559
29015.0 3.07225 0.264(8) 16260. 0.2544 0.2560
29025.0 3.07331 0.245(8) 17482. 0.2545 0.2562
29035.0 3.07437 0.262(8) 16323. 0.2546 0.2564
29045.0 3.07543 0.253(8) 16827. 0.2548 0.2565
29055.0 3.07649 0.258(8) 16504. 0.2549 0.2567
29065.0 3.07755 0.259(8) 16484. 0.2550 0.2569
29075.0 3.07861 0.255(8) 16687. 0.2552 0.2571
29085.0 3.07967 0.269(8) 15833. 0.2553 0.2572
29095.0 3.08073 0.240(8) 17662. 0.2554 0.2574
29105.0 3.08179 0.252(8) 16822. 0.2556 0.2576
29115.0 3.08285 0.260(8) 16287. 0.2557 0.2578
29125.0 3.08391 0.266(8) 15948. 0.2558 0.2580
29135.0 3.08497 0.263(8) 16123. 0.2560 0.2581
29145.0 3.08603 0.260(8) 16313. 0.2561 0.2583
29155.0 3.08709 0.274(8) 15494. 0.2562 0.2585
29165.0 3.08815 0.263(8) 16114. 0.2564 0.2587
29175.0 3.08921 0.262(8) 16116. 0.2565 0.2589
29185.0 3.09027 0.263(8) 16067. 0.2566 0.2591
29195.0 3.09133 0.247(8) 17103. 0.2568 0.2593
29205.0 3.09239 0.254(8) 16646. 0.2569 0.2595
29215.0 3.09345 0.248(8) 16970. 0.2570 0.2597
29225.0 3.09451 0.262(8) 16055. 0.2572 0.2599
29235.0 3.09557 0.260(8) 16188. 0.2573 0.2601
29245.0 3.09663 0.286(8) 14762. 0.2574 0.2603
29255.0 3.09769 0.265(8) 15909. 0.2576 0.2605
29265.0 3.09875 0.273(8) 15428. 0.2577 0.2607
29275.0 3.09981 0.261(8) 16085. 0.2578 0.2610
29285.0 3.10087 0.251(8) 16731. 0.2580 0.2612
29295.0 3.10193 0.261(8) 16062. 0.2581 0.2614
29305.0 3.10299 0.254(8) 16465. 0.2582 0.2617
29315.0 3.10405 0.275(8) 15223. 0.2584 0.2619
29325.0 3.10511 0.250(8) 16719. 0.2585 0.2622
29335.0 3.10617 0.263(8) 15869. 0.2586 0.2624
29345.0 3.10723 0.270(8) 15494. 0.2588 0.2627
29355.0 3.10829 0.263(8) 15845. 0.2589 0.2630
29365.0 3.10935 0.270(8) 15473. 0.2590 0.2633
29375.0 3.11041 0.262(8) 15990. 0.2592 0.2636
29385.0 3.11148 0.261(8) 16014. 0.2593 0.2639
29395.0 3.11254 0.264(8) 15821. 0.2594 0.2642
29405.0 3.11360 0.261(8) 15952. 0.2596 0.2646
29415.0 3.11466 0.263(8) 15877. 0.2597 0.2650
29425.0 3.11572 0.270(8) 15459. 0.2598 0.2654
29435.0 3.11678 0.252(8) 16564. 0.2600 0.2658
29445.0 3.11784 0.262(8) 15936. 0.2601 0.2663
29455.0 3.11890 0.267(8) 15636. 0.2602 0.2668
29465.0 3.11996 0.270(8) 15396. 0.2604 0.2674
29475.0 3.12102 0.271(8) 15342. 0.2605 0.2681
29485.0 3.12208 0.280(8) 14774. 0.2606 0.2688
29495.0 3.12314 0.262(8) 15786. 0.2608 0.2697
29505.0 3.12420 0.281(8) 14715. 0.2609 0.2706
29515.0 3.12526 0.271(8) 15214. 0.2611 0.2717
29525.0 3.12632 0.280(8) 14789. 0.2612 0.2729
29535.0 3.12738 0.263(8) 15658. 0.2613 0.2742
29545.0 3.12844 0.288(8) 14373. 0.2615 0.2757
29555.0 3.12950 0.288(8) 14333. 0.2616 0.2775
29565.0 3.13056 0.289(8) 14264. 0.2617 0.2794
29575.0 3.13162 0.280(8) 14660. 0.2619 0.2816
29585.0 3.13268 0.290(8) 14194. 0.2620 0.2841
29595.0 3.13374 0.295(8) 13940. 0.2621 0.2869
29605.0 3.13480 0.294(8) 13952. 0.2623 0.2900
29615.0 3.13586 0.296(9) 13831. 0.2624 0.2935
29625.0 3.13692 0.299(9) 13691. 0.2625 0.2973
29635.0 3.13798 0.301(9) 13588. 0.2627 0.3016
29645.0 3.13904 0.299(9) 13700. 0.2628 0.3063
29655.0 3.14010 0.302(9) 13571. 0.2630 0.3114
29665.0 3.14116 0.321(9) 12778. 0.2631 0.3169
29675.0 3.14222 0.319(9) 12808. 0.2632 0.3230
29685.0 3.14328 0.314(9) 13000. 0.2634 0.3295
29695.0 3.14434 0.342(9) 11948. 0.2635 0.3364
29705.0 3.14540 0.331(9) 12294. 0.2636 0.3438
29715.0 3.14646 0.333(9) 12192. 0.2638 0.3517
29725.0 3.14752 0.365(9) 11110. 0.2639 0.3599
29735.0 3.14858 0.359(9) 11278. 0.2640 0.3685
29745.0 3.14964 0.372(10) 10904. 0.2642 0.3775
29755.0 3.15070 0.372(10) 10881. 0.2643 0.3867
29765.0 3.15176 0.395(10) 10250. 0.2645 0.3961
29775.0 3.15282 0.406(10) 9962. 0.2646 0.4056
29785.0 3.15388 0.392(10) 10301. 0.2647 0.4151
29795.0 3.15494 0.401(10) 10067. 0.2649 0.4247
29805.0 3.15600 0.411(10) 9804. 0.2650 0.4340
29815.0 3.15706 0.429(10) 9385. 0.2652 0.4431
29825.0 3.15812 0.435(10) 9246. 0.2653 0.4518
29835.0 3.15918 0.453(11) 8851. 0.2654 0.4600
29845.0 3.16024 0.465(11) 8624. 0.2656 0.4676
29855.0 3.16130 0.484(11) 8275. 0.2657 0.4745
29865.0 3.16236 0.497(11) 8066. 0.2658 0.4805
29875.0 3.16342 0.463(11) 8646. 0.2660 0.4856
29885.0 3.16448 0.488(11) 8179. 0.2661 0.4896
29895.0 3.16554 0.501(11) 7953. 0.2663 0.4926
29905.0 3.16660 0.494(11) 8050. 0.2664 0.4944
29915.0 3.16766 0.484(11) 8205. 0.2665 0.4950
29925.0 3.16873 0.493(11) 8074. 0.2667 0.4945
29935.0 3.16979 0.482(11) 8248. 0.2668 0.4928
29945.0 3.17085 0.487(11) 8170. 0.2670 0.4900
29955.0 3.17191 0.480(11) 8260. 0.2671 0.4861
29965.0 3.17297 0.458(11) 8644. 0.2673 0.4813
29975.0 3.17403 0.457(11) 8627. 0.2674 0.4757
29985.0 3.17509 0.443(11) 8882. 0.2675 0.4692
29995.0 3.17615 0.432(11) 9065. 0.2677 0.4621
30005.0 3.17721 0.452(11) 8700. 0.2678 0.4544
30015.0 3.17827 0.428(10) 9168. 0.2680 0.4462
30025.0 3.17933 0.424(10) 9235. 0.2681 0.4377
30035.0 3.18039 0.410(10) 9523. 0.2682 0.4290
30045.0 3.18145 0.415(10) 9398. 0.2684 0.4201
30055.0 3.18251 0.405(10) 9619. 0.2685 0.4111
30065.0 3.18357 0.373(10) 10455. 0.2687 0.4022
30075.0 3.18463 0.379(10) 10266. 0.2688 0.3934
30085.0 3.18569 0.374(10) 10369. 0.2690 0.3847
30095.0 3.18675 0.363(10) 10673. 0.2691 0.3763
30105.0 3.18781 0.358(10) 10770. 0.2693 0.3682
30115.0 3.18887 0.351(10) 10958. 0.2694 0.3604
30125.0 3.18993 0.345(9) 11111. 0.2695 0.3530
30135.0 3.19099 0.346(10) 11061. 0.2697 0.3460
30145.0 3.19205 0.328(9) 11651. 0.2698 0.3395
30155.0 3.19311 0.338(9) 11272. 0.2700 0.3333
30165.0 3.19417 0.326(9) 11704. 0.2701 0.3276
30175.0 3.19523 0.316(9) 12053. 0.2703 0.3223
30185.0 3.19629 0.317(9) 12054. 0.2704 0.3174
30195.0 3.19735 0.310(9) 12318. 0.2706 0.3130
30205.0 3.19841 0.306(9) 12473. 0.2707 0.3089
30215.0 3.19947 0.316(9) 12061. 0.2709 0.3052
30225.0 3.20053 0.305(9) 12486. 0.2710 0.3019
30235.0 3.20159 0.294(9) 12886. 0.2712 0.2989
30245.0 3.20265 0.298(9) 12727. 0.2713 0.2963
30255.0 3.20371 0.304(9) 12505. 0.2715 0.2939
30265.0 3.20477 0.292(9) 13010. 0.2716 0.2918
30275.0 3.20583 0.285(9) 13341. 0.2718 0.2900
30285.0 3.20689 0.284(9) 13376. 0.2719 0.2884
30295.0 3.20795 0.280(9) 13519. 0.2720 0.2869
30305.0 3.20901 0.295(9) 12847. 0.2722 0.2857
30315.0 3.21007 0.293(9) 12915. 0.2724 0.2846
30325.0 3.21113 0.284(9) 13265. 0.2725 0.2837
30335.0 3.21219 0.279(9) 13534. 0.2727 0.2829
30345.0 3.21325 0.293(9) 12886. 0.2728 0.2822
30355.0 3.21431 0.286(9) 13201. 0.2730 0.2816
30365.0 3.21537 0.279(9) 13524. 0.2731 0.2811
30375.0 3.21643 0.292(9) 12974. 0.2733 0.2807
30385.0 3.21749 0.277(9) 13658. 0.2734 0.2804
30395.0 3.21856 0.276(9) 13688. 0.2736 0.2801
30405.0 3.21962 0.284(9) 13329. 0.2737 0.2798
30415.0 3.22068 0.282(9) 13426. 0.2739 0.2796
30425.0 3.22174 0.276(9) 13646. 0.2740 0.2795
30435.0 3.22280 0.269(8) 13960. 0.2742 0.2793
30445.0 3.22386 0.300(9) 12580. 0.2743 0.2792
30455.0 3.22492 0.275(9) 13697. 0.2745 0.2792
30465.0 3.22598 0.264(8) 14240. 0.2747 0.2791
30475.0 3.22704 0.285(9) 13229. 0.2748 0.2791
30485.0 3.22810 0.284(9) 13159. 0.2750 0.2791
30495.0 3.22916 0.287(9) 13004. 0.2751 0.2791
30505.0 3.23022 0.294(9) 12679. 0.2753 0.2791
30515.0 3.23128 0.280(9) 13303. 0.2754 0.2791
30525.0 3.23234 0.288(9) 12879. 0.2756 0.2791
30535.0 3.23340 0.280(9) 13261. 0.2758 0.2792
30545.0 3.23446 0.282(9) 13106. 0.2759 0.2792
30555.0 3.23552 0.278(9) 13251. 0.2761 0.2793
30565.0 3.23658 0.281(9) 13137. 0.2762 0.2793
30575.0 3.23764 0.277(9) 13357. 0.2764 0.2794
30585.0 3.23870 0.285(9) 12996. 0.2766 0.2795
30595.0 3.23976 0.274(9) 13497. 0.2767 0.2795
30605.0 3.24082 0.271(9) 13656. 0.2769 0.2796
30615.0 3.24188 0.279(9) 13248. 0.2770 0.2797
30625.0 3.24294 0.283(9) 13056. 0.2772 0.2798
30635.0 3.24400 0.262(8) 14078. 0.2774 0.2799
30645.0 3.24506 0.298(9) 12372. 0.2775 0.2800
30655.0 3.24612 0.286(9) 12867. 0.2777 0.2801
30665.0 3.24718 0.266(9) 13769. 0.2779 0.2802
30675.0 3.24824 0.283(9) 12943. 0.2780 0.2803
30685.0 3.24930 0.295(9) 12431. 0.2782 0.2804
30695.0 3.25036 0.288(9) 12716. 0.2784 0.2805
30705.0 3.25142 0.286(9) 12771. 0.2785 0.2806
30715.0 3.25248 0.281(9) 12971. 0.2787 0.2807
30725.0 3.25354 0.286(9) 12759. 0.2789 0.2809
30735.0 3.25460 0.275(9) 13211. 0.2790 0.2810
30745.0 3.25566 0.272(9) 13302. 0.2792 0.2811
30755.0 3.25672 0.269(9) 13450. 0.2794 0.2812
30765.0 3.25778 0.262(9) 13729. 0.2795 0.2813
30775.0 3.25884 0.271(9) 13281. 0.2797 0.2815
30785.0 3.25990 0.292(9) 12355. 0.2799 0.2816
30795.0 3.26097 0.279(9) 12881. 0.2800 0.2818
30805.0 3.26203 0.272(9) 13152. 0.2802 0.2819
30815.0 3.26309 0.291(9) 12281. 0.2804 0.2820
30825.0 3.26415 0.289(9) 12284. 0.2806 0.2822
30835.0 3.26521 0.297(9) 11976. 0.2807 0.2823
30845.0 3.26627 0.286(9) 12395. 0.2809 0.2824
30855.0 3.26733 0.291(9) 12186. 0.2811 0.2826
30865.0 3.26839 0.288(9) 12293. 0.2813 0.2827
30875.0 3.26945 0.279(9) 12677. 0.2814 0.2829
30885.0 3.27051 0.281(9) 12570. 0.2816 0.2830
30895.0 3.27157 0.286(9) 12351. 0.2818 0.2832
30905.0 3.27263 0.290(9) 12163. 0.2820 0.2833
30915.0 3.27369 0.297(9) 11899. 0.2821 0.2835
30925.0 3.27475 0.285(9) 12398. 0.2823 0.2836
30935.0 3.27581 0.284(9) 12400. 0.2825 0.2838
30945.0 3.27687 0.295(9) 11981. 0.2827 0.2839
30955.0 3.27793 0.268(9) 13153. 0.2829 0.2841
30965.0 3.27899 0.277(9) 12740. 0.2830 0.2843
30975.0 3.28005 0.290(9) 12130. 0.2832 0.2844
30985.0 3.28111 0.277(9) 12675. 0.2834 0.2846
30995.0 3.28217 0.283(9) 12385. 0.2836 0.2847
31005.0 3.28323 0.281(9) 12440. 0.2838 0.2849
31015.0 3.28429 0.295(9) 11855. 0.2839 0.2851
31025.0 3.28535 0.289(9) 12020. 0.2841 0.2852
31035.0 3.28641 0.298(9) 11707. 0.2843 0.2854
31045.0 3.28747 0.273(9) 12725. 0.2845 0.2856
31055.0 3.28853 0.281(9) 12370. 0.2847 0.2857
31065.0 3.28959 0.288(9) 12057. 0.2849 0.2859
31075.0 3.29065 0.292(9) 11885. 0.2851 0.2861
31085.0 3.29171 0.283(9) 12224. 0.2852 0.2862
31095.0 3.29277 0.277(9) 12476. 0.2854 0.2864
31105.0 3.29383 0.292(9) 11820. 0.2856 0.2866
31115.0 3.29489 0.291(9) 11842. 0.2858 0.2868
31125.0 3.29595 0.297(9) 11622. 0.2860 0.2869
31135.0 3.29701 0.286(9) 12000. 0.2862 0.2871
31145.0 3.29807 0.305(9) 11269. 0.2864 0.2873
31155.0 3.29914 0.291(9) 11768. 0.2866 0.2875
31165.0 3.30020 0.296(9) 11548. 0.2868 0.2876
31175.0 3.30126 0.280(9) 12168. 0.2870 0.2878
31185.0 3.30232 0.290(9) 11732. 0.2872 0.2880
31195.0 3.30338 0.286(9) 11869. 0.2874 0.2882
31205.0 3.30444 0.301(9) 11304. 0.2876 0.2884
31215.0 3.30550 0.294(9) 11546. 0.2877 0.2886
31225.0 3.30656 0.298(9) 11392. 0.2879 0.2887
31235.0 3.30762 0.292(9) 11612. 0.2881 0.2889
31245.0 3.30868 0.306(10) 11043. 0.2883 0.2891
31255.0 3.30974 0.289(9) 11687. 0.2885 0.2893
31265.0 3.31080 0.296(9) 11415. 0.2887 0.2895
31275.0 3.31186 0.306(10) 10993. 0.2889 0.2897
31285.0 3.31292 0.300(9) 11230. 0.2891 0.2899
31295.0 3.31398 0.299(9) 11240. 0.2893 0.2901
31305.0 3.31504 0.274(9) 12170. 0.2895 0.2903
31315.0 3.31610 0.300(9) 11102. 0.2897 0.2905
31325.0 3.31716 0.291(9) 11424. 0.2900 0.2906
31335.0 3.31822 0.279(9) 11885. 0.2902 0.2908
31345.0 3.31928 0.309(10) 10739. 0.2904 0.2911
31355.0 3.32034 0.302(10) 10970. 0.2906 0.2913
31365.0 3.32140 0.286(9) 11604. 0.2908 0.2915
31375.0 3.32246 0.288(9) 11468. 0.2910 0.2917
31385.0 3.32352 0.291(9) 11394. 0.2912 0.2919
31395.0 3.32458 0.294(9) 11270. 0.2914 0.2921
31405.0 3.32564 0.301(10) 10979. 0.2916 0.2923
31415.0 3.32670 0.312(10) 10623. 0.2918 0.2925
31425.0 3.32776 0.283(9) 11635. 0.2920 0.2927
31435.0 3.32882 0.278(9) 11821. 0.2922 0.2929
31445.0 3.32988 0.281(9) 11677. 0.2925 0.2931
31455.0 3.33094 0.306(10) 10736. 0.2927 0.2933
31465.0 3.33200 0.301(10) 10896. 0.2929 0.2935
31475.0 3.33306 0.287(9) 11380. 0.2931 0.2937
31485.0 3.33413 0.288(9) 11294. 0.2933 0.2939
31495.0 3.33519 0.296(10) 10974. 0.2935 0.2941
31505.0 3.33625 0.295(10) 10989. 0.2937 0.2943
31515.0 3.33731 0.299(10) 10830. 0.2940 0.2946
31525.0 3.33837 0.283(9) 11459. 0.2942 0.2948
31535.0 3.33943 0.292(10) 11074. 0.2944 0.2950
31545.0 3.34049 0.291(9) 11160. 0.2946 0.2952
31555.0 3.34155 0.293(10) 11077. 0.2948 0.2954
31565.0 3.34261 0.290(9) 11172. 0.2950 0.2956
31575.0 3.34367 0.301(10) 10783. 0.2953 0.2958
31585.0 3.34473 0.286(9) 11288. 0.2955 0.2961
31595.0 3.34579 0.293(10) 10989. 0.2957 0.2963
31605.0 3.34685 0.299(10) 10773. 0.2959 0.2965
31615.0 3.34791 0.310(10) 10396. 0.2962 0.2967
31625.0 3.34897 0.288(9) 11173. 0.2964 0.2969
31635.0 3.35003 0.318(10) 10085. 0.2966 0.2971
31645.0 3.35109 0.306(10) 10483. 0.2968 0.2974
31655.0 3.35215 0.280(9) 11414. 0.2971 0.2976
31665.0 3.35321 0.279(9) 11413. 0.2973 0.2978
31675.0 3.35427 0.300(10) 10632. 0.2975 0.2980
31685.0 3.35533 0.303(10) 10495. 0.2977 0.2983
31695.0 3.35639 0.308(10) 10374. 0.2980 0.2985
31705.0 3.35745 0.299(10) 10664. 0.2982 0.2987
31715.0 3.35851 0.306(10) 10479. 0.2984 0.2989
31725.0 3.35957 0.305(10) 10461. 0.2987 0.2992
31735.0 3.36063 0.289(10) 11058. 0.2989 0.2994
31745.0 3.36169 0.301(10) 10590. 0.2991 0.2996
31755.0 3.36275 0.304(10) 10475. 0.2994 0.2998
31765.0 3.36381 0.292(10) 10854. 0.2996 0.3001
31775.0 3.36487 0.324(10) 9798. 0.2998 0.3003
31785.0 3.36594 0.306(10) 10393. 0.3001 0.3005
31795.0 3.36700 0.304(10) 10423. 0.3003 0.3008
31805.0 3.36806 0.300(10) 10569. 0.3005 0.3010
31815.0 3.36912 0.313(10) 10117. 0.3008 0.3012
31825.0 3.37018 0.294(10) 10718. 0.3010 0.3015
31835.0 3.37124 0.316(10) 9989. 0.3012 0.3017
31845.0 3.37230 0.284(10) 11051. 0.3015 0.3019
31855.0 3.37336 0.304(10) 10322. 0.3017 0.3022
31865.0 3.37442 0.301(10) 10389. 0.3020 0.3024
31875.0 3.37548 0.312(10) 10031. 0.3022 0.3026
31885.0 3.37654 0.294(10) 10629. 0.3024 0.3029
31895.0 3.37760 0.303(10) 10282. 0.3027 0.3031
31905.0 3.37866 0.295(10) 10503. 0.3029 0.3034
31915.0 3.37972 0.316(10) 9813. 0.3032 0.3036
31925.0 3.38078 0.288(10) 10724. 0.3034 0.3038
31935.0 3.38184 0.295(10) 10477. 0.3036 0.3041
31945.0 3.38290 0.304(10) 10139. 0.3039 0.3043
31955.0 3.38396 0.331(10) 9333. 0.3041 0.3045
31965.0 3.38502 0.308(10) 10001. 0.3044 0.3048
31975.0 3.38608 0.302(10) 10168. 0.3046 0.3050
31985.0 3.38714 0.300(10) 10253. 0.3049 0.3053
31995.0 3.38820 0.306(10) 10045. 0.3051 0.3055
32005.0 3.38926 0.312(10) 9885. 0.3053 0.3058
32015.0 3.39032 0.323(10) 9517. 0.3056 0.3060
32025.0 3.39138 0.291(10) 10536. 0.3058 0.3062
32035.0 3.39244 0.316(10) 9737. 0.3061 0.3065
32045.0 3.39350 0.305(10) 10081. 0.3063 0.3067
32055.0 3.39456 0.312(10) 9880. 0.3066 0.3070
32065.0 3.39562 0.292(10) 10503. 0.3068 0.3072
32075.0 3.39669 0.289(10) 10589. 0.3071 0.3075
32085.0 3.39775 0.304(10) 10058. 0.3073 0.3077
32095.0 3.39881 0.291(10) 10526. 0.3076 0.3080
32105.0 . 0.302(10) . . .
32115.0 . 0.295(10) . . .
32125.0 . 0.320(10) . . .
32135.0 . 0.301(10) . . .
32145.0 . 0.294(10) . . .
32155.0 . 0.285(10) . . .
32165.0 . 0.304(10) . . .
32175.0 . 0.287(10) . . .
32185.0 . 0.313(10) . . .
32195.0 . 0.301(10) . . .
32205.0 . 0.306(10) . . .
32215.0 . 0.305(10) . . .
32225.0 . 0.297(10) . . .
32235.0 . 0.300(10) . . .
32245.0 . 0.308(10) . . .
32255.0 . 0.295(10) . . .
32265.0 . 0.298(10) . . .
32275.0 . 0.300(10) . . .
32285.0 . 0.306(10) . . .
32295.0 . 0.305(10) . . .
32305.0 . 0.305(10) . . .
32315.0 . 0.305(10) . . .
32325.0 . 0.310(10) . . .
32335.0 . 0.320(10) . . .
32345.0 . 0.332(11) . . .
32355.0 . 0.285(10) . . .
32365.0 . 0.289(10) . . .
32375.0 . 0.320(10) . . .
32385.0 . 0.281(10) . . .
32395.0 . 0.317(10) . . .
32405.0 . 0.300(10) . . .
32415.0 . 0.313(10) . . .
32425.0 . 0.287(10) . . .
32435.0 . 0.306(10) . . .
32445.0 . 0.316(10) . . .
32455.0 . 0.302(10) . . .
32465.0 . 0.314(10) . . .
32475.0 . 0.288(10) . . .
32485.0 . 0.312(10) . . .
32495.0 . 0.307(10) . . .
32505.0 . 0.321(11) . . .
32515.0 . 0.324(11) . . .
32525.0 . 0.317(11) . . .
32535.0 . 0.295(10) . . .
32545.0 . 0.321(11) . . .
32555.0 . 0.325(11) . . .
32565.0 . 0.319(11) . . .
32575.0 . 0.297(10) . . .
32585.0 . 0.299(10) . . .
32595.0 . 0.309(10) . . .
32605.0 . 0.318(11) . . .
32615.0 . 0.313(11) . . .
32625.0 . 0.323(11) . . .
32635.0 . 0.315(11) . . .
32645.0 . 0.304(10) . . .
32655.0 . 0.317(11) . . .
32665.0 . 0.334(11) . . .
32675.0 . 0.321(11) . . .
32685.0 . 0.312(11) . . .
32695.0 . 0.313(11) . . .
32705.0 . 0.319(11) . . .
32715.0 . 0.319(11) . . .
32725.0 . 0.327(11) . . .
32735.0 . 0.307(11) . . .
32745.0 . 0.307(10) . . .
32755.0 . 0.308(11) . . .
32765.0 . 0.326(11) . . .
32775.0 . 0.317(11) . . .
32785.0 . 0.326(11) . . .
32795.0 . 0.320(11) . . .
32805.0 . 0.303(10) . . .
32815.0 . 0.316(11) . . .
32825.0 . 0.312(11) . . .
32835.0 . 0.328(11) . . .
32845.0 . 0.294(10) . . .
32855.0 . 0.305(11) . . .
32865.0 . 0.308(11) . . .
32875.0 . 0.324(11) . . .
32885.0 . 0.319(11) . . .
32895.0 . 0.314(11) . . .
32905.0 . 0.332(11) . . .
32915.0 . 0.325(11) . . .
32925.0 . 0.307(11) . . .
32935.0 . 0.323(11) . . .
32945.0 . 0.315(11) . . .
32955.0 . 0.325(11) . . .
32965.0 . 0.324(11) . . .
32975.0 . 0.319(11) . . .
32985.0 . 0.301(11) . . .
32995.0 . 0.319(11) . . .
33005.0 . 0.306(11) . . .
33015.0 . 0.337(11) . . .
33025.0 . 0.333(11) . . .
33035.0 . 0.328(11) . . .
33045.0 . 0.326(11) . . .
33055.0 . 0.323(11) . . .
33065.0 . 0.328(11) . . .
33075.0 . 0.313(11) . . .
33085.0 . 0.315(11) . . .
33095.0 . 0.322(11) . . .
33105.0 . 0.317(11) . . .
33115.0 . 0.310(11) . . .
33125.0 . 0.314(11) . . .
33135.0 . 0.308(11) . . .
33145.0 . 0.309(11) . . .
33155.0 . 0.334(11) . . .
33165.0 . 0.309(11) . . .
33175.0 . 0.329(11) . . .
33185.0 . 0.334(11) . . .
33195.0 . 0.330(11) . . .
33205.0 . 0.332(11) . . .
33215.0 . 0.333(11) . . .
33225.0 . 0.331(11) . . .
33235.0 . 0.326(11) . . .
33245.0 . 0.341(12) . . .
33255.0 . 0.344(12) . . .
33265.0 . 0.316(11) . . .
33275.0 . 0.330(11) . . .
33285.0 . 0.335(11) . . .
33295.0 . 0.336(11) . . .
33305.0 . 0.309(11) . . .
33315.0 . 0.327(11) . . .
33325.0 . 0.318(11) . . .
33335.0 . 0.327(11) . . .
33345.0 . 0.303(11) . . .
33355.0 . 0.337(12) . . .
33365.0 . 0.310(11) . . .
33375.0 . 0.313(11) . . .
33385.0 . 0.319(11) . . .
33395.0 . 0.332(12) . . .
33405.0 . 0.330(12) . . .
33415.0 . 0.328(11) . . .
33425.0 . 0.345(12) . . .
33435.0 . 0.353(12) . . .
33445.0 . 0.336(12) . . .
33455.0 . 0.326(11) . . .
33465.0 . 0.335(12) . . .
33475.0 . 0.335(12) . . .
33485.0 . 0.323(11) . . .
33495.0 . 0.319(11) . . .
33505.0 . 0.344(12) . . .
33515.0 . 0.333(12) . . .
33525.0 . 0.331(12) . . .
33535.0 . 0.342(12) . . .
33545.0 . 0.346(12) . . .
33555.0 . 0.350(12) . . .
33565.0 . 0.331(12) . . .
33575.0 . 0.320(11) . . .
33585.0 . 0.308(11) . . .
33595.0 . 0.347(12) . . .
33605.0 . 0.344(12) . . .
33615.0 . 0.332(12) . . .
33625.0 . 0.317(11) . . .
33635.0 . 0.332(12) . . .
33645.0 . 0.333(12) . . .
33655.0 . 0.344(12) . . .
33665.0 . 0.342(12) . . .
33675.0 . 0.331(12) . . .
33685.0 . 0.355(12) . . .
33695.0 . 0.347(12) . . .
33705.0 . 0.331(12) . . .
33715.0 . 0.338(12) . . .
33725.0 . 0.345(12) . . .
33735.0 . 0.320(12) . . .
33745.0 . 0.347(12) . . .
33755.0 . 0.334(12) . . .
33765.0 . 0.340(12) . . .
33775.0 . 0.334(12) . . .
33785.0 . 0.339(12) . . .
33795.0 . 0.330(12) . . .
33805.0 . 0.328(12) . . .
33815.0 . 0.348(12) . . .
33825.0 . 0.337(12) . . .
33835.0 . 0.333(12) . . .
33845.0 . 0.307(11) . . .
33855.0 . 0.319(12) . . .
33865.0 . 0.318(12) . . .
33875.0 . 0.324(12) . . .
33885.0 . 0.348(12) . . .
33895.0 . 0.348(12) . . .
33905.0 . 0.334(12) . . .
33915.0 . 0.311(12) . . .
33925.0 . 0.335(12) . . .
33935.0 . 0.331(12) . . .
33945.0 . 0.348(12) . . .
33955.0 . 0.367(12) . . .
33965.0 . 0.316(12) . . .
33975.0 . 0.311(12) . . .
33985.0 . 0.333(12) . . .
33995.0 . 0.335(12) . . .
34005.0 . 0.326(12) . . .
34015.0 . 0.344(12) . . .
34025.0 . 0.349(12) . . .
34035.0 . 0.347(12) . . .
34045.0 . 0.336(12) . . .
34055.0 . 0.356(12) . . .
34065.0 . 0.312(12) . . .
34075.0 . 0.349(12) . . .
34085.0 . 0.341(12) . . .
34095.0 . 0.345(12) . . .
34105.0 . 0.328(12) . . .
34115.0 . 0.332(12) . . .
34125.0 . 0.343(12) . . .
34135.0 . 0.331(12) . . .
34145.0 . 0.344(12) . . .
34155.0 . 0.356(13) . . .
34165.0 . 0.347(12) . . .
34175.0 . 0.336(12) . . .
34185.0 . 0.364(13) . . .
34195.0 . 0.364(13) . . .
34205.0 . 0.356(13) . . .
34215.0 . 0.374(13) . . .
34225.0 . 0.348(13) . . .
34235.0 . 0.363(13) . . .
34245.0 . 0.381(13) . . .
34255.0 . 0.364(13) . . .
34265.0 . 0.368(13) . . .
34275.0 . 0.361(13) . . .
34285.0 . 0.369(13) . . .
34295.0 . 0.356(13) . . .
34305.0 . 0.378(13) . . .
34315.0 . 0.370(13) . . .
34325.0 . 0.365(13) . . .
34335.0 . 0.367(13) . . .
34345.0 . 0.357(13) . . .
34355.0 . 0.354(13) . . .
34365.0 . 0.396(13) . . .
34375.0 . 0.359(13) . . .
34385.0 . 0.364(13) . . .
34395.0 . 0.374(13) . . .
34405.0 . 0.344(13) . . .
34415.0 . 0.365(13) . . .
34425.0 . 0.359(13) . . .
34435.0 . 0.368(13) . . .
34445.0 . 0.361(13) . . .
34455.0 . 0.359(13) . . .
34465.0 . 0.356(13) . . .
34475.0 . 0.390(13) . . .
34485.0 . 0.364(13) . . .
34495.0 . 0.387(13) . . .
34505.0 . 0.364(13) . . .
34515.0 . 0.371(13) . . .
34525.0 . 0.376(13) . . .
34535.0 . 0.367(13) . . .
34545.0 . 0.362(13) . . .
34555.0 . 0.357(13) . . .
34565.0 . 0.348(13) . . .
34575.0 . 0.361(13) . . .
34585.0 . 0.372(13) . . .
34595.0 . 0.373(13) . . .
34605.0 . 0.358(13) . . .
34615.0 . 0.354(13) . . .
34625.0 . 0.360(13) . . .
34635.0 . 0.363(13) . . .
34645.0 . 0.364(13) . . .
34655.0 . 0.339(13) . . .
34665.0 . 0.336(13) . . .
34675.0 . 0.368(13) . . .
34685.0 . 0.362(13) . . .
34695.0 . 0.367(13) . . .
34705.0 . 0.374(14) . . .
34715.0 . 0.369(13) . . .
34725.0 . 0.345(13) . . .
34735.0 . 0.359(13) . . .
34745.0 . 0.362(13) . . .
34755.0 . 0.355(13) . . .
34765.0 . 0.382(14) . . .
34775.0 . 0.401(14) . . .
34785.0 . 0.368(13) . . .
34795.0 . 0.383(14) . . .
34805.0 . 0.390(14) . . .
34815.0 . 0.396(14) . . .
34825.0 . 0.379(14) . . .
34835.0 . 0.387(14) . . .
34845.0 . 0.418(14) . . .
34855.0 . 0.406(14) . . .
34865.0 . 0.394(14) . . .
34875.0 . 0.389(14) . . .
34885.0 . 0.379(14) . . .
34895.0 . 0.408(14) . . .
34905.0 . 0.418(14) . . .
34915.0 . 0.386(14) . . .
34925.0 . 0.396(14) . . .
34935.0 . 0.393(14) . . .
34945.0 . 0.407(14) . . .
34955.0 . 0.394(14) . . .
34965.0 . 0.397(14) . . .
34975.0 . 0.410(14) . . .
34985.0 . 0.378(14) . . .
34995.0 . 0.387(14) . . .
35005.0 . 0.390(14) . . .
35015.0 . 0.419(15) . . .
35025.0 . 0.410(14) . . .
35035.0 . 0.389(14) . . .
35045.0 . 0.365(14) . . .
35055.0 . 0.393(14) . . .
35065.0 . 0.384(14) . . .
35075.0 . 0.388(14) . . .
35085. . 0.379(14) . . .
35095. . 0.398(14) . . .
35105. . 0.366(14) . . .
35115. . 0.372(14) . . .
35125. . 0.348(13) . . .
35135. . 0.391(14) . . .
35145. . 0.346(13) . . .
35155. . 0.372(14) . . .
35165. . 0.356(14) . . .
35175. . 0.357(14) . . .
35185. . 0.354(13) . . .
35195. . 0.355(13) . . .
35205. . 0.373(14) . . .
35215. . 0.339(13) . . .
35225. . 0.358(14) . . .
35235. . 0.326(13) . . .
35245. . 0.356(14) . . .
35255. . 0.345(13) . . .
35265. . 0.345(13) . . .
35275. . 0.333(13) . . .
35285. . 0.348(14) . . .
35295. . 0.340(13) . . .
35305. . 0.365(14) . . .
35315. . 0.356(14) . . .
35325. . 0.354(14) . . .
35335. . 0.349(14) . . .
35345. . 0.326(13) . . .
35355. . 0.335(13) . . .
35365. . 0.341(14) . . .
35375. . 0.343(14) . . .
35385. . 0.339(14) . . .
35395. . 0.340(14) . . .
35405. . 0.344(14) . . .
35415. . 0.365(14) . . .
35425. . 0.352(14) . . .
35435. . 0.346(14) . . .
35445. . 0.354(14) . . .
35455. . 0.365(14) . . .
35465. . 0.345(14) . . .
35475. . 0.324(13) . . .
35485. . 0.361(14) . . .
35495. . 0.342(14) . . .
35505. . 0.329(13) . . .
35515. . 0.331(13) . . .
35525. . 0.336(14) . . .
35535. . 0.338(14) . . .
35545. . 0.344(14) . . .
35555. . 0.336(14) . . .
35565. . 0.337(14) . . .
35575. . 0.357(14) . . .
35585. . 0.354(14) . . .
35595. . 0.324(14) . . .
35605. . 0.340(14) . . .
35615. . 0.330(14) . . .
35625. . 0.363(14) . . .
35635. . 0.342(14) . . .
35645. . 0.364(14) . . .
35655. . 0.355(14) . . .
35665. . 0.363(14) . . .
35675. . 0.339(14) . . .
35685. . 0.361(14) . . .
35695. . 0.339(14) . . .
35705. . 0.352(14) . . .
35715. . 0.361(14) . . .
35725. . 0.349(14) . . .
35735. . 0.314(14) . . .
35745. . 0.367(15) . . .
35755. . 0.329(14) . . .
35765. . 0.352(14) . . .
35775. . 0.314(14) . . .
35785. . 0.356(14) . . .
35795. . 0.362(15) . . .
35805. . 0.324(14) . . .
35815. . 0.344(14) . . .
35825. . 0.347(14) . . .
35835. . 0.321(14) . . .
35845. . 0.351(14) . . .
35855. . 0.346(14) . . .
35865. . 0.325(14) . . .
35875. . 0.312(14) . . .
35885. . 0.334(14) . . .
35895. . 0.326(14) . . .
35905. . 0.333(14) . . .
35915. . 0.341(14) . . .
35925. . 0.328(14) . . .
35935. . 0.330(14) . . .
35945. . 0.336(14) . . .
35955. . 0.335(14) . . .
35965. . 0.312(14) . . .
35975. . 0.342(14) . . .
35985. . 0.343(14) . . .
35995. . 0.337(14) . . .
36005. . 0.321(14) . . .
36015. . 0.312(14) . . .
36025. . 0.340(14) . . .
36035. . 0.292(13) . . .
36045. . 0.340(14) . . .
36055. . 0.337(14) . . .
36065. . 0.337(14) . . .
36075. . 0.328(14) . . .
36085. . 0.343(15) . . .
36095. . 0.336(15) . . .
36105. . 0.348(15) . . .
36115. . 0.330(14) . . .
36125. . 0.339(15) . . .
36135. . 0.324(14) . . .
36145. . 0.324(14) . . .
36155. . 0.344(15) . . .
36165. . 0.321(14) . . .
36175. . 0.323(14) . . .
36185. . 0.340(15) . . .
36195. . 0.329(14) . . .
36205. . 0.321(14) . . .
36215. . 0.338(15) . . .
36225. . 0.358(15) . . .
36235. . 0.338(15) . . .
36245. . 0.329(14) . . .
36255. . 0.334(15) . . .
36265. . 0.343(15) . . .
36275. . 0.345(15) . . .
36285. . 0.324(14) . . .
36295. . 0.358(15) . . .
36305. . 0.307(14) . . .
36315. . 0.342(15) . . .
36325. . 0.333(15) . . .
36335. . 0.339(15) . . .
36345. . 0.350(15) . . .
36355. . 0.332(15) . . .
36365. . 0.345(15) . . .
36375. . 0.329(15) . . .
36385. . 0.314(14) . . .
36395. . 0.325(15) . . .
36405. . 0.346(15) . . .
36415. . 0.323(15) . . .
36425. . 0.316(14) . . .
36435. . 0.342(15) . . .
36445. . 0.294(14) . . .
36455. . 0.328(15) . . .
36465. . 0.342(15) . . .
36475. . 0.339(15) . . .
36485. . 0.327(15) . . .
36495. . 0.332(15) . . .
36505. . 0.336(15) . . .
36515. . 0.300(14) . . .
36525. . 0.328(15) . . .
36535. . 0.308(14) . . .
36545. . 0.315(14) . . .
36555. . 0.311(14) . . .
36565. . 0.335(15) . . .
36575. . 0.304(14) . . .
36585. . 0.329(15) . . .
36595. . 0.327(15) . . .
36605. . 0.293(14) . . .
36615. . 0.329(15) . . .
36625. . 0.311(14) . . .
36635. . 0.290(14) . . .
36645. . 0.304(14) . . .
36655. . 0.310(14) . . .
36665. . 0.333(15) . . .
36675. . 0.285(14) . . .
36685. . 0.345(15) . . .
36695. . 0.302(14) . . .
36705. . 0.279(14) . . .
36715. . 0.293(14) . . .
36725. . 0.310(14) . . .
36735. . 0.321(15) . . .
36745. . 0.295(14) . . .
36755. . 0.320(15) . . .
36765. . 0.302(14) . . .
36775. . 0.340(15) . . .
36785. . 0.336(15) . . .
36795. . 0.326(15) . . .
36805. . 0.308(15) . . .
36815. . 0.296(14) . . .
36825. . 0.320(15) . . .
36835. . 0.326(15) . . .
36845. . 0.332(15) . . .
36855. . 0.311(15) . . .
36865. . 0.299(14) . . .
36875. . 0.303(14) . . .
36885. . 0.320(15) . . .
36895. . 0.291(14) . . .
36905. . 0.302(14) . . .
36915. . 0.317(15) . . .
36925. . 0.293(14) . . .
36935. . 0.293(14) . . .
36945. . 0.334(15) . . .
36955. . 0.299(14) . . .
36965. . 0.296(14) . . .
36975. . 0.317(15) . . .
36985. . 0.307(15) . . .
36995. . 0.298(14) . . .
37005. . 0.302(14) . . .
37015. . 0.293(14) . . .
37025. . 0.294(14) . . .
37035. . 0.296(14) . . .
37045. . 0.280(14) . . .
37055. . 0.304(15) . . .
37065. . 0.283(14) . . .
37075. . 0.292(14) . . .
37085. . 0.271(14) . . .
37095. . 0.289(14) . . .
37105. . 0.301(15) . . .
37115. . 0.275(14) . . .
37125. . 0.315(15) . . .
37135. . 0.303(15) . . .
37145. . 0.277(14) . . .
37155. . 0.278(14) . . .
37165. . 0.293(15) . . .
37175. . 0.304(15) . . .
37185. . 0.276(14) . . .
37195. . 0.301(15) . . .
37205. . 0.300(15) . . .
37215. . 0.291(15) . . .
37225. . 0.285(14) . . .
37235. . 0.304(15) . . .
37245. . 0.297(15) . . .
37255. . 0.285(15) . . .
37265. . 0.292(15) . . .
37275. . 0.294(15) . . .
37285. . 0.318(15) . . .
37295. . 0.284(15) . . .
37305. . 0.305(15) . . .
37315. . 0.273(14) . . .
37325. . 0.280(15) . . .
37335. . 0.300(15) . . .
37345. . 0.302(15) . . .
37355. . 0.315(16) . . .
37365. . 0.298(15) . . .
37375. . 0.310(16) . . .
37385. . 0.293(15) . . .
37395. . 0.301(16) . . .
37405. . 0.312(16) . . .
37415. . 0.294(15) . . .
37425. . 0.305(16) . . .
37435. . 0.316(16) . . .
37445. . 0.288(15) . . .
37455. . 0.280(15) . . .
37465. . 0.306(16) . . .
37475. . 0.293(16) . . .
37485. . 0.316(16) . . .
37495. . 0.318(16) . . .
37505. . 0.287(16) . . .
37515. . 0.292(16) . . .
37525. . 0.324(16) . . .
37535. . 0.319(16) . . .
37545. . 0.296(16) . . .
37555. . 0.287(16) . . .
37565. . 0.315(16) . . .
37575. . 0.300(16) . . .
37585. . 0.281(16) . . .
37595. . 0.297(16) . . .
37605. . 0.292(16) . . .
37615. . 0.282(16) . . .
37625. . 0.318(17) . . .
37635. . 0.281(16) . . .
37645. . 0.277(16) . . .
37655. . 0.285(16) . . .
37665. . 0.338(17) . . .
37675. . 0.273(16) . . .
37685. . 0.308(16) . . .
37695. . 0.332(17) . . .
37705. . 0.288(16) . . .
37715. . 0.290(16) . . .
37725. . 0.283(16) . . .
37735. . 0.269(15) . . .
37745. . 0.281(16) . . .
37755. . 0.307(17) . . .
37765. . 0.280(16) . . .
37775. . 0.265(15) . . .
37785. . 0.282(16) . . .
37795. . 0.286(16) . . .
37805. . 0.300(16) . . .
37815. . 0.308(17) . . .
37825. . 0.276(16) . . .
37835. . 0.260(15) . . .
37845. . 0.313(17) . . .
37855. . 0.295(16) . . .
37865. . 0.287(16) . . .
37875. . 0.268(16) . . .
37885. . 0.304(17) . . .
37895. . 0.286(16) . . .
37905. . 0.234(15) . . .
37915. . 0.291(16) . . .
37925. . 0.285(16) . . .
37935. . 0.324(17) . . .
37945. . 0.268(16) . . .
37955. . 0.275(16) . . .
37965. . 0.278(16) . . .
37975. . 0.258(16) . . .
37985. . 0.265(16) . . .
37995. . 0.260(16) . . .
38005. . 0.272(16) . . .
38015. . 0.281(16) . . .
38025. . 0.256(16) . . .
38035. . 0.266(16) . . .
38045. . 0.265(16) . . .
38055. . 0.267(16) . . .
38065. . 0.255(16) . . .
38075. . 0.255(16) . . .
38085. . 0.278(16) . . .
38095. . 0.256(16) . . .
38105. . 0.258(16) . . .
38115. . 0.255(16) . . .
38125. . 0.258(16) . . .
38135. . 0.279(16) . . .
38145. . 0.254(16) . . .
38155. . 0.253(16) . . .
38165. . 0.257(16) . . .
38175. . 0.238(15) . . .
38185. . 0.270(16) . . .
38195. . 0.254(16) . . .
38205. . 0.239(15) . . .
38215. . 0.253(16) . . .
38225. . 0.268(16) . . .
38235. . 0.262(16) . . .
38245. . 0.253(16) . . .
38255. . 0.255(16) . . .
38265. . 0.256(16) . . .
38275. . 0.271(16) . . .
38285. . 0.274(16) . . .
38295. . 0.270(16) . . .
38305. . 0.264(16) . . .
38315. . 0.253(16) . . .
38325. . 0.234(16) . . .
38335. . 0.268(17) . . .
38345. . 0.272(17) . . .
38355. . 0.259(16) . . .
38365. . 0.256(16) . . .
38375. . 0.284(17) . . .
38385. . 0.268(17) . . .
38395. . 0.263(17) . . .
38405. . 0.279(17) . . .
38415. . 0.245(16) . . .
38425. . 0.295(18) . . .
38435. . 0.268(17) . . .
38445. . 0.242(16) . . .
38455. . 0.289(18) . . .
38465. . 0.245(16) . . .
38475. . 0.258(17) . . .
38485. . 0.273(17) . . .
38495. . 0.254(17) . . .
38505. . 0.297(18) . . .
38515. . 0.276(18) . . .
38525. . 0.261(17) . . .
38535. . 0.281(18) . . .
38545. . 0.261(17) . . .
38555. . 0.264(17) . . .
38565. . 0.240(17) . . .
38575. . 0.291(18) . . .
38585. . 0.242(17) . . .
38595. . 0.300(19) . . .
38605. . 0.275(18) . . .
38615. . 0.273(18) . . .
38625. . 0.255(17) . . .
38635. . 0.245(17) . . .
38645. . 0.259(18) . . .
38655. . 0.287(19) . . .
38665. . 0.236(17) . . .
38675. . 0.267(18) . . .
38685. . 0.292(19) . . .
38695. . 0.266(18) . . .
38705. . 0.258(18) . . .
38715. . 0.234(17) . . .
38725. . 0.258(18) . . .
38735. . 0.235(17) . . .
38745. . 0.278(19) . . .
38755. . 0.249(18) . . .
38765. . 0.265(19) . . .
38775. . 0.268(19) . . .
38785. . 0.247(18) . . .
38795. . 0.262(19) . . .
38805. . 0.285(19) . . .
38815. . 0.284(19) . . .
38825. . 0.261(19) . . .
38835. . 0.295(20) . . .
38845. . 0.264(19) . . .
38855. . 0.278(19) . . .
38865. . 0.293(20) . . .
38875. . 0.300(20) . . .
38885. . 0.273(20) . . .
38895. . 0.267(19) . . .
38905. . 0.232(18) . . .
38915. . 0.255(19) . . .
38925. . 0.253(19) . . .
38935. . 0.272(20) . . .
38945. . 0.239(18) . . .
38955. . 0.252(19) . . .
38965. . 0.279(20) . . .
38975. . 0.269(20) . . .
38985. . 0.267(20) . . .
38995. . 0.274(20) . . .
39005. . 0.260(19) . . .
39015. . 0.260(20) . . .
39025. . 0.234(19) . . .
39035. . 0.270(20) . . .
39045. . 0.224(18) . . .
39055. . 0.258(20) . . .
39065. . 0.256(20) . . .
39075. . 0.285(21) . . .
39085. . 0.275(20) . . .
39095. . 0.234(19) . . .
39105. . 0.261(20) . . .
39115. . 0.290(21) . . .
39125. . 0.259(20) . . .
39135. . 0.233(19) . . .
39145. . 0.234(19) . . .
39155. . 0.248(20) . . .
39165. . 0.257(20) . . .
39175. . 0.246(20) . . .
39185. . 0.278(21) . . .
39195. . 0.265(20) . . .
39205. . 0.280(21) . . .
39215. . 0.247(20) . . .
39225. . 0.291(21) . . .
39235. . 0.223(19) . . .
39245. . 0.246(20) . . .
39255. . 0.291(21) . . .
39265. . 0.247(20) . . .
39275. . 0.259(20) . . .
39285. . 0.219(19) . . .
39295. . 0.244(20) . . .
39305. . 0.235(20) . . .
39315. . 0.225(19) . . .
39325. . 0.261(21) . . .
39335. . 0.290(22) . . .
39345. . 0.246(20) . . .
39355. . 0.222(19) . . .
39365. . 0.246(20) . . .
39375. . 0.216(19) . . .
39385. . 0.245(20) . . .
39395. . 0.251(20) . . .
39405. . 0.273(21) . . .
39415. . 0.266(21) . . .
39425. . 0.251(20) . . .
39435. . 0.240(20) . . .
39445. . 0.241(20) . . .
39455. . 0.230(20) . . .
39465. . 0.254(21) . . .
39475. . 0.211(19) . . .
39485. . 0.249(21) . . .
39495. . 0.226(20) . . .
39505. . 0.259(21) . . .
39515. . 0.207(19) . . .
39525. . 0.197(19) . . .
39535. . 0.255(21) . . .
39545. . 0.193(19) . . .
39555. . 0.274(22) . . .
39565. . 0.236(21) . . .
39575. . 0.237(21) . . .
39585. . 0.211(20) . . .
39595. . 0.255(22) . . .
39605. . 0.244(21) . . .
39615. . 0.223(20) . . .
39625. . 0.220(20) . . .
39635. . 0.218(20) . . .
39645. . 0.208(20) . . .
39655. . 0.227(21) . . .
39665. . 0.189(19) . . .
39675. . 0.215(20) . . .
39685. . 0.202(20) . . .
39695. . 0.256(22) . . .
39705. . 0.263(22) . . .
39715. . 0.246(22) . . .
39725. . 0.232(21) . . .
39735. . 0.219(21) . . .
39745. . 0.205(20) . . .
39755. . 0.191(20) . . .
39765. . 0.202(20) . . .
39775. . 0.207(20) . . .
39785. . 0.242(22) . . .
39795. . 0.232(22) . . .
39805. . 0.228(22) . . .
39815. . 0.202(20) . . .
39825. . 0.199(20) . . .
39835. . 0.246(23) . . .
39845. . 0.200(21) . . .
39855. . 0.237(22) . . .
39865. . 0.272(24) . . .
39875. . 0.223(22) . . .
39885. . 0.225(22) . . .
39895. . 0.245(23) . . .
39905. . 0.216(22) . . .
39915. . 0.160(19) . . .
39925. . 0.210(22) . . .
39935. . 0.201(21) . . .
39945. . 0.270(24) . . .
39955. . 0.254(24) . . .
39965. . 0.231(23) . . .
loop_
_refln_index_h
_refln_index_k
_refln_index_l
_refln_observed_status
_refln_F_squared_meas
_refln_F_squared_calc
_refln_phase_calc
_refln_d_spacing
_gsas_i100_meas
1 1 -1 o 7.813 7.784 0.00 3.16384 100.00
1 1 1 o 2.720 2.897 180.00 2.84097 22.63
0 0 2 o 1.298 1.283 180.00 2.62405 3.93
0 2 0 o 1.135 0.998 180.00 2.60439 3.34
2 0 0 o 0.477 0.418 0.00 2.54050 1.27
1 0 -2 o 5.518 5.023 180.00 2.50026 13.77
0 2 1 o 0.100 0.103 0.00 2.33292 0.38
0 1 2 o 0.814 0.754 0.00 2.34347 3.13
1 2 0 o 0.520 0.540 0.00 2.31766 1.92
2 1 0 o 6.987 7.075 180.00 2.28339 24.26
1 1 -2 o 0.432 0.503 180.00 2.25403 1.43
2 1 -1 o 3.436 3.481 180.00 2.21346 10.54
1 0 2 o 7.538 7.756 180.00 2.19284 11.13
1 2 -1 o 6.104 6.325 180.00 2.17972 17.60
1 2 1 o 0.938 0.654 0.00 2.06516 2.18
1 1 2 o 15.965 15.475 0.00 2.02105 34.02
2 1 1 o 1.490 1.502 0.00 1.99165 2.99
2 0 -2 o 3.687 3.721 0.00 1.99136 3.70
2 1 -2 o 3.588 3.670 180.00 1.86006 5.49
0 2 2 o 15.708 15.493 180.00 1.84849 23.43
2 2 0 o 24.999 24.703 180.00 1.81857 34.93
1 2 -2 o 21.702 21.937 0.00 1.80364 29.34
2 2 -1 o 8.138 8.677 180.00 1.78265 10.50
2 0 2 o 27.192 27.549 0.00 1.69476 14.33
3 0 0 o 0.265 0.269 0.00 1.69367 0.14
1 2 2 o 1.073 1.018 0.00 1.67743 1.09
2 2 1 o 2.940 2.852 0.00 1.66051 2.86
0 1 3 o 9.538 9.308 180.00 1.65834 9.21
1 1 -3 o 7.213 7.080 180.00 1.65213 6.86
0 3 1 o 0.256 0.250 180.00 1.64839 0.24
1 3 0 o 7.049 6.748 180.00 1.64298 6.56
2 1 2 o 0.005 0.004 0.00 1.61160 0.00
3 1 0 o 0.359 0.349 0.00 1.61066 0.31
3 1 -1 o 7.615 7.362 180.00 1.61001 6.54
1 3 -1 o 1.676 1.645 0.00 1.59159 1.37
2 2 -2 o 0.413 0.392 0.00 1.58192 0.33
1 3 1 o 18.060 17.519 180.00 1.54531 13.16
3 0 -2 o 40.126 40.783 180.00 1.53965 14.40
1 1 3 o 1.547 2.005 0.00 1.51038 1.03
2 1 -3 o 1.648 2.092 0.00 1.49642 1.06
3 1 1 o 13.488 14.020 0.00 1.47800 8.22
3 1 -2 o 1.533 1.604 0.00 1.47649 0.93
0 2 3 o 2.298 2.072 0.00 1.45218 1.31
1 2 -3 o 2.638 2.375 0.00 1.44800 1.48
0 3 2 o 0.149 0.134 180.00 1.44798 0.08
2 3 0 o 4.044 3.933 0.00 1.43347 2.18
1 3 -2 o 2.272 2.174 0.00 1.42612 1.20
2 2 2 o 0.221 0.210 0.00 1.42048 0.12
3 2 0 o 4.963 4.702 0.00 1.41984 2.58
3 2 -1 o 0.470 0.444 180.00 1.41940 0.24
2 3 -1 o 0.076 0.068 180.00 1.41567 0.04
1 3 2 o 0.312 0.233 0.00 1.36123 0.14
2 3 1 o 3.836 3.665 180.00 1.35214 1.64
1 2 3 o 3.419 3.236 0.00 1.34971 1.45
2 2 -3 o 3.562 3.473 0.00 1.33973 1.47
3 0 2 o 1.235 1.150 0.00 1.32940 0.25
3 2 1 o 1.188 1.110 180.00 1.32646 0.47
3 2 -2 o 0.874 0.823 0.00 1.32537 0.34
1 0 -4 o 32.287 31.240 180.00 1.32261 6.31
0 0 4 o 3.195 3.394 0.00 1.31202 0.60
2 3 -2 o 0.349 0.371 180.00 1.30868 0.13
2 1 3 o 0.353 0.363 0.00 1.30127 0.13
0 4 0 o 7.079 7.344 0.00 1.30219 1.30
3 1 2 o 6.315 6.901 0.00 1.28811 2.22
3 1 -3 o 0.208 0.225 0.00 1.28645 0.07
1 1 -4 o 0.924 0.988 0.00 1.28193 0.32
0 1 4 o 3.510 3.869 180.00 1.27228 1.17
4 0 0 o 6.308 6.720 0.00 1.27025 1.05
0 4 1 o 15.784 15.696 180.00 1.26387 5.14
1 4 0 o 11.230 11.135 180.00 1.26143 3.63
2 0 -4 o 2.696 3.200 0.00 1.25013 0.42
4 1 -1 o 0.998 1.115 0.00 1.24522 0.31
1 4 -1 o 1.143 1.090 0.00 1.23772 0.34
4 1 0 o 21.176 20.121 180.00 1.23408 6.27
0 3 3 o 1.040 0.996 0.00 1.23233 0.31
1 3 -3 o 0.469 0.459 0.00 1.22977 0.14
1 0 4 o 1.964 2.132 180.00 1.22384 0.28
2 1 -4 o 5.406 5.894 0.00 1.21561 1.51
1 4 1 o 1.096 1.194 180.00 1.21557 0.31
4 0 -2 o 2.835 3.113 180.00 1.22261 0.40
2 3 2 o 4.097 4.428 0.00 1.21278 1.13
3 3 0 o 0.006 0.006 180.00 1.21238 0.00
3 3 -1 o 0.051 0.055 180.00 1.21210 0.01
2 2 3 o 0.367 0.347 0.00 1.19426 0.10
1 1 4 o 0.375 0.417 0.00 1.19140 0.10
4 1 -2 o 0.049 0.060 180.00 1.19026 0.01
3 2 2 o 0.001 0.001 180.00 1.18406 0.00
3 2 -3 o 0.092 0.112 0.00 1.18277 0.02
1 2 -4 o 0.103 0.138 0.00 1.17926 0.03
0 2 4 o 0.021 0.024 0.00 1.17174 0.01
1 3 3 o 10.373 10.548 0.00 1.16784 2.46
0 4 2 o 1.629 1.634 0.00 1.16646 0.39
4 1 1 o 0.049 0.049 180.00 1.16176 0.01
2 3 -3 o 14.022 14.020 0.00 1.16135 3.26
2 4 0 o 0.055 0.057 180.00 1.15883 0.01
1 4 -2 o 0.336 0.350 180.00 1.15494 0.08
3 3 1 o 0.051 0.052 180.00 1.15268 0.01
3 3 -2 o 5.932 6.108 180.00 1.15196 1.33
4 2 -1 o 0.053 0.054 0.00 1.15049 0.01
2 4 -1 o 0.075 0.074 180.00 1.14937 0.02
4 2 0 o 2.022 2.089 0.00 1.14169 0.44
3 0 -4 o 2.598 2.975 0.00 1.12827 0.27
2 2 -4 o 7.680 8.648 180.00 1.12702 1.58
1 4 2 o 5.901 5.911 180.00 1.11965 1.18
2 4 1 o 3.903 3.640 0.00 1.11458 0.77
1 2 4 o 20.219 19.076 0.00 1.10764 3.89
4 2 -2 o 1.902 1.790 180.00 1.10673 0.36
3 1 3 o 7.422 6.872 180.00 1.10416 1.41
3 1 -4 o 7.266 6.648 0.00 1.10270 1.37
2 0 4 o 13.002 11.763 180.00 1.09642 1.20
4 1 -3 o 8.024 7.433 180.00 1.09148 1.45
2 4 -2 o 18.073 16.821 0.00 1.08986 3.26
4 2 1 o 6.116 5.652 180.00 1.08370 1.08
4 0 2 o 0.315 0.274 180.00 1.07772 0.03
2 1 4 o 6.582 5.641 180.00 1.07291 1.11
2 3 3 o 4.546 4.109 0.00 1.06274 0.74
3 3 2 o 17.037 16.470 180.00 1.05553 2.70
4 1 2 o 3.288 3.181 180.00 1.05536 0.52
3 3 -3 o 2.107 2.048 0.00 1.05461 0.33
1 3 -4 o 0.063 0.063 180.00 1.05212 0.01
0 3 4 o 8.148 8.076 0.00 1.04677 1.25
0 4 3 o 1.415 1.383 0.00 1.04457 0.22
1 4 -3 o 1.954 1.909 0.00 1.04301 0.30
1 1 -5 o 1.194 1.181 0.00 1.04071 0.18
3 2 3 o 1.736 1.740 0.00 1.03651 0.26
3 2 -4 o 15.749 15.696 0.00 1.03530 2.31
2 4 2 o 5.679 5.567 0.00 1.03258 0.82
3 4 0 o 0.880 0.861 180.00 1.03234 0.13
3 4 -1 o 10.680 10.447 0.00 1.03216 1.55
4 3 -1 o 13.566 13.230 0.00 1.03154 1.96
0 1 5 o 7.430 7.193 0.00 1.02894 1.06
4 2 -3 o 3.100 3.032 0.00 1.02599 0.44
4 3 0 o 1.205 1.187 0.00 1.02518 0.17
0 5 1 o 0.201 0.206 0.00 1.02182 0.03
1 5 0 o 1.230 1.279 180.00 1.02053 0.17
5 0 0 o 9.490 10.207 180.00 1.01620 0.65
2 3 -4 o 3.555 3.798 0.00 1.01452 0.48
2 2 4 o 2.371 2.556 180.00 1.01052 0.32
2 1 -5 o 3.066 3.309 180.00 1.01041 0.41
5 1 -1 o 0.078 0.085 0.00 1.00936 0.01
1 5 -1 o 1.631 1.808 0.00 1.00785 0.21
1 4 3 o 0.150 0.162 0.00 1.00442 0.02
5 0 -2 o 0.669 0.709 0.00 1.00321 0.04
1 3 4 o 8.401 8.677 180.00 1.00031 1.07
2 4 -3 o 0.020 0.020 180.00 1.00028 0.00
4 3 -2 o 12.287 12.688 0.00 0.99964 1.57
5 1 0 o 0.057 0.060 0.00 0.99740 0.01
1 5 1 o 0.260 0.279 0.00 0.99578 0.03
4 2 2 o 11.838 12.700 180.00 0.99582 1.49
4 0 -4 o 10.074 10.834 0.00 0.99568 0.63
3 4 1 o 0.141 0.154 0.00 0.99472 0.02
3 4 -2 o 3.542 3.918 180.00 0.99426 0.44
4 3 1 o 4.374 5.057 180.00 0.98258 0.52
1 1 5 o 1.686 1.963 180.00 0.97904 0.20
5 1 -2 o 13.445 15.562 0.00 0.98511 1.62
4 1 -4 o 0.953 1.114 180.00 0.97797 0.11
1 2 -5 o 0.053 0.061 0.00 0.98349 0.01
0 2 5 o 3.846 4.435 180.00 0.97353 0.44
0 5 2 o 11.763 12.678 180.00 0.96824 1.32
3 0 4 o 11.521 11.845 180.00 0.96515 0.64
2 5 0 o 0.774 0.785 0.00 0.96387 0.09
1 5 -2 o 11.306 11.360 0.00 0.96162 1.23
2 5 -1 o 1.218 1.263 180.00 0.95840 0.13
2 2 -5 o 0.794 0.829 0.00 0.95780 0.09
5 2 -1 o 1.559 1.634 180.00 0.95690 0.17
5 1 1 o 3.619 3.644 180.00 0.95280 0.38
3 1 4 o 14.361 14.376 0.00 0.94900 1.49
3 1 -5 o 2.494 2.494 0.00 0.94780 0.26
3 3 3 o 3.348 3.339 180.00 0.94699 0.34
5 2 0 o 1.133 1.129 180.00 0.94669 0.12
3 3 -4 o 0.553 0.549 180.00 0.94607 0.06
4 1 3 o 0.002 0.002 0.00 0.94182 0.00
1 5 2 o 3.663 3.568 0.00 0.94097 0.37
4 3 -3 o 3.038 2.973 180.00 0.93895 0.30
2 5 1 o 0.822 0.808 0.00 0.93795 0.08
5 2 -2 o 12.618 12.447 0.00 0.93616 1.24
2 4 3 o 16.528 16.250 180.00 0.93518 1.61
5 1 -3 o 0.154 0.151 0.00 0.93169 0.01
1 2 5 o 9.824 9.601 180.00 0.93095 0.94
3 4 2 o 2.377 2.327 180.00 0.93026 0.23
4 2 -4 o 8.000 7.836 180.00 0.93003 0.76
3 4 -3 o 14.010 13.732 180.00 0.92963 1.34
1 4 -4 o 10.230 10.023 180.00 0.92792 0.97
2 3 4 o 0.777 0.760 0.00 0.92705 0.07
0 4 4 o 11.802 11.503 0.00 0.92425 1.10
2 5 -2 o 4.602 4.499 180.00 0.92307 0.43
4 3 2 o 5.958 6.105 0.00 0.91566 0.54
4 4 -1 o 3.588 3.766 0.00 0.91371 0.32
1 3 -5 o 1.489 1.386 180.00 0.90605 0.13
2 1 5 o 8.644 8.035 180.00 0.90555 0.74
3 2 4 o 0.014 0.013 180.00 0.90501 0.00
3 2 -5 o 2.117 1.971 0.00 0.90397 0.18
4 4 0 o 4.219 4.161 0.00 0.90929 0.37
5 2 1 o 1.470 1.412 180.00 0.90830 0.13
2 4 -4 o 3.554 3.284 0.00 0.90182 0.30
5 0 2 o 12.860 11.848 0.00 0.90036 0.54
4 2 3 o 10.739 10.019 0.00 0.89877 0.90
0 3 5 o 3.012 2.836 0.00 0.89824 0.25
0 5 3 o 4.147 4.220 180.00 0.89507 0.34
1 5 -3 o 1.408 1.452 180.00 0.89409 0.11
1 4 4 o 0.332 0.341 0.00 0.89180 0.03
4 4 -2 o 2.172 2.223 0.00 0.89132 0.18
5 2 -3 o 7.960 8.067 0.00 0.88996 0.64
2 5 2 o 8.056 8.063 180.00 0.88749 0.64
3 5 0 o 34.039 34.041 0.00 0.88734 2.70
3 5 -1 o 1.167 1.166 180.00 0.88723 0.09
5 1 2 o 5.916 5.913 0.00 0.88720 0.47
1 0 -6 o 8.204 8.155 0.00 0.88603 0.32
2 3 -5 o 12.881 12.793 180.00 0.88584 1.01
5 3 -1 o 9.588 9.490 0.00 0.88513 0.75
4 4 1 o 1.452 1.372 180.00 0.87916 0.11
5 3 0 o 12.784 12.405 180.00 0.87703 0.97
0 0 6 o 11.069 11.104 0.00 0.87468 0.41
5 0 -4 o 3.088 3.111 180.00 0.87393 0.12
1 1 -6 o 1.540 1.552 180.00 0.87348 0.11
2 0 -6 o 11.526 11.485 0.00 0.87104 0.42
1 5 3 o 0.005 0.005 0.00 0.86942 0.00
4 1 -5 o 11.617 11.527 0.00 0.86897 0.85
5 3 -2 o 2.899 2.879 180.00 0.86864 0.21
0 6 0 o 0.002 0.002 0.00 0.86813 0.00
2 2 5 o 0.232 0.232 180.00 0.86709 0.02
2 5 -3 o 0.315 0.314 180.00 0.86673 0.02
1 3 5 o 0.237 0.236 180.00 0.86447 0.02
4 3 -4 o 0.199 0.197 180.00 0.86373 0.01
3 5 1 o 4.294 4.258 0.00 0.86311 0.30
3 5 -2 o 0.086 0.085 180.00 0.86281 0.01
0 1 6 o 9.490 9.416 180.00 0.86260 0.67
5 1 -4 o 5.856 5.825 0.00 0.86189 0.41
2 1 -6 o 1.032 1.041 180.00 0.85911 0.07
0 6 1 o 5.972 6.074 180.00 0.85649 0.41
1 6 0 o 15.533 15.852 0.00 0.85573 1.06
3 4 3 o 4.721 4.788 180.00 0.85339 0.32
3 4 -4 o 1.251 1.255 180.00 0.85272 0.08
5 2 2 o 1.047 1.016 180.00 0.85094 0.07
1 6 -1 o 1.676 1.615 180.00 0.84821 0.11
4 4 -3 o 6.476 6.272 180.00 0.84750 0.43
4 0 4 o 0.635 0.616 0.00 0.84738 0.02
6 0 0 o 17.184 16.711 180.00 0.84683 0.56
6 1 -1 o 11.589 11.288 180.00 0.84648 0.76
6 0 -2 o 0.002 0.002 180.00 0.84646 0.00
5 3 1 o 6.028 5.876 180.00 0.84625 0.39
3 3 4 o 0.461 0.449 180.00 0.84358 0.03
3 3 -5 o 4.099 3.982 180.00 0.84274 0.26
1 6 1 o 0.178 0.172 180.00 0.84098 0.01
1 0 6 o 4.964 4.764 180.00 0.83983 0.16
1 2 -6 o 10.896 10.437 0.00 0.83881 0.69
2 4 4 o 0.557 0.533 0.00 0.83872 0.04
4 3 3 o 1.139 1.091 180.00 0.83852 0.07
5 3 -3 o 0.912 0.931 180.00 0.83135 0.06
4 1 4 o 0.198 0.193 180.00 0.83638 0.01
4 4 2 o 5.169 5.273 180.00 0.83025 0.31
6 1 0 o 6.470 6.341 180.00 0.83586 0.40
6 1 -2 o 1.271 1.252 180.00 0.83550 0.08
0 2 6 o 6.746 6.881 180.00 0.82917 0.41
1 1 6 o 0.682 0.696 0.00 0.82912 0.04
4 2 -5 o 0.928 0.925 180.00 0.83481 0.06
5 2 -4 o 4.610 4.704 180.00 0.82853 0.28
3 0 -6 o 11.452 11.606 180.00 0.83342 0.35
2 2 -6 o 14.101 14.310 180.00 0.82606 0.84
0 6 2 o 9.275 9.226 180.00 0.82420 0.55
3 1 5 o 0.816 0.808 0.00 0.82391 0.05
2 5 3 o 0.151 0.149 180.00 0.82335 0.01
1 4 -5 o 15.406 15.056 180.00 0.82307 0.90
3 1 -6 o 0.832 0.812 180.00 0.82295 0.05
2 6 0 o 0.353 0.337 180.00 0.82149 0.02
1 6 -2 o 0.610 0.580 0.00 0.82010 0.04
3 5 2 o 2.557 2.430 180.00 0.81998 0.15
3 5 -3 o 0.014 0.013 0.00 0.81955 0.00
1 5 -4 o 10.453 10.081 180.00 0.81838 0.60
2 6 -1 o 4.750 4.599 180.00 0.81810 0.27
0 4 5 o 0.863 0.847 0.00 0.81720 0.05
0 5 4 o 5.081 5.058 0.00 0.81585 0.29
6 2 -1 o 0.216 0.216 0.00 0.81482 0.01
5 1 3 o 10.961 11.013 0.00 0.81326 0.61
2 3 5 o 0.046 0.047 180.00 0.81262 0.00
4 5 -1 o 0.304 0.320 180.00 0.80858 0.02
2 4 -5 o 0.695 0.730 180.00 0.80783 0.04
5 4 -1 o 2.684 2.815 180.00 0.80729 0.15
1 6 2 o 3.349 3.511 0.00 0.80718 0.18
6 1 1 o 2.560 2.670 0.00 0.80593 0.14
4 2 4 o 10.575 11.025 0.00 0.80580 0.57
4 5 0 o 3.424 3.564 180.00 0.80551 0.18
2 6 1 o 8.822 9.169 0.00 0.80527 0.47
6 2 0 o 0.051 0.053 0.00 0.80533 0.00
6 1 -3 o 10.707 11.128 0.00 0.80527 0.58
6 2 -2 o 0.243 0.252 0.00 0.80501 0.01
5 4 0 o 0.211 0.215 180.00 0.80113 0.01
2 5 -4 o 0.331 0.337 0.00 0.80030 0.02
1 2 6 o 4.279 4.352 180.00 0.79930 0.22
5 3 2 o 0.132 0.134 180.00 0.79928 0.01
