#------------------------------------------------------------------------------
#$Date: 2020-07-23 07:55:39 +0300 (Thu, 23 Jul 2020) $
#$Revision: 254506 $
#$URL: file:///home/coder/svn-repositories/cod/cif/2/10/86/2108646.cif $
#------------------------------------------------------------------------------
#
# This file is available in the Crystallography Open Database (COD),
# http://www.crystallography.net/. The original data for this entry
# were provided by IUCr Journals, http://journals.iucr.org/.
#
# The file may be used within the scientific community so long as
# proper attribution is given to the journal article from which the
# data were obtained.
#
data_2108646
loop_
_publ_author_name
'Oreshonkov, A. S.'
'Shestakov, N. P.'
'Molokeev, M. S.'
'Aleksandrovsky, A. S.'
'Gudim, I. A.'
'Temerov, V. L.'
'Adichtchev, S. V.'
'Pugachev, A. M.'
'Nemtsev, I. V.'
'Pogoreltsev, E. I.'
'Denisenko, Y. G.'
_publ_section_title
;
 Monoclinic SmAl~3~(BO~3~)~4~: synthesis, structural and spectroscopic
 properties
;
_journal_coeditor_code           um5043sup1
_journal_issue                   4
_journal_name_full               'Acta Crystallographica Section B'
_journal_page_first
;
;
_journal_paper_doi               10.1107/S2052520620008781
_journal_volume                  76
_journal_year                    2020
_chemical_formula_sum            'Al3 B4 O12 Sm'
_chemical_formula_weight         466.54
_space_group_crystal_system      monoclinic
_space_group_IT_number           15
_space_group_name_Hall           '-C 2yc'
_space_group_name_H-M_alt        'C 1 2/c 1'
_audit_creation_method           SHELXL-2014/7
_cell_angle_alpha                90
_cell_angle_beta                 103.2240(10)
_cell_angle_gamma                90
_cell_formula_units_Z            4
_cell_length_a                   7.2386(3)
_cell_length_b                   9.3412(3)
_cell_length_c                   11.1013(4)
_cell_measurement_reflns_used    7882
_cell_measurement_temperature    296(2)
_cell_measurement_theta_max      38.965
_cell_measurement_theta_min      3.622
_cell_volume                     730.73(5)
_computing_cell_refinement       'APEX2 (Bruker, 2008)'
_computing_data_collection       'APEX2 (Bruker, 2008)'
_computing_data_reduction        'SAINT (Bruker, 2009)'
_computing_molecular_graphics    'DIAMOND (Brandenburg, 2005)'
_computing_publication_material  'publCIF (Westrip, 2009)'
_computing_structure_refinement  'SHELXL2014 (Sheldrick, 2015b)'
_computing_structure_solution    'SHELXS2014 (Sheldrick, 2015a)'
_diffrn_ambient_temperature      296(2)
_diffrn_measured_fraction_theta_full 0.997
_diffrn_measured_fraction_theta_max 0.948
_diffrn_measurement_device_type  '`SMART APEX''
_diffrn_measurement_method       '\f and \w scans'
_diffrn_radiation_type           MoK\a
_diffrn_radiation_wavelength     0.71073
_diffrn_reflns_av_R_equivalents  0.0387
_diffrn_reflns_av_unetI/netI     0.0325
_diffrn_reflns_Laue_measured_fraction_full 0.997
_diffrn_reflns_Laue_measured_fraction_max 0.948
_diffrn_reflns_limit_h_max       12
_diffrn_reflns_limit_h_min       -12
_diffrn_reflns_limit_k_max       16
_diffrn_reflns_limit_k_min       -15
_diffrn_reflns_limit_l_max       19
_diffrn_reflns_limit_l_min       -18
_diffrn_reflns_number            7882
_diffrn_reflns_point_group_measured_fraction_full 0.997
_diffrn_reflns_point_group_measured_fraction_max 0.948
_diffrn_reflns_theta_full        25.000
_diffrn_reflns_theta_max         38.965
_diffrn_reflns_theta_min         3.622
_exptl_absorpt_coefficient_mu    8.486
_exptl_absorpt_correction_T_max  0.7453
_exptl_absorpt_correction_T_min  0.5782
_exptl_absorpt_correction_type   multi-scan
_exptl_absorpt_process_details
;
(SADABS; Bruker, 2004)
;
_exptl_crystal_colour            colorless
_exptl_crystal_density_diffrn    4.241
_exptl_crystal_description       block
_exptl_crystal_F_000             868
_exptl_crystal_size_max          0.4
_exptl_crystal_size_mid          0.4
_exptl_crystal_size_min          0.2
_refine_diff_density_max         4.516
_refine_diff_density_min         -3.057
_refine_diff_density_rms         0.305
_refine_ls_extinction_coef       0.170(4)
_refine_ls_extinction_expression Fc^*^=kFc[1+0.001xFc^2^\l^3^/sin(2\q)]^-1/4^
_refine_ls_extinction_method     'SHELXL2014 (Sheldrick, 2015b)'
_refine_ls_goodness_of_fit_ref   1.202
_refine_ls_hydrogen_treatment    undef
_refine_ls_matrix_type           full
_refine_ls_number_parameters     93
_refine_ls_number_reflns         2025
_refine_ls_number_restraints     0
_refine_ls_restrained_S_all      1.202
_refine_ls_R_factor_all          0.0261
_refine_ls_R_factor_gt           0.0259
_refine_ls_shift/su_max          0.001
_refine_ls_shift/su_mean         0.000
_refine_ls_structure_factor_coef Fsqd
_refine_ls_weighting_details
'w=1/[\s^2^(Fo^2^)+(0.0126P)^2^+8.0294P] where P=(Fo^2^+2Fc^2^)/3'
_refine_ls_weighting_scheme      calc
_refine_ls_wR_factor_gt          0.0630
_refine_ls_wR_factor_ref         0.0631
_reflns_Friedel_coverage         0.000
_reflns_number_gt                2018
_reflns_number_total             2025
_reflns_threshold_expression     'I > 2\s(I)'
_cod_data_source_file            um5043sup1.cif
_cod_data_source_block           I
_cod_original_sg_symbol_H-M      'C 2/c'
_cod_database_code               2108646
_shelx_shelxl_version_number     2014/7
_shelx_space_group_comment
;
The symmetry employed for this shelxl refinement is uniquely defined
by the following loop, which should always be used as a source of
symmetry information in preference to the above space-group names.
They are only intended as comments.
;
_shelx_res_file
;

    b.res created by SHELXL-2014/7


TITL a_a.res in C2/c
REM Old TITL SmAl3_new2_0m in C2

REM SHELXT solution in C2/c
REM R1 0.192,  Rweak 0.045,  Alpha 0.046,  Orientation as input
REM Formula found by SHELXT:  B17 O3 Sm

CELL  0.71073   7.2386   9.3412  11.1013   90.000  103.224   90.000
ZERR    2.000   0.0003   0.0003   0.0004    0.000    0.001    0.000
LATT  7
SYMM -X, Y, 1/2-Z
SFAC B O AL SM
UNIT 16 48 12 4
TEMP 23.000
L.S. 10
BOND $H
LIST 6
ACTA 50
FMAP 2
PLAN 20
WGHT    0.012600    8.029400
EXTI    0.169705
FVAR       0.46612
SM    4    0.500000    0.463923    0.750000    10.50000    0.00398    0.00505 =
         0.00505    0.00000    0.00164    0.00000
AL1   3    0.444366    0.250083    0.471542    11.00000    0.00275    0.00487 =
         0.00391   -0.00008    0.00105    0.00017
AL2   3    0.500000   -0.088612    0.750000    10.50000    0.00342    0.00367 =
         0.00479    0.00000    0.00143    0.00000
B1    1    0.751246    0.470858    0.504563    11.00000    0.00384    0.00450 =
         0.00464    0.00033    0.00142    0.00054
B2    1    0.692866    0.186391    0.722000    11.00000    0.00424    0.00445 =
         0.00487   -0.00018    0.00047   -0.00115
O1    2    0.903673    0.396831    0.573874    11.00000    0.00360    0.00581 =
         0.00440   -0.00041   -0.00003    0.00158
O2    2    0.594413    0.402321    0.436322    11.00000    0.00368    0.00590 =
         0.00635    0.00093    0.00018   -0.00177
O3    2    0.839824    0.263361    0.794835    11.00000    0.00388    0.00661 =
         0.00422    0.00053    0.00013   -0.00273
O4    2    0.749935    0.619512    0.497271    11.00000    0.00446    0.00533 =
         0.00896    0.00013    0.00370   -0.00015
O5    2    0.560484    0.259548    0.637789    11.00000    0.00472    0.00693 =
         0.00479    0.00032   -0.00078    0.00153
O6    2    0.688263    0.042333    0.741068    11.00000    0.00507    0.00441 =
         0.00888   -0.00049    0.00298   -0.00138
HKLF 4

REM  a_a.res in C2/c
REM R1 =  0.0259 for    2018 Fo > 4sig(Fo)  and  0.0261 for all    2025 data
REM     93 parameters refined using      0 restraints

END

WGHT      0.0151      7.3624

REM Highest difference peak  4.516,  deepest hole -3.057,  1-sigma level  0.305
Q1    1   0.4957  0.4613  0.6883  11.00000  0.05    4.52
Q2    1   0.5000  0.0400  0.7500  10.50000  0.05    2.12
Q3    1   0.5000  0.6274  0.7500  10.50000  0.05    1.88
Q4    1   0.3799  0.4620  0.7683  11.00000  0.05    1.83
Q5    1   0.4554  0.4025  0.7408  11.00000  0.05    1.65
Q6    1   0.4593  0.5183  0.7463  11.00000  0.05    1.63
Q7    1   0.5000  0.1920  0.7500  10.50000  0.05    1.29
Q8    1   0.4247  0.5146  0.6873  11.00000  0.05    1.21
Q9    1   0.8183  0.3969  0.7772  11.00000  0.05    0.95
Q10   1   0.5000  0.3225  0.7500  10.50000  0.05    0.95
Q11   1   0.4186  0.4188  0.6843  11.00000  0.05    0.91
Q12   1   0.7881 -0.0917  0.7600  11.00000  0.05    0.85
Q13   1   0.5124  0.5143  0.3892  11.00000  0.05    0.85
Q14   1   0.9516  0.4372  0.4807  11.00000  0.05    0.82
Q15   1   0.7495  0.3183  0.4963  11.00000  0.05    0.82
Q16   1   0.5805  0.1882  0.5547  11.00000  0.05    0.76
Q17   1   0.4923 -0.1015  0.6868  11.00000  0.05    0.75
Q18   1   0.5546  0.4053  0.6504  11.00000  0.05    0.73
Q19   1   0.5472  0.4401  0.5173  11.00000  0.05    0.71
Q20   1   1.0539  0.4024  0.5346  11.00000  0.05    0.70
;
_shelx_res_checksum              82611
_shelx_hkl_file
;
   2   0   0 3234.88  165.18
   4   0   0 3562.14  188.88
  -4   0   0 3784.42  186.68
  -4   0   0 3663.23  186.78
   6   0   0 1576.64   83.69
  -6   0   0 1570.84   79.99
  -6   0   0 1515.05   80.09
   8   0   0 1204.08   68.79
  -8   0   0 1221.88   63.89
  -8   0   0 1223.98   63.79
  10   0   0 1053.49   65.19
 -10   0   0 1147.69   58.89
   1  -1   0 1704.73   84.29
   1  -1   0 1601.24   83.79
   3  -1   0 3291.47  174.88
  -3  -1   0 3575.14  173.78
  -3  -1   0 3488.45  173.58
  -3   1   0 3593.24  173.28
   3   1   0 3099.69  175.68
  -3   1   0 3436.76  173.68
   5  -1   0 1587.24   79.59
  -5  -1   0 1474.05   76.59
  -5  -1   0 1504.45   76.89
  -5   1   0 1501.55   76.29
   5   1   0 1352.46   81.19
  -5   1   0 1524.95   76.89
  -7  -1   0 1980.40   97.69
  -7  -1   0 1913.51   97.09
   7  -1   0 1955.90  101.59
  -7   1   0 1815.12   96.89
  -7   1   0 1876.81   97.39
   7   1   0 1770.52  101.59
  -9  -1   0 1370.36   71.19
   9  -1   0 1352.96   77.49
  -9  -1   0 1393.56   72.09
  -9   1   0 1376.06   71.59
   9   1   0 1305.57   76.99
 -11  -1   0  695.03   38.70
  11  -1   0  687.83   45.10
 -11   1   0  664.23   37.80
  11   1   0  680.53   43.30
   0  -2   0 1311.97   69.09
   0   2   0 1321.87   69.19
   0   2   0 1424.66   68.69
  -2  -2   0 1263.37   61.49
  -2  -2   0 1267.67   62.09
   2  -2   0 1235.08   62.49
   2  -2   0 1079.59   61.39
   2   2   0 1102.19   63.29
  -2   2   0 1306.17   61.89
  -4  -2   0 3127.29  159.88
   4  -2   0 2998.10  161.18
  -4  -2   0 3249.57  159.48
   4   2   0 2987.60  162.58
  -4   2   0 3291.87  159.78
   6  -2   0 2588.94  132.19
  -6  -2   0 2542.15  129.49
  -6  -2   0 2497.65  128.69
   6   2   0 2373.06  132.79
  -6   2   0 2388.66  128.09
  -6   2   0 2717.23  129.39
  -8  -2   0 3444.66  181.48
  -8  -2   0 3650.23  182.88
   8  -2   0 3563.24  186.98
  -8   2   0 3508.15  182.18
   8   2   0 3582.04  186.88
 -10  -2   0 2534.65  132.29
  10  -2   0 2453.55  139.69
  10   2   0 2703.83  138.39
 -12   2   0 1214.78   65.49
  -1  -3   0 2257.87  108.69
   1  -3   0 1844.52  108.59
  -1   3   0 2291.67  108.29
  -1   3   0 2063.39  108.79
   1   3   0 2178.08  109.09
   3  -3   0 2030.60  112.19
  -3  -3   0 2179.48  110.69
  -3  -3   0 2210.58  111.69
  -3   3   0 2261.27  111.39
   3   3   0 2213.58  113.49
   5  -3   0 1911.81  103.09
  -5  -3   0 1909.11  100.39
  -5  -3   0 1913.61  101.39
  -5   3   0 1933.61  101.09
   5   3   0 2180.78  104.59
  -7  -3   0 1674.03   88.09
   7  -3   0 1770.22   92.59
  -7  -3   0 1710.13   89.49
  -7   3   0 1691.43   88.99
   7   3   0 1724.43   92.49
  -9  -3   0 1221.48   63.99
  -9  -3   0 1118.39   61.69
   9  -3   0 1217.48   68.49
   9   3   0 1198.78   66.49
  -9   3   0 1161.08   62.89
  11  -3   0  792.02   51.89
  11   3   0  865.51   49.00
 -11   3   0  785.22   45.00
   0  -4   0 2534.95  124.99
   0   4   0 2482.05  124.09
   0   4   0 2311.47  125.09
   2  -4   0 1976.70  110.39
  -2  -4   0 2232.88  110.59
  -2   4   0 2267.77  109.99
   2   4   0 2141.19  111.69
  -4  -4   0 1335.67   69.69
   4  -4   0 1328.37   70.59
  -4  -4   0 1295.77   68.39
   4   4   0 1391.86   71.99
  -4   4   0 1357.36   69.29
  -6  -4   0 1337.47   70.89
  -6  -4   0 1368.06   72.49
   6  -4   0 1369.26   74.39
   6   4   0 1506.35   75.09
  -6   4   0 1332.67   71.89
  -8  -4   0   34.30    4.70
   8  -4   0   39.90    8.20
   8   4   0   41.60    7.30
  -8   4   0   37.70    4.20
 -10  -4   0   29.80    6.40
  10  -4   0   24.80    8.40
 -10   4   0   23.70    4.80
  10   4   0   29.90    6.70
  -1  -5   0 1294.67   64.69
   1  -5   0 1138.79   64.79
   1   5   0 1244.18   65.19
   1   5   0 1218.78   63.29
  -1   5   0 1256.17   64.89
  -1   5   0 1309.77   63.79
   3  -5   0 1806.72   97.19
   3  -5   0 1862.71   95.89
  -3  -5   0 1968.70   96.99
  -3   5   0 1971.20   96.29
   3   5   0 1757.42   98.49
   5  -5   0  730.63   39.10
  -5  -5   0  700.83   37.90
  -5  -5   0  672.73   36.00
  -5   5   0  696.73   37.30
   5   5   0  699.23   39.80
  -7  -5   0  811.82   47.10
   7  -5   0  870.61   49.40
   7   5   0  894.21   49.00
  -7   5   0  879.81   46.50
  -9  -5   0  661.83   38.40
  11  -5   0  208.58   20.70
  11   5   0  250.67   18.50
 -11   5   0  252.67   16.50
   0  -6   0 2299.67  109.19
   0   6   0 1971.60  109.09
   0   6   0 2060.49  107.49
   2  -6   0  765.82   43.60
  -2  -6   0  837.42   43.30
  -2   6   0  805.02   42.30
   2   6   0  819.92   44.60
  -2   6   0  831.22   43.70
   4  -6   0  224.88   12.40
  -4  -6   0  235.68   14.40
   4  -6   0  243.28   14.90
   4   6   0  217.28   15.90
  -4   6   0  250.97   13.60
  -6  -6   0  434.86   26.00
   6  -6   0  446.96   27.10
  -6   6   0  467.95   26.40
   8  -6   0  391.46   26.30
  -8  -6   0  381.26   24.20
  -8   6   0  397.86   23.20
   8   6   0  396.56   25.50
  10  -6   0  230.18   21.40
 -10  -6   0  206.68   15.80
 -10   6   0  184.68   14.20
  10   6   0  219.98   16.60
   1  -7   0   54.89    5.20
  -1   7   0   45.60    3.70
   1   7   0   64.99    3.60
   1   7   0   59.49    5.50
  -1   7   0   56.49    5.10
   3  -7   0   21.90    3.20
   3  -7   0   20.10    2.70
  -3  -7   0   24.50    3.20
   3   7   0   44.50    7.30
  -3   7   0   18.90    2.80
  -5  -7   0  177.18   12.20
   5  -7   0  188.88   12.90
   5   7   0  184.78   14.10
  -5   7   0  169.48   11.20
   7  -7   0   93.39    9.10
  -7  -7   0   90.49    8.30
  -7   7   0   79.79    7.20
   7   7   0  105.29    9.80
   9  -7   0    6.60    4.20
  -9  -7   0    9.20    7.50
  -9   7   0   13.00    3.60
   9   7   0    5.40    4.30
 -11  -7   0   20.00    9.70
   0  -8   0  533.15   29.30
   0   8   0  485.95   27.00
   0   8   0  523.25   29.50
   2  -8   0   27.60    3.90
  -2  -8   0   22.80    4.60
   2   8   0   33.00    5.90
   4  -8   0  161.98   10.90
   4  -8   0  164.68   11.70
  -4  -8   0  155.08   11.30
  -4   8   0  188.88   10.50
   4   8   0  131.49   12.60
  -6  -8   0 1106.29   61.19
   6  -8   0 1081.29   61.59
   6   8   0 1197.28   63.59
  -6   8   0 1096.69   59.59
  -8  -8   0  233.28   18.60
   8  -8   0  210.28   17.50
   8   8   0  240.38   17.80
  -8   8   0  239.88   15.50
  10  -8   0  803.62   53.39
 -10  -8   0  913.11   51.69
  10   8   0  970.90   52.49
 -10   8   0  850.21   49.50
  -1  -9   0  594.84   34.60
   1  -9   0  589.84   34.70
   1   9   0  617.24   35.70
   1   9   0  639.44   31.80
  -1   9   0  584.24   32.50
  -1   9   0  629.54   35.00
   3  -9   0  692.43   39.20
   3  -9   0  673.43   38.00
  -3  -9   0  734.73   39.20
  -3   9   0  691.23   37.20
   3   9   0  659.73   41.20
  -5  -9   0  406.26   25.00
   5  -9   0  427.76   25.40
   5   9   0  392.76   27.00
  -5   9   0  392.26   23.30
   7  -9   0  738.63   46.70
  -7  -9   0  770.62   44.00
  -7   9   0  752.92   43.50
  -9  -9   0  368.66   25.50
   9  -9   0  363.86   26.60
  -9   9   0  376.46   23.50
   9   9   0  394.06   26.20
   0 -10   0 1396.46   78.29
   0  10   0 1410.56   80.19
   0  10   0 1558.14   75.59
  -2 -10   0 1131.29   61.39
   2 -10   0 1081.59   59.39
  -2  10   0 1032.90   57.29
  -2  10   0 1086.39   59.89
   2  10   0 1121.09   62.09
   4 -10   0  992.40   52.39
  -4 -10   0  950.30   52.09
   4  10   0  807.42   53.99
  -4  10   0  943.31   49.90
   6 -10   0  794.42   45.90
  -6 -10   0  760.32   45.70
   6  10   0  823.92   48.40
  -6  10   0  770.72   43.50
   8 -10   0   30.10    8.80
   8  10   0   35.80    8.30
  -8  10   0   30.10    6.50
  -1 -11   0 1553.34   86.39
   1 -11   0 1633.14   86.39
  -1  11   0 1558.44   86.89
   1  11   0 1586.34   88.09
  -1  11   0 1684.03   83.59
  -3 -11   0 2006.60  106.79
   3 -11   0 2044.40  106.09
   3 -11   0 1971.50  106.79
  -3  11   0 2026.10  104.09
   3  11   0 1918.51  109.59
   5 -11   0 1220.08   66.99
   5  11   0 1091.89   76.99
  -5  11   0 1240.08   64.39
  -7 -11   0  891.51   58.29
   7 -11   0  821.12   53.19
  -7  11   0  906.91   49.00
   0 -12   0  576.54   34.50
   0  12   0  568.44   35.80
  -2 -12   0   97.09    9.90
   2 -12   0  107.19    9.30
  -2  12   0  112.19   10.40
   2  12   0  122.59   12.40
  -2  12   0   94.39    8.00
  -4 -12   0 1400.36   74.29
   4 -12   0 1344.67   76.19
   4  12   0 1167.48   76.29
  -4  12   0 1390.26   71.39
   6 -12   0 1091.59   66.29
  -6  12   0 1041.30   58.49
  -8  12   0 1385.66   76.99
  -1 -13   0 1217.38   68.89
   1 -13   0 1272.97   68.19
   1  13   0 1207.98   74.19
  -1  13   0 1237.48   79.99
   3 -13   0 1528.95   85.79
  -3 -13   0 1580.24   85.89
  -3  13   0 1681.43   82.89
   3  13   0 1406.56   88.59
  -5 -13   0 1114.09   63.89
   5 -13   0 1110.39   66.49
   5  13   0 1102.79   66.99
  -5  13   0 1119.69   61.29
   7 -13   0 1549.34   97.09
  -7  13   0 1665.33   87.59
   0 -14   0 3881.71  190.78
   0  14   0 3305.07  191.38
  -2 -14   0 1307.07   73.09
   2  14   0 1293.27   77.09
   4 -14   0 1102.99   64.49
  -4 -14   0 1137.69   64.49
   4  14   0  996.30   67.09
  -4  14   0 1219.88   62.09
  -6  14   0  435.96   28.10
  -1 -15   0  844.32   53.69
   1  15   0  895.31   55.39
  -1  15   0  845.22   53.49
   3 -15   0 1018.00   61.89
  -3 -15   0 1192.58   62.79
   3  15   0 1007.40   65.89
  12   0  -1   13.90    7.10
  10   0  -1   23.50    8.10
   8   0  -1    5.20    4.10
  -8   0   1    8.10    2.20
  -8   0   1    4.90    1.80
  -6   0   1   18.20    3.00
   6   0  -1   23.80    5.30
  -6   0   1   32.50    2.80
   4   0  -1   14.00    3.10
  -4   0   1   11.60    1.30
  -2   0   1   38.50    2.80
  -2   0   1   51.09    3.00
   2   0  -1   57.49    3.70
  -2   0  -1   32.80    2.40
   2   0   1   45.30    3.50
   2   0   1   44.60    2.50
  -4   0  -1   20.60    1.90
   4   0   1   29.40    3.70
  -4   0  -1   26.50    1.90
   6   0   1   12.40    4.20
  -6   0  -1    6.70    1.50
  -8   0  -1    4.80    1.70
   8   0   1    4.50    3.80
 -10   0  -1    6.10    2.50
  10   0   1    4.10    5.30
 -11  -1   1   27.60    5.20
  11   1  -1   38.60   14.30
 -11   1   1   33.60    5.40
   9  -1  -1  349.37   24.30
  -9  -1   1  304.97   18.50
  -9   1   1  333.97   18.90
   9   1  -1  309.07   23.50
  -7  -1   1  151.08   10.10
  -7  -1   1  160.58    9.50
   7  -1  -1  166.88   12.90
   7   1  -1  155.78   13.10
  -7   1   1  154.38    9.20
  -7   1   1  153.18    9.70
   5  -1  -1 1173.38   59.99
  -5  -1   1 1131.29   57.49
  -5  -1   1 1125.69   57.89
  -5   1   1 1126.89   57.69
  -5   1   1 1029.00   57.29
   5   1  -1 1099.79   60.49
  -3  -1   1  108.69    6.50
   3  -1  -1  112.59    7.50
  -3  -1   1  111.89    6.80
  -3   1   1  134.79    6.80
  -1  -1   1  325.27   17.10
  -1  -1   1  291.97   16.60
  -1   1   1  354.46   16.70
   1   1  -1  292.17   17.30
  -1   1   1  340.57   16.40
   1  -1   1   52.69    3.20
   1  -1   1   62.89    3.60
  -1  -1  -1   61.39    3.10
  -1   1  -1   54.99    3.30
   3  -1   1 1003.00   54.39
   3  -1   1 1093.09   52.89
  -3  -1  -1 1042.20   53.19
  -3  -1  -1 1054.59   52.99
   3   1   1  980.40   55.49
  -3   1  -1 1029.00   53.19
  -5  -1  -1   33.20    2.50
  -5  -1  -1   23.10    2.20
   5   1   1   50.09    8.60
  -5   1  -1   25.10    2.50
  -5   1  -1   28.90    2.10
  -7  -1  -1  240.38   13.80
   7  -1   1  239.88   17.40
  -7  -1  -1  231.48   13.50
  -7   1  -1  236.98   13.80
   7   1   1  241.28   17.90
  -7   1  -1  232.28   13.20
   9  -1   1   46.40   10.20
  -9  -1  -1   29.80    4.20
  -9  -1  -1   29.50    3.30
   9   1   1   47.10    9.20
  -9   1  -1   22.20    3.90
  11  -1   1  243.28   21.90
 -11   1  -1  252.67   16.20
  11   1   1  275.57   21.30
  12  -2  -1  410.06   35.50
 -12   2   1  447.06   26.70
  12   2  -1  490.95   33.20
 -10  -2   1  361.36   21.20
  10  -2  -1  363.36   27.30
 -10   2   1  374.26   21.90
  10   2  -1  379.16   26.20
  -8  -2   1 1100.39   58.69
   8  -2  -1 1122.29   62.29
  -8  -2   1 1100.79   57.29
   8   2  -1 1051.09   61.99
  -8   2   1 1095.79   57.89
  -6  -2   1  921.21   48.00
   6  -2  -1  978.10   50.39
  -6  -2   1  907.01   47.00
   6   2  -1  797.42   50.49
  -6   2   1  909.81   47.50
  -4  -2   1 1253.07   64.09
   4  -2  -1 1320.47   65.59
  -4  -2   1 1232.58   64.39
  -4   2   1 1276.97   64.19
   4   2  -1 1132.29   66.49
  -2  -2   1 2029.10   97.29
  -2  -2   1 1800.22   96.59
   2  -2  -1 1834.52   97.29
   2   2  -1 1935.61   98.29
   0  -2  -1 1073.49   54.19
   0  -2   1 1026.30   54.89
   0   2   1 1066.39   54.09
   0   2  -1 1054.79   54.39
   0   2   1 1086.09   54.49
   2  -2   1 1922.41   97.59
   2  -2   1 1665.63   96.59
  -2  -2  -1 2128.09   96.49
  -2  -2  -1 2042.70   96.99
   2   2   1 1735.83   98.39
  -4  -2  -1 1426.66   73.89
   4  -2   1 1562.24   73.69
  -4  -2  -1 1417.76   74.29
   4  -2   1 1467.65   75.99
   4   2   1 1381.56   77.29
  -4   2  -1 1407.36   74.29
  -6  -2  -1  878.31   45.90
  -6  -2  -1  879.81   45.30
   6  -2   1  892.91   48.90
   6   2   1  800.22   49.20
  -6   2  -1  894.61   45.90
  -6   2  -1  868.31   44.80
   8  -2   1 1131.39   63.09
  -8  -2  -1 1138.39   58.49
  -8  -2  -1 1108.49   57.39
   8   2   1 1029.50   61.99
  -8   2  -1 1077.59   57.99
  10  -2   1  291.57   24.20
 -10   2  -1  307.07   18.60
  10   2   1  308.37   22.50
 -12   2  -1  335.77   21.00
  11  -3  -1  363.46   28.10
  11   3  -1  360.96   25.20
   9  -3  -1  529.85   34.10
  -9  -3   1  525.75   30.50
  -9  -3   1  526.15   28.60
   9   3  -1  521.45   32.80
  -9   3   1  514.45   29.50
  -7  -3   1  875.31   47.10
  -7  -3   1  892.81   48.70
   7  -3  -1  955.20   51.19
   7   3  -1  877.51   50.99
  -7   3   1  913.81   48.00
  -5  -3   1 1154.48   60.89
   5  -3  -1 1215.08   63.29
  -5  -3   1 1144.69   61.99
   5   3  -1 1228.48   64.39
  -3  -3   1 1154.58   56.99
  -3  -3   1 1052.39   55.99
   3  -3  -1 1111.39   57.29
  -3   3   1 1073.59   56.39
   3   3  -1 1083.99   58.29
   1  -3  -1  188.98   10.50
  -1  -3   1  169.08   11.10
   1   3  -1  232.38   10.30
  -1   3   1  198.58   10.60
   1   3  -1  195.58   11.30
   1  -3   1 1396.56   76.49
  -1  -3  -1 1520.95   76.09
  -1  -3  -1 1379.06   75.39
   1   3   1 1555.14   76.69
  -1   3  -1 1614.04   75.89
  -1   3  -1 1455.35   76.39
  -3  -3  -1 2219.78  109.99
  -3  -3  -1 2303.77  109.09
   3  -3   1 2069.89  110.79
   3  -3   1 1897.71  109.09
  -3   3  -1 2194.48  109.79
   3   3   1 2202.58  111.99
  -5  -3  -1 2233.88  117.89
  -5  -3  -1 2294.67  118.79
   5  -3   1 2251.17  120.79
   5   3   1 2591.74  122.29
  -5   3  -1 2266.97  118.69
  -5   3  -1 2251.97  117.39
  -7  -3  -1 1225.38   64.89
  -7  -3  -1 1198.88   65.59
   7  -3   1 1206.08   68.19
  -7   3  -1 1243.18   64.69
   7   3   1 1284.77   69.89
   9  -3   1   69.99    9.40
  -9  -3  -1   54.09    6.00
   9   3   1   71.79    8.40
  -9   3  -1   56.49    5.60
  11  -3   1  237.08   22.40
  11   3   1  256.97   21.00
 -11   3  -1  239.38   15.90
  10  -4  -1 1287.87   74.19
 -10  -4   1 1274.97   69.49
  10   4  -1 1281.87   71.49
 -10   4   1 1276.07   68.49
   8  -4  -1 1910.11  104.19
  -8  -4   1 1891.31   99.39
  -8  -4   1 1920.51  101.89
   8   4  -1 2031.40  103.69
  -8   4   1 1897.81  100.59
  -6  -4   1 2020.70  105.09
  -6  -4   1 2038.00  106.79
   6  -4  -1 1989.50  108.09
   6   4  -1 2211.38  108.89
  -6   4   1 2008.20  105.99
  -4  -4   1 2706.03  140.79
   4  -4  -1 2625.34  141.19
  -4  -4   1 2568.44  139.39
  -4   4   1 2833.22  140.19
   4   4  -1 2972.30  142.59
   2  -4  -1 2644.84  147.29
  -2  -4   1 2920.61  148.09
  -2   4   1 3067.89  147.29
   2   4  -1 2932.21  148.99
   0   4  -1 2140.49   99.99
   0   4   1 1873.31  100.89
   0   4  -1 1830.22  100.79
   0   4   1 2008.30   99.99
   2  -4   1 2554.84  140.19
  -2  -4  -1 2809.02  140.29
   2  -4   1 2532.45  140.59
  -2   4  -1 2906.51  139.99
   2   4   1 2927.61  141.79
  -4  -4  -1 2577.34  131.19
   4  -4   1 2553.64  132.39
   4  -4   1 2304.27  129.69
  -4  -4  -1 2643.84  129.89
   4   4   1 2669.93  135.29
  -4   4  -1 2599.14  131.39
  -6  -4  -1 1896.61   99.89
  -6  -4  -1 1852.71   98.39
   6  -4   1 1887.31  102.29
   6   4   1 2088.09  102.89
  -6   4  -1 1912.21   99.59
   8  -4   1 1757.72   95.09
  -8  -4  -1 1726.03   91.19
  -8   4  -1 1670.63   90.39
   8   4   1 1767.92   93.59
 -10  -4  -1 1247.28   66.49
  10  -4   1 1203.08   71.59
 -10   4  -1 1170.98   65.09
  10   4   1 1230.78   68.29
  11  -5  -1  999.10   74.49
  11   5  -1 1064.59   61.99
  -9  -5   1 1078.39   58.59
   9  -5  -1 1035.40   61.49
  -9   5   1 1049.49   57.19
   9   5  -1 1053.89   60.99
   7  -5  -1 2247.28  121.79
  -7  -5   1 2209.38  120.29
  -7   5   1 2318.87  119.29
   7   5  -1 2428.56  121.89
  -5  -5   1 2584.84  124.99
  -5  -5   1 2327.27  126.89
   5  -5  -1 2321.07  127.49
  -5   5   1 2468.85  126.09
   5   5  -1 2557.94  128.69
   3  -5  -1 3204.48  186.98
   3  -5  -1 3924.71  186.38
  -3  -5   1 3936.81  187.38
   3   5  -1 3286.87  188.28
  -3   5   1 3902.01  186.28
   1  -5  -1 2115.69  112.69
  -1  -5   1 2089.39  113.49
  -1   5   1 2315.97  112.69
   1   5  -1 2200.88  113.59
   1   5  -1 2290.87  111.79
  -1   5   1 2186.28  113.29
  -1  -5  -1 2747.03  134.19
   1  -5   1 2432.06  134.99
   1   5   1 2599.94  134.89
  -1   5  -1 2555.84  134.59
  -1   5  -1 2759.22  133.49
  -3  -5  -1 1065.69   55.59
   3  -5   1 1003.00   54.69
   3  -5   1 1043.20   56.09
  -3   5  -1 1133.29   55.19
   3   5   1 1064.89   57.59
  -5  -5  -1 1807.32   93.49
  -5  -5  -1 1803.92   95.29
   5  -5   1 1761.52   96.69
  -5   5  -1 1831.52   94.99
   5   5   1 1986.20   98.29
   7  -5   1  439.56   27.40
  -7  -5  -1  394.76   24.60
   7   5   1  452.85   27.00
  -7   5  -1  427.06   24.30
  -9  -5  -1 1539.35   84.39
   9  -5   1 1619.54   91.59
   9   5   1 1582.14   86.09
  -9   5  -1 1562.24   83.39
  11  -5   1  865.31   56.09
 -11   5  -1  842.02   49.30
  11   5   1  970.90   52.79
 -10  -6   1  764.52   45.80
  -8  -6   1 1952.50  106.09
   8  -6  -1 1939.21  107.59
  -8   6   1 1993.30  104.49
   8   6  -1 2103.49  107.19
  -6  -6   1 1808.52   98.99
   6  -6  -1 1783.62   99.49
   6   6  -1 2029.80  100.69
  -6   6   1 1910.71   97.89
   4  -6  -1 1798.12   98.09
  -4  -6   1 2000.50  100.79
   4  -6  -1 1862.81  100.69
   4   6  -1 1907.41  102.29
  -4   6   1 2088.19   99.59
   2  -6  -1 2585.44  145.69
  -2  -6   1 2862.11  146.39
  -2   6   1 2929.31  144.99
   2   6  -1 2989.40  147.49
  -2   6   1 2829.02  146.29
   0  -6   1 1804.42  104.29
   0  -6  -1 2001.60  103.49
   0   6  -1 2037.20  104.19
   0   6  -1 2041.00  102.79
   0   6   1 2080.79  104.29
   0   6   1 2086.99  102.69
   2  -6   1 2963.80  162.08
  -2  -6  -1 3186.68  162.38
  -2   6  -1 3320.57  160.98
   2   6   1 3386.16  164.88
  -2   6  -1 2922.51  162.08
   4  -6   1 2184.18  112.79
  -4  -6  -1 2255.87  111.99
   4  -6   1 1970.80  110.09
  -4   6  -1 2354.46  111.49
   4   6   1 2047.70  114.29
  -6  -6  -1 1665.43   89.79
   6  -6   1 1585.74   91.49
   6   6   1 1880.51   93.09
  -6   6  -1 1722.53   89.39
  -8  -6  -1 1915.11  102.79
   8  -6   1 1853.81  105.39
   8   6   1 2080.69  104.99
  -8   6  -1 1918.91  101.79
 -10  -6  -1  631.64   38.00
  10  -6   1  620.14   41.80
 -10   6  -1  636.54   36.60
  10   6   1  660.73   39.10
 -11  -7   1 2709.43  149.39
  -9  -7   1  758.82   47.50
   9  -7  -1  746.73   45.90
   9   7  -1  769.12   44.80
  -9   7   1  764.62   42.60
  -7  -7   1 1520.45   82.39
   7  -7  -1 1461.95   82.79
   7   7  -1 1629.54   83.49
  -7   7   1 1510.85   80.59
  -5  -7   1 1741.03   96.19
   5  -7  -1 1739.23   96.19
  -5   7   1 1893.71   94.89
   5   7  -1 1933.81   98.09
   3  -7  -1 2201.88  127.19
   3  -7  -1 2587.94  127.09
  -3  -7   1 2487.75  127.69
  -3   7   1 2591.14  126.09
   3   7  -1 2404.96  129.19
   1  -7  -1 2972.00  152.18
  -1   7   1 2901.31  152.68
   1   7  -1 2997.00  153.38
   1   7  -1 2851.11  150.48
  -1   7   1 3081.19  151.18
  -1  -7  -1 4402.66  219.48
   1  -7   1 4221.18  220.48
   1   7   1 4279.77  220.48
   1   7   1 4302.27  217.78
  -1   7  -1 4509.95  218.28
  -1   7  -1 3997.30  219.78
   3  -7   1 1028.70   53.89
   3  -7   1  996.00   54.99
  -3  -7  -1 1004.10   54.39
   3   7   1 1047.90   56.99
  -3   7  -1 1049.70   53.59
   5  -7   1 3803.92  221.68
  -5  -7  -1 4321.47  221.08
  -5   7  -1 4515.35  220.38
   5   7   1 4570.34  224.28
  -7  -7  -1 2576.14  137.29
   7  -7   1 2401.26  138.69
  -7   7  -1 2583.74  136.19
   7   7   1 2952.00  140.29
  -9  -7  -1 2455.45  132.09
   9  -7   1 2334.37  134.59
  -9   7  -1 2485.25  130.49
   9   7   1 2693.13  133.79
  10  -8  -1  660.83   44.80
 -10  -8   1  696.93   42.70
 -10   8   1  698.13   41.00
  10   8  -1  819.62   44.10
   8  -8  -1 1528.55   85.49
  -8  -8   1 1497.75   84.69
  -8   8   1 1506.75   82.59
   8   8  -1 1693.93   85.79
   6  -8  -1 1090.59   61.69
  -6  -8   1 1080.19   61.59
  -6   8   1 1147.29   59.89
   6   8  -1 1173.48   63.09
  -4  -8   1 1801.62   90.09
   4  -8  -1 1660.43   89.59
   4   8  -1 1533.35   91.19
  -4   8   1 1769.62   88.09
  -2  -8   1 2161.88  115.59
   2  -8  -1 2126.39  115.19
  -2   8   1 2232.18  115.59
   2   8  -1 2275.97  117.09
  -2   8   1 2256.87  113.69
   0  -8  -1  897.11   49.10
   0  -8   1  853.21   49.90
   0   8   1  986.40   47.90
   0   8  -1  875.21   47.50
   0   8  -1  944.51   49.99
   0   8   1  944.01   50.09
   2  -8   1 1703.43   92.59
  -2  -8  -1 1723.03   91.99
  -2   8  -1 1722.43   92.69
  -2   8  -1 1832.22   90.89
   2   8   1 1823.12   94.29
   4  -8   1 1565.74   83.09
  -4  -8  -1 1596.54   82.49
   4  -8   1 1526.65   80.39
  -4   8  -1 1659.13   81.49
   4   8   1 1450.95   85.19
   6  -8   1  955.70   53.99
  -6  -8  -1  931.21   52.79
   6   8   1 1007.70   55.79
  -6   8  -1  957.70   51.79
  -8  -8  -1 1556.84   85.39
   8  -8   1 1420.26   84.59
   8   8   1 1646.14   85.19
  -8   8  -1 1501.65   81.59
  10  -8   1  830.82   52.79
 -10  -8  -1  802.62   55.49
 -10   8  -1  858.31   48.20
  10   8   1  912.81   50.99
   9  -9  -1 1143.29   66.19
   9   9  -1 1213.48   65.59
  -9   9   1 1084.59   62.49
  -7  -9   1 1634.04   90.19
   7  -9  -1 1614.74   90.69
   7   9  -1 1763.22   93.59
  -7   9   1 1651.03   87.99
  -5  -9   1 2368.56  125.99
   5  -9  -1 2274.67  125.59
   5   9  -1 2471.25  128.09
  -5   9   1 2438.86  123.89
  -3  -9   1 3634.64  190.98
   3  -9  -1 3912.01  190.18
  -3   9   1 3613.84  188.58
   3   9  -1 3560.74  192.98
  -1  -9   1 2846.82  154.78
   1  -9  -1 2975.90  154.28
  -1   9   1 3029.80  152.38
   1   9  -1 2952.60  155.58
  -1   9   1 2795.02  154.48
   1   9  -1 3232.58  151.68
  -1  -9  -1 1886.51   98.19
   1  -9   1 1878.31   98.99
  -1   9  -1 1817.72   98.69
   1   9   1 1879.21   99.69
   1   9   1 1904.01   95.29
  -1   9  -1 1852.31   96.29
   3  -9   1 1336.97   68.99
  -3  -9  -1 1281.97   70.89
   3  -9   1 1310.57   70.39
  -3   9  -1 1278.77   68.19
   5  -9   1 1111.59   61.39
  -5  -9  -1 1123.29   60.69
   5   9   1 1079.39   63.69
  -5   9  -1 1128.09   59.29
  -7   9  -1 1058.29   61.89
   7   9   1 1200.58   65.29
  -9  -9  -1 1612.14   86.89
   9  -9   1 1535.45   88.59
  -8 -10   1  384.26   27.60
   6 -10  -1  743.73   44.30
  -6 -10   1  756.12   44.50
  -6  10   1  753.12   42.10
   6  10  -1  795.42   46.10
   4 -10  -1  815.52   44.30
  -4 -10   1  783.42   44.30
   4  10  -1  704.63   45.90
  -4  10   1  766.22   45.20
   2 -10  -1  903.41   50.49
  -2 -10   1  902.11   56.99
  -2  10   1  889.71   50.79
  -2  10   1  899.11   48.40
   2  10  -1  969.30   53.19
   0 -10  -1 1423.96   77.79
   0 -10   1 1398.46   78.29
   0  10   1 1577.14   75.59
   0  10  -1 1444.46   75.29
   0  10  -1 1419.76   78.69
  -2 -10  -1 1012.40   55.59
   2 -10   1 1039.30   55.69
  -2  10  -1  967.10   53.59
  -2  10  -1  988.70   56.19
   2  10   1 1075.19   58.49
  -4 -10  -1  737.43   41.30
   4 -10   1  752.12   41.90
  -4  10  -1  735.33   39.50
   4  10   1  650.13   43.90
   6 -10   1  942.01   54.59
   6  10   1 1018.40   67.39
  -6  10  -1  930.41   52.09
  -8 -10  -1  559.54   36.20
   8 -10   1  552.94   37.00
  -8  10  -1  575.54   34.20
   8  10   1  660.93   38.60
  -7 -11   1  564.24   35.10
   7 -11  -1  571.74   35.60
   7  11  -1  540.15   35.90
  -7  11   1  532.65   32.20
   5 -11  -1  616.64   35.90
  -5 -11   1  567.44   37.20
   5  11  -1  581.14   37.60
  -5  11   1  571.64   33.10
   3 -11  -1   69.39    6.70
  -3 -11   1   54.79    7.00
   3 -11  -1   56.29    6.90
  -3  11   1   58.69    5.50
   3  11  -1   73.59    9.20
   1 -11  -1  490.45   29.90
  -1 -11   1  497.95   30.40
   1  11  -1  508.75   31.60
  -1  11   1  496.45   30.60
  -1 -11  -1 1134.09   62.89
   1 -11   1 1159.38   62.79
  -1  11  -1 1093.89   63.29
  -1  11  -1 1157.38   60.29
   1  11   1 1171.38   64.89
   3 -11   1 1371.96   74.89
  -3 -11  -1 1407.66   75.59
   3 -11   1 1425.96   76.19
   3  11   1 1335.87   78.79
   5 -11   1 1405.76   77.69
  -5 -11  -1 1484.55   79.19
  -5  11  -1 1367.36   74.59
   5  11   1 1316.97   83.29
  -7 -11  -1  692.13   46.40
   7  11   1  854.31   48.30
  -7  11  -1  735.43   44.40
   8 -12  -1  414.66   32.70
  -8 -12   1  472.35   32.40
   8  12  -1  506.15   38.60
  -8  12   1  463.15   28.70
  -6 -12   1  233.78   23.00
   6 -12  -1  204.18   18.80
   6  12  -1  227.08   19.30
  -6  12   1  222.38   15.50
   4 -12  -1  467.35   28.80
  -4 -12   1  451.35   28.60
  -4  12   1  411.86   25.50
   4  12  -1  395.46   32.70
   2 -12  -1  669.23   39.10
  -2 -12   1  669.53   40.10
  -2  12   1  725.53   37.50
   2  12  -1  655.83   42.30
  -2  12   1  648.94   40.20
   0 -12  -1  121.99   11.00
   0 -12   1  138.79   11.30
   0  12   1  129.29   12.20
   0  12  -1  139.29   12.40
  -2 -12  -1  389.56   25.20
   2 -12   1  364.06   25.10
  -2  12  -1  387.36   25.50
   2  12   1  387.96   27.70
  -2  12  -1  393.26   22.60
   4 -12   1  396.26   26.10
  -4 -12  -1  402.56   25.70
  -4  12  -1  411.56   23.50
   4  12   1  310.57   27.30
  -6 -12  -1  144.99   13.30
   6  12   1  152.48   15.80
  -6  12  -1  142.29   11.50
  -7 -13   1  266.47   22.30
   7 -13  -1  298.67   24.20
   7  13  -1  271.67   23.80
  -7  13   1  271.47   19.30
  -5 -13   1   77.69    9.30
   5 -13  -1   83.09   10.80
   5  13  -1   87.89   16.00
  -5  13   1   84.29    8.20
  -3 -13   1  113.59   11.00
   3 -13  -1  102.09   10.60
  -3  13   1  116.09    9.10
   3  13  -1   87.69   11.90
   1 -13  -1   70.89    7.90
  -1 -13   1   71.89    8.00
  -1  13   1   66.39    8.70
   1 -13   1   23.90    5.60
  -1 -13  -1   23.50    6.40
   1  13   1   44.00    9.50
   3 -13   1   13.00    5.20
  -3 -13  -1   24.10    7.00
  -3  13  -1   12.00    4.10
   3  13   1   16.00    7.00
   5 -13   1   41.20    9.10
  -5 -13  -1   36.50    8.70
   5  13   1   33.80    9.40
  -5  13  -1   30.90    6.50
  -7  13  -1  181.58   14.70
  -6  14   1   80.59   11.10
  -4 -14   1   -0.50    3.40
   4 -14  -1    5.40    4.00
  -4  14   1   14.40    5.40
   4  14  -1    1.80    4.40
  -2 -14   1   29.00    7.20
  -2  14   1   30.60    8.20
   2  14  -1   17.70    7.30
   0 -14  -1  213.48   17.60
   0 -14   1  222.88   17.40
   0  14  -1  217.58   18.80
   0  14   1  212.98   18.70
  -2 -14  -1   33.80    7.90
   2  14   1   18.10    7.90
  -4 -14  -1   20.80    6.20
   4 -14   1   21.00    6.40
  -4  14  -1   24.00    6.30
   4  14   1   10.70    6.90
  -6  14  -1   81.59    9.50
  -3 -15   1  106.09   10.60
   3 -15  -1   79.29    9.60
   3  15  -1   88.19   15.40
  -1 -15   1  493.15   32.70
   1  15  -1  500.55   35.60
  -1  15   1  505.15   35.50
  -1 -15  -1   69.09   11.70
   1  15   1   71.69   15.90
  -1  15  -1   69.29   10.20
   3 -15   1   62.79   11.00
  -3 -15  -1   77.89    9.80
   3  15   1   88.49   16.70
   0  16  -1  250.27   28.30
 -12   0   2 1629.14   88.39
  12   0  -2 1720.83   95.29
  10   0  -2 3317.87  182.88
 -10   0   2 3414.56  173.58
  -8   0   2 1132.39   60.09
  -8   0   2 1165.88   59.89
   8   0  -2 1136.19   64.79
  -6   0   2 5148.29  274.67
   6   0  -2 5174.38  277.67
  -6   0   2 5857.11  275.57
   4   0  -2 2981.60  152.18
  -4   0   2 2855.21  150.68
  -4   0   2 3016.90  150.48
  -2   0   2 2346.17  118.99
   2   0  -2 2502.15  119.59
  -2   0   2 2163.08  119.09
   0   0  -2 2180.18   97.19
   0   0   2 1636.84   96.99
  -2   0  -2 2891.01  139.69
   2   0   2 2786.62  141.09
   2   0   2 2563.74  139.59
   4   0   2 2711.63  141.79
   4   0   2 2839.72  139.19
  -4   0  -2 2635.24  139.09
   6   0   2 6357.06  351.56
  -6   0  -2 7132.69  347.67
  -6   0  -2 7012.40  347.87
  -8   0  -2 2801.72  136.29
   8   0   2 2416.86  141.49
  -8   0  -2 2712.13  136.59
 -10   0  -2 2358.26  122.49
  10   0   2 2365.36  129.49
  11  -1  -2  663.43   55.79
  11   1  -2  679.83   50.99
 -11   1   2  704.63   38.40
   9  -1  -2 1508.95   81.89
  -9  -1   2 1540.75   76.19
  -9  -1   2 1420.86   76.09
  -9   1   2 1462.95   76.29
   9   1  -2 1326.57   81.09
  -7  -1   2 2135.69  108.99
  -7  -1   2 2175.68  108.29
   7  -1  -2 2207.08  112.29
   7   1  -2 2085.39  112.59
  -7   1   2 2179.68  108.59
  -7   1   2 1858.21  107.59
   5  -1  -2 1675.03   79.99
  -5  -1   2 1394.86   78.09
  -5  -1   2 1535.65   77.49
  -5   1   2 1595.54   77.69
  -5   1   2 1343.17   77.19
   5   1  -2 1512.95   80.39
  -3  -1   2 3022.80  161.88
   3  -1  -2 3165.38  162.18
  -3  -1   2 3170.48  161.28
  -3   1   2 3390.46  161.48
   3   1  -2 3097.69  162.88
   1  -1  -2 1827.02   94.29
  -1  -1   2 1785.42   94.79
  -1   1   2 1979.30   94.49
   1   1  -2 1914.01   94.59
   1   1  -2 1958.90   94.79
  -1   1   2 1648.64   94.09
  -1  -1  -2 1622.64   81.69
   1  -1   2 1424.96   81.89
   1  -1   2 1583.44   82.09
   1   1   2 1710.43   81.99
  -1   1  -2 1692.83   81.89
  -3  -1  -2 3452.25  163.48
   3  -1   2 3005.70  163.08
   3  -1   2 2997.80  164.58
   3   1   2 3577.84  163.58
  -3   1  -2 3395.36  163.48
   3   1   2 2820.22  165.68
   5  -1   2 1547.15   83.19
  -5  -1  -2 1562.24   80.19
  -5  -1  -2 1638.24   79.99
  -5   1  -2 1611.34   79.79
   5   1   2 1418.56   83.59
   7  -1   2 1683.23   93.19
  -7  -1  -2 1760.62   88.59
  -7   1  -2 1785.32   88.29
   7   1   2 1529.65   92.99
  -7   1  -2 1796.42   88.99
   9  -1   2 1356.16   78.89
  -9  -1  -2 1368.86   72.19
  -9  -1  -2 1424.56   72.79
  -9   1  -2 1420.26   72.69
   9   1   2 1315.97   77.69
  11  -1   2  564.94   39.40
  11   1   2  599.44   38.50
  12  -2  -2  265.57   22.70
  12   2  -2  247.68   19.80
 -12   2   2  245.08   16.70
  10  -2  -2  834.32   51.29
 -10  -2   2  835.72   45.10
  10   2  -2  829.32   50.09
 -10   2   2  847.22   45.70
   8  -2  -2 1019.40   55.39
  -8  -2   2  962.90   50.69
  -8  -2   2  951.60   51.79
   8   2  -2  933.21   55.19
  -8   2   2  946.81   51.19
  -6  -2   2 2887.01  143.39
  -6  -2   2 2713.33  144.39
   6  -2  -2 2871.01  146.19
   6   2  -2 2638.94  146.89
  -6   2   2 2895.51  143.69
  -4  -2   2 3957.10  211.78
   4  -2  -2 4170.78  212.28
  -4  -2   2 4274.07  210.98
  -4   2   2 4430.06  211.28
   4   2  -2 3892.11  213.38
   0  -2   2 2579.74  134.79
   0   2   2 2701.63  134.29
   0   2  -2 2632.04  134.19
   2  -2   2 2275.57  127.19
  -2  -2  -2 2562.34  126.29
   2   2   2 2722.83  126.89
   2   2   2 2396.56  128.59
  -2   2  -2 2469.15  126.69
   4  -2   2 2068.69  108.09
   4  -2   2 2028.20  110.39
  -4  -2  -2 2161.48  108.29
  -4  -2  -2 2101.59  108.69
   4   2   2 2334.57  112.39
  -4   2  -2 2059.49  108.69
  -6  -2  -2 1496.65   79.79
   6  -2   2 1522.75   82.49
  -6  -2  -2 1562.04   78.69
  -6   2  -2 1535.15   79.29
   6   2   2 1527.25   83.19
  -8  -2  -2  665.63   35.80
  -8  -2  -2  651.53   35.00
   8  -2   2  676.63   40.70
  -8   2  -2  641.54   35.60
   8   2   2  638.74   39.50
  10  -2   2 1326.57   81.39
 -10   2  -2 1357.26   74.39
  10   2   2 1534.85   79.49
  11  -3  -2  693.83   46.40
 -11   3   2  736.53   42.20
  11   3  -2  755.42   44.40
  -9  -3   2 1155.38   61.39
  -9  -3   2 1171.28   62.89
   9  -3  -2 1157.48   66.59
  -9   3   2 1164.98   62.19
   9   3  -2 1187.38   65.79
  -7  -3   2 1516.65   83.29
  -7  -3   2 1566.64   81.79
   7  -3  -2 1625.94   85.29
   7   3  -2 1620.64   85.69
  -7   3   2 1583.24   82.39
  -5  -3   2 1988.90  110.79
   5  -3  -2 2090.99  111.49
  -5  -3   2 2173.18  109.69
  -5   3   2 2165.48  110.09
   5   3  -2 2298.27  112.89
  -3  -3   2 2316.37  130.09
   3  -3  -2 2351.16  129.89
  -3  -3   2 2514.35  129.09
  -3   3   2 2714.83  129.39
   3   3  -2 2771.52  131.09
  -1  -3   2 1898.81  105.39
   1  -3  -2 1925.91  103.49
   1   3  -2 2024.60  104.19
   1   3  -2 2188.18  103.49
  -1   3   2 2134.39  103.79
  -1   3   2 2020.40  104.09
  -1  -3  -2 2175.68  108.59
   1  -3   2 2013.30  108.99
  -1  -3  -2 2019.70  107.99
  -1   3  -2 2278.27  108.79
  -1   3  -2 2150.08  108.79
   3  -3   2 1928.51   95.79
   3  -3   2 1699.73   94.09
  -3  -3  -2 2010.20   93.89
  -3  -3  -2 1856.21   94.69
  -3   3  -2 1990.50   94.69
   3   3   2 1583.04   96.19
  -5  -3  -2 1755.42   90.19
   5  -3   2 1724.03   93.29
   5  -3   2 1739.83   89.99
  -5   3  -2 1670.73   90.99
   5   3   2 1949.20   94.59
  -7  -3  -2 1588.34   83.09
   7  -3   2 1531.75   87.09
  -7  -3  -2 1586.24   81.99
   7   3   2 1665.83   86.99
  -9  -3  -2 1068.19   57.69
   9  -3   2 1043.20   62.99
  -9   3  -2 1058.99   57.19
   9   3   2 1099.69   60.79
  11  -3   2  670.33   58.09
  11   3   2  722.13   42.50
 -11   3  -2  652.13   38.40
 -10  -4   2 1442.76   75.29
  10  -4  -2 1367.86   79.59
  10   4  -2 1418.56   77.49
 -10   4   2 1364.56   74.49
  -8  -4   2 1413.46   77.09
   8  -4  -2 1450.75   79.19
  -8  -4   2 1427.26   74.99
   8   4  -2 1486.75   78.69
  -8   4   2 1435.16   75.89
   6  -4  -2  830.12   44.50
  -6  -4   2  763.82   43.60
  -6  -4   2  799.02   41.90
   6   4  -2  821.42   44.80
  -6   4   2  786.72   42.50
  -4  -4   2   34.20    3.70
   4  -4  -2   26.40    3.30
  -4  -4   2   42.20    2.70
   4   4  -2   40.60    4.30
  -4   4   2   32.40    3.00
   2  -4  -2 1096.09   54.09
  -2  -4   2  997.80   55.59
  -2   4   2 1007.50   54.39
   2   4  -2 1053.59   55.79
   2   4  -2 1117.99   54.09
   0  -4   2 2257.47  117.29
   0  -4  -2 2180.98  115.99
   0   4   2 2327.07  116.09
   0   4  -2 2093.09  116.89
   0   4  -2 2534.75  115.79
   0   4   2 2238.48  116.49
   2  -4   2 1438.26   78.09
  -2  -4  -2 1498.05   77.69
   2  -4   2 1401.96   77.59
   2   4   2 1578.74   78.99
  -2   4  -2 1631.04   77.49
   4  -4   2 1527.65   79.09
  -4  -4  -2 1575.24   76.39
   4  -4   2 1364.06   76.49
   4   4   2 1486.55   79.99
  -4   4  -2 1548.05   77.49
  -6  -4  -2 1376.56   73.59
   6  -4   2 1390.46   76.29
  -6  -4  -2 1404.16   72.19
   6   4   2 1476.95   76.69
  -6   4  -2 1392.86   73.39
  -8  -4  -2 1074.39   57.99
   8  -4   2 1104.09   62.39
  -8   4  -2 1065.39   57.49
   8   4   2 1066.99   60.39
  10  -4   2  540.75   36.90
 -10  -4  -2  530.15   31.40
 -10   4  -2  501.85   30.20
  10   4   2  536.05   33.60
 -11   5   2  316.17   21.60
   9  -5  -2  680.33   41.60
  -9  -5   2  700.83   39.40
  -9   5   2  666.93   37.90
   9   5  -2  671.83   40.10
  -7  -5   2  942.31   54.29
  -7  -5   2 1111.79   54.39
   7  -5  -2 1004.60   55.39
   7   5  -2  969.20   54.99
  -7   5   2  952.20   52.89
   5  -5  -2  545.55   29.40
  -5  -5   2  479.85   29.00
   5   5  -2  521.15   29.90
  -5   5   2  510.45   27.90
   3  -5  -2 1605.44   85.29
   3  -5  -2 1645.54   84.29
  -3  -5   2 1669.13   85.89
  -3   5   2 1760.72   84.59
   3   5  -2 1539.95   86.29
   3   5  -2 1621.74   83.69
  -1  -5   2 1223.88   70.89
   1  -5  -2 1327.47   69.59
   1   5  -2 1322.17   70.59
  -1   5   2 1304.87   70.29
  -1   5   2 1413.36   69.59
   1   5  -2 1515.65   69.19
   1  -5   2  947.61   54.19
  -1  -5  -2 1042.90   52.39
  -1  -5  -2 1036.90   53.29
   1   5   2 1015.50   54.09
  -1   5  -2 1099.49   52.99
  -1   5  -2 1010.50   53.79
   3  -5   2 1705.93   92.39
  -3  -5  -2 1851.51   93.69
   3  -5   2 1789.82   93.79
  -3   5  -2 1864.01   92.79
  -5  -5  -2  896.61   46.30
   5  -5   2  916.21   49.90
  -5  -5  -2  917.01   48.20
   5  -5   2  854.61   46.20
  -5   5  -2  912.71   47.80
   5   5   2  942.91   50.99
   7  -5   2  741.63   44.20
  -7   5  -2  766.82   40.80
   7   5   2  740.93   43.60
   9  -5   2  649.83   42.30
  -9  -5  -2  668.83   38.00
   9   5   2  679.43   40.00
  -9   5  -2  652.23   37.10
  11  -5   2  190.88   19.40
  11   5   2  204.78   16.70
 -11   5  -2  199.68   14.00
  10  -6  -2   13.90    6.90
 -10   6   2    6.40    3.40
  10   6  -2   22.10    6.70
  -8  -6   2    7.10    3.40
   8  -6  -2    8.10    3.70
  -8   6   2   12.50    3.20
  -6  -6   2   22.00    4.60
   6  -6  -2   23.40    5.00
   6   6  -2   18.60    4.40
  -6   6   2   18.40    3.40
   6   6  -2   23.50    2.10
   4  -6  -2  119.89    8.30
   4  -6  -2  106.59    6.20
  -4  -6   2  112.79    8.60
   4   6  -2   93.79    8.70
  -4   6   2  117.49    7.30
  -2  -6   2  626.74   37.50
   2  -6  -2  660.33   36.10
   2   6  -2  730.63   38.20
  -2   6   2  694.93   37.30
  -2   6   2  683.23   36.00
   2   6  -2  714.93   35.20
   0  -6  -2  823.32   43.50
   0  -6   2  805.82   44.90
   0   6  -2  903.21   42.90
   0   6   2  767.02   43.10
   0   6   2  826.02   44.30
   0   6  -2  839.12   44.30
  -2  -6  -2  377.46   21.80
   2  -6   2  397.56   22.40
   2   6   2  412.06   23.50
  -2   6  -2  401.26   21.40
   4  -6   2   27.40    3.60
  -4  -6  -2   21.40    2.90
   4   6   2   35.10    6.00
  -4   6  -2   34.10    3.10
  -6  -6  -2  580.94   34.60
  -6   6  -2  597.84   33.20
   6   6   2  637.64   36.60
  -8  -6  -2  527.15   30.80
   8  -6   2  516.55   33.80
   8   6   2  579.64   33.30
  -8   6  -2  488.15   29.90
 -10  -6  -2   68.49   10.20
  10  -6   2   69.49   12.90
 -10   6  -2   46.90    5.90
  10   6   2   65.09    8.30
 -11  -7   2   45.20    8.30
 -11   7   2   52.19   10.50
  11   7  -2   37.50   10.60
  -9  -7   2   10.10    4.40
   9  -7  -2   13.70    5.60
  -9   7   2   17.60    4.20
   9   7  -2    9.70    4.30
  -7  -7   2   36.50    6.70
   7  -7  -2   35.00    5.00
  -7   7   2   31.40    5.00
   7   7  -2   35.30    5.10
   5  -7  -2  232.68   14.70
  -5  -7   2  219.08   14.90
   5   7  -2  224.08   15.50
  -5   7   2  201.18   13.10
   3  -7  -2    8.10    2.40
   3  -7  -2   19.30    3.30
  -3  -7   2    8.30    2.80
   3   7  -2   16.50    4.40
  -3   7   2    7.00    1.80
  -1  -7   2   99.59    8.00
   1  -7  -2  106.99    6.90
   1   7  -2  101.39    5.90
  -1   7   2  112.69    7.70
  -1   7   2   85.99    6.30
  -1  -7  -2  219.58   13.20
   1  -7   2  203.78   14.10
   1   7   2  230.28   14.40
  -1   7  -2  217.58   12.40
  -1   7  -2  243.98   15.20
   3  -7   2   24.20    2.60
   3  -7   2   23.70    3.30
  -3  -7  -2   19.30    3.40
   3   7   2   29.90    5.60
  -3   7  -2   18.50    2.30
   5  -7   2   30.00    5.60
  -5  -7  -2   24.70    4.80
  -5   7  -2   23.30    3.00
  -7  -7  -2   39.00    5.00
   7  -7   2   35.60    7.50
  -7   7  -2   34.60    5.30
   7   7   2   52.39    8.80
  -9  -7  -2   13.20    4.60
   9  -7   2   13.80    6.70
   9   7   2   20.20    6.50
  -9   7  -2    7.60    3.70
  10  -8  -2   13.10    6.80
 -10  -8   2   15.70    6.60
  10   8  -2   10.40    7.90
 -10   8   2   18.60    5.70
   8  -8  -2   88.49    9.40
  -8  -8   2   84.59    9.00
  -8   8   2   76.89    7.40
   8   8  -2   99.59    9.70
  -6  -8   2   72.09    7.30
   6  -8  -2   70.39    7.00
  -6   8   2   59.89    5.60
   6   8  -2   63.89    7.30
   4  -8  -2 1195.78   62.39
  -4  -8   2 1199.78   63.09
  -4   8   2 1169.48   60.79
   4   8  -2 1053.29   63.59
  -2  -8   2  612.94   35.30
   2  -8  -2  629.44   34.00
  -2   8   2  634.24   34.80
   2   8  -2  565.44   31.80
   2   8  -2  676.33   36.30
  -2   8   2  607.84   33.00
   0  -8   2 1812.42   92.69
   0  -8  -2 1825.32   91.09
   0   8   2 1637.74   90.29
   0   8  -2 1712.83   91.99
   0   8  -2 1786.42   89.79
   0   8   2 1720.53   92.09
  -2  -8  -2  148.19   10.20
   2  -8   2  148.59   10.80
  -2   8  -2  161.48    9.50
  -2   8  -2  158.98   11.00
   2   8   2  153.88   11.80
   4  -8   2  314.87   18.80
   4  -8   2  280.67   16.10
   4   8   2  289.57   22.30
  -4   8  -2  281.87   16.90
   6  -8   2   96.49    9.30
  -6  -8  -2   94.69    8.40
   6   8   2  101.89   10.70
  -6   8  -2  112.39    8.10
  -8  -8  -2   50.39    6.50
   8  -8   2   46.60    9.10
   8   8   2   53.49    9.70
  -8   8  -2   48.20    5.70
 -10  -8  -2   93.79   10.30
  10  -8   2   83.69   12.00
  10   8   2   98.69   13.60
  -9  -9   2  219.18   21.30
   9  -9  -2  220.88   17.80
  -9   9   2  199.78   14.90
   9   9  -2  224.48   17.10
   7  -9  -2  654.23   39.40
  -7  -9   2  633.44   39.00
   7   9  -2  702.63   39.80
  -7   9   2  642.24   36.80
  -5  -9   2  551.04   34.40
   5  -9  -2  607.94   34.30
   5   9  -2  587.44   35.60
  -5   9   2  587.04   32.40
   3  -9  -2  981.50   52.29
  -3  -9   2 1008.20   53.59
  -3   9   2  895.31   50.69
   3   9  -2  959.40   54.69
  -1  -9   2  657.93   39.40
   1  -9  -2  718.83   38.40
  -1   9   2  740.73   37.40
   1   9  -2  721.83   40.10
   1   9  -2  657.03   36.30
  -1   9   2  685.83   39.10
   1  -9   2  584.54   35.20
  -1  -9  -2  640.04   34.50
   1   9   2  630.04   36.10
  -1   9  -2  618.14   35.30
  -3  -9  -2  587.24   33.70
   3  -9   2  616.44   33.90
   3  -9   2  577.34   32.20
   3   9   2  574.74   35.90
  -3   9  -2  550.34   31.60
   5  -9   2  229.58   16.20
  -5  -9  -2  212.38   15.20
  -5   9  -2  237.08   14.50
   5   9   2  228.08   18.00
  -7  -9  -2  644.74   38.00
   7  -9   2  622.94   41.80
  -7   9  -2  633.94   36.60
   7   9   2  690.43   41.10
  -9  -9  -2  351.46   25.80
  -9   9  -2  409.26   24.70
   9   9   2  412.76   27.60
  -8 -10   2  879.91   52.99
  -8  10   2  924.11   51.29
   8  10  -2  963.30   60.39
  -6 -10   2  538.15   33.40
   6 -10  -2  566.64   33.50
  -6  10   2  507.75   30.90
   6  10  -2  569.64   34.30
   4 -10  -2   22.80    5.00
  -4 -10   2   38.00    7.00
   4  10  -2   32.50    6.90
   2 -10  -2   64.09    6.10
  -2 -10   2   46.90    6.00
  -2  10   2   48.90    4.60
  -2  10   2   43.50    5.50
   2  10  -2   68.09   15.20
   0 -10   2  648.74   38.30
   0 -10  -2  685.83   37.70
   0  10  -2  645.84   35.60
   0  10   2  673.93   38.90
   0  10  -2  680.63   38.80
   0  10   2  685.03   35.90
  -2 -10  -2  870.21   48.10
   2 -10   2  857.71   48.30
  -2  10  -2  860.61   50.09
   2  10   2  912.51   50.89
  -2  10  -2  859.41   46.50
   4 -10   2  830.22   46.20
  -4 -10  -2  790.32   45.20
  -4  10  -2  799.32   43.90
   4  10   2  805.12   49.10
  -6 -10  -2  703.43   42.30
   6 -10   2  698.23   44.40
  -6  10  -2  726.13   45.00
   6  10   2  819.12   46.60
  -8 -10  -2  533.75   34.20
   8 -10   2  537.15   35.80
  -8  10  -2  524.45   32.40
   8  10   2  613.14   37.10
  -9 -11   2 1293.97   76.59
   7 -11  -2 1017.60   57.89
  -7 -11   2  934.51   56.69
   7  11  -2 1058.29   57.99
  -7  11   2  964.10   54.59
   5 -11  -2  887.91   51.69
  -5 -11   2  920.01   52.09
  -5  11   2  869.51   49.00
   5  11  -2  913.01   53.19
  -3 -11   2 1742.33   91.59
   3 -11  -2 1740.43   90.19
   3  11  -2 1581.04   93.09
  -3  11   2 1686.33   88.59
   1 -11  -2 1533.25   84.09
  -1 -11   2 1502.95   84.49
  -1  11   2 1741.53   82.59
   1  11  -2 1567.64   86.09
  -1  11   2 1498.05   84.89
  -1 -11  -2 1606.74   82.19
   1 -11   2 1603.34   82.49
   1  11   2 1532.35   84.19
  -1  11  -2 1457.35   82.79
  -1  11  -2 1443.86   79.69
  -3 -11  -2 2015.70  107.79
   3 -11   2 2022.80  108.39
   3 -11   2 1982.20  108.59
  -3  11  -2 2060.89  106.09
   3  11   2 2064.99  111.89
   5 -11   2 1371.36   77.69
  -5 -11  -2 1389.96   74.99
   5  11   2 1253.07   78.29
  -5  11  -2 1433.26   73.39
  -7 -11  -2  854.61   52.59
   7 -11   2  878.61   56.89
   7  11   2 1019.20   56.59
  -7  11  -2  907.01   51.29
   8 -12  -2  175.88   16.50
  -8 -12   2  193.48   15.70
   8  12  -2  196.28   16.40
  -8  12   2  184.08   14.30
  -6 -12   2 1235.48   74.29
   6 -12  -2 1144.79   69.19
  -6  12   2 1160.08   64.59
   6  12  -2 1207.08   68.29
   4 -12  -2 1000.70   55.49
  -4 -12   2  923.01   55.09
  -4  12   2  967.40   52.69
  -2 -12   2 2138.09  113.69
   2 -12  -2 2167.58  113.29
  -2  12   2 2064.19  113.99
   2  12  -2 2017.20  115.69
  -2  12   2 2235.78  111.19
   0 -12  -2 1538.95   81.99
   0 -12   2 1543.65   81.79
   0  12   2 1442.76   83.29
   0  12  -2 1508.05   83.39
  -2 -12  -2 1584.24   84.79
   2 -12   2 1554.94   85.69
   2  12   2 1566.14   87.99
  -2  12  -2 1532.15   83.59
   4 -12   2  462.55   29.50
  -4 -12  -2  460.05   28.80
  -4  12  -2  468.45   27.00
   4  12   2  401.96   31.50
  -6 -12  -2  576.84   37.40
  -6  12  -2  602.24   37.30
   6  12   2  657.93   41.80
  -7 -13   2 1524.35   86.39
   7 -13  -2 1441.26   87.49
   7  13  -2 1660.53   87.99
  -7  13   2 1605.44   84.89
  -5 -13   2 1132.89   66.19
   5 -13  -2 1138.49   67.09
  -5  13   2 1126.99   62.29
   3 -13  -2 1544.55   87.29
  -3 -13   2 1648.54   87.49
   3  13  -2 1422.26   89.29
  -3  13   2 1744.53   85.19
  -1 -13   2 1490.65   80.69
   1 -13  -2 1475.05   80.69
  -1  13   2 1461.95   82.49
   1 -13   2 1546.85   83.19
  -1 -13  -2 1562.04   84.39
   1  13   2 1498.95   86.89
  -3 -13  -2 1589.24   85.39
   3 -13   2 1491.65   85.39
  -3  13  -2 1576.84   82.69
   3  13   2 1523.25   89.39
   5 -13   2  693.33   42.70
  -5 -13  -2  690.13   42.20
   5  13   2  632.24   45.30
  -5  13  -2  731.33   40.40
   6  14  -2 1377.46   89.79
  -6  14   2 1506.75   87.29
   4 -14  -2  831.82   49.40
  -4 -14   2  865.11   49.10
   4  14  -2  781.32   50.99
  -2 -14   2  650.53   39.10
   2  14  -2  655.83   42.60
  -2  14   2  641.94   43.20
   0 -14  -2  626.64   38.80
   0 -14   2  619.14   37.80
   0  14   2  672.73   42.00
   0  14  -2  648.94   41.40
   2 -14   2  655.83   42.80
  -2 -14  -2  773.12   43.80
   4 -14   2  851.71   53.19
  -4  14  -2  940.61   50.99
  -3 -15   2  949.40   50.39
   3 -15  -2  774.32   49.40
   3  15  -2  802.82   52.59
  -1 -15   2  761.92   43.70
   1  15  -2  758.82   47.90
  -1  15   2  673.43   54.09
  -1 -15  -2  704.03   42.30
  -1  15  -2  674.33   44.10
  -3 -15  -2 1230.68   66.39
   3 -15   2 1083.69   65.49
   3  15   2 1092.99   70.19
  12   0  -3   26.60    8.10
 -10   0   3   15.80    3.50
  -8   0   3    3.30    1.70
   8   0  -3   23.20    5.80
  -8   0   3   10.40    2.40
   6   0  -3   12.40    3.80
  -6   0   3   15.90    2.10
  -6   0   3   11.00    2.10
  -4   0   3   19.90    2.00
  -4   0   3   11.70    1.90
   4   0  -3   18.10    2.60
   2   0  -3   40.00    2.90
  -2   0   3   31.50    2.70
  -2   0   3   38.50    2.70
   0   0   3   50.09    2.70
   0   0   3   50.99    3.30
  -2   0  -3   15.20    1.50
   2   0   3   15.50    1.40
  -4   0  -3   19.30    1.90
   4   0   3   18.60    1.80
   4   0   3   30.90    5.20
  -6   0  -3   13.10    2.10
   6   0   3    8.20    4.00
  -6   0  -3    7.10    1.70
  -8   0  -3    7.50    2.00
  -8   0  -3    6.90    2.10
   8   0   3    9.30    4.90
  10   0   3    3.40    4.80
  11  -1  -3  286.17   24.70
 -11   1   3  342.37   19.80
  11   1  -3  314.17   24.50
  -9  -1   3   94.89    7.10
   9  -1  -3  105.29   10.80
  -9  -1   3  100.09    7.20
   9   1  -3   94.69   10.90
  -9   1   3   91.29    7.20
  -7  -1   3  316.07   18.30
   7  -1  -3  334.87   21.10
  -7  -1   3  328.67   18.00
   7   1  -3  335.57   21.70
  -7   1   3  329.17   18.20
  -7   1   3  287.07   17.20
  -5  -1   3 1321.37   67.89
   5  -1  -3 1414.16   69.89
  -5  -1   3 1342.77   68.49
  -5   1   3 1168.58   67.39
   5   1  -3 1309.57   70.29
  -5   1   3 1332.77   67.99
  -3  -1   3   56.09    4.40
   3  -1  -3   55.89    4.40
   3   1  -3   70.19    5.20
  -3   1   3   74.49    3.90
  -3   1   3   55.69    4.10
   1  -1  -3  396.26   18.40
  -1  -1   3  369.16   19.00
   1   1  -3  379.06   19.00
   1   1  -3  295.87   18.40
  -1   1   3  317.77   18.80
   1  -1   3 1272.17   70.69
  -1  -1  -3 1448.85   70.39
   1  -1   3 1383.16   70.69
  -1   1  -3 1459.75   70.59
   1   1   3 1461.05   70.89
   1   1   3 1258.17   70.59
  -3  -1  -3  713.13   35.20
   3  -1   3  650.03   36.70
   3   1   3  672.23   35.40
  -3   1  -3  703.73   35.40
   3   1   3  654.53   37.90
   5  -1   3 1298.67   64.39
   5  -1   3 1245.38   67.69
  -5  -1  -3 1268.77   64.49
  -5  -1  -3 1283.67   64.69
  -5   1  -3 1273.77   64.79
   5   1   3 1116.79   68.19
  -7  -1  -3   21.10    2.50
  -7  -1  -3   18.30    2.30
  -7   1  -3   17.30    2.90
   7   1   3   45.80    8.40
  -7   1  -3   24.60    2.40
  -9  -1  -3   81.49    6.70
  -9  -1  -3   76.89    6.00
   9  -1   3   74.09   10.30
  -9   1  -3   75.19    6.20
   9   1   3   75.29    9.50
  11  -1   3   39.70   16.00
 -11   1  -3   19.10    4.20
  11   1   3   29.20   10.70
  12  -2  -3  443.96   33.50
  12   2  -3  500.15   32.10
 -12   2   3  483.15   31.70
  10  -2  -3  374.46   26.80
 -10  -2   3  375.26   21.70
 -10   2   3  364.56   22.00
  10   2  -3  371.76   26.20
  -8  -2   3  977.60   51.39
  -8  -2   3  987.80   52.09
   8  -2  -3 1001.50   55.29
   8   2  -3  899.01   55.29
  -8   2   3  984.90   51.79
   6  -2  -3 1085.79   57.19
  -6  -2   3 1086.59   54.89
  -6  -2   3 1022.50   55.69
   6   2  -3  967.80   57.89
  -6   2   3 1087.49   55.09
  -4  -2   3 1254.37   62.69
   4  -2  -3 1336.57   63.79
  -4  -2   3 1184.28   63.39
  -4   2   3 1302.47   62.79
  -4   2   3 1089.19   61.69
   4   2  -3 1110.09   64.49
   2  -2  -3 1818.92  100.69
  -2   2   3 1811.52  100.19
  -2   2   3 1988.20  100.79
   2   2  -3 2263.17  101.49
   0  -2   3  862.01   44.60
   0  -2  -3  815.42   44.20
   0   2  -3  879.51   43.90
   0   2   3  861.21   44.00
   0   2  -3  845.22   44.00
   0   2   3  865.41   44.00
  -2  -2  -3 1875.41   87.19
   2  -2   3 1563.74   87.49
   2  -2   3 1663.43   88.09
   2   2   3 1668.03   88.59
  -2   2  -3 1782.92   87.59
   4  -2   3 1295.97   70.49
  -4  -2  -3 1382.36   68.89
   4  -2   3 1273.17   68.29
  -4  -2  -3 1369.66   68.29
   4   2   3 1345.37   71.79
  -4   2  -3 1331.97   68.79
   6  -2   3  820.02   47.20
  -6  -2  -3  850.71   43.90
  -6   2  -3  824.12   43.90
  -6   2  -3  817.72   43.00
   6   2   3  839.22   47.70
  -8  -2  -3 1025.70   53.29
   8  -2   3  968.20   59.09
  -8  -2  -3 1040.90   53.99
  -8   2  -3  991.80   53.89
   8   2   3 1044.90   58.19
  10  -2   3  289.27   25.00
 -10   2  -3  320.97   19.40
  10   2   3  341.87   23.30
  11  -3  -3  694.53   47.10
 -11   3   3  781.22   42.30
  11   3  -3  763.72   47.40
  -9  -3   3  425.76   24.50
   9  -3  -3  426.56   28.60
  -9  -3   3  433.36   25.30
   9   3  -3  460.25   28.50
  -9   3   3  430.36   25.00
   7  -3  -3 1051.09   58.99
  -7  -3   3 1092.39   57.09
  -7  -3   3 1052.69   57.49
   7   3  -3 1102.89   59.79
  -7   3   3 1072.89   56.69
   5  -3  -3 1792.42   94.39
  -5  -3   3 1825.02   92.99
  -5  -3   3 1717.03   93.99
   5   3  -3 1914.61   95.59
  -5   3   3 1785.92   93.09
   3  -3  -3 1753.32   95.89
  -3  -3   3 1734.23   96.39
  -3  -3   3 1966.70   95.29
   3   3  -3 1971.90   96.79
  -3   3   3 1769.12   94.69
  -3   3   3 1980.70   95.59
  -1  -3   3 2080.69  111.39
   1   3  -3 2172.48  110.49
  -1   3   3 2097.89  110.59
  -1   3   3 2203.78  110.19
   1   3  -3 2354.16  110.29
  -1   3   3 2049.99  110.79
  -1  -3  -3 2359.86  118.59
   1  -3   3 2210.98  119.19
   1  -3   3 2114.69  119.39
   1   3   3 2469.35  119.19
   1   3   3 2375.36  119.49
  -1   3  -3 2457.25  118.99
   3  -3   3  983.90   49.90
  -3  -3  -3 1050.59   48.10
   3  -3   3  894.21   48.40
   3   3   3  810.12   50.09
  -3   3  -3  946.11   48.80
  -5  -3  -3  116.79    7.90
   5  -3   3  141.29   10.20
   5  -3   3  116.69    7.00
  -5  -3  -3  122.39    7.10
   5   3   3  141.39   10.60
  -5   3  -3  125.89    7.90
  -7  -3  -3  244.58   14.70
  -7  -3  -3  239.78   13.60
   7  -3   3  292.17   25.30
   7   3   3  247.88   17.50
  -7   3  -3  224.48   14.40
   9  -3   3  899.81   57.09
  -9  -3  -3  958.60   50.89
  -9   3  -3  942.71   50.79
  11  -3   3  835.72   55.29
  11   3   3  935.41   51.49
 -11   3  -3  814.22   47.20
 -12   4   3  657.83   39.50
 -10  -4   3 1163.48   62.39
  10  -4  -3 1128.49   66.59
 -10   4   3 1161.28   62.29
  10   4  -3 1158.08   64.79
   8  -4  -3 1825.12   98.99
  -8  -4   3 1802.52   97.09
  -8  -4   3 1841.82   95.39
  -8   4   3 1876.61   96.09
   8   4  -3 1857.01   98.59
   6  -4  -3 1745.73   95.79
  -6  -4   3 1732.43   95.39
  -6  -4   3 1822.92   93.79
  -6   4   3 1871.31   94.29
   6   4  -3 1925.91   96.39
   4  -4  -3 2556.94  139.39
  -4  -4   3 2518.85  139.79
  -4   4   3 2793.32  138.69
   4   4  -3 2964.30  140.39
   2  -4  -3 3043.20  164.98
  -2  -4   3 3363.36  166.98
   2   4  -3 3325.87  165.38
  -2   4   3 3412.06  165.68
  -2   4   3 2974.10  165.88
   2   4  -3 3360.36  166.58
   0  -4  -3 2021.10  108.59
   0  -4   3 2015.60  109.79
   0   4   3 2083.99  108.79
   0   4   3 2156.68  109.09
   0   4  -3 2215.08  109.39
   0   4  -3 2254.67  108.49
   2  -4   3 2310.77  131.09
   2  -4   3 2430.16  131.49
  -2  -4  -3 2570.04  129.99
  -2  -4  -3 2601.04  131.09
   2   4   3 2770.82  132.29
  -2   4  -3 2689.63  130.99
   4  -4   3 2163.18  113.09
  -4  -4  -3 2261.87  111.39
  -4  -4  -3 2273.87  110.19
  -4   4  -3 2196.38  111.29
   4   4   3 1911.41  113.19
  -6  -4  -3 1740.03   88.79
  -6  -4  -3 1680.53   90.09
   6  -4   3 1724.33   93.19
   6   4   3 1874.91   93.59
  -6   4  -3 1658.73   89.99
   8  -4   3 1368.26   77.99
  -8  -4  -3 1360.96   73.09
  -8   4  -3 1338.87   72.79
   8   4   3 1458.25   76.39
 -10  -4  -3 1118.19   64.49
  10   4   3 1208.88   68.29
  11  -5  -3  886.11   63.39
  11   5  -3  943.51   53.69
 -11   5   3  920.91   51.19
  -9  -5   3 1585.04   85.09
   9  -5  -3 1554.24   87.39
  -9   5   3 1594.64   84.09
   9   5  -3 1623.44   86.29
  -7  -5   3  372.86   23.70
   7  -5  -3  404.96   24.50
  -7  -5   3  397.56   21.50
   7   5  -3  395.26   24.40
  -7   5   3  397.26   22.50
  -5  -5   3 1029.90   57.89
   5  -5  -3 1039.20   57.49
   5   5  -3 1093.99   58.09
  -5   5   3 1136.29   56.59
   5   5  -3 1082.29   55.69
   3  -5  -3  566.84   29.60
   3  -5  -3  611.84   31.00
  -3  -5   3  541.25   31.60
   3   5  -3  543.65   31.70
   3   5  -3  549.45   29.80
  -3   5   3  595.14   30.30
   1  -5  -3 2757.82  145.89
  -1  -5   3 2984.10  147.79
  -1   5   3 2642.04  146.19
  -1   5   3 2850.61  146.69
   1   5  -3 2814.62  146.79
   1   5  -3 3110.59  146.09
  -1  -5  -3 2172.58  108.29
   1  -5   3 1964.10  109.99
  -1  -5  -3 2029.90  108.99
   1   5   3 2190.88  109.89
  -1   5  -3 2320.67  108.89
  -1   5  -3 2075.39  109.49
   3  -5   3 3679.83  199.28
  -3  -5  -3 3893.41  198.48
   3  -5   3 3450.45  197.88
  -3  -5  -3 3998.60  196.98
  -3   5  -3 4039.40  198.28
   3   5   3 4251.47  200.68
   5  -5   3 2803.92  155.58
   5  -5   3 2822.22  152.28
  -5  -5  -3 3124.89  152.08
  -5  -5  -3 3061.39  153.88
   5   5   3 3162.28  156.98
  -5   5  -3 2971.60  153.58
   7  -5   3 1771.62  101.39
  -7  -5  -3 1828.92   97.99
  -7   5  -3 1811.42   97.69
   7   5   3 2093.69  101.59
  -9  -5  -3  545.45   31.60
   9  -5   3  548.65   36.70
  -9   5  -3  524.45   30.90
   9   5   3  545.95   33.80
 -10  -6   3 1022.70   61.29
  10  -6  -3  963.10   58.99
 -10   6   3 1015.10   55.09
  10   6  -3 1001.80   56.79
   8  -6  -3 1972.30  111.49
  -8  -6   3 2060.09  110.89
  -8   6   3 2119.69  109.29
   8   6  -3 2213.98  111.39
  -6  -6   3 1718.93   95.79
   6  -6  -3 1735.53   95.49
  -6   6   3 1874.91   94.19
   6   6  -3 1910.21   96.09
   4  -6  -3 1908.41   92.49
   4  -6  -3 1685.53   93.59
  -4  -6   3 1796.42   94.69
  -4   6   3 1959.00   92.99
   4   6  -3 1563.54   91.69
   4   6  -3 1875.61   94.99
   2  -6  -3 2486.65  138.69
   2   6  -3 2719.03  140.69
  -2   6   3 2802.42  139.19
   2   6  -3 2854.41  138.39
   0  -6   3 1820.72   99.49
   0  -6  -3 1815.42   97.89
   0   6   3 1737.83   97.99
   0   6  -3 2174.08   97.79
   0   6   3 1997.80   98.89
   0   6  -3 1881.41   98.69
  -2  -6  -3 2952.30  148.49
   2  -6   3 2719.13  148.79
   2  -6   3 2719.33  148.99
  -2   6  -3 3087.79  148.19
   2   6   3 2992.40  149.99
   4  -6   3 2054.69  107.39
  -4  -6  -3 2153.78  106.19
   4  -6   3 1941.11  104.79
  -4   6  -3 2054.19  105.69
   4   6   3 2034.00  108.59
   6  -6   3 1453.05   85.89
  -6  -6  -3 1527.25   81.39
  -6   6  -3 1522.55   80.99
   6   6   3 1686.03   84.99
  -8  -6  -3 1925.21  104.19
   8  -6   3 1901.51  108.29
   8   6   3 2115.59  109.89
 -10  -6  -3  718.03   45.30
  10  -6   3  722.73   48.50
  10   6   3  770.12   53.69
 -10   6  -3  731.23   46.50
  11  -7  -3  464.95   37.40
 -11  -7   3  550.04   33.00
  11   7  -3  584.44   34.50
 -11   7   3  575.14   33.30
  -9  -7   3 2060.59  107.79
   9  -7  -3 1873.91  108.79
  -9   7   3 2015.90  106.19
   9   7  -3 2112.29  108.29
  -7  -7   3 2589.94  135.09
   7  -7  -3 2326.77  134.49
   7   7  -3 2740.33  135.19
  -7   7   3 2604.64  133.09
   5  -7  -3 5574.14  331.17
  -5  -7   3 6645.74  332.57
  -5   7   3 6577.54  330.37
   5   7  -3 7115.99  332.87
   3  -7  -3 2254.87  117.39
  -3  -7   3 2209.38  119.39
   3   7  -3 2147.19  119.69
   3   7  -3 2358.16  116.29
  -3   7   3 2433.06  117.59
  -1  -7   3 2933.61  149.09
   1  -7  -3 2811.12  147.09
  -1   7   3 2714.93  147.99
  -1   7   3 2842.22  147.29
   1   7  -3 2812.12  149.59
   1   7  -3 3100.69  146.49
   1  -7   3 1439.36   85.39
  -1  -7  -3 1595.64   84.29
  -1  -7  -3 1685.33   82.79
   1   7   3 1674.13   85.59
  -1   7  -3 1720.63   83.79
   3  -7   3 1528.25   82.19
  -3  -7  -3 1575.04   81.39
   3  -7   3 1495.75   80.89
  -3   7  -3 1557.04   80.79
   3   7   3 1635.74   83.79
   5  -7   3 1748.82   90.89
  -5  -7  -3 1754.02   89.19
   5   7   3 1508.35   91.49
  -5   7  -3 1766.62   88.59
   7  -7   3 2363.86  131.79
  -7  -7  -3 2372.66  128.79
   7   7   3 2709.23  132.69
  -7   7  -3 2426.96  128.29
   9  -7   3  559.74   39.60
  -9  -7  -3  633.94   35.80
  -9   7  -3  598.94   34.60
   9   7   3  596.94   39.60
 -10  -8   3  579.54   39.40
  -8  -8   3 1566.14   83.69
   8  -8  -3 1481.45   83.79
  -8   8   3 1558.84   81.89
  -6  -8   3 1098.39   61.19
   6  -8  -3 1097.29   60.69
   6   8  -3 1116.39   61.19
  -6   8   3 1122.49   59.09
   4  -8  -3 1467.15   78.69
   4  -8  -3 1603.74   77.79
  -4  -8   3 1465.15   79.59
  -4   8   3 1468.65   77.29
   4   8  -3 1398.06   79.89
  -2  -8   3 2373.56  120.99
   2  -8  -3 2318.27  118.89
   2   8  -3 2253.17  121.19
   2   8  -3 2223.68  117.79
  -2   8   3 2357.86  118.89
   0  -8  -3 1170.08   62.39
   0  -8   3 1142.79   63.89
   0   8   3 1207.38   63.59
   0   8  -3 1180.68   63.49
   0   8  -3 1223.58   61.59
   0   8   3 1194.08   61.99
  -2  -8  -3 1763.72   93.19
   2  -8   3 1792.32   94.99
   2   8   3 1814.42   95.29
  -2   8  -3 1782.02   92.39
   4  -8   3 1500.65   80.89
   4  -8   3 1540.15   83.59
  -4  -8  -3 1615.74   82.59
  -4   8  -3 1610.24   81.89
   4   8   3 1560.24   85.79
  -6  -8  -3  790.32   44.70
   6  -8   3  834.92   46.90
  -6   8  -3  798.62   44.10
   6   8   3  803.22   48.10
   8  -8   3  938.11   58.29
  -8  -8  -3  966.70   55.39
   8   8   3 1115.59   58.79
  -8   8  -3  960.30   54.29
 -10  -8  -3  732.13   43.60
  -9  -9   3 1198.98   67.99
   9  -9  -3 1112.89   67.19
   9   9  -3 1269.17   66.89
  -9   9   3 1163.98   64.69
  -7  -9   3 1187.48   66.69
   7  -9  -3 1162.98   66.79
   7   9  -3 1284.87   66.99
  -7   9   3 1172.48   64.49
   5  -9  -3 1183.88   64.69
  -5  -9   3 1200.88   65.39
   5   9  -3 1203.68   65.89
  -5   9   3 1159.68   62.89
  -3  -9   3 1324.67   73.39
   3  -9  -3 1352.56   70.59
  -3   9   3 1312.57   69.69
   3   9  -3 1321.87   72.99
   1  -9  -3 1977.90  102.09
  -1  -9   3 2019.60  103.79
   1   9  -3 1971.00  103.89
  -1   9   3 1921.21  103.19
   1   9  -3 1902.61  100.49
  -1   9   3 1970.40  101.89
  -1  -9  -3 2326.07  117.99
   1  -9   3 2112.99  118.89
  -1   9  -3 2155.28  118.69
   1   9   3 2352.76  119.79
  -1   9  -3 2388.66  116.89
   3  -9   3 3461.85  193.88
  -3  -9  -3 3731.53  193.18
   3  -9   3 3625.44  192.58
  -3   9  -3 3882.21  192.38
   3   9   3 4039.00  196.78
  -5  -9  -3 3232.38  164.68
   5  -9   3 3105.69  165.98
  -5   9  -3 3339.07  163.88
   5   9   3 2982.80  167.98
   7  -9   3 1682.83   96.09
  -7  -9  -3 1654.63   93.79
   7   9   3 1951.70   98.29
  -7   9  -3 1744.23   92.99
  -9  -9  -3  689.03   43.70
   9  -9   3  684.43   45.80
  -9   9  -3  701.53   41.40
   9   9   3  819.02   45.70
  -8 -10   3  516.65   33.40
   8  10  -3  578.74   34.50
  -8  10   3  536.55   31.90
  -6 -10   3  910.61   52.49
   6 -10  -3  926.11   52.29
   6  10  -3  949.90   52.89
  -6  10   3  893.01   50.09
   4 -10  -3  889.01   48.60
  -4 -10   3  874.01   49.10
   4  10  -3  820.82   49.90
  -2 -10   3  543.05   33.00
   2 -10  -3  567.14   31.90
   2  10  -3  554.24   29.50
  -2  10   3  568.44   31.20
  -2  10   3  564.24   32.90
   0 -10  -3  909.51   48.10
   0 -10   3  879.81   49.20
   0  10  -3  856.11   49.20
   0  10   3  882.21   46.20
   0  10   3  870.31   49.40
   2 -10   3 1135.49   62.89
  -2 -10  -3 1144.29   62.39
  -2  10  -3 1138.09   61.19
   2  10   3 1219.48   65.39
  -4 -10  -3  774.42   43.80
   4 -10   3  792.22   44.90
  -4  10  -3  776.72   42.80
   4  10   3  775.42   47.50
  -6 -10  -3 1069.19   59.49
  -6  10  -3 1067.39   58.29
   6  10   3 1076.19   63.29
   8 -10   3  612.44   41.10
  -8 -10  -3  696.23   45.40
   9  11  -3  501.95   38.60
  -9  11   3  528.45   36.10
   7 -11  -3  834.72   49.90
  -7 -11   3  796.42   48.80
   7  11  -3  910.21   49.90
  -7  11   3  837.42   47.20
   5 -11  -3 1269.97   72.19
  -5 -11   3 1255.17   71.79
  -5  11   3 1205.18   67.69
   5  11  -3 1330.97   71.49
   3 -11  -3 1116.69   60.79
  -3 -11   3 1139.39   61.79
  -3  11   3 1119.99   59.59
   3  11  -3 1055.59   63.19
  -1 -11   3  988.60   56.09
   1 -11  -3 1042.30   55.49
   1  11  -3 1035.70   57.49
  -1  11   3  977.50   54.19
   1  11  -3 1051.49   52.79
  -1  11   3  960.90   56.39
  -1 -11  -3  810.92   44.50
   1 -11   3  807.02   45.20
   1  11   3  789.82   46.40
  -1  11  -3  777.72   42.70
  -1  11  -3  772.52   45.30
   3 -11   3   38.60    7.10
   3 -11   3   31.30    7.80
  -3 -11  -3   38.40    6.70
  -3  11  -3   27.60    4.80
  -5 -11  -3   81.89    8.60
  -5  11  -3   96.59   10.60
   5  11   3   77.59   10.60
  -7 -11  -3  295.77   22.10
   7 -11   3  297.07   23.30
  -7  11  -3  345.07   21.40
   7  11   3  366.26   26.20
  -8 -12   3  329.77   23.00
   8 -12  -3  333.97   24.80
   8  12  -3  354.66   24.10
  -8  12   3  315.37   21.80
   6 -12  -3  289.27   23.20
  -6 -12   3  243.58   23.30
   6  12  -3  265.77   19.80
  -6  12   3  241.98   17.20
  -4 -12   3  369.26   24.40
   4 -12  -3  385.56   24.70
   4  12  -3  358.36   31.80
  -4  12   3  359.76   22.50
  -2 -12   3  907.61   51.19
   2  12  -3  907.01   53.29
  -2  12   3  947.81   49.60
  -2  12   3  839.42   51.39
   0 -12   3  232.98   16.00
   0 -12  -3  197.08   15.30
   0  12   3  186.18   16.20
   0  12  -3  265.27   13.90
   0  12  -3  209.28   16.80
   2 -12   3  311.87   20.50
   2 -12   3  320.97   21.90
  -2 -12  -3  338.57   21.20
   2  12   3  313.37   23.40
  -2  12  -3  292.57   19.10
  -4 -12  -3  438.26   26.90
   4 -12   3  399.16   27.20
   4  12   3  407.66   30.20
  -4  12  -3  409.46   25.20
  -6 -12  -3  117.29   11.60
   6 -12   3  121.09   12.50
   6  12   3  130.19   14.40
  -6  12  -3  122.19   10.70
   7 -13  -3  307.67   23.30
  -7 -13   3  287.07   21.70
   7  13  -3  318.47   22.70
  -7  13   3  312.97   21.10
   5 -13  -3  218.88   17.00
  -5 -13   3  198.88   16.30
   5  13  -3  211.38   23.10
  -5  13   3  216.28   15.40
   3 -13  -3   75.89    8.60
  -3 -13   3   73.19    8.40
   3  13  -3   70.69    9.50
  -3  13   3   69.39    7.60
  -1 -13   3  229.38   16.50
   1 -13  -3  233.38   16.80
   1  13  -3  221.48   23.70
  -1  13   3  212.18   17.50
   1 -13   3  140.39   11.50
  -1 -13  -3  127.69   12.90
   3 -13   3  267.97   20.10
  -3 -13  -3  271.07   19.80
  -3  13  -3  276.07   18.10
   3  13   3  272.87   22.90
   5 -13   3   11.70    5.30
  -5 -13  -3   11.20    6.90
   5  13   3   18.00    8.60
   6  14  -3   31.70   10.20
  -6  14   3   29.80   12.50
   4 -14  -3   11.00    4.50
  -4 -14   3   16.40    5.50
   4  14  -3   18.40    6.30
  -2 -14   3   53.69    8.80
   2  14  -3   58.19   11.80
   0 -14  -3  138.89   12.40
   0 -14   3  123.09   11.00
   0  14  -3  119.39   12.80
   0  14   3  115.69   13.20
   2 -14   3   29.20    7.50
  -2 -14  -3   67.49   12.70
   2  14   3   14.80    6.40
  -4 -14  -3   15.40    6.50
   4 -14   3    4.80    5.20
   4  14   3    0.70    4.90
  -4  14  -3    6.90    6.30
  -3 -15   3   61.19    8.20
   3 -15  -3   70.39    8.50
   3  15  -3   78.79   10.60
  -1 -15   3   70.29    8.20
  -1  15   3   85.29   19.60
   1  15  -3   77.19   13.50
  -1 -15  -3  751.92   45.60
   1  15   3  749.62   49.20
   3 -15   3  108.89   12.40
  -3 -15  -3  138.09   13.30
   3  15   3  126.19   26.10
  12   0  -4  862.51   54.99
 -12   0   4  950.90   50.49
 -10   0   4 1597.94   84.19
  -8   0   4 2975.50  153.18
   8   0  -4 3051.29  157.38
  -8   0   4 2912.11  152.88
   6   0  -4 4088.59  203.88
  -6   0   4 3608.94  201.28
  -6   0   4 4126.19  201.38
   4   0  -4 5781.82  267.47
  -4   0   4 4595.14  266.17
  -4   0   4 5314.57  266.27
  -2   0   4  142.69    9.80
  -2   0   4  171.18    9.80
   2   0  -4  199.88    9.90
   2   0   4 3169.68  165.98
  -2   0  -4 3352.96  165.88
   2   0   4 3250.97  167.58
   4   0   4 3459.25  179.08
  -4   0  -4 3619.74  179.08
   4   0   4 3458.35  182.28
  -6   0  -4 1784.62   86.69
   6   0   4 1561.04   90.89
  -8   0  -4 1276.47   64.89
  -8   0  -4 1267.07   65.09
   8   0   4 1168.18   70.49
 -10   0  -4  703.03   38.90
  10   0   4  721.73   44.80
 -11  -1   4  874.91   50.59
  11  -1  -4  761.32   50.39
 -11   1   4  866.51   45.80
  11   1  -4  798.22   49.99
  -9  -1   4 1447.26   75.99
  -9  -1   4 1563.14   75.79
   9  -1  -4 1477.15   80.49
   9   1  -4 1314.87   80.09
  -9   1   4 1407.66   75.99
  -7  -1   4 2107.89  112.69
  -7  -1   4 2299.37  113.09
   7  -1  -4 2226.58  115.59
  -7   1   4 2198.48  112.79
   7   1  -4 2082.39  115.89
  -5  -1   4 1320.37   69.99
   5  -1  -4 1423.06   71.39
  -5  -1   4 1255.37   70.29
   5   1  -4 1410.36   72.09
  -5   1   4 1340.87   69.99
  -3  -1   4 2612.94  146.09
   3  -1  -4 3135.59  146.09
  -3  -1   4 2762.62  145.89
  -3   1   4 2894.91  145.89
  -1  -1   4 2089.49  114.29
   1  -1  -4 2314.87  113.09
  -1   1   4 2177.68  113.79
  -1   1   4 2048.00  113.49
   1   1  -4 2487.35  114.19
   1  -1   4 1759.02   87.29
  -1  -1  -4 1573.94   86.89
   1  -1   4 1608.24   87.29
   1   1   4 1915.41   87.19
  -1   1  -4 1708.53   87.09
   1   1   4 1647.04   87.19
   3  -1   4 2727.73  142.89
   3  -1   4 2657.13  141.09
  -3  -1  -4 2897.31  140.99
   3   1   4 2721.13  143.59
  -3   1  -4 2798.62  141.29
   3   1   4 2795.32  141.29
  -5  -1  -4 1378.66   69.39
   5  -1   4 1319.97   72.39
   5  -1   4 1365.46   68.89
  -5   1  -4 1376.46   69.19
   5   1   4 1229.48   72.69
   7  -1   4 1356.66   82.09
  -7  -1  -4 1488.95   75.19
  -7  -1  -4 1481.25   75.39
   7   1   4 1460.55   88.29
  -7   1  -4 1449.76   75.59
  -9  -1  -4 1239.68   65.39
  -9  -1  -4 1231.58   65.09
   9  -1   4 1173.88   71.79
   9   1   4 1298.87   73.09
  -9   1  -4 1248.98   65.49
  11  -1   4  570.64   39.60
  11   1   4  619.24   38.30
  12  -2  -4 1137.39   71.39
  12   2  -4 1294.17   69.99
 -10  -2   4 1678.43   86.79
  10  -2  -4 1584.64   91.79
  10   2  -4 1651.73   93.49
 -10   2   4 1674.33   87.09
   8  -2  -4 2763.92  148.39
  -8  -2   4 3004.70  145.69
  -8  -2   4 2730.83  145.09
   8   2  -4 2758.82  149.19
  -8   2   4 2825.72  145.39
  -6  -2   4 1803.82   93.59
   6  -2  -4 1771.82   94.79
  -6  -2   4 1835.42   93.09
   6   2  -4 1749.82   95.89
  -6   2   4 1835.92   93.19
  -4  -2   4 1758.82   91.49
   4  -2  -4 1860.11   92.09
  -4  -2   4 1799.72   92.19
  -4   2   4 1933.51   91.69
  -4   2   4 1503.25   90.59
   4   2  -4 1816.12   93.09
   2  -2  -4 1871.71   90.69
  -2  -2   4 1727.93   91.49
   2   2  -4 1955.90   91.09
   2   2  -4 1606.94   91.39
  -2   2   4 1800.72   91.19
  -2   2   4 1645.64   90.39
   0  -2   4 2674.83  148.49
   0  -2  -4 3076.79  148.29
   0   2  -4 2987.80  147.99
   0   2  -4 3039.80  147.49
   0   2   4 2937.81  147.79
   0   2   4 2700.23  147.89
   2  -2   4 1938.71  106.29
   2  -2   4 1968.60  106.69
  -2   2  -4 2106.79  106.29
   2   2   4 2284.57  107.19
   2   2   4 2088.99  106.29
  -4  -2  -4 4158.58  202.38
   4  -2   4 3708.23  202.38
   4  -2   4 3682.73  204.58
  -4   2  -4 3971.50  202.88
   4   2   4 3966.30  202.78
   4   2   4 4383.16  205.88
  -6  -2  -4 2435.56  122.89
   6  -2   4 2329.47  122.69
   6  -2   4 2304.47  127.09
  -6  -2  -4 2307.77  123.39
  -6   2  -4 2337.67  123.49
   6   2   4 2709.63  127.99
  -8  -2  -4 1686.03   87.69
   8  -2   4 1584.84   93.79
  -8  -2  -4 1707.33   88.39
  -8   2  -4 1657.63   88.29
   8   2   4 1831.32   92.89
  10  -2   4 1113.99   70.49
  10   2   4 1302.47   70.79
 -10   2  -4 1152.58   63.29
  11  -3  -4  658.13   43.30
 -11   3   4  667.33   38.70
  11   3  -4  717.23   47.50
  -9  -3   4 1219.78   65.89
  -9  -3   4 1252.37   66.39
   9  -3  -4 1220.68   69.69
   9   3  -4 1276.57   69.59
  -9   3   4 1261.87   66.39
  -7  -3   4 1496.25   75.19
  -7  -3   4 1373.46   75.79
   7  -3  -4 1411.16   77.29
  -7   3   4 1470.95   75.39
   7   3  -4 1446.46   77.99
  -5  -3   4 1969.50  104.79
  -5  -3   4 2031.30  103.99
   5  -3  -4 2035.40  104.99
  -5   3   4 2040.70  104.09
  -3  -3   4 2234.78  115.29
   3  -3  -4 2168.48  114.49
  -3   3   4 2327.87  114.59
   3   3  -4 2192.08  114.39
   3   3  -4 2477.65  115.19
  -3   3   4 1991.50  113.59
  -1  -3   4 1842.92   98.09
   1   3  -4 1886.61   96.89
  -1   3   4 1890.01   96.89
  -1   3   4 1957.40   97.59
   1   3  -4 1932.41   97.19
  -1   3   4 1855.21   97.69
  -1  -3  -4 2273.97  111.79
   1  -3   4 2122.39  112.29
   1  -3   4 2009.00  112.69
   1   3   4 2303.37  112.49
  -1   3  -4 2233.08  112.19
   1   3   4 2220.48  112.29
  -3  -3  -4 2218.28  105.09
   3  -3   4 1978.70  106.69
   3  -3   4 2014.70  105.59
   3   3   4 1986.20  107.09
  -3   3  -4 2044.70  105.79
   3   3   4 2118.69  105.79
   5  -3   4 1383.66   72.29
  -5  -3  -4 1454.95   73.19
   5  -3   4 1375.26   75.59
  -5  -3  -4 1443.26   72.29
  -5   3  -4 1331.97   72.99
   5   3   4 1457.75   76.09
   7  -3   4 1327.17   78.19
  -7  -3  -4 1387.76   73.99
  -7  -3  -4 1447.56   72.99
  -7   3  -4 1367.76   73.89
   7   3   4 1536.75   77.89
   9  -3   4  626.44   54.59
  -9  -3  -4  728.73   40.60
   9   3   4  811.12   44.50
  -9   3  -4  743.53   40.50
  11  -3   4  550.84   41.00
  11   3   4  674.33   40.00
 -11   3  -4  562.64   33.60
 -12   4   4  331.87   22.70
  10  -4  -4  356.86   25.40
 -10  -4   4  363.26   21.90
 -10   4   4  354.76   21.90
  10   4  -4  360.96   24.00
  -8  -4   4   27.70    4.10
   8  -4  -4   40.40    7.10
  -8  -4   4   33.40    3.70
  -8   4   4   32.80    3.90
   8   4  -4   38.80    6.90
   6  -4  -4 1274.57   70.09
  -6  -4   4 1362.56   68.39
  -6  -4   4 1258.27   69.79
  -6   4   4 1336.87   68.89
   6   4  -4 1350.36   70.49
   4  -4  -4 1971.10  108.29
  -4  -4   4 2109.59  110.59
   4  -4  -4 2072.19  109.99
   4   4  -4 2167.78  109.29
   4   4  -4 2285.17  110.69
  -4   4   4 2181.68  110.39
  -2  -4   4 2328.37  114.79
  -2   4   4 2125.79  113.69
  -2   4   4 2108.59  113.59
  -2   4   4 2336.47  113.19
   2   4  -4 2082.29  113.39
   2   4  -4 2297.37  114.19
   0  -4   4 1633.14   89.39
   0   4  -4 1798.62   88.29
   0   4   4 1746.23   88.49
   0   4   4 1751.12   88.29
   0   4   4 1665.23   88.29
   0   4  -4 1717.23   88.29
   2  -4   4  714.93   39.40
  -2  -4  -4  720.13   38.20
   2  -4   4  787.52   39.90
  -2   4  -4  758.72   39.20
   2   4   4  751.82   40.00
   4  -4   4   35.80    3.10
  -4  -4  -4   55.19    3.00
  -4  -4  -4   42.70    3.80
  -4   4  -4   51.09    3.90
   4   4   4   46.20    5.20
  -6  -4  -4  615.54   34.50
   6  -4   4  638.84   37.70
  -6  -4  -4  653.73   33.30
  -6   4  -4  620.44   34.50
   6   4   4  649.93   37.50
  -8  -4  -4  542.25   32.10
   8  -4   4  580.74   37.40
  -8   4  -4  568.74   32.10
   8   4   4  612.54   35.50
 -10  -4  -4  338.37   22.10
  10  -4   4  344.37   28.30
 -10   4  -4  349.17   21.60
  10   4   4  384.06   24.90
  11  -5  -4  219.28   21.50
 -11   5   4  269.27   17.50
  11   5  -4  273.47   19.00
   9  -5  -4  575.54   35.80
  -9  -5   4  573.34   33.70
  -9   5   4  584.44   33.20
   9   5  -4  607.74   35.10
  -7  -5   4 1198.48   67.69
  -7  -5   4 1334.97   65.69
   7  -5  -4 1196.58   68.19
   7   5  -4 1369.56   74.29
  -7   5   4 1236.98   66.69
   5  -5  -4  799.22   42.50
  -5  -5   4  763.12   42.80
   5   5  -4  776.52   42.70
   5   5  -4  770.72   40.80
  -5   5   4  789.02   41.60
   3  -5  -4 1370.96   67.19
   3  -5  -4 1297.87   68.29
   3   5  -4 1324.27   69.09
  -3   5   4 1448.46   68.19
   3   5  -4 1103.89   67.49
   1  -5  -4 1265.47   64.29
  -1  -5   4 1209.48   65.89
   1   5  -4 1345.07   64.39
  -1   5   4 1258.57   64.89
  -1   5   4 1122.09   64.99
   1   5  -4 1264.87   64.99
   1  -5   4  520.15   29.10
  -1  -5  -4  528.65   27.30
  -1  -5  -4  544.55   28.10
  -1   5  -4  542.95   28.00
   1   5   4  490.75   28.50
  -1   5  -4  519.35   28.30
   3  -5   4 1531.55   81.39
  -3  -5  -4 1709.43   80.29
   3  -5   4 1544.95   82.69
  -3  -5  -4 1609.14   81.69
   3   5   4 1523.25   83.09
  -3   5  -4 1527.05   81.49
  -5  -5  -4  960.10   45.90
  -5  -5  -4  887.61   47.60
   5  -5   4  921.71   49.99
   5  -5   4  884.11   46.20
  -5   5  -4  868.81   47.30
   5   5   4  819.62   49.80
   7  -5   4  709.13   43.30
  -7  -5  -4  717.83   39.60
   7   5   4  761.52   42.80
  -7   5  -4  692.73   39.30
   9  -5   4  599.44   39.60
   9   5   4  610.14   36.50
  -9   5  -4  552.44   33.10
  10  -6  -4   91.89   11.00
 -10  -6   4  104.09   12.70
  10   6  -4   98.39    9.70
 -10   6   4   88.49    8.60
  -8  -6   4   13.60    3.80
   8  -6  -4   14.50    4.60
   8   6  -4   23.60    5.20
  -8   6   4   11.70    3.40
   6  -6  -4  231.38   15.50
  -6  -6   4  240.88   15.80
   6   6  -4  248.58   13.40
  -6   6   4  225.98   14.40
   6   6  -4  237.68   15.60
  -4  -6   4   32.50    4.40
   4  -6  -4   26.90    3.50
   4  -6  -4   43.40    3.00
   4   6  -4   38.80    3.10
   4   6  -4   40.80    4.50
   2  -6  -4   83.79    5.40
  -2  -6   4   68.29    6.50
  -2   6   4   87.39    6.40
   2   6  -4   94.29    5.50
   2   6  -4   89.89    6.80
  -2   6   4   70.19    5.80
   0  -6   4   36.40    4.30
   0  -6  -4   39.10    3.40
   0   6   4   55.39    3.70
   0   6  -4   41.40    3.80
   0   6  -4   48.70    3.50
   0   6   4   39.30    3.80
  -2  -6  -4  274.27   15.20
  -2  -6  -4  287.57   16.70
   2  -6   4  317.37   17.60
   2  -6   4  309.57   17.40
   2   6   4  292.67   17.80
  -2   6  -4  291.97   16.50
   4  -6   4   58.69    6.00
   4  -6   4   58.29    4.40
  -4  -6  -4   57.49    5.00
   4   6   4   69.09    6.70
  -4   6  -4   63.49    4.90
  -6  -6  -4  313.37   18.30
   6  -6   4  300.37   20.70
  -6   6  -4  287.07   17.80
   6   6   4  298.27   20.70
   8  -6   4  159.78   15.10
  -8  -6  -4  153.88   11.50
   8   6   4  171.88   14.30
  -8   6  -4  149.69   11.10
  10  -6   4  160.68   20.40
 -10  -6  -4  129.29   12.00
  10   6   4  177.88   14.60
 -10   6  -4  153.48   11.60
 -11  -7   4   43.70    8.00
  11  -7  -4   47.00   10.30
 -11   7   4   46.10    7.80
  11   7  -4   45.40    8.50
   9  -7  -4   11.80    5.00
  -9  -7   4    7.40    3.60
  -9   7   4    2.90    2.70
   9   7  -4    5.60    3.40
  -7  -7   4    8.80    3.50
   7  -7  -4    6.60    2.90
   7   7  -4   10.60    3.50
  -7   7   4   11.30    3.10
   5  -7  -4  179.78   12.20
  -5  -7   4  173.08   12.80
   5   7  -4  185.28   12.80
  -5   7   4  168.68   11.30
   5   7  -4  187.58   10.10
  -3  -7   4   39.60    4.70
   3  -7  -4   41.90    3.50
   3   7  -4   38.20    4.80
   3   7  -4   47.70    3.30
  -3   7   4   44.30    4.00
   1  -7  -4   71.09    5.20
  -1  -7   4   67.39    6.40
  -1   7   4   63.29    5.60
  -1   7   4   70.89    5.80
   1   7  -4   81.19    6.30
   1   7  -4   75.39    5.00
  -1  -7  -4  262.97   13.80
  -1  -7  -4  257.57   15.10
  -1   7  -4  256.27   16.50
   1   7   4  261.77   16.10
   3  -7   4    8.30    2.80
  -3  -7  -4   12.50    2.80
   3  -7   4   11.00    2.50
  -3   7  -4   12.20    2.40
  -5  -7  -4   16.90    3.70
   5  -7   4   22.60    5.10
  -5   7  -4   24.30    3.90
   5   7   4   17.10    4.90
  -7  -7  -4   41.30    5.20
   7  -7   4   53.29    9.60
   7   7   4   58.19    7.80
  -7   7  -4   47.20    5.20
   9  -7   4   10.30   10.10
  -9  -7  -4    4.70    3.90
  -9   7  -4    8.70    3.30
   9   7   4    7.30    4.50
 -10  -8   4  541.35   37.00
  10  -8  -4  585.54   45.80
  10   8  -4  639.34   38.10
   8  -8  -4   32.00    6.80
  -8  -8   4   22.30    5.60
  -8   8   4   28.60    5.20
  -6  -8   4  120.59   10.10
   6  -8  -4  121.29    9.80
  -6   8   4  115.09    8.80
   6   8  -4  129.49   10.20
   4  -8  -4   22.60    2.90
  -4  -8   4   23.80    4.80
   4   8  -4   25.60    5.20
   4   8  -4   16.50    1.80
   2  -8  -4  190.88   11.70
  -2  -8   4  183.58   13.30
  -2   8   4  198.58   12.90
  -2   8   4  184.48   13.00
   2   8  -4  197.78   11.10
   2   8  -4  209.88   13.90
   0  -8  -4   47.20    4.50
   0  -8   4   51.29    5.70
   0   8   4   65.69    4.40
   0   8  -4   54.09    5.30
   0   8  -4   53.99    4.20
   0   8   4   52.79    5.20
  -2  -8  -4  192.38   12.40
   2  -8   4  205.48   13.30
   2  -8   4  201.68   13.30
   2   8   4  206.38   14.00
  -2   8  -4  181.28   11.80
   4  -8   4  173.78   10.60
  -4  -8  -4  165.68   11.70
   4  -8   4  179.78   12.90
  -4   8  -4  168.78   11.20
   4   8   4  186.58   14.20
  -6  -8  -4 1088.59   56.69
   6  -8   4 1034.50   58.89
  -6   8  -4 1003.70   55.89
   6   8   4 1017.60   59.79
   8  -8   4   64.49   11.90
  -8  -8  -4   56.39    8.70
  -8   8  -4   40.70    9.10
   8   8   4   44.30    9.10
  -9  -9   4  187.08   17.10
   9  -9  -4  219.38   17.10
  -9   9   4  201.88   14.70
   9   9  -4  220.18   16.30
  -7  -9   4  501.75   31.10
   7  -9  -4  493.85   32.90
  -7   9   4  497.05   29.40
   7   9  -4  543.65   31.20
   5  -9  -4  541.65   30.90
  -5  -9   4  525.45   31.30
   5   9  -4  520.85   31.40
  -5   9   4  503.25   29.40
  -3  -9   4  819.82   45.50
   3  -9  -4  797.32   42.10
  -3   9   4  725.73   42.00
   3   9  -4  800.52   44.70
   3   9  -4  750.62   40.20
   1  -9  -4  622.84   33.40
  -1  -9   4  618.74   35.10
   1   9  -4  643.24   35.20
  -1   9   4  533.65   33.50
  -1   9   4  616.64   34.60
   1   9  -4  613.94   32.40
   1  -9   4  699.33   40.90
  -1  -9  -4  743.63   39.60
  -1   9  -4  710.03   38.70
  -1   9  -4  711.83   40.40
   1   9   4  747.73   41.10
   3  -9   4  918.71   49.10
   3  -9   4  899.51   50.39
  -3  -9  -4  930.21   49.50
  -3   9  -4  844.22   48.60
   3   9   4  949.51   52.19
  -5  -9  -4  224.88   14.70
   5  -9   4  230.58   16.10
   5   9   4  204.18   16.90
  -5   9  -4  187.48   13.60
   7  -9   4  440.56   29.00
  -7  -9  -4  400.36   26.00
  -7   9  -4  383.46   25.00
   7   9   4  469.75   30.00
  -9  -9  -4  236.28   18.10
   9  -9   4  229.38   21.20
   9   9   4  278.87   22.80
  -8 -10   4   23.90    6.20
   8  10  -4   33.60    7.00
  -8  10   4   22.80    5.00
  -6 -10   4  657.83   38.90
   6 -10  -4  666.23   39.10
   6  10  -4  659.33   38.90
  -6  10   4  650.93   37.00
  -4 -10   4 1362.16   71.99
   4 -10  -4 1365.06   71.59
   4  10  -4 1205.18   72.29
  -4  10   4 1332.67   74.09
  -2 -10   4 1570.94   82.99
   2 -10  -4 1564.14   81.29
  -2  10   4 1540.45   81.59
   2  10  -4 1572.74   84.29
  -2  10   4 1500.95   82.49
   2  10  -4 1504.55   79.39
   0 -10   4 1250.17   67.89
   0 -10  -4 1284.17   66.49
   0  10  -4 1241.28   65.19
   0  10   4 1225.38   67.79
   0  10  -4 1226.18   67.79
   2 -10   4  269.77   17.70
   2 -10   4  278.27   18.50
  -2 -10  -4  266.27   17.10
  -2  10  -4  258.17   16.30
   2  10   4  280.67   19.30
  -4 -10  -4   38.70    5.10
   4 -10   4   44.10    7.60
  -4  10  -4   50.39    5.10
   4  10   4   57.49    7.80
   6 -10   4  336.27   23.80
  -6 -10  -4  335.97   21.90
  -6  10  -4  327.07   20.90
   6  10   4  340.47   25.10
  -8 -10  -4  440.46   28.90
   8 -10   4  393.66   39.30
   8  10   4  525.85   32.70
  -8  10  -4  438.36   27.70
  -9 -11   4 1173.28   66.19
   9  11  -4 1121.49   66.79
  -7 -11   4 1289.87   72.19
   7 -11  -4 1299.97   78.69
   7  11  -4 1352.16   72.29
  -7  11   4 1253.77   70.29
  -5 -11   4 1019.70   66.09
  -5  11   4 1050.69   57.59
   5  11  -4 1097.99   60.29
  -3 -11   4 1807.92   93.99
   3 -11  -4 1735.63   92.79
  -3  11   4 1819.52   92.49
   3  11  -4 1615.64   94.79
  -1 -11   4 1409.46   75.49
  -1  11   4 1423.06   73.59
   1  11  -4 1416.66   72.39
   1  11  -4 1387.96   76.39
  -1  11   4 1308.87   75.49
   1 -11   4 1100.49   60.29
  -1 -11  -4 1087.69   59.19
  -1  11  -4 1062.49   60.29
  -1  11  -4 1061.39   57.79
   1  11   4 1122.19   61.39
  -3 -11  -4 1497.75   81.29
   3 -11   4 1496.85   82.49
  -3  11  -4 1491.55   80.29
   3  11   4 1572.94   85.09
  -5 -11  -4 1320.37   71.69
   5 -11   4 1250.37   74.89
   5  11   4 1248.28   75.49
  -5  11  -4 1398.96   70.89
   7 -11   4  990.50   61.69
  -7 -11  -4 1124.39   62.89
  -8 -12   4  771.02   46.20
   8 -12  -4  797.52   49.99
   8  12  -4  816.42   46.90
  -8  12   4  760.52   45.30
   6  12  -4  396.36   26.40
  -6  12   4  396.16   24.80
   4 -12  -4  929.51   54.59
  -4 -12   4  970.30   54.69
   4  12  -4  944.41   56.39
  -4  12   4 1011.50   53.59
  -2 -12   4  295.97   20.00
   2 -12  -4  316.57   19.70
   2  12  -4  269.77   21.00
  -2  12   4  277.17   20.10
  -2  12   4  312.77   19.20
   0 -12   4 1284.87   69.29
   0 -12  -4 1255.97   68.69
   0  12  -4 1308.37   66.69
   0  12  -4 1253.07   70.49
   0  12   4 1202.68   70.29
   2 -12   4  308.77   20.80
   2 -12   4  327.87   22.30
  -2 -12  -4  327.97   21.30
  -2  12  -4  324.77   19.90
   4 -12   4 1379.16   78.49
  -4 -12  -4 1391.46   77.19
  -4  12  -4 1467.55   82.39
   4  12   4 1419.66   81.69
  -6 -12  -4  861.21   58.69
   6 -12   4  849.22   51.99
  -6  12  -4  889.31   49.50
  -7 -13   4 1205.78   71.29
   7 -13  -4 1137.29   68.49
   7  13  -4 1165.68   65.49
  -7  13   4 1092.39   63.99
   5 -13  -4 1013.40   58.99
  -5 -13   4 1036.20   58.39
  -5  13   4 1053.09   57.69
   5  13  -4 1008.70   61.59
  -3 -13   4 1827.82   93.29
   3 -13  -4 1629.64   93.09
  -3  13   4 1853.71   94.09
   3  13  -4 1563.64   94.49
   1 -13  -4 1680.73   86.19
  -1  13   4 1509.95   87.19
   1  13  -4 1546.65   92.59
   1 -13   4 1472.85   81.49
  -1 -13  -4 1536.95   83.49
  -1  13  -4 1548.84   79.59
   1  13   4 1437.96   84.19
   3 -13   4 1486.95   85.59
  -3 -13  -4 1637.14   85.09
  -3  13  -4 1550.94   84.69
   3  13   4 1508.55   89.09
   5 -13   4  606.94   38.50
  -5 -13  -4  624.94   37.60
   5  13   4  543.45   40.90
  -5  13  -4  621.24   36.30
   6  14  -4 1169.58   71.99
  -6  14   4 1219.18   71.39
  -4 -14   4 1645.04   87.49
   4 -14  -4 1512.45   92.69
   4  14  -4 1600.34   88.89
  -2 -14   4  517.15   31.80
   2  14  -4  471.65   33.70
  -2  14   4  555.54   34.50
   0 -14  -4 2112.99  112.99
   0 -14   4 2220.38  112.29
   0  14  -4 1946.21  114.19
   2 -14   4  946.51   62.79
  -2 -14  -4 1145.19   63.19
   2  14   4 1097.99   64.59
  -4 -14  -4 1061.19   62.19
   4  14   4 1054.49   66.49
  -4  14  -4 1120.49   60.79
  -3 -15   4  849.61   45.50
   3 -15  -4  723.43   45.30
   3  15  -4  714.63   46.90
  -1 -15   4  789.42   45.00
   1  15  -4  765.42   48.20
  -1  15   4  751.02   48.20
  -1 -15  -4  519.75   36.30
   1  15   4  540.75   37.30
   3 -15   4  812.92   49.40
  12   0  -5    5.20    5.00
 -12   0   5   13.90    4.20
  10   0  -5    5.50    6.90
 -10   0   5   43.60    4.80
  -8   0   5   10.80    2.70
  -8   0   5    8.90    2.60
   8   0  -5    4.70    3.30
  -6   0   5   14.40    2.80
  -6   0   5   12.60    2.50
   6   0  -5    7.80    3.00
  -4   0   5   24.00    2.70
  -4   0   5   22.60    2.40
   4   0  -5   20.60    2.80
  -2   0   5   13.60    1.70
  -2   0   5    9.40    1.40
   2   0  -5   14.80    1.50
   0   0   5   29.50    2.60
   2   0   5   34.60    3.40
   2   0   5   30.40    2.70
  -2   0  -5   28.70    2.40
   4   0   5    7.60    3.50
   4   0   5    7.00    1.60
   6   0   5   15.40    4.60
  -6   0  -5   13.70    2.30
   8   0   5    8.30    5.20
  -8   0  -5   15.80    3.00
  -8   0  -5    7.00    2.00
 -10   0  -5    5.80    2.30
  11  -1  -5    9.00    5.10
 -11  -1   5   14.20    3.80
 -11   1   5   18.00    4.40
  11   1  -5   22.20    6.90
   9  -1  -5  534.05   35.00
  -9  -1   5  576.04   32.00
   9   1  -5  568.04   35.70
  -9   1   5  601.94   32.20
  -7  -1   5  701.93   37.60
  -7  -1   5  676.13   37.40
   7  -1  -5  712.83   39.70
  -7   1   5  673.13   37.40
   7   1  -5  696.83   40.30
   5  -1  -5 1792.52   86.09
  -5  -1   5 1544.65   85.19
  -5  -1   5 1565.94   84.99
  -5   1   5 1598.94   84.99
   5   1  -5 1695.33   86.59
   3  -1  -5  384.86   19.20
  -3  -1   5  336.47   19.10
  -3  -1   5  325.07   19.40
  -3   1   5  319.27   19.40
  -3   1   5  330.97   19.10
   3   1  -5  390.46   19.80
  -1  -1   5   52.39    4.20
   1  -1  -5   63.89    4.50
   1  -1  -5   58.19    3.40
  -1   1   5   59.49    4.10
   1  -1   5 2243.68  108.69
  -1  -1  -5 2235.28  108.29
   1  -1   5 2115.19  108.79
   1   1   5 2028.90  107.99
   1   1   5 1969.90  108.49
  -3  -1  -5  747.73   37.50
   3  -1   5  764.62   39.80
   3  -1   5  716.33   37.80
   3   1   5  704.93   37.80
   3   1   5  630.54   39.00
  -3   1  -5  749.33   37.70
  -5  -1  -5  143.09    8.50
   5  -1   5  164.28   12.20
   5  -1   5  140.89    8.60
  -5   1  -5  136.29    8.70
   5   1   5  132.09    8.70
   5   1   5  160.18   12.10
  -7  -1  -5  381.36   21.10
  -7  -1  -5  385.46   20.90
   7  -1   5  351.36   25.90
   7   1   5  397.76   25.50
  -7   1  -5  370.46   21.10
  -7   1  -5  371.06   20.70
  -9  -1  -5  153.78   10.00
   9  -1   5  165.68   18.10
  -9  -1  -5  140.49   10.20
   9   1   5  167.38   14.50
  -9   1  -5  153.18   12.70
  11  -1   5  482.95   34.80
  11   1   5  485.45   37.00
 -11   1  -5  427.56   26.30
  12  -2  -5  349.17   27.60
  12   2  -5  383.06   26.30
 -12   2   5  422.56   25.90
 -10  -2   5  365.56   21.10
  10  -2  -5  326.77   24.50
 -10   2   5  359.76   21.50
  10   2  -5  327.87   30.60
  -8  -2   5 1173.08   61.69
   8  -2  -5 1131.09   64.09
  -8  -2   5 1241.88   61.89
   8   2  -5 1135.69   64.89
  -8   2   5 1128.09   61.59
   6  -2  -5 1231.58   65.19
  -6  -2   5 1253.97   64.39
  -6  -2   5 1226.88   63.99
  -6   2   5 1186.68   63.89
   6   2  -5 1197.68   66.19
  -4  -2   5 1118.89   59.99
   4  -2  -5 1214.18   59.69
  -4  -2   5 1170.98   59.29
  -4   2   5 1130.59   59.49
  -4   2   5 1029.40   58.59
   4   2  -5 1165.58   60.49
  -2  -2   5 1479.55   74.19
   2  -2  -5 1576.84   72.99
   2   2  -5 1237.48   73.59
  -2   2   5 1418.76   73.09
  -2   2   5 1415.06   73.99
   2   2  -5 1390.36   73.09
   0  -2   5 1000.10   46.90
   0  -2   5  912.21   48.20
   0  -2  -5  895.91   47.80
   0   2   5  897.41   47.10
   0   2   5  872.11   47.60
  -2  -2  -5 1548.05   76.99
   2  -2   5 1467.65   77.69
   2  -2   5 1538.95   77.99
   2   2   5 1456.85   77.69
   4  -2   5 1352.76   69.49
  -4  -2  -5 1444.06   69.19
   4  -2   5 1354.46   71.89
   4   2   5 1370.66   69.79
   4   2   5 1138.89   71.29
  -4   2  -5 1398.26   69.79
  -6  -2  -5  546.05   29.40
   6  -2   5  542.35   28.70
   6  -2   5  516.15   33.00
  -6  -2  -5  549.74   28.80
   6   2   5  539.05   32.70
  -6   2  -5  542.95   29.30
  -8  -2  -5  842.42   44.20
  -8  -2  -5  843.02   44.90
   8  -2   5  766.82   50.29
  -8   2  -5  833.72   44.90
   8   2   5  879.21   49.00
  10  -2   5  246.88   25.80
  10   2   5  287.37   20.90
 -10   2  -5  295.17   21.10
  11  -3  -5  216.38   20.70
 -11   3   5  252.77   19.70
  -9  -3   5   40.90    4.90
   9  -3  -5   54.29    9.10
  -9  -3   5   56.69    5.20
  -9   3   5   62.19    5.70
   9   3  -5   55.69    7.20
  -7  -3   5  106.59    8.00
  -7  -3   5  101.89    7.50
   7  -3  -5  110.49    9.00
  -7   3   5   98.89    7.50
   7   3  -5  113.69    9.50
  -5  -3   5 1284.37   71.69
   5  -3  -5 1358.36   71.69
  -5  -3   5 1385.76   70.89
   5   3  -5 1436.76   73.49
  -5   3   5 1367.66   71.29
   3  -3  -5  839.22   40.30
  -3  -3   5  726.73   41.00
   3   3  -5  739.13   40.30
   3   3  -5  750.72   40.40
  -3   3   5  751.92   40.60
  -1  -3   5 1468.75   77.29
   1   3  -5 1551.84   76.49
  -1   3   5 1444.56   76.09
   1   3  -5 1512.95   75.79
  -1   3   5 1387.76   76.59
  -1   3   5 1501.45   75.99
  -1  -3  -5 1981.70   93.69
   1  -3   5 1648.83   94.39
   1  -3   5 1843.52   93.89
   1   3   5 1868.91   93.99
  -1   3  -5 1847.92   94.09
   1   3   5 1787.22   93.99
  -3  -3  -5 1814.82   89.69
   3  -3   5 1707.03   91.49
   3  -3   5 1750.22   90.49
  -3   3  -5 1747.73   90.49
   3   3   5 1732.43   91.49
   3   3   5 1775.72   90.49
  -5  -3  -5 1313.47   65.29
   5  -3   5 1261.07   64.49
   5  -3   5 1246.88   67.89
  -5  -3  -5 1278.97   64.29
   5   3   5 1123.49   67.29
  -5   3  -5 1250.77   65.19
  -7  -3  -5  919.21   46.60
   7  -3   5  868.91   52.19
  -7  -3  -5  873.11   48.50
   7   3   5  936.51   51.19
  -7   3  -5  877.11   47.50
  -7   3  -5  865.01   46.30
  -9  -3  -5   37.90    5.90
   9  -3   5   34.00    9.90
   9   3   5   51.49    9.20
  -9   3  -5   43.60    6.10
 -12   4   5  707.33   42.50
  10  -4  -5  982.90   59.29
 -10  -4   5 1090.59   56.09
  10   4  -5 1003.10   57.89
 -10   4   5 1043.20   56.39
  -8  -4   5 1986.30  103.69
   8  -4  -5 1855.71  105.09
  -8  -4   5 1959.30  102.49
   8   4  -5 2097.79  105.29
  -8   4   5 1993.50  103.29
   6  -4  -5 1688.63   91.29
  -6  -4   5 1640.74   90.99
  -6  -4   5 1895.41   89.89
  -6   4   5 1693.33   90.39
   6   4  -5 1774.12   91.59
  -4  -4   5 2394.56  120.49
   4  -4  -5 2242.18  120.39
   4   4  -5 2390.66  119.19
  -4   4   5 2012.90  118.19
  -4   4   5 2434.46  119.69
   4   4  -5 2459.75  119.99
  -2  -4   5 2665.63  133.49
  -2   4   5 2478.65  132.89
  -2   4   5 2538.45  131.79
   2   4  -5 2738.43  132.49
   2   4  -5 2542.65  132.39
  -2   4   5 2505.55  132.09
   0  -4   5 2046.10  110.19
   0  -4  -5 2103.59  109.09
   0   4  -5 2168.58  109.19
   0   4   5 2191.88  109.19
   0   4  -5 2115.79  108.89
   0   4   5 2127.79  109.09
   2  -4   5 2279.97  124.79
   2  -4   5 2379.16  124.99
  -2  -4  -5 2421.16  123.59
   2   4   5 2492.55  125.09
   2   4   5 2558.54  125.09
  -4  -4  -5 2374.96  112.59
  -4  -4  -5 2242.58  113.89
   4  -4   5 2166.28  113.29
  -4   4  -5 2178.78  113.69
   4   4   5 2065.59  115.29
   6  -4   5 1561.04   82.49
   6  -4   5 1553.04   86.09
  -6  -4  -5 1585.34   82.79
  -6  -4  -5 1688.13   81.69
  -6   4  -5 1517.35   82.49
  -8  -4  -5 1111.79   60.19
   8  -4   5 1130.39   65.89
   8   4   5 1214.28   63.89
  -8   4  -5 1045.50   60.79
  10  -4   5  660.53   48.40
 -10  -4  -5  775.52   46.50
  10   4   5  818.92   51.89
  11  -5  -5 1113.79   72.59
 -11   5   5 1264.07   67.89
  11   5  -5 1309.27   68.89
   9  -5  -5 1671.93   94.99
  -9  -5   5 1777.12   93.09
  -9   5   5 1751.72   92.99
   9   5  -5 1826.32   94.39
   7  -5  -5 3312.67  182.28
  -7  -5   5 3573.34  181.98
  -7   5   5 3673.13  181.28
   5  -5  -5 2350.56  125.39
   5  -5  -5 2316.87  127.59
  -5  -5   5 2494.05  128.29
  -5   5   5 2588.24  127.39
   5   5  -5 2530.45  126.59
   5   5  -5 2529.65  127.99
  -3  -5   5 2574.54  126.79
   3  -5  -5 2327.37  125.59
  -3   5   5 2574.94  125.99
   3   5  -5 2290.27  126.09
  -1   5   5 1102.09   56.99
   1   5  -5 1109.69   56.99
   1   5  -5 1136.39   56.89
  -1   5   5 1135.59   56.69
  -1   5   5  960.50   57.29
   1  -5   5  849.32   45.40
   1  -5   5  818.02   46.10
  -1  -5  -5  887.71   44.40
   1   5   5  849.61   45.50
  -1   5  -5  887.81   45.20
   3  -5   5  179.28   10.60
  -3  -5  -5  165.38   10.00
   3  -5   5  189.18   11.80
  -3  -5  -5  165.58   10.60
  -3   5  -5  166.58   10.50
   3   5   5  167.38   11.50
   5  -5   5 1970.40  104.49
   5  -5   5 1970.60  100.79
  -5  -5  -5 2021.80  101.99
  -5  -5  -5 2087.89  100.19
   5   5   5 1747.03  103.79
   7  -5   5  972.70   56.49
  -7  -5  -5  940.21   51.99
  -7   5  -5  931.61   51.79
   7   5   5 1025.40   55.59
   9  -5   5 1693.93  102.59
  -9  -5  -5 1757.22   96.29
   9   5   5 2015.30  100.29
  10  -6  -5  875.61   53.49
 -10   6   5  916.61   51.89
  10   6  -5  924.11   51.59
  -8  -6   5 1827.22   97.29
   8  -6  -5 1696.73   97.89
   8   6  -5 1946.91   95.29
  -8   6   5 1856.31   96.59
   8   6  -5 1846.72   97.59
   6  -6  -5 1825.22  103.59
  -6  -6   5 1887.11  102.59
   6   6  -5 2093.89  100.49
   6   6  -5 1992.30  102.49
   4  -6  -5 1993.70  105.19
   4  -6  -5 1956.90  106.69
  -4  -6   5 2107.69  107.69
  -4   6   5 2269.97  106.79
   4   6  -5 1971.60  105.69
   4   6  -5 2046.50  107.29
   2  -6  -5 2622.94  137.59
  -2  -6   5 2821.62  139.69
  -2   6   5 2692.13  138.49
   2   6  -5 2829.62  139.19
   2   6  -5 2743.13  137.99
  -2   6   5 2428.26  138.79
   0  -6  -5 1477.15   78.29
   0  -6  -5 1411.36   77.49
   0  -6   5 1420.76   80.69
   0   6  -5 1515.95   78.29
   0   6  -5 1692.73   78.09
  -2  -6  -5 2263.17  115.89
   2  -6   5 2152.58  116.39
   2  -6   5 2183.48  116.49
  -2  -6  -5 2163.58  114.29
  -2   6  -5 2333.87  115.79
   2   6   5 2388.06  116.99
  -4  -6  -5 1815.22   92.59
   4  -6   5 1789.62   91.79
   4  -6   5 1798.92   94.29
  -4   6  -5 1721.63   92.29
   4   6   5 1759.32   94.49
  -6  -6  -5 1219.88   63.29
   6  -6   5 1179.48   66.49
   6   6   5 1151.48   65.99
  -6   6  -5 1187.08   62.99
  -8  -6  -5 1826.32  101.69
   8   6   5 2107.99  104.79
  -8   6  -5 1808.02  100.29
  10  -6   5  651.03   46.10
 -10  -6  -5  604.64   44.70
  10   6   5  776.22   44.30
 -11  -7   5 2264.37  113.49
  11  -7  -5 1824.22  118.09
 -11   7   5 2145.09  115.59
  11   7  -5 2291.67  114.89
  -9  -7   5 1010.70   56.19
   9  -7  -5  949.21   56.09
   9   7  -5 1007.10   55.29
  -9   7   5  981.20   54.19
  -7  -7   5  962.70   53.39
   7  -7  -5  953.80   53.39
  -7   7   5  951.40   52.19
   7   7  -5  996.80   53.19
  -5  -7   5 1090.49   60.59
   5  -7  -5 1113.09   59.99
   5   7  -5 1160.38   58.09
   5   7  -5 1117.19   60.39
  -5   7   5 1111.39   59.39
   3  -7  -5 1953.80  102.69
  -3  -7   5 2061.29  104.99
   3   7  -5 1869.51  102.69
   3   7  -5 2026.10  104.99
  -3   7   5 2087.89  104.09
  -1  -7   5 3117.09  150.78
   1  -7  -5 2807.72  148.39
  -1   7   5 2586.64  149.29
   1   7  -5 3093.19  148.59
   1   7  -5 2823.12  149.49
  -1   7   5 2950.10  149.39
   1  -7   5 5728.43  323.17
  -1  -7  -5 6217.88  321.77
  -1  -7  -5 6284.87  321.27
  -1   7  -5 7190.28  321.97
   1   7   5 6462.05  322.87
  -1   7  -5 5989.10  322.27
   3  -7   5 2636.44  141.19
  -3  -7  -5 2702.33  140.09
   3  -7   5 2605.14  140.69
   3   7   5 2855.31  141.89
  -3   7  -5 2771.92  139.89
   5  -7   5 2460.95  136.09
  -5  -7  -5 2755.22  134.19
   5   7   5 2502.85  136.59
  -5   7  -5 2600.64  133.69
  -7  -7  -5  678.63   38.10
   7  -7   5  676.23   41.70
  -7   7  -5  664.83   37.50
   7   7   5  651.43   42.90
  -9  -7  -5  783.72   45.20
   9  -7   5  734.53   50.29
   9   7   5  890.01   50.99
  -9   7  -5  776.02   45.90
 -10  -8   5  592.84   35.10
  10  -8  -5  487.35   41.90
 -10   8   5  534.25   34.20
  10   8  -5  567.54   35.40
  -8  -8   5 1324.07   70.39
   8  -8  -5 1217.68   70.29
   8   8  -5 1283.27   71.29
  -8   8   5 1303.77   68.99
  -6  -8   5  869.61   48.70
   6  -8  -5  862.41   48.30
   6   8  -5  865.61   48.30
  -6   8   5  883.81   47.40
   4  -8  -5 1103.09   58.79
   4  -8  -5 1176.28   60.49
   4   8  -5 1130.39   58.29
  -4   8   5 1150.68   59.99
   4   8  -5 1059.49   60.99
  -2  -8   5 2390.96  119.49
   2  -8  -5 2240.58  117.19
   2   8  -5 2306.97  119.29
  -2   8   5 2160.48  118.49
  -2   8   5 2224.18  118.39
   2   8  -5 2325.97  116.99
   0  -8  -5 1346.47   75.79
   0  -8  -5 1488.05   76.89
   0  -8   5 1430.26   78.79
   0   8   5 1535.05   77.99
   0   8  -5 1581.04   76.79
   0   8  -5 1452.95   77.69
   2  -8   5 1552.94   82.09
  -2  -8  -5 1492.65   81.09
   2  -8   5 1471.45   81.99
   2   8   5 1618.04   82.89
  -2   8  -5 1611.54   80.99
  -4  -8  -5 1585.84   81.99
   4  -8   5 1510.05   80.69
   4  -8   5 1510.25   83.39
  -4   8  -5 1555.64   81.49
   4   8   5 1597.64   84.49
   6  -8   5  785.42   45.40
  -6  -8  -5  758.02   42.30
  -6   8  -5  778.62   42.00
   6   8   5  698.03   45.00
   8  -8   5  838.72   52.69
   8   8   5  898.11   54.49
  -8   8  -5  834.02   47.60
   9  -9  -5 1963.90  112.79
  -9   9   5 2023.10  110.79
   9   9  -5 2303.77  114.39
  -7  -9   5 3096.49  158.18
   7   9  -5 3032.10  157.48
  -7   9   5 2902.51  156.28
  -5  -9   5 2169.78  109.79
   5  -9  -5 1968.10  108.79
   5   9  -5 2105.19  109.59
  -5   9   5 2027.70  107.99
  -3  -9   5 1960.20  100.39
   3  -9  -5 1866.21   98.09
   3   9  -5 1935.11   97.19
  -3   9   5 1851.41   99.19
   3   9  -5 1837.42  100.69
  -1  -9   5 1877.71   97.69
   1  -9  -5 1798.32   95.69
   1   9  -5 1884.71   97.39
  -1   9   5 1805.22   96.19
  -1   9   5 1828.02   96.89
   1  -9   5 1039.70   59.39
  -1  -9  -5 1090.39   57.99
  -1   9  -5 1084.79   58.79
   1   9   5 1116.29   60.99
  -1   9  -5 1093.79   57.49
   3  -9   5  942.21   50.69
  -3  -9  -5  939.01   50.99
   3  -9   5  914.01   52.09
   3   9   5  971.60   53.29
  -3   9  -5  928.71   50.39
  -5  -9  -5 1408.76   71.89
   5  -9   5 1320.57   73.69
  -5   9  -5 1297.87   70.99
   5   9   5 1294.77   74.69
  -7  -9  -5  952.00   53.79
   7  -9   5  953.70   57.29
   7   9   5 1001.10   57.79
  -7   9  -5  950.50   53.49
   9  -9   5 1427.96   89.79
  -8 -10   5  697.43   42.00
   8 -10  -5  630.34   42.20
  -8  10   5  679.13   42.60
   8  10  -5  715.03   40.30
  -6  10   5  687.23   40.50
   6  10  -5  763.42   42.10
   4 -10  -5 1115.39   58.79
  -4 -10   5 1114.19   59.29
  -4  10   5 1019.80   57.79
   4  10  -5 1022.40   59.49
  -2 -10   5  556.34   32.70
   2 -10  -5  553.14   31.10
  -2  10   5  584.34   32.70
   2  10  -5  583.24   33.60
   2  10  -5  552.84   29.90
  -2  10   5  508.85   31.90
   0  10  -5  838.22   46.50
   0  10   5  870.51   48.70
   0  10  -5  903.41   48.80
   2 -10   5  964.70   54.49
   2 -10   5  962.90   53.89
  -2 -10  -5  994.60   53.19
  -2  10  -5  973.00   53.69
   2  10   5  978.50   55.09
   4 -10   5  521.75   31.60
  -4 -10  -5  516.05   30.10
  -4  10  -5  509.65   29.50
   4  10   5  492.55   32.70
   6 -10   5  584.94   36.10
  -6 -10  -5  579.84   33.70
   6  10   5  507.95   36.30
  -6  10  -5  570.84   32.90
   8 -10   5  658.43   45.30
  -8 -10  -5  680.93   41.60
   8  10   5  795.52   45.90
  -8  10  -5  683.43   42.10
  -9 -11   5   63.69   13.30
   9  11  -5   67.69   12.50
  -7  11   5   31.50    6.00
   7  11  -5   45.60    8.00
  -5 -11   5  583.44   36.00
   5 -11  -5  649.83   36.70
  -5  11   5  579.94   35.00
   5  11  -5  623.64   36.80
  -3 -11   5  638.94   37.40
   3 -11  -5  657.63   36.30
  -3  11   5  639.54   36.90
   3  11  -5  620.54   38.40
  -1 -11   5 1042.60   58.39
   1 -11  -5 1070.19   57.19
   1  11  -5 1074.09   55.79
  -1  11   5 1040.90   58.59
   1  11  -5 1046.40   59.19
   1 -11   5 1412.96   77.39
  -1 -11  -5 1448.66   76.29
  -1  11  -5 1432.46   77.49
  -1  11  -5 1395.86   75.19
   1  11   5 1429.96   78.19
   3 -11   5 1164.38   66.99
  -3 -11  -5 1206.78   65.79
  -3  11  -5 1231.98   65.19
   3  11   5 1231.68   68.89
  -5 -11  -5  872.21   49.00
   5 -11   5  869.21   50.79
  -5  11  -5  879.21   48.30
   5  11   5  815.62   52.19
   7 -11   5  565.74   40.50
  -7 -11  -5  572.94   35.30
  -7  11  -5  568.54   34.40
   7  11   5  594.64   39.30
  -8 -12   5  376.26   28.90
  -8  12   5  327.47   23.50
   8  12  -5  385.66   24.80
   6 -12  -5  246.88   19.60
  -6 -12   5  213.68   16.80
   6  12  -5  234.78   17.40
  -6  12   5  232.98   16.50
  -4 -12   5  130.79   11.30
   4 -12  -5  135.19   11.50
   4  12  -5  131.89   12.40
  -4  12   5  120.09   10.90
   2 -12  -5  645.34   36.40
  -2 -12   5  631.84   37.10
   2  12  -5  639.24   38.70
  -2  12   5  651.53   36.30
  -2  12   5  581.04   37.50
   0 -12  -5  392.66   24.30
   0 -12   5  405.76   25.20
   0  12  -5  399.66   25.90
   0  12  -5  385.46   22.80
   0  12   5  376.06   25.60
   2 -12   5  332.57   21.90
   2 -12   5  322.07   22.70
  -2 -12  -5  381.36   27.80
   2  12   5  344.57   24.10
  -2  12  -5  320.17   20.70
   4 -12   5  626.14   39.60
  -4 -12  -5  660.03   38.40
   4  12   5  667.33   42.10
  -4  12  -5  631.94   37.40
  -6 -12  -5  106.49   10.90
   6 -12   5  133.99   13.10
   6  12   5   97.59   12.90
  -6  12  -5  105.99   11.40
   7  13  -5  295.97   20.70
  -7  13   5  267.17   20.00
   5 -13  -5  178.98   14.60
  -5 -13   5  176.28   14.20
  -5  13   5  168.08   14.20
   5  13  -5  182.58   16.90
   3 -13  -5  253.57   18.20
  -3 -13   5  266.87   18.20
   3  13  -5  222.98   18.80
  -1 -13   5  178.18   13.90
   1 -13  -5  182.38   13.80
  -1  13   5  175.98   14.90
   1  13  -5  160.98   19.20
  -1 -13  -5  284.37   19.50
   1 -13   5  281.17   19.50
   1  13   5  285.47   21.50
  -1  13  -5  276.47   18.00
   3 -13   5  267.97   20.60
   3  13   5  292.97   25.10
  -3  13  -5  276.87   18.80
   5 -13   5   92.49   12.90
  -5 -13  -5   80.79    9.50
   5  13   5   95.29   12.60
  -6  14   5  103.29   11.90
   6  14  -5   92.39   13.60
   4 -14  -5  128.99   16.60
   4  14  -5  135.39   13.10
   2  14  -5   56.59   10.50
  -2  14   5   49.90    9.20
   0 -14   5   22.70    5.80
   0 -14  -5   21.30    6.30
   0  14  -5   21.30    6.40
   0  14   5   39.30    8.90
  -2 -14  -5   27.90    7.00
   2  14   5    8.70    5.60
  -4 -14  -5   16.40    6.30
   4 -14   5   14.90    5.60
   4  14   5    6.30    5.60
  -4  14  -5   10.90   11.00
  -3 -15   5   51.49    7.10
   3 -15  -5   57.09    9.90
   3  15  -5   45.30    9.80
  -1 -15   5  170.38   16.90
   1  15  -5  154.48   16.50
  -1  15   5  125.19   13.80
  -1 -15  -5    5.40    5.70
   1 -15   5   13.50    9.30
   1  15   5    2.70    4.60
   3 -15   5   -0.60    7.30
  12   0  -6 1319.77   79.49
 -12   0   6 1497.25   76.39
  10   0  -6 3800.52  222.18
 -10   0   6 4372.76  211.88
   8   0  -6 1152.18   58.99
  -8   0   6  949.60   55.19
  -6   0   6 2469.85  131.59
  -6   0   6 2634.84  131.89
  -4   0   6 2429.06  118.19
  -4   0   6 2147.59  117.69
  -2   0   6 2682.73  132.39
   2   0  -6 2472.85  132.59
   0   0  -6 3873.41  175.88
   0   0   6 3008.80  175.68
   2   0   6 4198.78  197.08
   2   0   6 3557.34  196.88
  -2   0  -6 3812.72  196.58
   4   0   6  934.51   59.09
  -4   0  -6 1135.89   56.69
   4   0   6 1184.88   56.99
   6   0   6 3851.71  195.48
   6   0   6 3863.41  200.28
  -6   0  -6 3755.52  195.38
  -8   0  -6 2057.39  110.19
   8   0   6 2281.57  116.19
  -8   0  -6 2073.09  110.19
  10   0   6 2792.22  149.79
  11  -1  -6  707.73   45.30
 -11  -1   6  774.92   41.70
  11   1  -6  671.83   44.30
 -11   1   6  793.32   42.00
  -9  -1   6 1212.98   60.69
  -9  -1   6 1141.89   61.09
   9  -1  -6 1111.99   63.79
   9   1  -6 1050.79   63.89
  -9   1   6 1158.88   61.09
  -7  -1   6 2103.39  109.69
   7  -1  -6 2172.28  111.39
  -7  -1   6 2030.70  109.59
  -7   1   6 2070.79  109.59
   7   1  -6 2174.98  112.09
   5  -1  -6 1752.32   79.99
  -5  -1   6 1429.06   79.39
  -5  -1   6 1431.86   79.99
  -5   1   6 1288.17   78.39
  -5   1   6 1482.45   79.29
   5   1  -6 1744.73   80.79
   3  -1  -6 3398.66  156.38
  -3  -1   6 3332.57  156.68
  -3  -1   6 2562.54  156.78
   3   1  -6 3132.49  156.68
  -3   1   6 2859.21  156.98
   1  -1  -6 2425.96  117.09
  -1  -1   6 2153.98  118.39
   1  -1  -6 2056.29  118.49
   1   1  -6 2573.34  118.79
  -1  -1  -6 1351.16   71.49
   1  -1   6 1363.26   71.19
   1  -1   6 1445.46   72.29
   1   1   6 1402.96   71.09
   1   1   6 1384.86   71.99
   3  -1   6 2297.57  112.99
   3  -1   6 2026.10  114.49
  -3  -1  -6 2276.97  112.39
   3   1   6 2129.59  113.49
  -3   1  -6 2236.48  112.69
  -5  -1  -6 1346.87   69.49
   5  -1   6 1427.66   69.79
   5  -1   6 1155.18   72.99
   5   1   6 1281.87   72.59
  -5   1  -6 1361.26   69.79
   5   1   6 1459.65   69.99
  -7  -1  -6 1186.28   63.19
   7  -1   6 1069.89   67.49
  -7  -1  -6 1222.88   62.79
   7   1   6 1304.17   67.49
  -7   1  -6 1187.28   62.79
  -7   1  -6 1202.08   62.39
   9  -1   6 1189.88   67.69
  -9  -1  -6 1145.69   60.99
  -9  -1  -6 1077.69   64.49
   9   1   6 1263.77   66.49
  -9   1  -6 1120.09   61.39
  12  -2  -6  519.15   36.60
  12   2  -6  548.05   35.00
 -12   2   6  618.64   33.90
  10  -2  -6 1096.69   63.99
 -10  -2   6 1136.99   60.29
  -8  -2   6 1236.58   66.69
  -8  -2   6 1345.17   66.89
   8  -2  -6 1193.78   68.49
   8   2  -6 1252.07   69.49
  -8   2   6 1256.07   66.79
   6  -2  -6 2746.83  144.79
  -6  -2   6 2789.62  143.99
   6   2  -6 2863.61  145.89
  -6   2   6 2779.72  144.09
  -4  -2   6 2699.43  124.89
  -4  -2   6 2153.58  125.39
   4  -2  -6 2531.25  124.89
  -4   2   6 2158.68  125.99
   4   2  -6 2589.54  125.59
   2  -2  -6 4530.05  204.88
  -2  -2   6 3976.60  206.18
   2   2  -6 4172.38  204.78
  -2   2   6 3710.53  205.18
   2   2  -6 3721.63  205.78
   0  -2   6 3359.46  194.08
   0  -2  -6 4244.68  193.98
   0   2  -6 3909.11  193.88
   0   2   6 3910.21  192.98
   0   2   6 3556.44  193.68
  -2  -2  -6 2203.48  113.09
   2  -2   6 2269.57  114.29
   2  -2   6 2172.88  113.99
   2   2   6 2278.57  113.59
  -2   2  -6 2208.98  113.69
   2   2   6 2143.79  113.69
  -4  -2  -6 1587.94   79.69
   4  -2   6 1537.85   82.59
   4  -2   6 1550.84   80.09
   4   2   6 1563.04   80.29
  -4   2  -6 1500.15   80.09
  -6  -2  -6 1329.47   68.69
   6  -2   6 1394.66   68.89
  -6  -2  -6 1347.07   69.49
   6  -2   6 1258.37   73.49
   6   2   6 1289.77   72.29
  -6   2  -6 1329.47   69.39
  -8  -2  -6  356.86   20.80
  -8  -2  -6  360.96   20.10
   8  -2   6  327.57   25.80
  -8   2  -6  356.36   20.80
   8   2   6  385.56   24.50
  10  -2   6 1129.89   67.29
 -10   2  -6 1044.20   60.29
  10   2   6 1223.38   64.99
  11  -3  -6  714.83   44.40
  -9  -3   6 1332.37   70.59
  -9  -3   6 1401.46   70.79
   9  -3  -6 1260.27   73.09
   9   3  -6 1354.86   73.09
  -9   3   6 1297.67   70.99
  -7  -3   6 1452.55   72.69
  -7  -3   6 1388.56   73.19
   7  -3  -6 1352.96   73.99
  -7   3   6 1311.87   76.09
   7   3  -6 1403.46   74.49
  -5  -3   6 1670.23   81.79
   5  -3  -6 1565.54   82.29
  -5  -3   6 1538.35   82.69
   5   3  -6 1568.54   82.59
  -5   3   6 1542.05   82.39
   3  -3  -6 2278.07  108.19
  -3  -3   6 2042.60  109.39
   3   3  -6 2098.49  108.69
  -3   3   6 2086.29  109.19
  -3   3   6 1955.00  107.89
   3   3  -6 2171.58  108.29
  -1  -3   6 1614.34   85.49
  -1   3   6 1629.04   83.89
   1   3  -6 1710.13   84.89
   1   3  -6 1632.64   83.49
  -1   3   6 1592.64   84.29
  -1  -3  -6 2383.86  115.59
   1  -3   6 2140.19  116.59
   1  -3   6 2207.38  115.69
   1   3   6 2237.88  116.09
   1   3   6 2271.27  115.69
  -1   3  -6 2319.07  116.19
   3  -3   6 1909.41   95.29
  -3  -3  -6 1864.91   94.19
   3  -3   6 1834.02   96.09
  -3   3  -6 1788.12   94.99
   3   3   6 1840.02   95.09
   3   3   6 1808.32   95.59
   5  -3   6 1241.48   67.89
  -5  -3  -6 1279.27   63.99
  -5  -3  -6 1274.27   64.99
   5  -3   6 1327.97   65.09
   5   3   6 1066.99   66.39
  -5   3  -6 1232.68   64.89
  -7  -3  -6 1105.59   57.89
   7  -3   6 1039.10   62.59
  -7  -3  -6 1116.69   56.79
  -7   3  -6 1035.80   57.69
   7   3   6 1150.88   61.39
   9  -3   6  646.84   46.00
  -9  -3  -6  709.43   40.70
   9   3   6  803.92   44.30
  -9   3  -6  743.23   40.20
  10  -4  -6  608.74   40.10
 -10  -4   6  691.73   37.50
 -10   4   6  677.43   38.10
  10   4  -6  686.33   39.40
  -8  -4   6  833.72   43.30
   8  -4  -6  754.02   45.40
  -8  -4   6  825.92   44.40
   8   4  -6  812.52   45.40
  -8   4   6  814.22   44.30
  -6  -4   6 1131.69   60.29
   6  -4  -6 1120.99   60.29
  -6   4   6 1140.59   59.99
   6   4  -6 1123.09   60.29
  -4  -4   6 1117.09   58.29
   4   4  -6 1089.49   57.39
  -4   4   6 1153.88   57.99
  -4   4   6 1012.60   56.29
   4   4  -6 1090.99   57.19
  -2  -4   6  366.06   22.40
  -2   4   6  435.86   21.20
  -2   4   6  385.26   21.10
  -2   4   6  322.27   21.80
   2   4  -6  407.46   21.20
   2   4  -6  389.26   21.70
   0  -4  -6  216.48   12.20
   0  -4   6  206.68   13.20
   0   4   6  212.08   12.20
   0   4   6  206.28   11.90
   0   4  -6  191.98   11.50
   0   4  -6  219.88   12.40
   2  -4   6  911.41   47.80
  -2  -4  -6  896.91   46.40
   2  -4   6  908.91   47.70
  -2   4  -6  897.71   47.40
   2   4   6  901.91   47.60
   2   4   6  877.91   47.30
   4  -4   6 1557.44   88.29
  -4  -4  -6 1702.13   83.89
  -4  -4  -6 1691.33   85.29
   4  -4   6 1663.43   84.79
   4   4   6 1586.14   86.29
  -4   4  -6 1615.54   85.09
   6  -4   6 1339.77   73.49
   6  -4   6 1376.16   68.59
  -6  -4  -6 1382.76   68.19
  -6  -4  -6 1334.37   69.69
   6   4   6 1220.18   71.89
  -6   4  -6 1267.07   69.39
  -8  -4  -6  862.61   47.40
   8  -4   6  844.22   53.09
   8   4   6  909.51   53.09
  -8   4  -6  870.81   47.40
  10  -4   6  216.28   34.80
  10   4   6  203.38   16.00
 -10   4  -6  157.38   12.40
  11  -5  -6  315.77   29.20
 -11   5   6  301.47   26.20
  11   5  -6  353.66   22.40
  -9  -5   6  549.54   31.50
   9  -5  -6  510.75   33.00
   9   5  -6  582.24   30.20
   9   5  -6  535.45   32.30
  -7  -5   6 1291.57   70.29
   7  -5  -6 1344.07   70.89
   7   5  -6 1240.38   71.39
   7   5  -6 1388.16   68.89
  -7   5   6 1326.07   69.99
   5  -5  -6  597.44   31.20
  -5  -5   6  543.75   31.40
   5  -5  -6  528.55   29.00
   5   5  -6  528.75   30.80
  -5   5   6  595.04   31.20
   5   5  -6  567.84   30.10
  -3  -5   6 1116.29   57.19
   3   5  -6 1080.69   56.29
   3   5  -6 1014.80   55.79
  -3   5   6 1077.39   55.19
  -3   5   6 1023.90   56.69
  -1  -5   6 1356.96   73.09
  -1   5   6 1382.06   71.39
  -1   5   6 1382.96   71.39
   1   5  -6 1462.25   71.99
  -1   5   6 1246.68   71.79
   1   5  -6 1421.16   71.39
   1  -5   6  839.92   46.00
  -1  -5  -6  861.61   43.10
   1  -5   6  820.62   44.00
  -1   5  -6  821.42   44.00
   1   5   6  828.02   43.90
   1   5   6  801.32   43.90
  -3  -5  -6 1126.49   58.69
  -3  -5  -6 1130.69   57.19
   3  -5   6 1146.59   59.69
   3  -5   6 1158.68   59.49
  -3   5  -6 1042.30   58.49
   3   5   6 1080.19   59.29
   5  -5   6  772.12   42.00
  -5  -5  -6  751.52   39.20
  -5  -5  -6  750.22   37.40
  -5   5  -6  691.63   38.90
   5   5   6  627.04   40.50
  -7  -5  -6  341.47   20.50
   7  -5   6  369.26   25.10
  -7   5  -6  327.07   20.30
   7   5   6  341.07   23.20
   9  -5   6  479.45   36.10
  -9  -5  -6  512.95   30.00
   9   5   6  534.95   35.60
  -9   5  -6  519.95   29.80
 -10  -6   6  101.79    9.20
  10  -6  -6   84.89   11.00
  10   6  -6   82.29    8.60
   8  -6  -6   41.20    7.10
  -8  -6   6   39.40    5.00
  -8   6   6   38.10    6.00
   8   6  -6   41.60    3.90
   8   6  -6   34.50    4.90
  -6  -6   6  176.08   13.80
  -6   6   6  214.58   13.10
   6   6  -6  214.38   11.80
   6   6  -6  186.08   12.90
  -4  -6   6  219.88   14.30
   4  -6  -6  231.38   13.60
   4  -6  -6  225.58   12.30
   4   6  -6  224.18   13.00
   4   6  -6  204.08   13.80
  -4   6   6  212.28   13.80
  -2  -6   6  145.89   11.10
  -2   6   6  166.08   10.40
  -2   6   6  135.79   10.80
   2   6  -6  191.18   10.70
   2   6  -6  170.18   10.70
   0  -6   6   66.29    6.40
   0   6   6   64.89    5.30
   0   6  -6   75.99    5.50
   0   6  -6   67.29    5.20
   2  -6   6   18.10    3.80
  -2  -6  -6   23.00    2.90
   2  -6   6   25.20    3.30
  -2   6  -6   27.00    3.00
   4  -6   6   49.90    4.20
   4  -6   6   49.60    5.80
  -4  -6  -6   36.20    4.50
   4   6   6   44.80    5.20
  -4   6  -6   44.90    4.40
   6  -6   6   17.70    5.70
  -6  -6  -6   13.20    3.40
  -6   6  -6   17.00    3.40
   6   6   6   12.30    4.00
   8  -6   6  340.87   25.90
  -8  -6  -6  327.97   20.70
  -8   6  -6  321.27   20.40
   8   6   6  343.77   23.70
 -10  -6  -6   58.09   10.20
  11  -7  -6   38.90   12.10
 -11  -7   6   60.89    8.90
  11   7  -6   44.60    7.80
   9  -7  -6   28.30    6.80
   9   7  -6   29.70    5.90
  -9   7   6   40.60    6.70
   7  -7  -6   11.90    3.90
  -7  -7   6    7.30    3.20
  -7   7   6    4.20    2.40
   7   7  -6    8.80    3.40
   7   7  -6   17.80    3.90
   5  -7  -6   99.89    7.70
  -5  -7   6   78.19    8.30
   5   7  -6  101.69    6.60
  -5   7   6   93.59    7.60
   5   7  -6   98.59    7.80
  -3  -7   6    3.90    2.40
   3  -7  -6    8.20    2.30
   3  -7  -6   12.40    2.20
  -3   7   6   12.90    3.50
   3   7  -6   22.40    4.40
   3   7  -6   15.30    2.90
   1  -7  -6    4.40    1.60
  -1  -7   6   10.10    3.20
  -1   7   6   10.90    2.40
   1   7  -6    7.50    2.30
  -1   7   6   11.60    2.70
  -1  -7  -6  249.38   13.00
   1  -7   6  242.18   14.90
  -1  -7  -6  225.18   14.20
   1  -7   6  238.58   15.80
   1   7   6  233.28   14.80
  -1   7  -6  239.08   14.40
  -3  -7  -6   71.69    8.20
   3  -7   6   74.69    5.90
   3   7   6   66.99    6.50
  -3   7  -6   57.89    5.40
  -5  -7  -6   39.40    4.60
   5  -7   6   65.59    8.20
   5   7   6   49.90    8.20
  -5   7  -6   39.40    4.50
  -7  -7  -6   33.40    5.70
   7  -7   6   40.90    9.40
  -7   7  -6   42.50    6.30
   7   7   6   38.90    8.20
  -9  -7  -6    9.20    6.10
   9  -7   6    0.40    7.60
  -9   7  -6   15.40    4.30
   9   7   6    7.90    5.00
  10  -8  -6   11.00    5.40
 -10  -8   6   14.30    5.20
 -10   8   6   20.10    5.40
  10   8  -6   21.90    6.50
   8  -8  -6  201.08   14.80
  -8   8   6  192.78   13.80
   8   8  -6  193.08   15.00
  -6  -8   6  149.09   11.30
   6  -8  -6  150.48   11.00
  -6   8   6  138.99   10.50
   6   8  -6  146.09   10.90
  -4  -8   6 1117.89   58.59
   4  -8  -6 1058.39   56.09
   4  -8  -6 1046.50   61.29
   4   8  -6 1130.19   56.29
  -4   8   6 1039.50   57.79
   4   8  -6 1040.60   58.29
  -2  -8   6  276.17   18.00
   2  -8  -6  286.77   16.30
  -2   8   6  289.57   17.30
   2   8  -6  293.17   17.90
   2   8  -6  279.97   16.40
  -2   8   6  260.47   17.70
   0  -8  -6 1114.59   57.49
   0  -8  -6 1077.99   58.29
   0  -8   6 1076.99   60.39
   0   8  -6 1155.48   58.59
   0   8  -6 1127.89   59.19
   0   8   6 1072.49   59.09
   2  -8   6   34.90    4.50
  -2  -8  -6   31.50    3.80
   2  -8   6   34.50    4.40
   2   8   6   40.70    4.70
  -2   8  -6   49.10    4.40
  -4  -8  -6  228.18   14.60
   4  -8   6  222.68   13.80
   4  -8   6  222.78   16.20
   4   8   6  234.38   16.40
  -4   8  -6  227.58   14.40
   6  -8   6   47.30    9.10
  -6  -8  -6   42.20    7.10
   6   8   6   50.69    9.50
  -6   8  -6   35.20    4.60
  -8  -8  -6   37.30    5.40
   8  -8   6   27.80   11.00
   8   8   6   60.29   10.80
   9  -9  -6  295.57   21.10
  -9  -9   6  286.47   21.30
   9   9  -6  299.37   21.50
  -9   9   6  312.87   20.10
   7  -9  -6  415.96   27.30
   7   9  -6  414.06   25.40
   5  -9  -6  262.87   16.70
  -5  -9   6  245.48   16.90
   5   9  -6  257.67   17.00
  -5   9   6  243.58   16.30
   3  -9  -6  594.24   33.00
  -3  -9   6  626.34   35.20
  -3   9   6  604.74   34.90
   3   9  -6  605.64   32.70
   3   9  -6  604.84   35.40
  -1  -9   6  492.35   30.70
   1  -9  -6  504.25   27.80
   1   9  -6  482.35   27.60
  -1   9   6  486.45   29.60
   1   9  -6  517.15   29.20
   1  -9   6  733.73   42.50
  -1  -9  -6  754.82   40.80
   1   9   6  717.33   41.80
  -1   9  -6  775.92   40.80
   3  -9   6  930.01   50.79
  -3  -9  -6  917.61   50.89
   3  -9   6  934.71   52.29
  -3   9  -6  923.71   50.69
   3   9   6  977.30   52.99
   5  -9   6  227.18   16.40
  -5   9  -6  189.18   13.70
   5   9   6  187.48   15.80
  -7  -9  -6  309.87   20.30
   7  -9   6  294.27   23.60
  -7   9  -6  305.77   19.80
   8 -10  -6  422.26   28.20
  -8  10   6  444.26   32.60
   8  10  -6  468.45   27.90
   6 -10  -6  867.41   51.59
  -6 -10   6  883.21   50.49
  -6  10   6  883.51   49.60
   6  10  -6  937.91   50.39
  -4 -10   6  437.06   25.00
   4 -10  -6  417.96   24.40
   4  10  -6  377.46   24.80
  -4  10   6  344.47   23.80
  -2 -10   6   39.20    5.30
   2 -10  -6   37.00    4.30
   2  10  -6   48.90    4.40
  -2  10   6   45.70    6.70
  -2  10   6   42.30    5.00
   2  10  -6   42.80    5.50
   0 -10   6  103.09    9.70
   0 -10  -6  116.19    8.80
   0  10  -6  124.89    8.60
   0  10   6  115.89    9.50
   0  10  -6  114.39    9.60
   2 -10   6  570.44   34.10
   2 -10   6  538.35   32.80
  -2 -10  -6  543.95   31.50
  -2  10  -6  542.95   31.10
   2  10   6  548.55   33.10
   4 -10   6 1200.98   65.99
  -4 -10  -6 1171.38   69.39
   4  10   6 1197.08   66.79
  -4  10  -6 1141.79   63.59
  -6 -10  -6  897.71   56.89
   6 -10   6  914.41   53.59
   6  10   6  847.12   53.49
  -6  10  -6  912.21   54.49
   8 -10   6  415.16   31.50
   9  11  -6 1128.89   70.49
   7 -11  -6 1396.66   78.29
  -7 -11   6 1385.66   76.09
  -7  11   6 1349.47   75.39
   7  11  -6 1412.56   75.89
   5 -11  -6 1086.69   58.69
  -5 -11   6 1074.39   58.69
   5  11  -6 1039.80   58.89
  -5  11   6 1006.80   58.09
  -3 -11   6 1618.24   84.99
   3 -11  -6 1588.94   83.29
   3  11  -6 1510.55   85.59
   1 -11  -6 1414.46   74.79
  -1 -11   6 1406.06   76.39
   1  11  -6 1362.96   73.69
   1  11  -6 1431.36   76.79
  -1  11   6 1404.56   76.19
   1 -11   6 1099.09   63.09
   1 -11   6 1146.19   63.39
  -1 -11  -6 1173.58   61.99
  -1  11  -6 1093.79   61.09
   1  11   6 1190.98   63.69
   3 -11   6 1196.58   68.29
  -3 -11  -6 1262.77   66.99
  -3  11  -6 1226.18   66.49
   5 -11   6 1009.30   59.19
  -5  11  -6 1085.69   56.89
   5  11   6  957.50   59.89
   7 -11   6  730.53   47.80
  -7  11  -6  714.63   46.60
   7  11   6  694.33   48.40
   8  12  -6  302.17   20.40
  -8  12   6  269.67   20.50
  -6 -12   6 1369.06   76.49
   6 -12  -6 1409.46   77.19
  -6  12   6 1372.36   76.49
   6  12  -6 1438.26   76.89
  -4 -12   6  846.62   48.50
   4 -12  -6  897.71   48.90
  -4  12   6  845.52   48.70
   4  12  -6  807.12   49.40
   2 -12  -6 1609.34   83.89
  -2 -12   6 1618.74   90.49
   2  12  -6 1504.75   85.79
  -2  12   6 1536.85   91.99
   0 -12  -6 1077.39   58.79
   0 -12   6 1087.09   59.99
   0  12  -6 1063.59   60.39
   0  12  -6 1050.69   58.79
  -2 -12  -6 1022.80   55.49
   2 -12   6 1037.30   56.09
   2 -12   6  951.10   56.39
   2  12   6 1001.80   57.59
  -2  12  -6  953.40   54.49
  -4 -12  -6  374.96   25.60
   4 -12   6  393.66   26.70
  -4  12  -6  395.66   24.70
  -6 -12  -6  811.82   51.69
  -6  12  -6  786.92   45.30
   6  12   6  731.23   49.00
   7  13  -6 1119.79   62.89
  -7  13   6 1111.09   63.29
  -5 -13   6  986.80   56.79
   5 -13  -6  976.50   57.19
  -5  13   6  974.90   57.19
   5  13  -6 1119.39   67.09
   3 -13  -6 1360.66   74.69
  -3 -13   6 1393.16   74.39
   3  13  -6 1302.77   75.49
   1 -13  -6 1214.18   65.49
  -1 -13   6 1192.78   65.79
  -1  13   6 1147.09   66.59
  -1 -13  -6 1208.28   65.59
   1 -13   6 1072.49   65.99
  -1  13  -6 1241.08   64.19
   1  13   6 1200.98   67.49
  -3 -13  -6 1901.01   99.19
   3 -13   6 1737.43   99.99
   3  13   6 1897.91  102.39
  -3  13  -6 1792.42   98.09
   5 -13   6  766.92   51.29
  -5  13  -6  841.52   46.90
   5  13   6  765.42   57.09
  -6  14   6  814.32   49.80
   4 -14  -6  568.04   35.00
  -4 -14   6  573.94   34.50
   4  14  -6  547.85   35.30
  -2 -14   6  753.82   43.20
  -2  14   6  752.72   44.60
   2  14  -6  692.63   44.40
   0 -14   6 1266.27   64.09
   0 -14  -6 1073.19   63.79
   0  14   6 1063.49   65.19
   2 -14   6 1009.80   62.09
  -2 -14  -6 1161.68   69.09
   2  14   6 1085.29   66.69
   4 -14   6  384.26   28.60
  -4  14  -6  444.56   27.70
   3  15  -6  953.60   56.09
  -1 -15   6  886.11   50.59
  -1  15   6  868.81   52.99
  -1 -15  -6  466.05   28.70
   1 -15   6  364.66   27.30
  12   0  -7    6.00    4.50
 -12   0   7    7.30    4.30
 -10   0   7   10.60    3.50
   8   0  -7   12.60    4.10
  -8   0   7    8.00    2.80
  -8   0   7    5.60    2.50
   6   0  -7    9.00    3.20
  -6   0   7    3.90    2.00
  -6   0   7    4.00    1.80
  -4   0   7   13.80    2.60
   4   0  -7   10.80    2.40
  -4   0   7    6.50    2.10
  -2   0   7   14.70    2.10
   2   0  -7   14.00    2.80
   2   0  -7   17.90    1.60
   0   0   7   13.10    2.50
   0   0  -7   17.70    2.20
   2   0   7   16.10    4.50
   2   0   7   18.70    1.80
   4   0   7   17.10    2.80
   4   0   7    9.20    3.10
  -4   0  -7    6.50    1.70
   6   0   7    2.60    3.20
   6   0   7    4.60    1.70
  -8   0  -7    5.90    2.50
  -8   0  -7    2.70    1.80
   8   0   7    8.70    4.50
 -11  -1   7   45.70    5.90
  11  -1  -7   73.19   12.20
 -11   1   7   58.89    6.60
  11   1  -7   59.19   10.20
  -9  -1   7   35.00    5.70
   9  -1  -7   35.90    7.30
  -9  -1   7   25.10    4.70
  -9   1   7   27.30    5.10
   9   1  -7   31.50    7.20
   7  -1  -7   25.90    5.10
  -7  -1   7   28.30    4.50
  -7  -1   7   26.50    4.60
  -7   1   7   22.50    3.90
   7   1  -7   31.70    5.90
  -7   1   7   19.60    2.80
   5  -1  -7   30.10    3.50
  -5  -1   7   24.00    3.40
  -5  -1   7   32.70    3.50
  -5   1   7   29.10    3.10
  -5   1   7   27.50    3.40
   5   1  -7   44.20    4.60
  -3  -1   7  234.88   14.80
   3  -1  -7  289.07   14.10
   3   1  -7  237.98   14.10
  -3   1   7  247.28   14.40
   3   1  -7  220.38   14.60
  -3   1   7  250.67   14.70
   1  -1  -7  820.72   41.80
  -1  -1   7  811.72   43.50
   1  -1  -7  763.12   43.50
  -1   1   7  867.21   43.40
   1  -1   7 1355.66   78.99
   1  -1   7 1649.44   80.99
  -1  -1  -7 1705.33   80.29
  -1   1  -7 1600.54   80.49
   1   1   7 1572.94   80.69
   1   1   7 1450.45   79.29
   3  -1   7  163.98   10.40
   3  -1   7  179.38   11.60
  -3  -1  -7  159.98    9.70
   3   1   7  175.88   10.40
   3   1   7  161.78   10.20
  -3   1  -7  156.88   10.00
   5  -1   7  256.47   14.20
  -5  -1  -7  232.58   13.70
   5  -1   7  237.08   17.20
   5   1   7  256.47   14.30
   5   1   7  206.48   15.60
  -5   1  -7  243.28   14.10
  -7  -1  -7  178.98   11.60
  -7  -1  -7  182.08   11.20
   7  -1   7  188.38   15.60
  -7   1  -7  191.08   11.60
   7   1   7  189.68   14.70
   9  -1   7  165.78   15.90
  -9  -1  -7  185.88   11.50
  -9   1  -7  176.38   11.80
   9   1   7  182.58   15.10
  12  -2  -7  446.36   30.80
 -12   2   7  459.75   28.00
  12   2  -7  443.76   28.90
 -10  -2   7  483.75   28.10
  10  -2  -7  472.65   30.80
 -10   2   7  495.45   28.80
   8  -2  -7  778.12   45.30
  -8  -2   7  807.42   43.90
  -8  -2   7  844.42   44.20
   8   2  -7  794.22   46.00
  -8   2   7  793.82   44.20
  -6  -2   7  969.50   49.50
   6  -2  -7  948.11   49.30
  -6  -2   7  893.71   48.50
  -6   2   7  788.62   47.50
   6   2  -7  936.11   50.09
  -6   2   7  938.21   49.20
  -4  -2   7  769.42   43.80
   4  -2  -7  901.81   42.90
   4   2  -7  816.52   43.90
  -4   2   7  797.32   42.60
   4   2  -7  816.72   43.00
  -4   2   7  734.33   43.50
  -2  -2   7 1894.51   97.99
   2  -2  -7 2020.70   96.29
  -2   2   7 1950.20   97.59
  -2   2   7 1828.12   97.09
   2   2  -7 1836.42   95.99
   2   2  -7 1754.82   97.49
   0  -2  -7 1176.18   59.09
   0  -2   7 1150.18   59.79
   0   2   7 1109.59   59.19
   0   2   7 1066.89   57.99
   0   2  -7 1158.58   59.29
  -2  -2  -7 1324.47   67.79
   2  -2   7 1339.47   68.79
  -2   2  -7 1340.37   68.39
   2   2   7 1213.38   67.69
   2   2   7 1348.07   68.49
   4  -2   7  792.02   48.20
  -4  -2  -7  918.91   45.50
   4  -2   7  953.20   46.30
  -4   2  -7  897.51   46.20
   4   2   7  766.32   46.60
   4   2   7  885.71   46.20
  -6  -2  -7  361.86   23.20
  -6  -2  -7  364.76   19.50
   6  -2   7  337.67   24.00
   6  -2   7  389.86   20.00
  -6   2  -7  365.56   20.20
   6   2   7  284.37   21.70
   8  -2   7  514.35   37.30
  -8  -2  -7  609.44   32.00
  -8  -2  -7  590.54   32.60
  -8   2  -7  587.84   33.50
   8   2   7  631.34   36.40
  10  -2   7  372.86   36.90
 -10   2  -7  341.67   21.80
  10   2   7  395.96   25.70
  11  -3  -7  940.61   57.19
 -11   3   7 1027.00   54.99
  -9  -3   7 1583.94   77.99
  -9  -3   7 1470.65   77.19
   9  -3  -7 1355.26   79.49
   9   3  -7 1475.75   79.49
  -9   3   7 1437.06   78.19
   7  -3  -7 1599.34   85.29
  -7  -3   7 1633.34   83.99
  -7  -3   7 1579.94   84.79
  -7   3   7 1587.34   84.79
   7   3  -7 1647.84   85.59
  -5  -3   7  970.40   51.59
   5  -3  -7 1017.10   50.89
  -5   3   7  971.40   51.39
   5   3  -7  983.70   50.79
   5   3  -7  975.30   50.59
  -5   3   7  821.42   49.60
  -3  -3   7   25.90    3.40
   3  -3  -7   34.10    2.70
   3   3  -7   25.80    3.90
   3   3  -7   21.50    2.50
  -3   3   7   35.60    3.00
  -1  -3   7  408.56   22.70
   1  -3  -7  361.26   21.90
  -1   3   7  403.86   21.70
   1   3  -7  376.76   20.30
   1   3  -7  417.06   22.20
  -1   3   7  381.66   20.80
  -1  -3  -7 1076.89   53.29
   1  -3   7 1057.89   53.19
   1  -3   7  992.00   55.19
   1   3   7  988.50   53.09
   1   3   7 1037.70   53.89
  -1   3  -7  990.30   53.89
  -3  -3  -7  751.22   38.10
   3  -3   7  748.43   40.10
   3  -3   7  778.72   39.30
  -3   3  -7  720.93   38.90
   3   3   7  643.54   38.80
   3   3   7  724.63   38.90
  -5  -3  -7  705.13   35.90
   5  -3   7  668.53   39.80
   5  -3   7  753.42   36.70
  -5   3  -7  699.93   36.90
   5   3   7  570.04   37.80
  -7  -3  -7  392.96   22.10
   7  -3   7  361.66   26.50
  -7  -3  -7  383.96   21.10
   7   3   7  374.36   24.60
  -7   3  -7  385.26   22.00
   9  -3   7  471.05   34.90
  -9  -3  -7  509.15   29.30
  -9   3  -7  501.35   29.30
   9   3   7  555.04   33.00
  10  -4  -7 1041.70   63.09
 -10  -4   7 1197.08   60.89
 -10   4   7 1144.39   61.69
  10   4  -7 1107.99   62.09
   8  -4  -7 1837.92  101.49
   8   4  -7 1981.30  101.19
  -8   4   7 1922.41  100.69
   6  -4  -7 1580.84   81.49
  -6  -4   7 1559.74   81.69
  -6   4   7 1561.64   81.59
   6   4  -7 1545.95   80.49
   6   4  -7 1486.45   80.99
  -4  -4   7 1867.11   91.89
   4  -4  -7 1849.52   91.39
   4   4  -7 1807.22   90.59
   4   4  -7 1816.82   90.49
  -4   4   7 1542.55   89.69
  -4   4   7 1592.54   91.29
  -2  -4   7 2296.37  124.99
   2   4  -7 2501.25  123.19
  -2   4   7 2297.27  123.39
   2   4  -7 2443.26  124.19
  -2   4   7 2476.75  124.59
   0  -4   7 2032.20  104.49
   0  -4   7 2042.00  106.49
   0  -4  -7 1996.20  105.09
   0   4  -7 2054.49  105.69
   0   4   7 2081.39  104.69
   0   4   7 2028.10  105.29
  -2  -4  -7 2323.47  116.79
   2  -4   7 2207.68  117.79
   2  -4   7 2248.97  118.29
  -2   4  -7 2304.57  117.89
   2   4   7 2344.67  117.69
   2   4   7 2269.07  117.79
   4  -4   7 1764.52   87.19
   4  -4   7 1659.03   90.89
  -4  -4  -7 1815.42   86.09
   4   4   7 1551.04   87.79
   4   4   7 1606.54   87.09
  -4   4  -7 1651.13   87.29
  -6  -4  -7 1412.16   73.39
   6  -4   7 1344.97   77.09
  -6  -4  -7 1415.66   71.79
   6  -4   7 1524.35   72.69
  -6   4  -7 1364.46   73.29
   6   4   7 1273.97   75.19
   8  -4   7  820.22   54.69
  -8  -4  -7  936.11   54.19
  -8   4  -7  880.31   49.30
   8   4   7  995.60   53.19
  10  -4   7  648.34   46.50
  10   4   7  805.12   50.89
 -11   5   7  376.96   24.60
  11   5  -7  304.47   21.70
  -9  -5   7  739.83   40.00
   9  -5  -7  662.93   42.60
   9   5  -7  713.03   40.40
  -9   5   7  716.73   40.30
  -7  -5   7  517.55   32.30
   7  -5  -7  572.84   31.70
   7   5  -7  569.14   30.00
   7   5  -7  517.55   31.00
  -7   5   7  564.14   31.40
  -5  -5   7 2042.90  106.19
   5  -5  -7 2015.10  105.39
   5   5  -7 2061.29  104.79
   5   5  -7 1948.01  105.19
  -5   5   7 2082.89  106.19
  -3  -5   7 1536.15   80.29
   3  -5  -7 1597.04   78.89
  -3   5   7 1451.05   78.39
  -3   5   7 1465.65   80.19
   3   5  -7 1511.05   79.09
   3   5  -7 1534.05   79.09
  -1  -5   7 3804.62  201.88
   1  -5  -7 3688.33  200.48
   1   5  -7 4048.80  200.98
   1   5  -7 4053.69  199.68
  -1   5   7 3873.31  200.08
  -1   5   7 3998.90  199.88
   1  -5   7 2104.49  121.19
   1  -5   7 2250.47  120.19
  -1  -5  -7 2534.85  119.59
  -1   5  -7 2357.66  120.69
   1   5   7 2450.65  120.39
   1   5   7 2303.07  120.39
   3  -5   7 1903.51  102.89
  -3  -5  -7 1993.50  100.59
   3  -5   7 2000.30  102.19
   3   5   7 2001.50  102.49
  -3   5  -7 1931.11  102.09
  -5  -5  -7 1310.67   67.89
   5  -5   7 1404.56   67.29
   5  -5   7 1313.67   70.59
   5   5   7 1179.38   70.49
  -5   5  -7 1194.98   67.59
  -7  -5  -7  723.73   39.50
   7  -5   7  743.53   44.50
  -7   5  -7  707.33   39.40
   7   5   7  677.33   41.90
  -9  -5  -7  125.09   10.50
   9  -5   7  156.58   31.90
   9   5   7  154.08   13.50
  -9   5  -7  121.79   10.50
 -10  -6   7  813.22   45.90
 -10   6   7  853.61   46.90
  10   6  -7  800.92   46.50
  -8  -6   7 1696.13   91.49
   8  -6  -7 1622.24   92.09
  -8   6   7 1748.63   91.69
   8   6  -7 1693.33   91.39
   8   6  -7 1868.31   89.69
  -6  -6   7 1873.71   99.99
   6  -6  -7 1842.92  100.69
  -6   6   7 1934.31   99.99
   6   6  -7 1860.81   99.29
   6   6  -7 1996.40   98.19
  -4  -6   7 1980.90  104.39
   4  -6  -7 1961.80  103.29
   4   6  -7 1934.41  103.59
   4   6  -7 2044.90  105.19
  -4   6   7 2035.80  104.59
  -2  -6   7 2557.04  127.39
  -2   6   7 2480.05  126.89
  -2   6   7 2373.56  125.19
   2   6  -7 2620.34  125.89
   2   6  -7 2077.09  125.79
  -2   6   7 2499.75  125.59
   0  -6   7 1562.84   79.99
   0  -6  -7 1413.86   77.29
   0   6   7 1492.45   77.79
   0   6  -7 1444.26   77.49
   0   6  -7 1510.45   78.29
   0   6   7 1537.25   77.89
   2  -6   7 2143.19  112.79
  -2  -6  -7 2218.58  110.69
   2  -6   7 2109.19  112.99
  -2  -6  -7 2175.48  112.19
  -2   6  -7 2149.88  112.39
   2   6   7 2199.38  112.59
  -4  -6  -7 1836.42   93.29
   4  -6   7 1745.13   92.79
   4  -6   7 1837.72   95.19
  -4   6  -7 1757.72   93.19
   4   6   7 1738.93   94.29
  -6  -6  -7  839.12   45.50
   6  -6   7  898.01   49.60
  -6   6  -7  832.62   45.40
   6   6   7  757.22   47.30
  -8  -6  -7 1269.87   68.49
   8  -6   7 1219.48   74.19
  -8   6  -7 1260.57   68.29
   8   6   7 1321.37   71.89
  11   7  -7 1701.33   92.09
   9  -7  -7 2447.96  141.09
  -9  -7   7 2809.32  140.49
  -9   7   7 2713.73  140.59
   9   7  -7 2737.43  140.39
   7  -7  -7  945.11   54.09
  -7  -7   7  987.30   54.29
  -7   7   7  983.20   54.09
   7   7  -7  965.00   53.59
   7   7  -7 1058.79   51.89
  -5  -7   7 4370.26  218.08
   5   7  -7 4097.29  217.18
  -5   7   7 4208.48  219.38
   3  -7  -7 1749.62   92.09
   3  -7  -7 1816.12   92.99
  -3  -7   7 1904.01   94.49
  -3   7   7 1735.73   94.39
   3   7  -7 1613.34   92.79
   3   7  -7 1880.01   93.89
   1  -7  -7 1888.01   99.09
  -1  -7   7 1867.71  101.29
  -1   7   7 1941.11   99.59
   1   7  -7 1936.21   99.89
   1   7  -7 1938.21   99.59
  -1  -7  -7 1197.78   59.89
   1  -7   7 1142.99   61.69
   1  -7   7 1149.08   62.99
  -1  -7  -7 1125.39   61.19
  -1   7  -7 1188.38   61.69
   1   7   7 1153.68   61.69
  -3  -7  -7 1297.07   68.29
   3  -7   7 1291.27   69.59
   3  -7   7 1306.37   68.49
  -3   7  -7 1304.27   68.49
   3   7   7 1251.97   69.09
  -5  -7  -7 1459.35   75.89
  -5   7  -7 1392.56   75.69
   5   7   7 1432.66   77.79
  -7  -7  -7 3072.79  152.88
   7  -7   7 2919.61  157.68
  -7   7  -7 2830.02  152.38
   7   7   7 2893.71  155.78
   9  -7   7 1223.18   77.09
   9   7   7 1330.57   75.89
 -10  -8   7  510.95   30.40
  10  -8  -7  481.65   31.80
 -10   8   7  506.25   30.80
  10   8  -7  502.85   33.30
   8  -8  -7 1306.87   73.39
  -8  -8   7 1378.06   73.19
  -8   8   7 1400.36   73.09
   8   8  -7 1308.87   73.69
  -6  -8   7 1272.37   69.39
   6  -8  -7 1214.78   68.79
  -6   8   7 1255.67   68.99
   6   8  -7 1444.86   68.89
   6   8  -7 1237.78   68.69
  -4  -8   7  975.60   51.79
   4  -8  -7  901.41   49.90
   4  -8  -7  953.50   50.89
  -4   8   7  936.71   51.79
   4   8  -7  932.71   51.49
   2  -8  -7 1651.53   86.39
  -2  -8   7 1743.73   89.89
   2   8  -7 1817.92   88.09
  -2   8   7 1688.33   87.39
   2   8  -7 1579.84   86.79
  -2   8   7 1488.45   87.79
   0  -8  -7  980.50   52.79
   0  -8  -7  996.60   53.69
   0  -8   7  963.60   55.79
   0   8  -7 1053.19   54.29
   0   8   7 1009.20   54.29
   0   8  -7 1055.89   54.39
   2  -8   7 1238.18   68.29
  -2  -8  -7 1289.87   67.29
   2  -8   7 1248.48   68.29
  -2   8  -7 1290.17   67.69
   2   8   7 1276.87   68.39
   4  -8   7 1429.86   81.09
   4  -8   7 1531.45   78.59
  -4  -8  -7 1512.85   79.29
  -4   8  -7 1455.85   79.19
   4   8   7 1537.45   81.09
  -6  -8  -7 1034.10   55.59
   6  -8   7 1026.80   59.19
  -6   8  -7  994.60   55.29
   6   8   7  986.30   57.89
  -8  -8  -7  701.93   40.00
   8  -8   7  675.93   45.60
  -8   8  -7  678.93   39.50
  -9  -9   7  420.46   26.20
   9  -9  -7  435.66   27.30
   9   9  -7  404.36   26.00
  -9   9   7  404.16   26.40
   7  -9  -7  824.42   47.70
  -7  -9   7  859.01   47.90
   7   9  -7  870.81   47.40
  -7   9   7  835.62   47.50
   5  -9  -7 1664.53   91.79
  -5  -9   7 1810.42   92.79
  -5   9   7 1714.73   92.49
   5   9  -7 1759.92   92.39
   3  -9  -7 2264.27  123.49
  -3  -9   7 2521.25  125.99
  -3   9   7 2320.67  125.99
   3   9  -7 2456.05  123.79
   3   9  -7 2406.06  125.89
   1  -9  -7 3351.16  180.08
  -1  -9   7 3796.72  182.88
   1  -9  -7 3359.16  179.58
  -1   9   7 3561.94  181.28
   1   9  -7 3544.65  181.48
   1   9  -7 3413.46  180.38
  -1  -9  -7 2173.88  113.79
   1  -9   7 2088.79  114.69
   1  -9   7 2162.38  117.69
  -1   9  -7 2282.77  115.39
   1   9   7 2210.88  114.79
   3  -9   7 1573.94   87.19
  -3  -9  -7 1585.94   85.59
   3  -9   7 1629.24   85.79
  -3   9  -7 1624.64   85.79
   3   9   7 1678.63   87.39
   5  -9   7 1377.86   79.19
  -5  -9  -7 1477.85   76.79
  -5   9  -7 1417.46   76.49
  -7  -9  -7  821.02   46.60
   7  -9   7  762.82   49.20
   7   9   7  773.52   48.00
   8 -10  -7  436.86   27.20
  -8 -10   7  414.56   26.50
   8  10  -7  423.06   26.20
  -8  10   7  414.66   26.50
  -6 -10   7  622.24   36.10
   6 -10  -7  609.04   35.80
   6  10  -7  631.64   35.80
  -6  10   7  586.54   35.70
   4 -10  -7 1254.27   66.19
  -4 -10   7 1201.18   66.59
   4  10  -7 1236.18   66.99
  -4  10   7 1187.68   66.89
   2 -10  -7  946.81   51.79
  -2 -10   7  987.10   53.79
  -2  10   7  965.70   52.99
  -2  10   7  921.41   52.49
   2  10  -7 1000.20   53.79
   2  10  -7  954.70   51.49
   0 -10  -7  628.44   35.40
   0 -10   7  603.74   37.20
   0  10  -7  609.04   35.30
   0  10   7  638.84   36.40
   0  10  -7  680.73   36.80
   2 -10   7  995.20   54.09
   2 -10   7  931.81   54.19
  -2 -10  -7  983.80   52.89
   2  10   7  977.60   54.29
  -2  10  -7  945.11   52.79
   4 -10   7  319.47   21.90
  -4 -10  -7  309.17   19.90
   4  10   7  314.77   28.20
  -4  10  -7  292.37   20.70
  -6 -10  -7  462.25   29.40
   6 -10   7  499.75   33.30
   6  10   7  464.05   32.50
  -6  10  -7  514.65   29.80
   7 -11  -7  949.31   54.19
  -7 -11   7  921.21   53.69
   7  11  -7  995.90   53.79
   5 -11  -7  781.82   43.60
  -5 -11   7  761.32   43.70
   5  11  -7  760.42   43.80
  -5  11   7  730.53   43.80
   3 -11  -7  253.17   16.70
  -3 -11   7  235.58   16.80
   3 -11  -7  234.78   18.70
  -3  11   7  237.88   17.10
   3  11  -7  244.08   17.40
   1 -11  -7   46.90    5.00
  -1 -11   7   43.30    6.00
  -1  11   7   44.30    5.70
   1  11  -7   42.10    5.90
   1  11  -7   40.60    4.90
   1 -11   7  483.25   30.10
   1 -11   7  478.05   29.70
  -1 -11  -7  506.15   28.70
   1  11   7  489.55   29.80
  -1  11  -7  452.75   28.00
   3 -11   7  478.55   30.30
  -3 -11  -7  480.55   28.90
  -3  11  -7  456.95   32.70
   3  11   7  489.85   30.70
  -5 -11  -7  516.75   31.10
   5 -11   7  503.95   33.50
   5  11   7  481.45   33.60
  -5  11  -7  524.55   31.30
   8  12  -7  301.77   21.00
  -6 -12   7  265.87   18.90
   6 -12  -7  290.37   19.60
  -6  12   7  250.17   19.30
   6  12  -7  284.87   19.30
   4 -12  -7   41.50    5.90
  -4 -12   7   42.90    6.00
  -4  12   7   46.00    8.90
   4  12  -7   41.60    7.90
   2 -12  -7  528.05   31.30
  -2 -12   7  552.14   32.70
  -2  12   7  520.15   32.50
   2  12  -7  552.34   33.50
   0 -12   7  364.46   23.70
   0 -12  -7  346.37   22.20
   0  12   7  360.26   23.50
   0  12  -7  360.66   23.70
   0  12  -7  340.97   21.40
  -2 -12  -7  214.88   15.30
   2 -12   7  221.78   15.90
   2 -12   7  219.98   16.60
   2  12   7  201.88   16.40
  -2  12  -7  184.78   14.70
   4 -12   7  407.16   28.40
  -4 -12  -7  428.36   26.70
   4  12   7  413.06   28.80
   6 -12   7  231.38   25.30
  -7  13   7    9.10    6.90
   5 -13  -7   31.80    9.80
  -5  13   7   16.10    6.10
   3  13  -7   17.90    5.90
  -1 -13   7  198.28   15.40
   1 -13  -7  209.98   15.00
  -1  13   7  190.88   15.50
  -1 -13  -7  194.08   14.30
   1 -13   7  183.78   14.60
   1 -13   7  156.58   14.40
  -1  13  -7  197.68   13.70
   1  13   7  161.78   18.90
   3 -13   7  272.87   21.00
   3  13   7  286.97   23.70
  -4 -14   7  121.99   11.30
   4 -14  -7  125.29   11.70
   4  14  -7  129.29   12.20
  -2 -14   7   10.70    4.40
   2  14  -7    5.30    4.60
   0 -14   7   59.09    9.80
   0 -14  -7   57.39    7.60
   0 -14   7   68.59   11.00
   2 -14   7   72.19   11.70
  -2 -14  -7   67.89    8.30
   2  14   7   70.19    9.60
  -1 -15   7  187.48   15.00
   1 -15   7  697.93   42.60
 -12   0   8  634.74   36.70
  12   0  -8  568.94   37.10
 -10   0   8  822.92   50.29
   8   0  -8 2160.18  110.19
  -8   0   8 2164.28  108.59
  -8   0   8 1888.31  107.69
  -6   0   8 3274.57  181.18
   6   0  -8 3768.62  182.28
  -4   0   8 9999.00  496.35
   4   0  -8 9506.35  495.95
   2   0  -8 2206.68  133.29
   2   0  -8 2917.41  130.79
  -2   0   8 2547.95  132.39
   0   0   8 3629.54  186.38
   2   0   8 1657.23   79.39
   2   0   8 1421.46   77.49
  -2   0  -8 1466.15   78.39
  -4   0  -8 1856.81   93.19
   4   0   8 1940.61   93.79
   4   0   8 1605.54   93.69
   6   0   8 1096.59   63.59
  -6   0  -8 1224.78   61.19
  -8   0  -8 1385.86   72.79
   8   0   8 1387.06   76.49
  10   0   8  494.55   32.10
 -11  -1   8  734.23   40.10
  11  -1  -8  708.73   50.59
  11   1  -8  638.14   43.40
 -11   1   8  741.03   41.00
  -9  -1   8 1191.88   62.89
   9  -1  -8 1107.69   64.69
  -9  -1   8 1214.58   63.19
   9   1  -8 1163.28   65.29
  -9   1   8 1173.48   63.39
  -7  -1   8 2191.48  109.69
  -7  -1   8 2028.60  109.99
   7  -1  -8 2237.68  110.79
   7   1  -8 2212.88  111.39
  -7   1   8 1853.81  108.79
  -5  -1   8 1334.97   75.89
   5  -1  -8 1657.43   75.79
  -5  -1   8 1504.95   75.29
  -5   1   8 1367.86   75.69
  -5   1   8 1268.47   74.99
   5   1  -8 1496.95   75.99
  -3   1   8 1922.31  102.39
   3   1  -8 2076.49  101.49
   3   1  -8 1931.91  102.79
   1  -1  -8 2282.07  108.59
   1  -1  -8 2011.70  110.69
  -1   1   8 2010.10  111.19
   1   1  -8 2234.68  111.69
   1  -1   8 1565.44   79.79
  -1  -1  -8 1518.35   78.89
   1   1   8 1559.64   79.59
  -1   1  -8 1484.35   79.09
   1   1   8 1481.05   77.69
   3  -1   8 2052.09  113.19
   3  -1   8 2313.97  113.79
  -3  -1  -8 2241.28  112.89
   3   1   8 2058.39  112.69
  -3   1  -8 2165.78  113.09
   3   1   8 2334.77  113.69
  -5  -1  -8 1177.48   61.79
   5  -1   8 1011.20   64.09
   5  -1   8 1261.37   62.59
   5   1   8 1271.57   62.59
  -5   1  -8 1190.18   62.29
  -7  -1  -8  897.81   45.90
   7  -1   8  794.22   49.50
  -7  -1  -8  898.91   46.50
  -7   1  -8  900.21   46.40
   7   1   8  814.62   48.80
   9  -1   8  834.42   48.00
   9   1   8  777.62   46.90
  -9   1  -8  796.92   47.60
  12  -2  -8 1447.66   88.59
  12   2  -8 1608.84   87.09
 -12   2   8 1749.53   86.99
 -10  -2   8 1419.16   74.39
  10  -2  -8 1319.27   76.89
  10   2  -8 1406.36   79.09
 -10   2   8 1441.66   75.49
   8  -2  -8 1936.91  106.49
  -8  -2   8 2130.39  105.89
  -8  -2   8 1958.50  104.99
  -8   2   8 1994.60  105.89
   8   2  -8 2043.30  107.09
  -6  -2   8 1763.82   85.69
   6  -2  -8 1622.64   85.99
  -6  -2   8 1596.54   86.59
  -6   2   8 1515.65   86.19
   6   2  -8 1694.73   86.69
  -4  -2   8 1003.80   55.49
   4  -2  -8 1146.89   54.09
  -4   2   8 1009.40   54.19
  -4   2   8  991.00   54.99
   4   2  -8  995.30   53.79
   4   2  -8 1024.80   54.69
   2  -2  -8  842.22   39.60
   2  -2  -8  673.03   41.20
  -2  -2   8  764.72   41.60
   2   2  -8  696.73   40.90
  -2   2   8  815.72   40.90
   0  -2   8 2418.86  134.99
   0  -2  -8 2845.92  134.49
   0   2   8 2484.35  134.69
   0   2  -8 2808.72  134.89
   0   2   8 2518.75  133.09
  -2  -2  -8 1656.33   83.69
   2  -2   8 1699.23   84.89
   2  -2   8 1506.75   83.69
   2   2   8 1687.53   84.59
   2   2   8 1605.04   83.39
  -2   2  -8 1571.64   84.19
   4  -2   8 3349.36  179.38
   4  -2   8 3560.94  177.68
  -4  -2  -8 3509.95  176.68
   4   2   8 3365.06  177.58
   4   2   8 3563.64  177.68
  -4   2  -8 3389.36  177.38
   6  -2   8 2443.86  142.09
   6  -2   8 3053.89  138.69
  -6   2  -8 2680.43  138.59
   6   2   8 2545.15  141.89
  -8  -2  -8 1382.46   74.99
  -8  -2  -8 1418.36   75.19
   8  -2   8 1373.36   79.69
   8   2   8 1573.24   87.19
  -8   2  -8 1410.56   75.19
  10  -2   8  562.04   36.70
  10   2   8  570.44   38.70
  11  -3  -8  577.64   37.40
  11   3  -8  581.44   37.40
 -11   3   8  654.03   36.10
  -9  -3   8 1363.06   71.79
   9  -3  -8 1286.57   73.99
  -9  -3   8 1449.46   72.79
   9   3  -8 1359.36   73.59
  -9   3   8 1330.47   73.09
  -7  -3   8 1186.28   63.19
   7  -3  -8 1166.48   63.29
   7   3  -8 1189.48   63.19
  -7   3   8 1166.28   63.39
   5  -3  -8 1600.04   77.59
  -5  -3   8 1499.15   78.69
  -5   3   8 1444.96   78.49
   5   3  -8 1588.54   77.69
  -5   3   8 1265.37   76.69
   5   3  -8 1501.85   77.19
  -3  -3   8 1895.51  104.19
   3  -3  -8 2154.48  102.29
  -3   3   8 2180.18  104.09
   3   3  -8 2012.80  103.29
   3   3  -8 1852.11  102.09
  -3   3   8 1856.91  102.79
  -1  -3   8 1497.95   80.59
   1   3  -8 1607.44   80.09
  -1   3   8 1502.65   79.59
  -1   3   8 1503.95   78.39
  -1  -3  -8 1664.03   82.09
   1  -3   8 1591.84   83.49
   1   3   8 1587.64   81.79
   1   3   8 1634.54   82.99
  -1   3  -8 1465.85   82.79
   3  -3   8 1881.61   91.09
  -3  -3  -8 1743.53   89.59
   3  -3   8 1714.43   91.49
   3   3   8 1629.74   90.09
   3   3   8 1763.92   90.59
  -3   3  -8 1712.53   90.59
   5  -3   8 1049.09   49.70
   5  -3   8  803.82   51.79
  -5  -3  -8  944.41   48.50
   5   3   8  834.32   50.19
   5   3   8  962.50   49.60
  -5   3  -8  953.10   49.60
   7  -3   8  873.51   59.89
  -7  -3  -8 1136.79   55.19
  -7  -3  -8 1149.98   56.59
   7   3   8 1017.90   58.49
  -9  -3  -8  563.44   33.70
   9  -3   8  541.55   39.70
  -9   3  -8  616.94   36.50
   9   3   8  575.14   35.70
 -10  -4   8  737.03   39.20
  10  -4  -8  657.93   41.10
  10   4  -8  635.14   39.60
  10   4  -8  760.42   38.50
 -10   4   8  676.53   40.00
   8  -4  -8  328.77   21.30
  -8  -4   8  335.57   20.70
   8   4  -8  332.97   20.80
   8   4  -8  348.27   23.10
  -8   4   8  368.36   21.50
   6  -4  -8 1094.69   56.09
  -6  -4   8 1066.89   56.59
   6   4  -8 1025.80   55.29
  -6   4   8 1036.00   57.69
   6   4  -8 1011.50   55.49
  -4  -4   8 1668.03   88.19
   4  -4  -8 1798.72   86.69
   4   4  -8 1749.32   86.89
  -4   4   8 1574.24   87.99
   4   4  -8 1717.03   86.49
  -4   4   8 1510.55   86.29
  -2  -4   8 1808.62  100.59
   2  -4  -8 1928.71   98.39
  -2   4   8 1938.31   99.89
  -2   4   8 1850.91   99.09
   2   4  -8 1938.31   99.69
   2   4  -8 2015.50   98.19
   0  -4   8 1689.63   86.89
   0  -4  -8 1759.82   87.89
   0  -4   8 1683.23   89.49
   0   4   8 1696.23   88.39
   0   4   8 1726.63   87.39
   0   4  -8 1623.04   88.69
   2  -4   8 1212.98   62.29
   2  -4   8 1159.38   62.89
  -2  -4  -8 1259.57   61.49
   2   4   8 1169.38   62.39
   2   4   8 1164.58   61.89
  -2   4  -8 1130.69   62.49
   4  -4   8   41.10    4.10
  -4  -4  -8   41.60    3.20
   4   4   8   39.00    4.00
   4   4   8   31.40    3.90
  -4   4  -8   45.60    4.30
   6  -4   8   42.50    4.30
   6  -4   8   59.59    8.00
  -6  -4  -8   41.30    4.50
  -6   4  -8   33.40    4.10
   6   4   8   38.60    5.30
  -8  -4  -8   82.49    7.40
  -8   4  -8   87.19   13.10
   8   4   8   87.69    9.60
  11  -5  -8  289.87   24.50
 -11   5   8  365.26   22.60
  11   5  -8  344.97   23.50
  -9  -5   8  300.57   18.40
  -9   5   8  292.57   18.90
   9   5  -8  262.17   18.20
   9   5  -8  291.67   17.20
  -7  -5   8  763.82   42.60
   7  -5  -8  789.82   42.70
   7   5  -8  730.93   41.80
  -7   5   8  787.02   43.00
   7   5  -8  772.82   41.30
  -5  -5   8  682.43   37.60
   5  -5  -8  739.43   36.80
   5   5  -8  660.93   36.30
  -5   5   8  691.63   37.90
  -5   5   8  569.14   35.30
   5   5  -8  702.73   36.20
  -3  -5   8 1022.90   56.79
   3  -5  -8 1091.59   54.99
  -3   5   8 1027.60   56.69
   3   5  -8 1011.50   55.49
   3   5  -8 1080.49   55.29
  -1  -5   8 1774.72   90.79
   1  -5  -8 1633.84   88.99
   1   5  -8 1621.14   89.49
   1   5  -8 1763.62   87.79
  -1   5   8 1695.93   88.69
  -1   5   8 1741.73   88.19
   1  -5   8  596.74   32.20
  -1  -5  -8  606.34   31.70
   1  -5   8  579.24   33.80
   1   5   8  601.34   32.70
  -1   5  -8  579.24   33.10
   1   5   8  618.84   33.10
   3  -5   8  880.51   43.80
   3  -5   8  789.92   43.90
  -3  -5  -8  800.72   41.80
   3   5   8  733.93   43.00
   5  -5   8  503.75   31.10
  -5  -5  -8  522.45   28.80
   5  -5   8  540.05   28.30
   5   5   8  448.76   29.20
  -5   5  -8  513.75   28.80
  -7  -5  -8  369.66   21.20
   7  -5   8  330.97   25.20
   7   5   8  330.57   22.90
  -7   5  -8  352.96   21.10
  -9  -5  -8  332.87   25.90
   9  -5   8  296.67   28.00
   9   5   8  356.06   24.50
  -9   5  -8  360.86   21.50
 -10  -6   8  244.68   16.40
  10  -6  -8  228.78   18.00
  10   6  -8  251.07   16.70
 -10   6   8  240.08   17.20
   8  -6  -8  107.49    9.60
  -8  -6   8  110.89    9.30
   8   6  -8  117.69    9.00
   8   6  -8  122.59    8.00
  -8   6   8  103.09    9.50
  -6  -6   8  304.57   19.50
   6  -6  -8  332.87   19.40
   6   6  -8  328.37   18.10
  -6   6   8  308.07   19.80
   6   6  -8  309.27   18.70
  -4  -6   8  893.31   45.00
   4  -6  -8  843.52   43.40
  -4   6   8  738.53   44.70
   4   6  -8  844.32   43.30
  -4   6   8  722.53   42.50
   4   6  -8  804.42   44.70
  -2  -6   8  348.27   21.40
   2   6  -8  280.47   20.00
  -2   6   8  344.77   19.50
  -2   6   8  318.87   20.40
  -2   6   8  360.06   19.70
   2   6  -8  394.16   19.80
   0  -6   8  132.29   10.60
   0  -6   8  127.89    8.90
   0  -6  -8  161.98    9.60
   0   6   8  134.09    9.00
   0   6  -8  133.29    9.80
   0   6   8  141.49    9.40
   2  -6   8  176.08   12.10
  -2  -6  -8  178.58   10.10
   2  -6   8  175.58   11.70
   2   6   8  170.08   11.40
  -2   6  -8  175.48   11.80
   4  -6   8  226.28   13.90
   4  -6   8  230.08   15.70
  -4  -6  -8  213.48   14.10
   4   6   8  204.48   15.20
  -4   6  -8  228.88   14.30
   6  -6   8  243.48   19.10
  -6   6  -8  262.67   16.10
   6   6   8  235.38   17.30
  -8  -6  -8   34.00    6.00
   8  -6   8   57.49   13.40
   8   6   8   60.09   12.30
 -11  -7   8   55.59    7.60
  11   7  -8   55.09    7.80
   9  -7  -8   60.09    7.40
  -9  -7   8   54.89    6.60
   9   7  -8   66.89    6.60
  -9   7   8   54.99    6.80
   7  -7  -8    8.10    3.00
  -7  -7   8    7.10    3.40
  -7   7   8   20.10    4.60
   7   7  -8    7.20    2.30
   7   7  -8    5.00    2.30
   5  -7  -8   63.79    5.60
  -5  -7   8   40.20    5.20
   5   7  -8   55.09    4.70
   5   7  -8   58.09    5.40
  -5   7   8   50.69    5.90
   3  -7  -8   38.80    3.80
   3  -7  -8   31.20    3.30
   3   7  -8   40.90    6.50
   3   7  -8   32.60    5.00
  -3   7   8   23.10    5.00
  -1  -7   8   14.80    4.10
   1  -7  -8   21.30    3.60
   1   7  -8    6.50    2.40
  -1   7   8    6.50    2.10
   1   7  -8    7.00    2.20
  -1  -7  -8   86.49    5.60
  -1  -7  -8   74.69    8.40
   1  -7   8   91.79    7.10
   1  -7   8   92.09    8.10
  -1   7  -8  108.69    7.80
   1   7   8   75.19    6.60
  -3  -7  -8   30.10    3.90
   3  -7   8   35.10    6.00
   3  -7   8   27.90    3.90
   3   7   8   36.10    4.40
  -3   7  -8   33.10    5.00
  -5  -7  -8   18.30    4.30
   5   7   8   21.80    5.10
  -5   7  -8   19.60    4.30
  -7  -7  -8   54.19   10.70
   7  -7   8   56.19   14.80
   7   7   8   50.89    7.30
  -7   7  -8   47.30    5.80
 -10  -8   8  703.33   41.90
  10  -8  -8  584.14   37.90
 -10   8   8  612.64   37.50
  -8  -8   8   93.49    8.70
   8  -8  -8  103.89    9.20
   8   8  -8   77.79    8.60
  -8   8   8   94.09    8.70
  -6  -8   8   38.10    5.10
   6  -8  -8   42.60    5.00
  -6   8   8   35.00    6.20
   6   8  -8   44.40    4.90
   6   8  -8   38.90    4.00
   4  -8  -8  213.98   13.40
   4  -8  -8  199.88   12.30
  -4  -8   8  197.28   14.10
   4   8  -8  220.68   13.20
   4   8  -8  202.68   13.90
  -4   8   8  200.48   15.60
   2  -8  -8   19.00    2.60
  -2  -8   8    9.90    3.50
  -2   8   8   32.80    5.30
   2   8  -8   11.00    3.00
  -2   8   8   17.40    3.40
   2   8  -8   16.30    3.70
   0  -8  -8  145.89    9.50
   0   8  -8  138.09   10.30
   0   8   8  140.39   10.00
  -2  -8  -8  633.24   35.40
   2  -8   8  637.34   36.30
   2  -8   8  639.64   36.50
  -2   8  -8  658.83   36.00
   2   8   8  608.94   35.80
   4  -8   8  256.47   15.30
  -4  -8  -8  231.88   15.50
   4  -8   8  243.28   17.40
   4   8   8  227.78   16.30
  -4   8  -8  232.08   15.70
  -6  -8  -8 1019.10   54.19
   6  -8   8 1001.30   57.79
   6   8   8  919.71   55.69
  -6   8  -8  969.90   53.99
  -8  -8  -8   40.40    8.50
   8   8   8   49.10    9.70
  -9  -9   8  317.27   20.90
   9  -9  -8  292.27   25.40
   9   9  -8  326.87   20.60
  -9   9   8  301.37   26.90
  -7  -9   8  355.76   22.90
   7  -9  -8  361.46   22.80
  -7   9   8  363.16   23.20
   7   9  -8  365.56   22.30
  -5  -9   8  371.06   23.90
   5  -9  -8  384.06   23.30
  -5   9   8  364.66   24.20
   5   9  -8  428.86   22.10
   5   9  -8  378.96   23.60
   3  -9  -8  702.63   37.60
   3  -9  -8  647.84   36.50
  -3  -9   8  684.43   38.70
   3   9  -8  674.13   37.00
   3   9  -8  707.93   38.50
  -3   9   8  607.14   38.40
   1  -9  -8  379.86   22.80
  -1  -9   8  400.46   25.50
   1  -9  -8  422.16   23.60
  -1   9   8  413.06   24.10
   1   9  -8  361.06   23.80
   1   9  -8  461.35   24.70
  -1  -9  -8  239.78   15.30
   1  -9   8  239.38   16.10
   1  -9   8  248.28   17.20
   1   9   8  238.08   15.80
  -1   9  -8  237.38   15.80
   3  -9   8  698.83   41.40
   3  -9   8  743.53   40.30
  -3  -9  -8  712.53   40.00
  -3   9  -8  708.93   40.40
   3   9   8  706.33   41.00
   5  -9   8  216.88   18.20
  -5  -9  -8  229.78   15.60
  -5   9  -8  226.08   15.50
   5   9   8  216.18   16.80
  -7  -9  -8  344.67   22.70
  -7   9  -8  360.36   22.90
   8 -10  -8  225.58   16.80
  -8 -10   8  255.47   17.10
  -8  10   8  227.78   16.90
   8  10  -8  224.98   17.10
  -6 -10   8  623.64   36.90
   6 -10  -8  653.43   36.70
  -6  10   8  577.34   38.30
   6  10  -8  656.33   36.60
   4 -10  -8  854.91   48.10
  -4 -10   8  877.11   49.00
   4  10  -8  873.81   49.00
  -4  10   8  876.01   49.60
  -2 -10   8 1024.20   58.39
   2 -10  -8 1031.70   56.49
  -2  10   8 1044.60   57.49
   2  10  -8 1093.19   58.19
   2  10  -8 1070.79   56.69
   0 -10  -8 1237.78   65.79
   0 -10   8 1240.28   68.19
   0  10   8 1285.37   66.69
   0  10  -8 1142.29   65.89
  -2 -10  -8  507.15   30.30
   2 -10   8  510.65   33.70
   2 -10   8  542.65   31.70
  -2  10  -8  521.95   30.80
   2  10   8  528.05   31.40
  -4 -10  -8   35.50    5.00
   4 -10   8   31.00    7.90
  -4  10  -8   44.70    6.90
   4  10   8   36.50    7.00
  -6 -10  -8   42.40    7.50
   6  10   8   34.20    8.00
  -6  10  -8   45.10    7.60
   7 -11  -8 1006.40   57.39
  -7 -11   8 1013.90   57.29
   7  11  -8 1074.29   57.09
  -7  11   8  998.00   57.89
   5 -11  -8  875.71   48.60
  -5 -11   8  822.52   48.80
   5  11  -8  890.51   49.10
  -5  11   8  867.21   50.19
   3 -11  -8 1499.15   84.29
   3 -11  -8 1658.43   84.99
  -3 -11   8 1663.53   85.79
  -3  11   8 1513.75   84.79
   3  11  -8 1566.14   85.49
   1 -11  -8 1640.04   87.99
  -1 -11   8 1700.03   90.09
   1  11  -8 1747.23   89.69
  -1  11   8 1600.54   88.89
   1  11  -8 1616.34   87.69
   1 -11   8 1214.08   65.89
   1 -11   8 1136.29   64.69
  -1  11  -8 1087.99   63.59
   1  11   8 1249.07   65.09
   3 -11   8  908.41   52.49
  -3 -11  -8  914.11   50.89
   3  11   8  913.11   52.29
  -3  11  -8  886.81   50.89
  -5 -11  -8  712.93   42.10
  -5  11  -8  743.03   47.30
   5  11   8  712.33   44.20
   6 -12  -8  209.58   15.80
   6  12  -8  211.88   15.70
  -4 -12   8  386.56   25.90
   4 -12  -8  442.06   26.10
  -4  12   8  395.96   26.30
   4  12  -8  413.16   27.90
   2 -12  -8  124.89    9.90
  -2 -12   8  111.79   10.50
   2  12  -8  116.29   10.90
  -2  12   8  118.79   10.50
   0 -12   8 1440.66   74.09
   0 -12  -8 1363.06   71.99
   0 -12   8 1185.08   72.39
   0  12   8 1324.67   72.99
   0  12  -8 1321.37   71.29
   2 -12   8  527.45   33.30
  -2 -12  -8  546.85   32.20
   2  12   8  548.85   33.40
  -2  12  -8  505.25   31.90
  -4 -12  -8 1378.16   73.29
  -4  12  -8 1306.27   73.29
   4  12   8 1286.07   77.19
   5 -13  -8  805.42   47.60
  -5 -13   8  806.72   47.30
  -5  13   8  858.71   49.70
  -3 -13   8 1185.28   67.49
   3 -13  -8 1256.87   67.99
   1 -13  -8 1004.50   57.19
  -1 -13   8 1053.19   58.39
   1 -13   8  947.21   53.09
  -1 -13  -8  949.71   52.39
   1 -13   8  812.02   52.29
   1  13   8  924.31   53.29
  -1  13  -8  952.70   51.49
  -3 -13  -8 1652.53   84.99
   3  13   8 1547.25   86.49
  -3  13  -8 1438.36   84.19
   4 -14  -8 2379.66  128.79
  -2 -14   8  927.71   53.19
   0 -14   8 1193.18   66.49
   0 -14  -8 1197.78   67.49
   0  14   8 1138.19   66.79
  -2 -14  -8  399.66   32.10
 -12   0   9   16.60    4.40
  12   0  -9   13.20    5.50
 -10   0   9    9.90    3.70
  10   0  -9    9.90    5.40
   8   0  -9   16.00    4.60
  -8   0   9    8.10    3.50
  -8   0   9   15.70    3.70
   6   0  -9   14.10    3.60
  -6   0   9    9.80    3.00
  -6   0   9   12.90    2.90
  -4   0   9    4.60    2.20
   4   0  -9    8.40    2.50
   4   0  -9    4.70    1.90
  -2   0   9   21.40    2.90
   0   0  -9   15.40    2.90
   0   0   9   11.80    2.80
  -2   0  -9    6.70    2.00
   2   0   9    9.80    1.10
   2   0   9   17.60    3.40
   4   0   9    6.50    1.90
   4   0   9   10.80    2.70
  -6   0  -9    4.50    1.80
   6   0   9    2.60    2.60
   6   0   9   14.10    3.20
  -8   0  -9    6.60    3.00
  -8   0  -9    6.20    2.60
   8   0   9   12.90    6.90
 -11  -1   9  102.09    9.00
  11  -1  -9  138.59   22.70
 -11   1   9  105.49    9.70
  -9  -1   9  305.17   19.40
  -9  -1   9  337.07   20.00
   9  -1  -9  319.17   21.20
  -9   1   9  306.47   19.90
   9   1  -9  305.27   21.10
   7  -1  -9   36.10    4.80
  -7  -1   9   34.70    4.40
  -7  -1   9   38.80    6.30
   7   1  -9   44.80    7.00
  -7   1   9   42.70    6.10
  -7   1   9   32.30    4.20
   5  -1  -9   79.89    6.30
  -5  -1   9   71.89    6.70
   5   1  -9   85.89    6.60
  -5   1   9   86.79    6.70
  -5   1   9   71.69    6.20
   3  -1  -9   41.70    4.70
  -3  -1   9   38.20    4.40
   3  -1  -9   53.09    3.60
   3   1  -9   36.20    4.30
   3   1  -9   42.70    3.00
  -3   1   9   43.00    4.20
   1  -1  -9  245.88   15.10
  -1  -1   9  242.58   15.40
   1   1  -9  258.47   15.30
  -1   1   9  257.07   15.40
  -1  -1  -9   23.10    2.80
   1   1   9   18.70    3.60
   1   1   9   22.20    1.70
  -1   1  -9   28.60    4.10
  -3  -1  -9  159.58    9.70
   3  -1   9  183.48   10.80
   3  -1   9  128.59    8.90
   3   1   9  176.18   10.60
   3   1   9  135.69    9.00
  -3   1  -9  149.99    9.80
  -5  -1  -9   32.60    3.40
   5  -1   9   36.30    4.40
   5   1   9   34.30    3.90
  -5   1  -9   29.50    3.50
   5   1   9   37.10    4.10
   7  -1   9  270.87   20.10
  -7  -1  -9  328.27   18.10
  -7  -1  -9  326.27   18.70
   7  -1   9  351.96   18.60
   7   1   9  264.47   19.60
  -7   1  -9  316.17   19.40
   9   1   9   30.20    7.70
  12  -2  -9  405.46   31.50
  12   2  -9  404.66   26.10
  10  -2  -9  233.48   17.40
 -10  -2   9  219.98   18.10
  10   2  -9  228.08   16.80
 -10   2   9  260.57   16.80
  -8  -2   9  662.53   36.70
   8  -2  -9  626.04   37.90
  -8  -2   9  730.93   38.00
  -8   2   9  643.24   37.70
   8   2  -9  664.63   38.10
   6  -2  -9  976.00   48.50
  -6  -2   9  879.11   49.20
   6   2  -9  915.91   48.40
  -6   2   9  810.62   47.70
  -4  -2   9 1140.29   60.99
   4  -2  -9 1233.08   59.09
  -4   2   9 1150.08   60.19
  -4   2   9 1089.49   59.59
   4   2  -9 1119.69   59.99
   4   2  -9 1044.30   58.39
   2  -2  -9 1532.15   72.79
  -2  -2   9 1458.65   75.29
   2  -2  -9 1229.18   74.69
   2   2  -9 1382.06   74.49
  -2   2   9 1473.25   74.49
   0  -2   9  830.32   46.10
   0  -2  -9  837.32   45.10
   0   2   9  850.41   45.80
   0   2   9  826.52   43.70
   0   2  -9  908.11   45.90
  -2  -2  -9  803.02   41.30
   2  -2   9  848.02   42.80
  -2   2  -9  731.13   41.80
   2   2   9  702.03   40.50
   2   2   9  812.72   42.30
   4  -2   9  861.91   54.89
  -4  -2  -9 1103.39   54.29
   4  -2   9 1149.78   55.49
  -4   2  -9 1052.59   54.89
   4   2   9  896.71   54.19
   4   2   9 1143.59   56.49
   6  -2   9  280.77   21.10
  -6  -2  -9  343.77   18.90
   6  -2   9  378.46   19.80
  -6   2  -9  357.16   19.80
   6   2   9  294.07   20.20
   8  -2   9  487.45   36.60
  -8  -2  -9  524.65   28.60
  -8   2  -9  529.35   28.80
   8   2   9  445.26   30.10
  11  -3  -9  385.56   26.70
 -11   3   9  412.16   27.10
  11   3  -9  414.56   25.40
   9  -3  -9  232.78   16.60
  -9  -3   9  238.38   15.60
  -9   3   9  233.48   20.70
   9   3  -9  228.98   15.90
  -7  -3   9   40.60    4.90
   7  -3  -9   41.40    4.80
  -7   3   9   30.90    3.60
   7   3  -9   49.99    5.00
  -7   3   9   57.09    5.70
   7   3  -9   46.90    4.70
  -5  -3   9  701.13   39.70
   5  -3  -9  758.12   38.30
  -5   3   9  675.83   38.20
   5   3  -9  672.63   37.60
  -5   3   9  715.93   39.50
   5   3  -9  730.83   38.60
   3  -3  -9 1412.06   68.29
  -3  -3   9 1252.17   70.49
   3   3  -9 1211.88   69.19
   3   3  -9 1281.67   67.89
  -3   3   9 1475.35   70.29
  -3   3   9 1285.17   69.29
  -1  -3   9 1927.81  100.69
   1  -3  -9 1820.22   99.69
   1   3  -9 2137.89  100.29
  -1   3   9 1866.31   98.09
  -1   3   9 1835.42   99.59
   1  -3   9 1325.37   68.89
  -1  -3  -9 1298.37   67.19
  -1   3  -9 1232.68   68.19
   1   3   9 1303.37   68.29
   1   3   9 1295.27   66.69
  -3  -3  -9  531.75   28.40
   3  -3   9  565.54   29.90
   3  -3   9  479.65   29.10
   3   3   9  509.15   29.80
   3   3   9  540.35   29.50
  -3   3  -9  532.05   30.40
  -5  -3  -9   64.29    5.20
   5  -3   9   85.59    6.40
   5  -3   9   60.49    7.50
  -5   3  -9   73.99    6.20
   5   3   9   90.69    6.60
   5   3   9   71.39    6.30
   7  -3   9  214.88   17.40
   7   3   9  211.28   15.60
  -7   3  -9  245.28   14.60
  -9  -3  -9  356.26   23.20
  -9   3  -9  373.26   22.00
   9   3   9  342.17   28.70
  10  -4  -9  726.03   44.80
 -10  -4   9  832.62   43.40
 -10   4   9  732.33   45.50
  10   4  -9  805.42   42.50
  10   4  -9  750.62   43.40
  -8  -4   9 1901.21   95.39
   8  -4  -9 1724.43   95.39
   8   4  -9 1699.53   94.49
  -8   4   9 1794.62   95.79
   8   4  -9 1884.21   94.29
  -6  -4   9 1558.64   80.49
   6  -4  -9 1573.44   79.59
   6   4  -9 1413.06   78.69
  -6   4   9 1496.35   80.59
   6   4  -9 1514.55   79.09
  -4  -4   9 2025.90  108.19
   4  -4  -9 2164.58  106.19
   4   4  -9 2066.29  105.99
  -4   4   9 2138.99  107.99
   4   4  -9 2135.09  106.59
  -4   4   9 1815.22  106.29
   2  -4  -9 1756.92  106.79
   2  -4  -9 2176.78  105.19
  -2  -4   9 2028.80  107.89
   2   4  -9 2058.19  106.69
  -2   4   9 2044.30  106.39
   2   4  -9 2202.58  104.59
   0  -4   9 1710.63   90.39
   0  -4  -9 1726.83   88.49
   0   4  -9 1729.63   89.79
   0   4   9 1695.73   87.89
   0   4   9 1670.63   89.19
   2  -4   9 1710.43   93.09
  -2  -4  -9 1852.41   91.49
   2  -4   9 2016.00   92.69
   2   4   9 1682.13   92.39
   2   4   9 1709.73   91.59
  -2   4  -9 1649.44   92.59
   4  -4   9 1566.94   74.99
  -4  -4  -9 1394.76   73.09
   4  -4   9 1433.46   77.09
   4   4   9 1434.76   74.69
  -4   4  -9 1369.66   74.59
   4   4   9 1284.47   74.19
  -6  -4  -9 1240.08   60.49
   6  -4   9 1025.20   63.79
   6   4   9 1086.69   60.99
   8   4   9  877.91   52.09
  -8   4  -9  955.40   50.39
  11  -5  -9 1315.57   76.29
 -11   5   9 1432.86   75.79
  -9  -5   9 1049.49   54.09
   9  -5  -9  930.41   54.79
  -9   5   9  939.81   54.59
   9   5  -9  943.71   53.49
   9   5  -9 1037.40   52.79
  -7  -5   9 2214.38  114.69
   7  -5  -9 2226.68  114.49
   7   5  -9 2108.99  113.49
   7   5  -9 2245.08  113.29
  -7   5   9 2132.99  115.19
   5  -5  -9 1436.26   72.09
  -5   5   9 1303.97   73.69
   5   5  -9 1363.56   71.69
   5   5  -9 1374.76   71.69
  -3  -5   9 1122.79   62.79
   3  -5  -9 1179.08   60.59
  -3   5   9 1078.89   60.99
  -3   5   9 1199.58   62.49
   3   5  -9 1245.18   60.79
   3   5  -9 1125.69   61.29
   1  -5  -9  996.50   55.69
  -1  -5   9 1050.39   54.19
  -1  -5   9 1042.90   57.49
  -1   5   9 1081.29   55.89
  -1   5   9 1101.79   54.89
   1   5  -9  998.60   56.49
  -1  -5  -9 1673.93   83.99
   1  -5   9 1602.84   86.29
   1  -5   9 1611.44   83.89
   1   5   9 1703.03   84.49
   1   5   9 1616.64   85.19
  -1   5  -9 1533.45   85.69
  -3  -5  -9  448.86   24.10
   3  -5   9  443.06   25.90
   3  -5   9  503.05   26.40
  -3   5  -9  443.56   25.90
   3   5   9  428.16   25.50
   3   5   9  421.16   25.10
   5  -5   9 1865.91  103.19
  -5  -5  -9 1971.60  101.29
   5  -5   9 2115.89  102.19
  -5   5  -9 1857.51  101.19
   5   5   9 1838.82  101.49
   7  -5   9  618.74   44.10
  -7  -5  -9  800.22   41.30
   7   5   9  721.73   42.70
  -7   5  -9  783.42   41.50
   9   5   9  625.84   40.50
  10  -6  -9  850.71   52.19
 -10  -6   9  965.20   51.09
 -10   6   9  939.21   52.69
  10   6  -9  916.91   51.19
  -8  -6   9 1494.05   79.79
   8  -6  -9 1480.25   80.19
   8   6  -9 1433.26   78.99
   8   6  -9 1575.54   77.99
  -8   6   9 1480.25   80.59
   6  -6  -9 1405.16   72.89
  -6  -6   9 1352.46   73.49
   6   6  -9 1396.86   71.69
  -6   6   9 1369.26   74.19
   6   6  -9 1343.77   72.29
   4  -6  -9 1440.96   72.79
  -4  -6   9 1429.16   74.49
   4   6  -9 1440.16   72.79
  -4   6   9 1165.18   72.09
   4   6  -9 1437.46   73.09
  -4   6   9 1429.46   74.89
  -2  -6   9 2342.77  119.09
   2  -6  -9 2130.89  117.59
   2   6  -9 1900.71  117.19
  -2   6   9 2360.46  116.49
   2   6  -9 2539.65  116.39
  -2   6   9 2231.28  116.79
   0  -6   9 1572.74   85.79
   0  -6  -9 1677.63   85.89
   0  -6   9 1701.23   88.89
   0   6   9 1714.33   86.29
   0   6   9 1676.73   86.99
   0   6  -9 1603.04   87.79
   2  -6   9 1895.71  104.69
  -2  -6  -9 2156.68  103.59
   2  -6   9 1984.00  106.09
   2   6   9 1934.01  104.99
   2   6   9 2071.89  104.99
  -2   6  -9 2046.90  105.89
   4  -6   9 1754.22   88.19
   4  -6   9 1587.84   87.89
  -4  -6  -9 1720.73   87.09
   4   6   9 1635.94   87.09
  -4   6  -9 1537.55   86.99
   6  -6   9  509.05   33.10
  -6  -6  -9  532.25   30.40
   6   6   9  512.25   31.40
  -6   6  -9  535.45   30.50
  -8  -6  -9 1025.40   53.49
  -8   6  -9  955.30   53.09
   8   6   9  895.31   54.99
 -11  -7   9 1037.20   58.49
   9  -7  -9 1000.90   56.49
  -9  -7   9 1040.70   55.79
  -9   7   9  975.20   58.09
   9   7  -9 1010.10   55.19
  -7  -7   9 1868.61   97.19
   7  -7  -9 1748.53   96.69
   7   7  -9 1925.51   94.89
   7   7  -9 1809.02   96.09
  -7   7   9 1804.12   97.69
   5  -7  -9 2325.77  124.29
  -5  -7   9 2452.05  125.59
  -5   7   9 2354.16  126.09
   5   7  -9 2398.66  123.59
   5   7  -9 2440.16  124.49
   3  -7  -9 2862.71  149.49
  -3  -7   9 3018.80  151.68
   3   7  -9 3121.59  150.18
  -3   7   9 2941.01  151.38
   3   7  -9 2562.94  149.88
  -1  -7   9 1059.79   61.79
   1  -7  -9 1077.89   58.19
   1   7  -9  976.50   59.09
   1   7  -9 1194.28   57.89
  -1   7   9 1086.69   58.29
  -1   7   9 1153.38   58.19
   1  -7   9 3403.96  191.28
  -1  -7  -9 3874.01  190.18
   1   7   9 3879.51  191.68
  -1   7  -9 3741.73  192.88
   3  -7   9 1915.01  105.39
  -3  -7  -9 2002.10  104.99
   3  -7   9 2092.39  106.69
   3   7   9 2008.60  105.09
  -3   7  -9 1998.80  105.59
  -5  -7  -9 2226.08  113.39
   5   7   9 2166.48  114.19
  -5   7  -9 2075.59  113.39
  -7  -7  -9  585.24   33.60
   7   7   9  557.94   36.80
  10  -8  -9  558.54   36.30
 -10  -8   9  634.74   35.60
  10   8  -9  602.94   36.50
 -10   8   9  606.94   41.80
  -8  -8   9 1414.76   74.99
   8  -8  -9 1355.56   74.99
  -8   8   9 1392.96   75.69
   8   8  -9 1372.06   76.69
  -6  -8   9 1163.78   64.79
   6  -8  -9 1189.68   64.19
   6   8  -9 1212.98   63.99
   6   8  -9 1204.38   62.69
  -6   8   9 1190.38   65.49
   4  -8  -9  748.03   42.10
   4  -8  -9  810.22   43.00
  -4  -8   9  776.22   44.30
   4   8  -9  828.62   43.80
  -4   8   9  772.52   44.80
   4   8  -9  792.22   42.90
   2  -8  -9 1314.77   69.29
  -2  -8   9 1393.06   71.79
   2  -8  -9 1244.38   69.79
   2   8  -9 1478.65   70.09
  -2   8   9 1336.47   69.59
   2   8  -9 1101.49   69.79
   0  -8   9 1186.08   66.49
   0  -8  -9 1217.68   62.59
   0  -8   9 1201.18   65.29
   0  -8  -9 1183.58   63.89
   0   8   9 1223.48   63.99
   0   8  -9 1185.18   65.19
   2  -8   9 1047.90   56.99
  -2  -8  -9  998.30   55.59
   2  -8   9 1005.80   56.09
   2   8   9 1049.30   55.99
  -2   8  -9 1048.70   56.69
  -4  -8  -9 1128.59   61.29
   4  -8   9 1211.18   61.09
   4  -8   9 1059.69   62.49
   4   8   9 1091.39   61.79
  -4   8  -9 1159.18   63.49
  -6  -8  -9  629.14   36.60
  -6   8  -9  627.84   36.80
   6   8   9  642.04   38.30
   9  -9  -9 1192.28   69.69
  -9   9   9 1276.97   69.99
   9   9  -9 1310.17   68.69
  -7  -9   9 2240.58  114.99
   7  -9  -9 2080.19  114.39
  -7   9   9 2111.89  115.39
   7   9  -9 2238.38  113.99
   5  -9  -9 1682.13   94.79
  -5  -9   9 1740.93   95.89
  -5   9   9 1741.63   96.69
   5   9  -9 1894.01   95.59
   5   9  -9 1944.51   93.99
   3  -9  -9  836.52   47.10
  -3  -9   9  884.51   49.40
   3  -9  -9  876.91   47.80
  -3   9   9  803.32   48.80
   3   9  -9  937.41   48.80
   3   9  -9  929.71   48.10
   1  -9  -9 1100.99   59.79
   1  -9  -9 1181.28   60.69
  -1  -9   9 1181.18   63.39
   1   9  -9  980.30   61.09
  -1   9   9 1211.58   61.19
   1  -9   9 1191.28   65.29
   1  -9   9 1086.59   63.39
  -1  -9  -9 1225.78   63.19
  -1   9  -9 1145.79   63.99
   1   9   9 1214.28   63.49
   3  -9   9 1170.18   61.69
   3  -9   9 1048.00   61.89
  -3  -9  -9 1158.48   61.29
  -3   9  -9 1119.69   63.29
   3   9   9 1132.19   61.89
  -5  -9  -9 1778.42  100.09
   5   9   9 1743.73   95.29
   7   9   9  879.21   52.29
   8 -10  -9  574.74   38.40
  -6 -10   9  344.47   22.10
   6 -10  -9  332.97   21.50
   6  10  -9  355.96   21.70
  -6  10   9  326.47   22.60
   4 -10  -9 1012.30   56.99
  -4 -10   9 1012.60   58.09
   4  10  -9 1071.69   57.89
   4  10  -9 1168.18   56.39
  -4  10   9  968.90   58.29
   2 -10  -9  581.14   36.10
  -2 -10   9  678.63   38.80
   2 -10  -9  651.53   36.60
  -2  10   9  686.23   37.50
   2  10  -9  693.33   37.30
   0 -10   9  574.04   34.40
   0 -10  -9  624.44   34.00
   0 -10   9  610.34   36.40
   0  10  -9  543.95   34.30
   0  10   9  612.34   34.40
   2 -10   9 1007.20   54.89
  -2 -10  -9  953.70   53.29
  -2  10  -9  937.61   54.09
   2  10   9  973.50   53.99
   4  10   9  595.24   36.30
  -4  10  -9  603.34   35.80
  -6 -10  -9  273.97   20.40
  -6  10  -9  260.07   19.20
   6  10   9  260.37   20.10
   7 -11  -9   68.59    8.40
  -7 -11   9   63.49   10.80
  -7  11   9   71.19   10.30
  -5 -11   9  520.85   31.70
   5 -11  -9  536.55   31.10
  -5  11   9  501.55   32.10
  -3 -11   9  951.30   54.49
   3 -11  -9  991.80   59.39
   1 -11  -9 1093.99   59.79
  -1  11   9 1092.59   60.49
   1  11  -9 1111.89   59.99
   1 -11   9  952.80   53.59
  -1 -11  -9  985.80   51.49
   1 -11   9  889.91   51.79
   1  11   9  934.51   51.99
  -1  11  -9  837.02   51.29
  -3 -11  -9  446.86   29.70
  -3  11  -9  503.25   29.70
   3  11   9  462.85   29.50
  -5 -11  -9  148.89   12.60
  -5  11  -9  146.99   13.10
   5  11   9  157.88   14.20
   6 -12  -9  490.95   36.70
  -6 -12   9  505.85   30.70
  -6  12   9  491.85   31.70
   4 -12  -9  201.68   15.10
  -4 -12   9  198.28   15.10
   2 -12  -9  296.17   19.50
  -2 -12   9  299.17   20.50
  -2  12   9  295.37   20.00
   0 -12   9  268.97   19.60
   0 -12  -9  289.47   18.20
   0 -12   9  222.98   22.30
   0  12  -9  238.88   17.50
   0  12   9  277.67   18.70
  -2 -12  -9   48.30    6.40
   2 -12   9   49.30    9.40
  -2  12  -9   45.80    7.70
  -4 -12  -9  338.47   24.00
  -4  12  -9  334.27   23.70
   4  12   9  351.16   24.30
   5 -13  -9   49.80    6.80
  -5 -13   9   53.09    7.10
   3 -13  -9   77.49    8.30
  -3 -13   9   79.69   14.50
  -1 -13   9    5.90    4.00
   1 -13  -9   18.10    4.90
  -1  13   9   11.40    4.50
  -1 -13  -9   11.40    5.00
   1 -13   9    1.60    6.20
   1  13   9   10.30    4.30
  -1  13  -9   16.10    5.80
  -3  13  -9  125.49   12.40
   3  13   9  125.59   13.00
   2 -14  -9   18.70    5.50
  -2 -14   9   21.70    6.40
   0 -14  -9   44.40    8.50
   0 -14   9   44.30    8.40
   0  14   9   37.10    8.10
 -12   0  10  699.53   37.70
  12   0 -10  547.65   38.30
  10   0 -10 2981.50  166.58
 -10   0  10 3371.06  165.28
  -8   0  10 1171.28   65.39
   8   0 -10 1212.98   66.19
  -8   0  10 1252.97   65.19
  -6   0  10 1303.77   77.39
   6   0 -10 1575.64   77.69
  -6   0  10 1504.45   77.29
   4   0 -10 1026.20   55.49
  -4   0  10  985.70   55.39
   4   0 -10 1070.79   54.09
  -2   0  10 1933.91   97.69
   2   0 -10 1791.72   97.49
   0   0 -10 3160.28  156.38
   0   0  10 2906.41  156.88
  -2   0 -10 6107.19  298.37
   2   0  10 5802.72  296.27
   2   0  10 5608.94  299.17
   4   0  10 2886.41  136.89
  -4   0 -10 2678.73  135.79
   4   0  10 2334.87  134.69
   6   0  10 2561.64  127.99
  -6   0 -10 2357.86  127.29
  -8   0 -10  377.36   22.40
  11  -1 -10  753.32   48.60
 -11  -1  10  935.91   47.30
 -11   1  10  908.61   47.80
  11   1 -10  779.02   49.50
  -9  -1  10  988.30   54.19
  -9  -1  10 1052.39   55.09
   9  -1 -10  954.20   55.79
  -9   1  10 1042.50   56.59
   9   1 -10  969.10   55.69
   7  -1 -10 1715.63   85.69
  -7  -1  10 1522.65   85.69
  -7  -1  10 1700.93   84.79
   7   1 -10 1671.63   85.79
  -7   1  10 1594.14   85.09
  -7   1  10 1454.75   84.69
   5  -1 -10 1243.48   57.79
  -5  -1  10  991.10   58.59
  -5   1  10 1109.89   57.99
   5   1 -10 1119.89   58.19
   5   1 -10 1061.89   57.19
  -5   1  10  975.00   57.79
   3  -1 -10 1720.83   95.29
  -3  -1  10 1812.02   95.39
  -3   1  10 1964.60   95.19
   3   1 -10 1749.03   94.99
  -1  -1  10 2150.38  114.89
   1  -1 -10 2230.78  114.39
  -1   1  10 2137.09  114.59
   1   1 -10 2291.87  114.59
   1  -1  10 1577.74   80.59
  -1  -1 -10 1495.55   79.19
   1   1  10 1519.85   80.29
   1   1  10 1455.95   77.19
  -1   1 -10 1549.94   79.79
   3  -1  10 1357.96   79.79
  -3  -1 -10 1616.34   81.39
   3  -1  10 1795.32   82.99
   3   1  10 1492.95   80.19
   5  -1  10 1079.79   52.79
  -5  -1 -10  988.70   51.59
   5   1  10  788.72   51.09
   5   1  10 1046.80   52.69
  -5   1 -10  959.30   51.89
   7  -1  10  740.93   37.00
  -7  -1 -10  681.33   41.30
   7   1  10  550.54   37.00
  -7   1 -10  688.23   36.80
  -9   1 -10  826.02   45.60
 -10  -2  10 1458.45   72.89
  10  -2 -10 1257.77   74.69
  10   2 -10 1332.57   73.89
 -10   2  10 1412.66   74.19
   8  -2 -10 1878.41  100.69
  -8   2  10 1892.71  100.69
   8   2 -10 1936.41  100.49
  -6  -2  10 3934.81  224.18
   6  -2 -10 4488.65  223.18
   6   2 -10 4483.85  224.58
  -6   2  10 4303.07  223.78
   6   2 -10 4518.95  222.78
  -4  -2  10 2328.87  123.79
  -4   2  10 2234.88  122.49
   4   2 -10 2529.35  122.99
  -2  -2  10 2376.76  123.99
   2  -2 -10 2730.13  121.19
   2  -2 -10 2095.59  123.39
   2   2 -10 2349.56  123.19
  -2   2  10 2291.77  123.19
   0  -2  10 2132.19  116.99
   0  -2 -10 2268.77  115.89
   0   2 -10 2358.86  116.79
   0   2  10 2205.68  116.79
   2  -2  10  926.61   48.50
  -2  -2 -10  867.41   46.90
   2   2  10  942.71   48.30
  -2   2 -10  861.51   47.70
   2   2  10  824.52   45.80
   4  -2  10  492.95   25.80
  -4  -2 -10  441.26   26.50
  -4   2 -10  444.86   25.10
   4   2  10  363.66   23.80
   4   2  10  460.15   25.50
  -6  -2 -10 1178.58   60.99
   6  -2  10 1306.17   62.09
   6   2  10  977.40   61.49
  -6   2 -10 1078.69   64.59
   6   2  10 1237.48   62.19
  -8  -2 -10  498.25   32.10
  -8   2 -10  488.75   28.40
  11  -3 -10  459.75   30.60
  11   3 -10  467.05   28.80
 -11   3  10  527.15   30.10
   9  -3 -10 1054.89   61.29
  -9  -3  10 1264.77   61.29
  -9   3  10 1057.99   61.19
   9   3 -10 1049.20   60.29
   9   3 -10 1153.58   60.19
   7  -3 -10 1425.86   76.59
  -7  -3  10 1536.75   77.79
  -7   3  10 1398.76   77.29
   7   3 -10 1360.86   75.79
   7   3 -10 1502.05   76.39
   5  -3 -10 1271.57   61.79
  -5  -3  10 1205.08   63.79
   5   3 -10 1197.58   62.19
  -5   3  10 1220.98   64.79
  -5   3  10 1049.30   61.89
   5   3 -10 1096.69   60.89
  -3  -3  10 1858.61  102.69
   3  -3 -10 2147.89  100.09
   3  -3 -10 1804.72  102.29
   3   3 -10 2022.90  101.49
  -3   3  10 1885.71  101.49
  -1  -3  10 1095.19   59.79
   1  -3 -10 1092.89   56.69
   1  -3 -10 1068.19   58.59
  -1   3  10 1101.19   58.89
   1   3 -10 1151.58   59.19
   1  -3  10 1605.34   81.89
  -1  -3 -10 1534.35   79.89
   1   3  10 1494.95   81.09
   1   3  10 1516.95   78.99
  -1   3 -10 1533.95   81.19
   3  -3  10 1523.35   77.39
  -3  -3 -10 1473.25   75.69
   3   3  10 1439.06   76.99
  -3   3 -10 1378.06   76.79
  -5  -3 -10  880.61   44.80
   5   3  10  749.92   45.20
   5   3  10  887.21   46.20
  -5   3 -10  854.51   46.00
  -7  -3 -10  702.43   37.40
  -7   3 -10  680.53   37.20
   7   3  10  607.94   37.50
  -9  -3 -10  567.14   34.60
  10  -4 -10  368.26   26.20
 -10  -4  10  460.55   30.20
  10   4 -10  466.25   24.90
  10   4 -10  388.26   24.90
 -10   4  10  419.56   26.30
  -8  -4  10   37.40    4.90
   8  -4 -10   41.40    6.60
   8   4 -10   37.30    4.40
   8   4 -10   38.00    4.50
  -8   4  10   42.10    6.80
   6  -4 -10   36.60    4.00
  -6  -4  10   32.00    4.40
   6   4 -10   46.40    4.40
  -6   4  10   44.00    5.10
   6   4 -10   29.40    3.40
  -6   4  10   24.20    3.30
   4  -4 -10  670.63   34.20
  -4  -4  10  623.04   36.50
   4   4 -10  620.94   34.70
   4   4 -10  626.74   33.90
  -4   4  10  604.64   34.90
  -4   4  10  674.43   36.10
  -2  -4  10  471.85   28.80
   2  -4 -10  452.95   28.00
   2  -4 -10  501.35   26.00
  -2   4  10  530.85   27.90
   2   4 -10  464.15   27.60
   0  -4  10  969.60   52.99
   0  -4 -10  931.71   50.79
   0   4  10  938.41   50.09
   0   4 -10 1006.00   52.59
   0   4  10  967.20   51.99
   2  -4  10 1165.78   62.89
  -2  -4 -10 1230.28   60.99
  -2   4 -10 1085.49   62.29
   2   4  10 1211.48   61.69
   2   4  10 1117.89   62.09
   4  -4  10 1535.75   75.49
  -4  -4 -10 1445.76   73.49
   4   4  10 1274.07   73.99
   4   4  10 1441.46   75.19
  -4   4 -10 1376.36   75.09
  -6  -4 -10  818.92   42.30
  -6   4 -10  749.82   42.00
   6   4  10  703.73   42.00
   8   4  10  404.06   34.50
  -8   4 -10  514.25   28.10
  11  -5 -10  317.67   21.80
  11   5 -10  288.97   20.60
   9  -5 -10  202.08   14.80
  -9  -5  10  219.98   15.40
  -9   5  10  181.48   14.60
   9   5 -10  206.28   13.20
   9   5 -10  191.08   13.50
   7  -5 -10 1000.90   53.99
  -7  -5  10 1030.00   54.69
  -7   5  10  947.71   54.89
   7   5 -10 1039.80   52.99
   7   5 -10  949.90   52.99
  -5  -5  10  682.23   38.10
   5  -5 -10  725.13   36.50
  -5   5  10  583.54   35.90
  -5   5  10  668.93   38.00
   5   5 -10  681.93   36.20
   3  -5 -10  638.64   33.40
   3   5 -10  597.04   34.20
  -3   5  10  626.84   34.40
   1  -5 -10  859.81   49.20
  -1  -5  10  923.41   51.29
   1   5 -10  915.31   50.39
  -1   5  10  938.51   48.30
  -1   5  10  945.61   49.80
   1  -5  10  713.93   39.70
  -1  -5 -10  706.53   37.10
  -1   5 -10  645.14   39.00
   1   5  10  696.93   37.20
   1   5  10  708.33   38.60
   3  -5  10  807.92   42.80
  -3  -5 -10  773.12   40.50
   3   5  10  724.43   41.30
   3   5  10  760.92   42.20
  -3   5 -10  762.72   42.70
   5  -5  10  889.51   43.50
  -5   5 -10  790.42   44.00
   5   5  10  679.83   42.90
  -7  -5 -10  218.18   14.70
   7   5  10  189.38   15.00
  -7   5 -10  237.48   15.00
  10  -6 -10   44.20    8.00
  10   6 -10   36.10    9.40
 -10   6  10   37.00    7.60
  -8  -6  10   65.39    7.50
   8  -6 -10   63.09    6.90
  -8   6  10   61.79    7.30
   8   6 -10   62.19    5.50
   8   6 -10   67.79    6.10
   6  -6 -10  488.85   27.20
  -6  -6  10  478.15   28.10
   6   6 -10  475.95   26.70
  -6   6  10  456.55   28.50
   6   6 -10  467.55   26.90
   4  -6 -10  683.73   35.70
  -4  -6  10  662.53   37.60
  -4   6  10  595.94   35.50
   4   6 -10  677.23   35.90
  -4   6  10  659.93   37.50
   2  -6 -10  255.47   14.40
  -2  -6  10  244.98   17.00
   2  -6 -10  251.97   16.00
  -2   6  10  261.27   15.50
   2   6 -10  203.78   15.50
   0  -6 -10   51.99    4.50
   0  -6  10   49.90    6.30
   0   6  10   55.59    5.50
   0   6 -10   53.79    6.20
   0   6  10   60.59    4.80
  -2  -6 -10  625.14   31.80
   2  -6  10  619.54   34.60
  -2   6 -10  573.14   34.20
   2   6  10  562.74   32.60
   2   6  10  584.64   33.40
   4  -6  10  555.44   29.40
  -4  -6 -10  511.05   29.40
   4   6  10  454.95   28.60
  -4   6 -10  494.65   29.60
  -6  -6 -10   49.40    5.70
  -6   6 -10   55.79   10.90
   8   6  10   65.89    9.90
   9  -7 -10   54.09    7.50
  -9  -7  10   45.80    5.90
   9   7 -10   52.89    5.70
  -9   7  10   43.60    7.90
  -7  -7  10   12.70    4.40
   7  -7 -10    6.50    2.90
   7   7 -10   13.10    2.90
  -7   7  10    5.40    3.50
   7   7 -10   13.10    3.30
  -5  -7  10   95.09    8.30
   5  -7 -10   87.39    7.20
  -5   7  10   88.69    8.50
   5   7 -10   96.89    8.10
   5   7 -10   97.49    7.00
   3  -7 -10  104.69    7.20
  -3  -7  10   83.39    8.40
   3   7 -10   93.79    7.80
  -3   7  10   93.89    7.20
  -1  -7  10    1.80    2.20
   1  -7 -10    8.50    2.60
  -1  -7  10    6.90    3.10
   1   7 -10    6.10    2.80
  -1   7  10   20.10    3.90
  -1  -7 -10   17.20    2.70
   1  -7  10   15.00    4.30
  -1   7 -10    5.80    2.70
   1   7  10    9.60    2.40
   3  -7  10   31.20    5.50
  -3  -7 -10   27.30    5.00
  -3   7 -10   15.30    4.10
   3   7  10   27.20    4.60
  -5  -7 -10    9.30    3.70
  -5   7 -10   23.30    4.90
   5   7  10   12.90    4.10
  -7  -7 -10   24.40    5.60
  -7   7 -10   34.30    6.30
   7   7  10   34.50    7.60
 -10  -8  10   28.30    6.30
  10  -8 -10   19.20    8.70
  -8  -8  10  433.06   26.40
   8  -8 -10  429.46   26.50
   6  -8 -10  421.16   24.90
  -6   8  10  414.26   26.20
   4  -8 -10 1156.38   63.59
  -4  -8  10 1265.17   65.99
   4  -8 -10 1203.98   64.09
  -4   8  10 1207.78   66.09
   4   8 -10 1197.78   64.29
  -2  -8  10  134.99   11.40
   2  -8 -10  144.89    9.80
   2  -8 -10  143.49   10.30
   2   8 -10  115.79   10.30
   0  -8 -10  288.27   17.40
   0  -8 -10  279.37   15.90
   0  -8  10  257.07   19.20
   0   8 -10  279.67   18.80
   2  -8  10  185.28   13.60
  -2  -8 -10  176.28   12.50
  -2   8 -10  176.28   13.50
   2   8  10  172.48   12.20
  -4  -8 -10   55.69    6.30
   4  -8  10   68.09    6.50
  -4   8 -10   53.79    6.70
   4   8  10   61.69    6.60
  -6  -8 -10   63.09   13.90
  -6   8 -10   75.29   11.50
   6   8  10   93.09   15.20
   9  -9 -10  261.87   19.00
  -9  -9  10  300.67   19.10
  -9   9  10  258.27   19.40
   7  -9 -10  597.84   34.20
  -7  -9  10  588.34   34.50
  -7   9  10  569.54   35.20
  -5  -9  10  384.46   24.30
   5  -9 -10  405.06   23.50
  -5   9  10  376.86   24.90
  -3  -9  10  672.83   38.30
   3  -9 -10  628.44   36.00
   3  -9 -10  684.13   36.50
   3   9 -10  622.34   36.70
   1  -9 -10  254.77   15.40
  -1  -9  10  255.97   18.60
   1  -9 -10  259.27   16.40
  -1   9  10  277.17   16.70
   1   9 -10  236.48   17.20
   1  -9  10  180.88   14.30
  -1  -9 -10  174.98   12.40
   1   9  10  171.58   12.30
  -1   9 -10  162.98   13.30
  -3  -9 -10  598.74   34.80
   3  -9  10  633.34   35.30
  -3   9 -10  604.34   36.00
   3   9  10  565.44   34.70
  -5  -9 -10  243.68   16.80
   5   9  10  228.38   16.90
  -5   9 -10  219.88   16.70
   8 -10 -10   27.70    6.40
  -8 -10  10   44.20    7.40
  -8  10  10   30.90    6.30
   6 -10 -10   57.39    6.30
  -6  10  10   38.80    7.70
   4 -10 -10  375.16   22.70
  -4 -10  10  358.76   23.60
  -4  10  10  354.36   23.80
   4  10 -10  395.86   22.30
   2 -10 -10  365.76   22.10
   2  10 -10  370.16   22.80
  -2  10  10  367.56   22.50
   0 -10 -10  589.24   32.70
   0 -10  10  579.74   35.20
   0  10 -10  483.55   33.10
   0  10  10  592.34   33.00
  -2 -10 -10  482.05   29.00
   2 -10  10  530.75   30.80
  -2  10 -10  470.45   30.20
   2  10  10  456.65   33.10
  -4 -10 -10  809.92   45.20
   4  10  10  784.32   45.50
  -4  10 -10  762.12   45.80
   6  10  10  681.03   49.70
   7 -11 -10 1006.30   57.19
  -7 -11  10 1070.79   57.49
  -7  11  10  970.00   64.89
   5 -11 -10  823.32   45.30
  -5 -11  10  794.12   45.80
  -5  11  10  780.02   46.30
  -3 -11  10 1189.28   66.39
   3 -11 -10 1204.58   65.19
   1 -11 -10  971.90   57.49
  -1 -11  10 1038.30   58.59
   1  11 -10 1053.39   56.69
  -1  11  10 1031.60   56.79
   1 -11  10 1084.09   59.79
  -1 -11 -10 1066.89   57.59
  -1  11 -10  909.61   57.79
   1  11  10 1093.49   58.09
  -3 -11 -10 1051.99   57.59
  -3  11 -10  984.60   57.89
   5  11  10  735.43   45.50
   6 -12 -10 1655.33   90.39
  -6 -12  10 1702.43   92.29
  -4 -12  10 1116.89   62.79
   4 -12 -10 1127.89   62.19
   2 -12 -10 1044.70   57.69
   0 -12 -10  480.55   30.10
   0 -12  10  457.65   30.40
   0  12 -10  455.75   28.50
   0  12  10  466.85   28.90
   2  12  10  255.17   17.90
  -2  12 -10  223.58   17.90
   5 -13 -10  997.70   61.59
   3 -13 -10 1477.25   89.19
  -3 -13  10 1519.25   82.29
   1 -13 -10 1123.09   61.79
  -1  13  10 1087.69   67.19
  -1 -13 -10  533.25   32.50
  -1  13 -10  532.45   32.40
   1  13  10  515.85   32.80
 -10   0  11    3.10    2.60
  10   0 -11    2.30    3.30
   8   0 -11    6.30    3.40
  -8   0  11    3.60    3.10
  -8   0  11    5.50    2.90
  -6   0  11    8.10    3.20
   6   0 -11    9.80    3.00
   6   0 -11    0.90    1.90
   4   0 -11    4.30    2.90
  -4   0  11   10.40    3.10
  -2   0  11   22.20    4.40
   0   0 -11    8.60    2.60
   0   0  11   13.60    3.50
   2   0  11    8.50    2.80
  -2   0 -11    2.90    1.90
   4   0  11    6.10    2.70
  -4   0 -11    7.20    2.70
   6   0  11   11.20    3.80
  -6   0 -11    7.20    3.20
  -8   0 -11    2.70    4.40
  11  -1 -11   40.90    7.70
 -11   1  11   22.70    6.00
  11   1 -11   38.40    6.90
  -9  -1  11  141.79   11.20
   9  -1 -11  121.49   10.90
  -9   1  11  110.79    9.60
   9   1 -11  136.49   10.70
   7  -1 -11   41.00    6.50
  -7  -1  11   25.30    5.70
   7   1 -11   37.90    5.80
   7   1 -11   32.40    5.50
  -7   1  11   25.00    5.20
  -7   1  11   31.90    5.30
  -5  -1  11  125.69   10.30
   5  -1 -11  146.89    9.30
   5  -1 -11  133.19   10.00
   5   1 -11  142.19   10.10
  -5   1  11  124.69    9.90
   5   1 -11  130.39    8.90
   3  -1 -11  282.67   18.80
  -3  -1  11  314.57   19.20
  -3   1  11  321.27   18.80
   3   1 -11  286.37   18.30
  -1  -1  11  208.78   13.80
   1  -1 -11  199.08   12.90
   1   1 -11  212.28   13.30
  -1   1  11  185.08   13.20
  -1  -1 -11  802.22   44.20
   1  -1  11  842.02   45.60
  -1   1 -11  811.22   44.70
   1   1  11  825.02   46.70
  -3  -1 -11   34.20    4.90
   3  -1  11   40.70    4.80
   3   1  11   39.20    4.80
  -3   1 -11   31.40    4.80
   5  -1  11  187.38   12.70
  -5  -1 -11  173.18   11.60
  -5   1 -11  157.28   11.70
   5   1  11  196.78   12.80
  -7  -1 -11   36.80    5.20
  -7  -1 -11   29.00    5.50
  -7   1 -11   45.40    5.00
  10  -2 -11  403.16   26.70
  10   2 -11  472.05   25.90
 -10   2  11  425.36   31.50
  10   2 -11  397.06   25.40
  -8  -2  11  779.92   41.80
   8  -2 -11  687.63   40.80
  -8   2  11  695.63   40.70
   8   2 -11  704.33   40.10
   8   2 -11  765.42   40.70
   6  -2 -11  965.70   51.39
  -6   2  11  940.31   51.89
   6   2 -11 1035.10   51.99
  -6   2  11  918.61   51.79
   6   2 -11  922.91   50.49
   4  -2 -11  476.85   23.60
   4  -2 -11  389.16   28.80
  -4  -2  11  417.56   25.90
  -4   2  11  405.26   24.80
   4   2 -11  424.16   24.70
  -2  -2  11 1069.69   54.99
   2  -2 -11  921.71   53.89
  -2   2  11 1039.20   54.09
   2   2 -11  956.50   53.59
   0  -2 -11  713.63   40.40
   0  -2  11  769.42   42.20
   0   2 -11  751.22   41.50
   0   2  11  766.12   41.80
  -2  -2 -11 1019.60   55.19
   2  -2  11 1090.39   57.09
   2   2  11  980.90   53.69
   2   2  11 1085.39   56.79
  -2   2 -11 1044.10   56.29
  -4  -2 -11  942.01   49.30
   4  -2  11 1043.70   51.09
  -4   2 -11  887.41   49.99
   4   2  11  798.72   48.30
   4   2  11  955.40   50.69
   6  -2  11  316.27   18.20
  -6  -2 -11  273.97   17.00
  -6   2 -11  279.47   17.90
   6   2  11  278.97   18.00
  -8   2 -11  227.88   15.10
 -11   3  11  365.16   24.10
  11   3 -11  392.56   23.20
  -9  -3  11  687.83   35.90
   9  -3 -11  566.74   35.50
   9   3 -11  633.44   36.10
   9   3 -11  578.94   34.40
  -9   3  11  591.94   35.50
   7  -3 -11  869.71   48.50
  -7  -3  11  957.50   49.90
   7   3 -11  842.82   47.20
  -7   3  11  861.61   48.90
   7   3 -11  904.21   48.30
  -5  -3  11 1174.88   64.09
   5  -3 -11 1233.38   61.69
  -5   3  11 1073.49   62.49
   5   3 -11 1147.49   62.39
  -5   3  11 1229.48   63.19
   3  -3 -11  521.95   33.00
   3  -3 -11  609.44   30.70
  -3  -3  11  586.74   33.90
  -3   3  11  599.04   32.80
   3   3 -11  559.94   32.10
  -1  -3  11   91.39    8.20
   1  -3 -11   92.29    7.40
  -1   3  11   96.29    7.80
   1   3 -11   93.49    7.80
   1  -3  11   53.89    8.80
  -1  -3 -11   31.40    3.40
   1   3  11   28.30    3.90
  -1   3 -11   25.30    4.60
   1   3  11   31.00    2.60
   3  -3  11  308.07   18.70
   3   3  11  289.17   18.20
  -3   3 -11  264.77   17.90
   5  -3  11 1027.10   51.39
  -5  -3 -11  937.11   49.60
   5   3  11  810.42   49.60
  -5   3 -11  967.00   52.79
   5   3  11  939.41   51.39
  -7  -3 -11  447.16   31.30
  -7   3 -11  464.85   27.00
  10  -4 -11  667.53   43.00
 -10  -4  11  810.72   42.60
 -10   4  11  735.33   43.10
  10   4 -11  774.92   41.60
  -8  -4  11 1808.62   89.29
   8  -4 -11 1602.24   88.39
   8   4 -11 1574.14   87.29
  -8   4  11 1590.24   88.99
   8   4 -11 1754.92   87.79
   6  -4 -11 1578.84   80.79
  -6  -4  11 1560.24   82.59
  -6   4  11 1516.35   81.99
   6   4 -11 1488.25   80.59
   4  -4 -11 1645.24   77.19
  -4  -4  11 1468.45   79.79
   4  -4 -11 1433.36   79.19
   4   4 -11 1506.45   78.79
  -4   4  11 1345.87   78.09
   2  -4 -11 1918.61   91.59
   2  -4 -11 1677.63   93.89
  -2  -4  11 1799.12   96.99
   2   4 -11 1712.53   93.49
  -2   4  11 1777.02   93.69
   0  -4 -11 1375.66   74.49
   0  -4  11 1475.75   77.29
   0   4 -11 1462.85   76.49
   0   4  11 1417.86   73.59
   0   4  11 1397.56   75.89
  -2  -4 -11 1991.70   97.49
   2  -4  11 1887.71   99.69
   2   4  11 1796.92   98.79
  -2   4 -11 1828.12   99.19
   4  -4  11 1219.98   60.09
  -4  -4 -11 1104.69   57.89
   4   4  11 1129.79   59.79
   4   4  11 1013.30   57.99
  -4   4 -11 1033.50   59.49
  -6  -4 -11  927.81   48.20
  -6   4 -11  865.91   47.90
   6   4  11  803.52   47.90
  -8  -4 -11  621.54   37.30
  11  -5 -11  380.46   27.30
  -9  -5  11  646.54   37.20
   9  -5 -11  611.54   37.30
   9   5 -11  676.03   36.80
   7  -5 -11  516.45   30.40
  -7  -5  11  547.45   31.50
   7   5 -11  531.75   29.50
  -7   5  11  529.25   31.50
   5  -5 -11 2087.89  106.89
  -5  -5  11 2063.69  109.09
  -5   5  11 2146.49  108.89
   5   5 -11 1949.90  106.79
   3  -5 -11  838.12   51.69
  -3  -5  11  909.01   50.99
   3  -5 -11  982.90   48.00
  -3   5  11  882.51   49.30
  -1  -5  11 2870.11  150.68
   1  -5 -11 2973.10  148.29
   1   5 -11 2919.91  149.69
  -1   5  11 2706.63  148.89
   1  -5  11 2235.68  118.79
  -1  -5 -11 2272.47  115.89
   1   5  11 2141.59  117.49
  -1   5 -11 2299.57  118.69
   1   5  11 2283.87  115.79
  -3  -5 -11 1449.65   73.09
   3  -5  11 1444.46   75.49
   3   5  11 1426.16   75.19
   3   5  11 1397.96   73.59
  -3   5 -11 1284.37   75.19
  -5  -5 -11  847.82   45.60
   5  -5  11  895.81   45.40
   5   5  11  726.53   44.20
  -5   5 -11  789.02   45.50
  -7  -5 -11  631.04   37.70
  -7   5 -11  637.54   36.60
  10  -6 -11  733.43   49.50
 -10  -6  11  852.91   45.10
 -10   6  11  776.72   45.90
   8  -6 -11 1175.18   69.09
  -8  -6  11 1289.77   67.89
  -8   6  11 1236.48   68.39
   8   6 -11 1282.07   65.69
   6  -6 -11 1314.47   69.89
  -6  -6  11 1329.87   71.39
   6   6 -11 1293.57   69.09
  -6   6  11 1334.97   71.59
  -4  -6  11 1321.17   70.39
   4  -6 -11 1375.76   67.99
  -4   6  11 1098.69   68.09
   4   6 -11 1375.86   68.39
   2  -6 -11 2222.48  104.69
   2  -6 -11 1934.31  107.39
  -2  -6  11 2050.69  108.09
  -2   6  11 1930.71  105.99
   2   6 -11 1959.30  106.39
   0  -6 -11 1205.28   63.59
   0  -6  11 1221.38   67.09
   0   6  11 1233.38   63.69
   0   6 -11 1180.18   66.29
   0   6  11 1213.68   65.29
   2  -6  11 1429.66   77.29
  -2  -6 -11 1503.95   74.39
   2   6  11 1417.26   76.29
  -2   6 -11 1279.57   76.89
   2   6  11 1487.65   75.09
  -4  -6 -11 1606.94   84.39
   4  -6  11 1664.93   84.39
   4   6  11 1543.55   83.29
  -4   6 -11 1494.15   84.69
  -6  -6 -11  696.13   37.70
  -6   6 -11  647.14   37.70
   6   6  11  605.04   37.00
   9  -7 -11 3013.60  164.78
  -9  -7  11 3221.48  162.98
  -7  -7  11  901.41   50.39
   7  -7 -11  893.51   49.70
   7   7 -11  913.71   48.10
  -7   7  11  906.71   50.99
  -5  -7  11 2128.69  112.39
   5  -7 -11 2085.79  110.59
   5   7 -11 2056.99  110.19
  -5   7  11 2236.28  112.89
  -3  -7  11 1140.39   62.49
   3  -7 -11 1196.58   59.79
   3  -7 -11 1076.69   61.59
   3   7 -11 1167.18   60.89
  -3   7  11 1053.79   60.29
  -1  -7  11 1648.54   88.29
   1  -7 -11 1645.84   84.89
  -1   7  11 1647.44   85.99
  -1   7  11 1785.52   84.99
   1   7 -11 1353.66   86.29
  -1  -7 -11 1499.85   75.19
   1  -7  11 1441.96   79.09
  -1   7 -11 1303.97   78.39
   1   7  11 1539.25   76.29
   1   7  11 1425.16   77.19
   3  -7  11 1612.44   83.39
  -3  -7 -11 1559.84   82.79
   3   7  11 1528.45   81.79
  -3   7 -11 1482.65   83.69
  -5  -7 -11  540.65   32.60
  -5   7 -11  561.34   33.20
  -8  -8  11  798.42   44.00
   8  -8 -11  758.62   43.60
  -8   8  11  738.63   44.30
  -6  -8  11 1146.69   63.49
   6  -8 -11 1143.59   62.39
   6   8 -11 1194.68   61.39
  -6   8  11 1147.39   63.99
   4  -8 -11  997.70   52.99
   4  -8 -11  931.91   52.89
  -4  -8  11 1017.10   55.09
   4   8 -11  996.00   53.19
   2  -8 -11 1699.23   81.19
   2  -8 -11 1540.75   81.59
   2  -8 -11 1487.65   81.79
  -2  -8  11 1644.44   84.49
   2   8 -11 1327.07   82.09
   0  -8 -11 1065.39   58.09
   0  -8 -11 1054.19   56.29
   0  -8  11 1062.79   60.79
   0   8  11 1104.69   57.59
   2  -8  11  778.12   44.70
  -2  -8 -11  775.92   43.50
   2   8  11  762.42   42.70
  -4   8 -11  578.54   36.40
   4   8  11  567.54   33.50
  -6  -8 -11  609.94   37.20
  -6   8 -11  600.14   37.80
   6   8  11  594.74   35.80
   9  -9 -11  547.05   33.70
   7  -9 -11  706.23   39.90
  -7  -9  11  702.83   40.50
  -7   9  11  682.33   47.90
   5  -9 -11 1314.37   71.79
  -5  -9  11 1357.46   73.29
   5   9 -11 1364.16   71.19
   3  -9 -11 1300.87   66.09
  -3  -9  11 1287.97   70.19
   3  -9 -11 1231.68   66.09
   3  -9 -11 1170.68   66.89
   3   9 -11 1190.58   66.59
  -1  -9  11 2755.92  142.29
   1  -9 -11 2752.92  139.29
   1   9 -11 2237.58  139.89
  -1   9  11 2923.51  139.29
   1  -9  11 2341.57  124.79
  -1  -9 -11 2232.78  122.09
   1   9  11 2405.06  121.99
  -3  -9 -11 1091.39   63.79
  -3   9 -11 1123.39   62.69
  -5  -9 -11  791.02   45.00
   5   9  11  755.12   44.80
  -5   9 -11  791.92   45.90
   8 -10 -11  524.35   31.90
  -8 -10  11  562.14   36.60
  -8  10  11  506.95   34.20
  -6 -10  11  316.77   20.60
   6 -10 -11  306.17   19.70
  -6  10  11  293.07   22.10
  -4 -10  11  506.05   30.90
   4 -10 -11  455.35   29.90
   4  10 -11  549.45   29.40
   2 -10 -11  773.02   45.40
   2 -10 -11  898.41   45.90
  -2 -10  11  799.82   47.70
   2  10 -11  814.02   46.30
   0 -10  11  349.87   24.20
   0 -10 -11  341.67   21.80
   0  10  11  357.76   21.90
   2 -10  11 1010.50   54.49
   2  10  11  943.31   52.49
  -2  10 -11  872.41   53.99
  -4 -10 -11  471.85   29.00
   4  10  11  436.96   28.40
  -4  10 -11  484.05   30.30
   7 -11 -11  574.54   34.10
  -7  11  11  571.44   35.00
  -5 -11  11  711.63   44.60
  -5  11  11  713.73   41.90
   3 -11 -11  580.24   33.00
   3  11 -11  546.65   33.40
   1 -11 -11   45.50    5.90
  -1 -11  11   63.19   10.10
  -1  11  11   44.50    5.80
   1  11 -11   69.29    7.60
  -1 -11 -11  115.99   10.10
  -1  11 -11   90.19   10.20
   1  11  11  117.59   10.00
  -3 -11 -11  295.97   20.00
   3  11  11  281.67   19.70
  -3  11 -11  277.67   20.90
   6 -12 -11  551.94   33.90
  -6  12  11  540.55   33.70
   4 -12 -11  102.39    9.40
  -4 -12  11  106.39   10.20
   2 -12 -11  284.47   23.90
  -2 -12  11  266.47   19.60
   2 -12 -11  248.98   17.80
   0 -12 -11  340.07   22.60
   0 -12  11  368.36   24.70
   0  12  11  358.76   23.00
   0  12 -11  318.17   24.20
  -2 -12 -11  167.68   13.00
  -2  12 -11  140.19   13.40
   2  12  11  137.89   13.70
   3 -13 -11   47.70    7.90
  -1 -13  11   59.39    8.40
   1 -13 -11   66.09    8.10
   1 -13  11   17.50    6.20
   1  13  11    8.50    6.60
  -1  13 -11   10.20    6.30
   8   0 -12 3275.87  158.78
  -8   0  12 2656.13  153.68
   6   0 -12 1419.26   75.89
   4   0 -12 4595.84  221.38
  -4   0  12 3981.30  221.28
   2   0 -12 2094.99  110.99
   0   0  12 2399.16  128.19
   0   0 -12 2492.65  127.19
  -2   0 -12  821.32   46.50
   2   0  12  893.11   48.10
  -4   0 -12 1236.98   69.89
   4   0  12 1402.36   71.59
  -6   0 -12 1056.19   58.79
   6   0  12 1133.79   59.79
  -8   0 -12 1894.81  104.49
  11   1 -12  704.83   39.00
 -11   1  12  646.44   38.40
   9  -1 -12  675.43   43.00
  -9  -1  12  792.02   42.90
   9   1 -12  788.42   42.20
  -9   1  12  713.73   41.50
  -7  -1  12 1552.34   83.39
  -7   1  12 1470.05   82.79
   7   1 -12 1608.44   82.29
   5  -1 -12 1412.56   74.99
  -5  -1  12 1330.57   75.59
  -5   1  12 1347.87   74.99
   5   1 -12 1508.05   74.89
   3  -1 -12 1507.65   81.99
   3   1 -12 1558.74   81.49
  -3   1  12 1545.45   81.89
  -1  -1  12 1689.53   87.39
   1   1 -12 1604.74   86.19
  -1   1  12 1610.24   86.89
   1  -1  12  951.80   52.39
  -1  -1 -12  901.81   50.79
   1   1  12  969.20   52.29
  -1   1 -12  957.50   51.39
  -3  -1 -12 1515.45   82.29
   3  -1  12 1642.74   84.19
  -3   1 -12 1510.55   82.79
   3   1  12 1597.54   83.99
  -5  -1 -12  997.70   55.19
   5  -1  12 1106.29   56.99
  -5   1 -12  960.80   55.49
   5   1  12 1056.69   57.69
  -7  -1 -12  728.23   41.00
  -7  -1 -12  785.22   42.20
  -7   1 -12  729.93   41.70
  10  -2 -12  605.64   38.30
 -10   2  12  672.93   37.10
   8  -2 -12  479.85   29.70
  -8  -2  12  549.35   31.10
  -8   2  12  481.05   29.50
   8   2 -12  526.15   29.70
  -6  -2  12 1047.30   56.69
   6   2 -12 1052.99   55.09
  -6   2  12  944.41   55.19
   4  -2 -12 1657.93   86.29
  -4  -2  12 1617.64   86.69
   4   2 -12 1668.93   85.19
  -4   2  12 1514.15   85.39
  -2  -2  12 1549.94   80.99
   2  -2 -12 1502.75   80.99
   2   2 -12 1459.75   79.59
   0  -2  12 3751.12  201.28
   0  -2 -12 4075.19  200.88
   0   2 -12 4083.39  200.78
   0   2  12 3627.84  200.68
   2  -2  12 1896.21  100.49
  -2  -2 -12 1901.81   98.59
  -2   2 -12 1873.01   99.69
   2   2  12 1891.31  100.29
  -4  -2 -12 1669.83   86.59
   4  -2  12 1761.12   88.39
  -4   2 -12 1501.65   87.19
   4   2  12 1668.23   88.09
  -6  -2 -12 1176.38   61.59
   6  -2  12 1267.07   62.99
   6   2  12 1145.59   62.89
  -6   2 -12 1030.50   63.19
  11   3 -12  409.76   24.70
  -9  -3  12 1227.98   61.69
   9  -3 -12 1008.40   60.79
  -9   3  12 1069.59   60.79
   9   3 -12 1144.39   60.39
  -7  -3  12 1048.10   54.89
   7  -3 -12  988.30   54.39
  -7   3  12  995.40   53.69
  -7   3  12  820.62   52.79
   7   3 -12 1044.40   53.19
   5  -3 -12  950.40   51.59
  -5  -3  12  937.81   52.39
  -5   3  12  913.21   50.99
   5   3 -12  926.51   50.19
  -3  -3  12 1580.44   83.49
   3  -3 -12 1452.55   82.59
   3   3 -12 1609.44   81.59
  -3   3  12 1532.85   82.29
  -1  -3  12 1370.86   75.49
  -1   3  12 1364.66   74.59
   1   3 -12 1443.46   74.59
   1  -3  12 1175.18   63.39
  -1  -3 -12 1131.59   60.99
   1   3  12 1156.58   62.69
  -1   3 -12 1144.39   62.59
  -3  -3 -12 1492.35   76.89
   3  -3  12 1516.35   79.09
  -3   3 -12 1391.26   78.19
   3   3  12 1452.35   78.59
   5  -3  12  510.85   29.00
  -5  -3 -12  475.45   27.00
  -5   3 -12  428.56   28.00
   5   3  12  510.85   29.00
  -7  -3 -12  558.24   35.20
  -7   3 -12  628.14   34.40
 -10  -4  12  891.61   47.00
 -10   4  12  763.82   46.70
   8  -4 -12 1119.29   64.19
  -8  -4  12 1285.27   65.49
   8   4 -12 1227.18   63.79
  -8   4  12 1129.19   64.69
   6  -4 -12 1382.96   71.99
  -6  -4  12 1375.06   74.09
  -6   4  12 1366.86   73.29
   6   4 -12 1326.97   71.89
   4  -4 -12  780.72   45.50
  -4  -4  12  819.92   46.10
   4   4 -12  841.82   43.90
  -4   4  12  783.82   44.60
  -2  -4  12  237.28   17.20
   2  -4 -12  243.38   16.20
  -2   4  12  267.47   16.50
   2   4 -12  240.08   15.90
   0  -4  12   35.70    6.50
   0   4 -12   37.00    6.40
   0   4  12   40.30    6.50
  -2  -4 -12  365.76   21.60
   2  -4  12  384.66   24.00
   2   4  12  388.16   23.40
  -2   4 -12  376.96   23.60
  -4  -4 -12  526.55   28.80
   4  -4  12  561.44   31.00
   4   4  12  517.15   30.70
  -4   4 -12  465.35   30.30
  -6  -4 -12  328.97   20.60
  -6   4 -12  309.57   20.40
   9  -5 -12  411.76   26.50
  -9  -5  12  466.15   26.80
  -9   5  12  398.96   26.50
   9   5 -12  444.16   25.00
  -7  -5  12  629.04   35.10
   7  -5 -12  581.84   33.60
   7   5 -12  592.84   32.80
  -7   5  12  573.74   34.50
   5  -5 -12  559.84   28.40
  -5  -5  12  512.95   30.60
  -5   5  12  441.36   28.80
   5   5 -12  509.15   28.30
   3  -5 -12  274.17   16.00
   3  -5 -12  215.68   16.30
  -3  -5  12  223.68   16.80
   3   5 -12  254.57   15.50
  -3   5  12  239.58   15.90
  -1  -5  12 1097.59   58.39
   1  -5 -12 1006.70   55.29
   1   5 -12 1007.20   56.79
  -1   5  12 1022.40   56.49
  -1  -5 -12  637.04   35.90
   1  -5  12  705.43   39.30
  -1   5 -12  663.63   38.70
   1   5  12  663.23   35.50
   1   5  12  652.73   37.90
  -3  -5 -12  660.23   34.80
   3  -5  12  679.03   37.50
  -3   5 -12  560.44   42.70
   3   5  12  629.44   37.80
  -5  -5 -12  359.16   24.40
   5  -5  12  388.26   28.20
  10  -6 -12   54.49    7.40
 -10  -6  12   57.09   10.10
  -8  -6  12   18.80    4.50
   8  -6 -12   16.40    5.20
   8   6 -12    6.90    3.10
  -8   6  12   19.70    7.00
  -6  -6  12   10.30    4.00
   6  -6 -12   22.40    4.10
   6   6 -12   37.80    4.90
  -6   6  12   31.70    8.00
  -6   6  12   16.40    3.80
   4  -6 -12   42.60    4.10
   4  -6 -12   43.40    7.20
  -4  -6  12   33.00    6.90
  -4   6  12   32.90    5.50
   4   6 -12   36.60    4.20
  -2  -6  12   51.09    8.80
   2  -6 -12   57.39    5.20
   2  -6 -12   68.09    6.60
  -2   6  12   57.49    6.00
   2   6 -12   63.19    6.30
   0  -6 -12  199.58   12.60
   0  -6  12  200.28   15.50
   0   6  12  209.98   12.50
   0   6  12  216.08   14.50
   0   6 -12  183.88   14.90
  -2  -6 -12  442.76   24.00
   2  -6  12  446.56   27.20
  -2   6 -12  414.46   27.00
   2   6  12  399.86   26.90
   2   6  12  434.46   24.30
  -4  -6 -12  132.59   10.80
   4  -6  12  126.49   11.60
  -4   6 -12  126.09   11.10
  -6  -6 -12   55.69    6.50
  -6   6 -12   49.90    8.30
  -9  -7  12   50.79   11.00
   9  -7 -12   37.50    7.20
  -9   7  12   45.00    7.50
  -7  -7  12   12.20    4.30
   7  -7 -12    8.80    3.60
   7   7 -12    9.00    2.80
  -7   7  12    8.10    3.30
   5  -7 -12   19.80    3.80
   5   7 -12   13.00    3.10
  -5   7  12   20.50    4.10
   3  -7 -12   71.69    7.50
   3  -7 -12   79.89    6.10
  -3  -7  12   65.99    7.70
  -3   7  12   80.29    7.00
   3   7 -12   63.39    6.60
   1  -7 -12   28.20    4.30
  -1  -7  12   25.70    6.50
  -1   7  12   14.40    3.90
   1   7 -12   13.80    4.30
   1  -7  12   41.10    8.00
  -1  -7 -12   33.20    3.70
   1   7  12   44.80    4.60
  -1   7 -12   55.29    9.20
   1   7  12   45.10    7.20
  -3  -7 -12   28.80    5.90
   3  -7  12   51.19    9.00
  -3   7 -12   26.10    6.60
   3   7  12   37.50    4.80
  -8  -8  12   12.40    4.50
  -6  -8  12   81.39    8.10
   6  -8 -12   76.69    7.30
   6   8 -12   89.79    6.90
  -6   8  12   82.49    8.60
   4  -8 -12   27.30    3.80
   4  -8 -12   39.90    6.70
   4  -8 -12   25.00    4.40
  -4  -8  12   32.00    6.60
   4   8 -12   17.60    4.10
   2  -8 -12  136.19    9.30
  -2  -8  12  112.29   12.30
   2  -8 -12  124.89    9.80
   2   8 -12  137.79   10.90
   0  -8  12  316.27   22.90
   0  -8 -12  319.27   21.70
   0   8  12  327.57   19.50
  -2  -8 -12  797.22   45.50
   2  -8  12  905.41   49.70
   2   8  12  798.32   44.20
  -2   8 -12  720.73   46.70
  -4  -8 -12   46.10    6.20
  -4   8 -12   47.00    8.60
  -7  -9  12  295.77   23.50
   7  -9 -12  296.97   22.70
  -7   9  12  285.67   19.90
  -5  -9  12  174.18   13.80
   5  -9 -12  188.38   15.70
   5   9 -12  185.28   12.40
   3  -9 -12  468.75   29.90
   3  -9 -12  559.84   29.40
  -3  -9  12  497.65   31.40
   3  -9 -12  508.95   29.60
   3   9 -12  500.75   29.90
  -1  -9  12  655.83   40.80
   1  -9 -12  682.83   43.70
  -1   9  12  682.03   37.80
  -1  -9 -12  227.38   15.40
   1  -9  12  239.98   17.70
   1   9  12  220.68   14.80
  -1   9 -12  178.48   16.20
   3  -9  12  511.05   29.90
  -3  -9 -12  465.85   29.00
   3   9  12  463.85   28.10
  -3   9 -12  443.56   30.40
  -6 -10  12  970.10   57.79
  -6  10  12 1033.60   56.59
   4 -10 -12  538.25   30.20
   4 -10 -12  491.75   31.00
  -4 -10  12  509.15   32.00
   4  10 -12  533.05   30.10
   2 -10 -12   82.99    7.80
   2 -10 -12   86.99    7.90
  -2 -10  12   82.59    9.20
   2  10 -12   85.09   16.20
   0 -10  12   76.79    9.50
   0 -10 -12   83.09    7.90
   0  10 -12   67.39    8.60
  -2 -10 -12  168.88   13.60
   2 -10  12  199.68   16.30
   2  10  12  178.88   13.30
  -2  10 -12  160.18   14.70
   5 -11 -12  519.95   33.70
   5 -11 -12  608.04   33.70
  -5 -11  12  583.84   34.70
  -3 -11  12  800.02   47.40
   3 -11 -12  853.31   45.90
   3  11 -12  790.82   46.10
   1 -11 -12  856.71   52.79
  -1 -11  12  833.62   48.70
   1  11 -12  769.12   46.60
   1 -11  12 1050.39   57.59
  -1  11 -12  820.52   55.49
   1  11  12 1073.29   60.39
   3  11  12  859.51   48.90
   4 -12 -12  708.13   42.20
  -2 -12  12  257.47   19.50
   2 -12 -12  276.77   18.50
   0 -12  12 1446.26   81.69
   0 -12 -12 1448.26   79.59
   0  12  12 1469.25   84.69
   0  12 -12 1476.05   85.59
   2  12  12  612.34   37.90
  10   0 -13   10.70    5.10
   8   0 -13    7.50    3.40
  -8   0  13    3.30    4.10
  -6   0  13    6.30    3.10
   6   0 -13    5.90    3.30
   4   0 -13    0.90    2.30
  -4   0  13   13.80    4.30
   2   0 -13    8.60    3.00
  -2   0  13   15.40    4.40
   0   0  13   14.60    4.20
   0   0 -13   11.30    3.20
   2   0  13   10.00    3.90
  -2   0 -13    8.70    3.10
   4   0  13   16.70    4.70
  -4   0 -13    8.50    3.70
   6   0  13    8.00    4.30
  -6   0 -13    5.50    2.80
   9  -1 -13  599.64   38.70
  -9  -1  13  588.74   34.30
   9   1 -13  530.25   33.10
  -7  -1  13  112.39   10.70
   7   1 -13  132.09   10.10
  -7   1  13  119.39   10.50
   5  -1 -13   17.50    4.70
  -5  -1  13   13.20    4.40
  -5   1  13   16.40    4.50
   5   1 -13   14.30    3.90
  -3  -1  13  562.14   31.90
   3  -1 -13  502.35   30.70
  -3   1  13  532.55   31.20
   3   1 -13  521.75   30.40
  -1  -1  13  234.78   16.10
   1  -1 -13  225.58   14.90
   1   1 -13  216.28   15.00
  -1   1  13  245.78   16.10
  -1  -1 -13   64.39    6.20
   1  -1  13   59.99    7.00
  -1   1 -13   74.19    6.90
   1   1  13   80.19    7.70
   3  -1  13  116.89   10.00
  -3  -1 -13  107.79    8.60
  -3   1 -13   96.69    8.70
   3   1  13  120.49   10.10
  -5  -1 -13   88.99    7.70
   5  -1  13   91.19    8.50
  -5   1 -13   82.49    7.80
   5   1  13   97.09    8.70
  -7  -1 -13  460.65   28.00
  -7   1 -13  473.55   27.80
  10   2 -13  399.16   23.50
 -10   2  13  350.86   23.10
  -8  -2  13  524.45   31.60
   8   2 -13  504.75   30.10
   6  -2 -13  450.95   27.20
  -6  -2  13  445.36   28.30
  -6   2  13  448.76   27.50
   6   2 -13  465.15   26.70
   4  -2 -13  559.04   33.20
  -4  -2  13  578.04   34.10
  -4   2  13  549.35   32.90
   4   2 -13  580.44   32.20
   2  -2 -13  996.40   54.59
  -2  -2  13 1036.10   55.99
   2   2 -13  929.71   54.09
  -2   2  13 1037.20   55.29
   0  -2  13  916.71   51.39
   0  -2 -13  842.22   49.10
   0   2 -13  944.21   50.59
   0   2  13  945.01   50.99
   2  -2  13  410.36   25.00
  -2  -2 -13  354.86   22.50
   2   2  13  414.76   24.80
  -2   2 -13  379.46   23.70
   4  -2  13  676.13   38.30
  -4  -2 -13  621.64   34.90
   4   2  13  627.84   36.60
  -4   2 -13  581.04   35.60
  -6  -2 -13  211.98   15.80
  -6   2 -13  173.28   14.20
  -9  -3  13  448.26   26.50
  -9   3  13  373.26   25.10
   9   3 -13  429.66   25.20
  -7  -3  13  189.48   13.80
  -7   3  13  148.09   12.30
   7   3 -13  162.68   11.70
  -5  -3  13  576.64   34.60
   5  -3 -13  579.64   33.80
  -5   3  13  576.44   33.50
   5   3 -13  567.74   32.30
  -3  -3  13  864.11   48.50
   3  -3 -13  792.62   47.30
  -3   3  13  872.31   47.40
   3   3 -13  854.51   46.30
   1  -3 -13 1601.64   84.19
  -1  -3  13 1604.74   86.29
  -1   3  13 1593.94   85.39
   1   3 -13 1575.84   84.99
  -1  -3 -13 1286.07   68.09
   1  -3  13 1275.37   70.59
  -1   3 -13 1315.07   69.89
   1   3  13 1261.77   69.89
   3  -3  13  690.23   40.20
  -3  -3 -13  681.93   37.90
   3   3  13  698.33   40.10
  -3   3 -13  690.83   39.80
   5  -3  13   45.70    5.80
  -5  -3 -13   39.00    4.50
  -5   3 -13   30.20    6.70
 -10  -4  13  658.53   40.20
 -10   4  13  593.34   36.60
  10   4 -13  636.04   36.60
  -8  -4  13 1360.46   71.69
   8   4 -13 1275.77   69.59
  -8   4  13 1289.97   70.79
   6  -4 -13  877.51   50.39
  -6  -4  13  977.80   49.99
  -6   4  13  742.93   47.70
   6   4 -13  886.41   47.00
  -4  -4  13 1386.96   75.29
   4  -4 -13 1366.96   74.59
  -4   4  13 1325.17   73.69
   4   4 -13 1403.96   72.69
  -2  -4  13 1737.03   92.09
   2  -4 -13 1713.13   90.09
   2   4 -13 1638.64   89.89
  -2   4  13 1702.03   90.59
   0  -4 -13 1413.36   76.69
   0  -4  13 1510.45   80.09
   0   4 -13 1498.25   79.09
   0   4  13 1420.96   78.69
   2  -4  13 1527.65   82.09
  -2  -4 -13 1537.35   79.29
   2   4  13 1485.65   81.59
  -2   4 -13 1477.45   82.89
   4  -4  13  890.21   49.10
  -4  -4 -13  882.11   46.80
   4   4  13  862.71   49.10
  -4   4 -13  832.22   48.80
  -6  -4 -13  545.35   32.30
  -6   4 -13  533.35   32.10
   9   5 -13 1017.60   51.69
  -9   5  13  873.91   54.49
  -7  -5  13 1462.65   77.29
  -7   5  13 1469.95   76.89
   7   5 -13 1336.77   75.69
   5  -5 -13  875.41   49.50
  -5  -5  13  962.40   50.19
   5   5 -13  908.51   47.30
  -5   5  13  765.22   48.10
   3  -5 -13  373.16   23.90
  -3  -5  13  387.76   24.80
   3   5 -13  368.96   22.50
  -3   5  13  379.06   23.40
   1  -5 -13  262.17   15.70
  -1  -5  13  252.97   18.20
   1   5 -13  220.58   16.40
  -1   5  13  242.48   16.70
  -1  -5 -13 1379.16   73.09
   1  -5  13 1423.56   76.79
  -1   5 -13 1414.06   76.19
   1   5  13 1346.47   75.29
  -3  -5 -13  483.45   27.00
   3  -5  13  515.65   36.20
  -3   5 -13  457.25   29.60
   3   5  13  475.45   29.30
  -5  -5 -13 1703.13   95.99
   5  -5  13 1825.32   97.39
 -10  -6  13  734.23   43.50
   8   6 -13 1400.76   73.49
  -8   6  13 1390.26   75.69
  -6  -6  13 1428.96   75.79
   6   6 -13 1355.96   73.09
   4  -6 -13  939.81   53.79
  -4  -6  13 1018.70   54.59
  -4   6  13  845.32   52.09
   4   6 -13 1022.90   51.79
  -2  -6  13 1488.35   80.39
   2  -6 -13 1494.35   77.89
   2   6 -13 1497.55   78.29
  -2   6  13 1348.47   77.99
   0  -6  13 1049.99   55.89
   0  -6 -13  904.91   51.19
   0   6 -13  923.91   54.19
   0   6  13  973.60   53.59
  -2  -6 -13 1182.88   60.69
   2   6  13 1088.99   62.19
  -2   6 -13 1115.59   63.49
   4  -6  13 1606.94   84.19
  -4  -6 -13 1589.24   84.29
  -4   6 -13 1460.35   84.59
  -9  -7  13  418.96   26.10
  -7   7  13 1091.99   60.59
   7   7 -13 1024.90   55.99
   5  -7 -13 1655.83   94.29
  -5  -7  13 1823.12   94.49
   5   7 -13 1781.82   91.99
   3  -7 -13 3523.25  187.78
  -3  -7  13 3778.22  189.28
   3   7 -13 4024.90  187.18
  -3   7  13 3117.99  186.68
   1  -7 -13 1749.62   88.79
  -1   7  13 1694.03   90.69
   1   7 -13 1627.14   91.09
   1  -7  13 2167.78  110.89
  -1   7 -13 2011.40  110.29
   1   7  13 1958.20  108.49
  -3  -7 -13  700.73   39.90
   3  -7  13  688.73   40.10
  -3   7 -13  633.34   40.80
  -5  -7 -13 1079.09   63.49
  -5   7 -13 1020.30   64.89
  -8  -8  13  814.62   45.30
  -8   8  13  762.32   45.10
  -6  -8  13 1072.99   60.79
   6   8 -13 1118.19   59.39
   4  -8 -13  819.42   48.80
  -4  -8  13  837.02   48.80
   4   8 -13  903.21   47.10
  -2  -8  13  890.41   50.99
   2  -8 -13  857.51   47.80
   0  -8 -13  918.71   50.59
   0  -8  13  957.40   53.59
   0   8  13  971.30   49.50
   0   8 -13  751.02   51.19
   2  -8  13  963.70   56.59
  -2  -8 -13 1013.20   57.69
  -4  -8 -13  850.01   47.50
  -4   8 -13  785.22   48.50
  -7  -9  13 1265.67   69.09
  -7   9  13 1247.08   69.19
  -5  -9  13 1434.46   75.89
   5  -9 -13 1282.67   75.49
   5   9 -13 1426.96   73.49
  -3  -9  13  514.35   32.60
   3  -9 -13  490.15   33.30
   3   9 -13  551.94   30.80
  -1  -9  13  589.04   35.60
   1  -9 -13  553.54   32.60
   1   9 -13  513.05   33.30
   1  -9  13  815.62   48.30
  -1  -9 -13  792.52   45.90
  -3  -9 -13  638.74   37.10
   3  -9  13  690.03   37.90
  -3   9 -13  506.45   37.50
  -6 -10  13  272.87   19.00
   6 -10 -13  273.77   21.30
   4 -10 -13  594.54   37.20
  -4 -10  13  671.03   43.90
   4  10 -13  669.63   36.60
  -2 -10  13  616.94   36.50
   2 -10 -13  573.24   34.00
   2  10 -13  554.14   34.20
   0 -10 -13  269.47   17.70
   0 -10  13  237.98   19.40
   0  10  13  286.67   17.40
   0  10 -13  194.88   17.90
   2 -10  13  371.26   28.10
  -2 -10 -13  395.26   25.10
  -3 -11  13  790.42   48.00
   3  11 -13  873.81   50.89
  -1 -11  13  869.61   50.19
   1 -11 -13  806.82   49.20
   1  11 -13  829.32   47.90
  -1 -11 -13  737.13   41.40
   1 -11  13  776.72   43.70
  -1  11 -13  561.64   40.80
   0  12 -13  535.65   38.30
  10   0 -14 1489.05   80.69
   8   0 -14 1118.19   61.19
  -8   0  14 1112.89   62.49
  -6   0  14 2033.70  109.09
   4   0 -14 2005.80  103.39
  -4   0  14 1906.31  104.49
  -2   0  14 2418.16  127.39
   2   0 -14 2401.56  126.19
   0   0 -14 1132.89   62.19
   0   0  14 1166.48   63.79
   2   0  14 2970.20  163.38
  -2   0 -14 2995.70  155.28
   4   0  14 1952.40  101.59
  -4   0 -14 1827.22   99.69
   6   0  14 2215.98  114.49
  -6   0 -14 2092.69  113.19
  -9  -1  14 1016.70   61.39
   9  -1 -14  961.30   54.49
   9   1 -14  951.70   53.89
  -7  -1  14 1486.35   82.19
   7  -1 -14 1556.94   80.99
  -7   1  14 1463.85   81.79
   7   1 -14 1503.35   80.49
  -5  -1  14  976.80   54.29
   5  -1 -14  953.40   52.89
   5   1 -14  964.80   52.29
  -5   1  14  919.51   53.49
   3  -1 -14  992.90   57.99
  -3  -1  14 1115.39   59.79
  -3   1  14 1067.09   58.99
   3   1 -14 1085.69   57.99
   1  -1 -14 1271.37   70.89
  -1  -1  14 1344.67   72.79
  -1   1  14 1373.66   72.59
   1   1 -14 1311.67   71.29
   1  -1  14 1242.88   65.79
  -1  -1 -14 1134.29   63.29
   1   1  14 1157.78   65.19
  -1   1 -14 1181.48   63.99
   3  -1  14 1380.66   74.69
  -3  -1 -14 1324.47   72.59
  -3   1 -14 1340.87   73.09
   3   1  14 1385.46   74.69
   5  -1  14  870.11   48.10
   5   1  14  844.42   48.00
  -5   1 -14  804.92   46.70
  10  -2 -14 1695.23   86.59
  10   2 -14 1466.55   84.09
  -8  -2  14 1021.40   55.59
   8  -2 -14  925.01   55.49
   8   2 -14  971.30   53.59
   6  -2 -14 2613.64  137.79
  -6  -2  14 2749.92  139.39
   6   2 -14 2671.63  138.09
  -6   2  14 2457.55  137.99
  -4  -2  14 1689.13   91.29
   4  -2 -14 1658.13   90.09
  -4   2  14 1650.83   90.29
   4   2 -14 1735.73   89.09
   2  -2 -14 1026.40   56.59
  -2  -2  14 1088.99   58.59
  -2   2  14 1073.19   57.69
   2   2 -14  960.30   56.29
   0  -2 -14 1268.17   71.39
   0  -2  14 1363.96   74.09
   0   2 -14 1400.16   72.89
   0   2  14 1346.67   73.39
  -2  -2 -14 1143.19   60.59
   2   2  14 1143.99   62.79
  -2   2 -14 1091.39   61.59
  -4  -2 -14  589.74   32.80
   4  -2  14  607.14   34.90
   4   2  14  599.04   35.10
  -4   2 -14  510.15   33.60
   6  -2  14 1307.47   74.79
  -6   2 -14 1227.08   69.99
  -9  -3  14  741.23   40.90
   9   3 -14  648.14   38.90
   7  -3 -14 1038.70   58.69
  -7  -3  14 1167.68   60.29
  -7   3  14  991.40   58.79
   7   3 -14 1049.70   57.29
  -5  -3  14  622.04   37.30
   5  -3 -14  619.54   36.30
  -5   3  14  601.04   36.20
   5   3 -14  633.14   34.80
  -3  -3  14 1603.64   84.69
   3  -3 -14 1533.05   82.99
   3   3 -14 1532.15   81.99
  -3   3  14 1515.15   83.19
   1  -3 -14  933.81   51.59
  -1  -3  14  970.20   54.29
  -1   3  14  972.90   53.29
   1   3 -14  918.11   52.59
  -1  -3 -14  945.91   51.89
   1  -3  14  966.60   54.69
  -1   3 -14  944.61   58.59
   1   3  14  979.90   59.79
   3  -3  14 1074.49   58.69
   3   3  14 1041.20   58.39
  -3   3 -14 1005.20   57.69
   5  -3  14  641.34   36.40
  -5   3 -14  577.34   37.20
  10   4 -14  396.76   23.70
  -8  -4  14  313.37   20.40
   8  -4 -14  303.37   20.40
   8   4 -14  279.57   18.20
  -6  -4  14   31.10    6.80
   6  -4 -14   31.20    6.30
  -6   4  14   23.70    5.50
   6   4 -14   29.20    5.50
   4  -4 -14  287.07   20.00
  -4  -4  14  304.67   20.80
   4   4 -14  297.87   18.30
  -4   4  14  302.17   19.80
  -2  -4  14  737.93   43.70
   2  -4 -14  770.22   41.70
   2   4 -14  687.53   41.40
  -2   4  14  757.92   42.50
   0  -4  14 1203.58   63.79
   0  -4 -14 1053.09   59.79
   0   4  14 1111.99   62.09
   0   4 -14 1124.59   62.39
  -2  -4 -14  626.54   35.70
   2  -4  14  636.74   38.60
   2   4  14  665.93   38.30
  -2   4 -14  649.04   38.20
   4  -4  14  574.14   32.60
   4   4  14  523.05   32.30
  -4   4 -14  490.05   31.90
   9   5 -14  124.89    9.40
  -7  -5  14  484.95   29.30
   7  -5 -14  488.25   34.10
   7   5 -14  453.55   26.80
   5  -5 -14  620.84   36.60
  -5  -5  14  662.23   37.30
  -5   5  14  573.64   35.70
   5   5 -14  606.34   35.10
   3  -5 -14  559.64   34.60
  -3   5  14  597.04   34.90
   3   5 -14  612.34   33.80
  -1  -5  14  624.24   43.90
   1  -5 -14  600.34   34.10
  -1   5  14  630.04   36.00
   1   5 -14  573.24   35.70
   1  -5  14  405.06   26.90
  -1  -5 -14  398.86   23.50
  -1   5 -14  410.56   26.30
   1   5  14  408.06   25.80
   3  -5  14  173.08   14.50
   3   5  14  172.78   19.50
  -3   5 -14  232.28   17.90
  -5  -5 -14  401.56   26.50
  -5   5 -14  425.06   28.10
  -8  -6  14   43.70    6.20
  -6  -6  14   27.90    6.10
   6  -6 -14   43.60    7.70
   6   6 -14   31.80    3.90
  -6   6  14   20.90    6.10
  -4  -6  14   18.80    5.50
   4  -6 -14   34.60    7.80
  -4   6  14   27.20    5.70
  -2  -6  14   13.30    5.60
   2  -6 -14   27.90    5.40
  -2   6  14   36.70    6.60
   0  -6  14   53.69    9.30
   0  -6 -14   28.40    4.70
   0   6  14   41.90    7.40
   0   6 -14   32.60    6.80
   2  -6  14   12.60    5.40
  -2   6 -14    7.20    4.90
   2   6  14   11.20    4.80
  -4  -6 -14  227.18   17.00
   4  -6  14  228.18   16.90
  -4   6 -14  237.48   17.70
   7  -7 -14   16.00    5.70
  -7  -7  14    5.60    3.80
   7   7 -14    5.60    2.80
   5  -7 -14    4.60    3.60
  -5  -7  14    4.90    3.00
   5   7 -14    4.60    2.40
  -5   7  14    5.50    3.90
  -3  -7  14   53.29    7.20
   3   7 -14   49.80    5.90
   1  -7 -14   35.10    5.30
  -1  -7  14   38.80    8.50
   1   7 -14   43.20    7.50
  -1   7  14   44.70    7.70
   1  -7  14   20.30    7.00
   1   7  14   26.10    6.20
  -1   7 -14   33.40    7.30
  -3  -7 -14   18.60    5.70
   3  -7  14   33.80    6.90
  -3   7 -14   29.20    8.50
  -6  -8  14   83.09   12.00
   6  -8 -14   89.99    9.40
   6   8 -14   87.99    7.40
  -4  -8  14  325.87   28.50
   4  -8 -14  306.67   21.90
   4   8 -14  356.56   20.60
  -2  -8  14    7.20    4.10
   2   8 -14    6.50    3.70
   0  -8  14  182.58   17.50
   0  -8 -14  212.48   18.30
   0   8 -14  159.68   14.60
   2  -8  14   47.30    9.10
   5  -9 -14  139.59   12.00
  -5  -9  14  136.79   12.10
   5   9 -14  149.79   10.60
   3  -9 -14  483.45   29.40
   3  -9 -14  453.85   28.90
  -3  -9  14  508.75   31.50
   3   9 -14  526.15   29.40
  -1  -9  14  432.36   28.70
   1  -9 -14  400.56   31.40
  -1  -9 -14  152.88   14.00
   1  -9  14  130.59   13.60
   6 -10 -14   48.40    9.60
  -4 -10  14  182.68   14.70
   4  10 -14  180.58   14.10
   2 -10 -14  440.26   26.80
  -2 -10  14  437.06   28.90
   2  10 -14  415.36   26.70
   0 -10  14  899.21   51.39
   0 -10 -14  857.51   48.20
   0  10 -14  766.22   48.80
   2 -10  14  403.16   31.10
   1 -11 -14  616.54   37.50
   1  11 -14  643.94   37.60
   8   0 -15    2.40    3.20
  -8   0  15    2.10    5.40
   6   0 -15    1.90    2.70
  -6   0  15    6.70    4.00
  -4   0  15    2.60    3.40
   2   0 -15   10.60    3.40
  -2   0  15    3.70    3.50
   0   0  15    7.80    3.90
  -2   0 -15   13.20    4.10
   2   0  15   11.00    4.70
  -4   0 -15    6.00    3.10
   4   0  15    6.80    4.20
   9  -1 -15   28.20    6.10
   9   1 -15   23.90    5.40
   7  -1 -15   81.49    8.00
  -7  -1  15   79.29    9.20
   7   1 -15   73.39    7.20
  -7   1  15   64.19    8.80
   5  -1 -15  399.66   26.60
  -5  -1  15  469.45   29.00
  -5   1  15  460.95   28.30
   5   1 -15  445.76   26.40
   3  -1 -15  818.52   46.50
  -3  -1  15  839.12   48.30
   3   1 -15  795.52   46.20
  -3   1  15  873.51   48.00
   1  -1 -15  133.39   10.60
  -1  -1  15  139.09   13.10
   1   1 -15  132.69   11.00
  -1   1  15  138.59   11.90
   1  -1  15  144.39   12.10
  -1  -1 -15  110.59    9.70
  -1   1 -15  120.39   10.20
   1   1  15  140.49   11.90
  -3  -1 -15  208.78   14.80
   3  -1  15  230.18   17.00
   3   1  15  236.48   21.50
  -3   1 -15  209.48   15.50
  -5  -1 -15  181.58   13.10
   5  -1  15  181.18   14.50
   5   1  15  191.68   14.80
  -5   1 -15  188.98   13.60
   8  -2 -15  340.97   22.10
  -8  -2  15  345.47   23.00
   8   2 -15  324.97   21.00
   6  -2 -15  849.52   48.60
  -6  -2  15  888.41   50.39
  -6   2  15  872.41   49.90
   6   2 -15  841.82   47.40
  -4  -2  15  517.95   34.40
  -4   2  15  532.75   32.20
  -2  -2  15  736.93   42.70
   2  -2 -15  704.53   40.30
  -2   2  15  739.73   41.60
   2   2 -15  651.93   41.10
   0  -2  15  341.07   22.60
   0  -2 -15  320.37   20.40
   0   2 -15  298.17   20.90
   0   2  15  341.37   22.10
   2  -2  15  323.47   22.40
  -2  -2 -15  296.97   19.80
  -2   2 -15  324.87   21.10
   2   2  15  352.06   22.60
  -4  -2 -15  591.04   34.80
   4  -2  15  556.64   35.40
  -4   2 -15  603.64   39.10
   4   2  15  602.54   41.20
  -9  -3  15  371.96   23.80
   9  -3 -15  362.46   23.60
   9   3 -15  329.07   21.50
  -7  -3  15   56.89    8.00
   7  -3 -15   82.79   15.20
  -7   3  15   64.39   10.10
   7   3 -15   51.89    5.90
   5  -3 -15   38.40    7.20
  -5  -3  15   22.50    6.20
   5   3 -15   19.70    4.40
  -5   3  15   37.30    7.10
  -3  -3  15  187.08   18.90
   3  -3 -15  212.48   19.10
  -3   3  15  226.58   15.90
   1  -3 -15  324.37   19.80
  -1  -3  15  307.87   22.00
  -1   3  15  311.87   22.90
   1   3 -15  309.87   20.60
   1  -3  15  346.97   23.40
  -1  -3 -15  323.97   21.30
   1   3  15  331.57   22.70
  -1   3 -15  340.47   22.30
  -3  -3 -15  301.07   19.30
   3   3  15  320.27   21.80
  -3   3 -15  323.77   21.20
   5  -3  15  913.61   51.99
  -8  -4  15 1123.99   59.29
   8  -4 -15 1047.00   58.99
   8   4 -15  978.00   56.29
  -6  -4  15 1112.69   58.69
   6  -4 -15 1005.40   57.39
   6   4 -15 1037.40   55.39
  -6   4  15  957.10   57.49
  -4  -4  15 1059.29   60.09
   4  -4 -15 1013.00   58.59
  -4   4  15 1071.69   58.99
   4   4 -15 1067.69   56.99
  -2  -4  15 1431.56   77.79
   2  -4 -15 1369.86   76.19
   2   4 -15 1383.26   75.29
   0  -4 -15  650.93   42.40
   0  -4  15  757.12   43.40
   0   4  15  721.73   41.80
   0   4 -15  703.83   41.50
  -2  -4 -15 1251.17   68.19
   2  -4  15 1311.67   71.89
   4  -4  15  803.32   51.89
  -4   4 -15  807.62   47.10
   4   4  15  836.52   47.70
  -9  -5  15  736.03   41.80
   9   5 -15  698.63   39.50
  -7  -5  15  711.43   42.10
   7  -5 -15  727.03   42.10
   5  -5 -15 2475.65  130.69
  -5  -5  15 2717.13  131.79
  -5   5  15 2131.79  129.99
   5   5 -15 2539.05  128.19
  -3  -5  15 1174.88   67.49
   3  -5 -15 1204.48   65.69
   3   5 -15 1193.38   64.69
  -3   5  15 1215.18   67.89
  -1  -5  15 1597.04   84.39
   1   5 -15 1449.15   81.59
  -1   5  15 1482.95   82.09
   1  -5  15  991.00   56.89
  -1  -5 -15  960.70   52.59
  -1   5 -15  975.10   56.09
   1   5  15  976.90   55.69
   3  -5  15  388.06   25.30
   3   5  15  386.16   29.00
  -3   5 -15  335.57   26.10
   8  -6 -15 1144.99   68.69
  -8  -6  15 1132.89   63.19
   6  -6 -15 1040.60   59.09
  -6  -6  15 1097.19   59.29
   6   6 -15 1016.90   56.19
  -4  -6  15  821.02   45.80
   4  -6 -15  757.22   44.70
   4   6 -15  797.02   42.90
  -4   6  15  714.23   44.10
   2  -6 -15 1545.55   80.59
  -2  -6  15 1498.45   83.79
  -2   6  15 1463.15   81.89
   2   6 -15 1521.15   81.19
   0  -6 -15 1025.80   56.49
   0  -6  15 1118.59   61.69
   0   6  15 1036.50   59.29
   0   6 -15 1042.40   59.49
   2  -6  15  793.12   46.10
   2   6  15  767.42   48.40
  -2   6 -15  728.43   47.30
   4  -6  15  960.70   54.79
   7  -7 -15  842.02   48.00
  -7  -7  15  828.62   47.30
   7   7 -15  810.42   44.80
  -5  -7  15  978.40   49.60
   5  -7 -15  834.02   49.00
   5   7 -15  880.51   46.50
  -5   7  15  697.63   47.20
   3  -7 -15  306.47   20.40
  -3  -7  15  310.97   28.30
  -3   7  15  287.37   20.70
   3   7 -15  344.87   20.10
  -1  -7  15  922.51   60.89
   1  -7 -15  783.02   45.00
   1   7 -15  808.42   52.09
  -1   7  15  838.52   49.50
   1  -7  15 1222.98   65.79
   1   7  15 1065.69   63.19
  -1   7 -15 1099.49   64.09
   3  -7  15 2372.66  127.19
   6  -8 -15  640.34   38.30
  -6  -8  15  632.44   37.80
   6   8 -15  638.24   35.50
   4  -8 -15  380.66   26.00
   2  -8 -15  767.22   44.60
  -2  -8  15  861.91   48.90
   2   8 -15  813.62   46.20
   0  -8  15  917.01   53.79
   0  -8 -15  844.42   49.60
   0   8 -15  747.63   49.90
   2  -8  15 1037.80   58.59
  -2   8 -15  944.51   63.99
   5  -9 -15 1835.52  104.39
   5   9 -15 2061.59  104.59
  -3  -9  15 1124.09   61.19
   3  -9 -15  963.80   58.39
   3   9 -15 1107.79   58.39
   1  -9 -15 1145.89   68.09
  -1  -9  15 1279.17   70.09
   1  -9  15 1268.17   72.89
   4  10 -15  374.96   23.00
   2 -10 -15  673.33   41.20
   2  10 -15  760.62   41.50
   8   0 -16 2977.40  156.78
  -8   0  16 3014.80  158.78
  -6   0  16 1206.18   67.79
   6   0 -16 1188.18   66.29
  -4   0  16 2052.19  113.29
   4   0 -16 2157.68  111.29
   2   0 -16 1161.58   64.09
  -2   0  16 1182.98   65.89
   0   0  16 1836.92   99.19
   0   0 -16 1809.62   97.19
   2   0  16  861.81   50.49
   4   0  16 1074.69   59.09
  -4   0 -16  988.20   56.69
   7  -1 -16  815.32   47.50
  -7  -1  16  874.91   49.99
   7   1 -16  827.42   46.90
  -7   1  16  862.21   49.80
  -5  -1  16  869.31   49.99
   5  -1 -16  830.52   47.30
   5   1 -16  840.82   46.90
  -5   1  16  837.72   49.30
  -3  -1  16 1139.69   63.69
   3  -1 -16 1131.89   61.69
  -3   1  16 1152.28   63.39
   3   1 -16 1063.69   61.09
   1  -1 -16 1407.86   76.09
  -1  -1  16 1426.56   78.29
   1   1 -16 1427.76   76.59
  -1   1  16 1378.36   77.69
  -1  -1 -16  738.73   42.30
   1  -1  16  759.12   44.90
   1   1  16  786.82   45.20
  -1   1 -16  714.13   42.80
   3  -1  16  840.72   53.69
  -3  -1 -16  769.72   44.30
  -3   1 -16  766.52   49.20
  -8  -2  16  476.15   29.30
   8  -2 -16  459.35   27.90
   8   2 -16  408.56   26.40
  -6  -2  16  591.74   36.70
   6  -2 -16  563.34   40.20
  -6   2  16  609.04   36.60
   6   2 -16  581.84   36.70
   4  -2 -16 1272.27   69.49
  -4  -2  16 1331.07   72.09
  -4   2  16 1242.28   70.79
   4   2 -16 1255.57   68.69
   2  -2 -16  639.54   37.70
  -2  -2  16  660.73   40.00
  -2   2  16  676.93   39.30
   2   2 -16  636.04   37.70
   0  -2  16 2461.05  131.09
   0  -2 -16 2383.76  128.09
   0   2  16 2508.35  130.59
   0   2 -16 2422.26  129.19
  -2  -2 -16 1710.83   98.39
   2  -2  16 1856.01   98.59
   2   2  16 1798.02   98.09
  -2   2 -16 1822.62   96.69
   4  -2  16 1167.68   66.79
  -4  -2 -16 1182.08   64.39
  -4   2 -16 1208.18   70.79
   4   2  16 1206.98   73.59
  -9  -3  16  847.62   48.90
   7  -3 -16  993.20   60.49
  -7  -3  16  990.90   54.49
   7   3 -16  878.21   51.09
  -7   3  16  919.11   54.29
   5  -3 -16  563.84   34.70
  -5  -3  16  600.44   36.60
   5   3 -16  602.14   33.50
  -5   3  16  579.84   35.90
  -3  -3  16  872.21   50.59
   3  -3 -16  844.92   48.30
  -3   3  16  850.81   49.40
   3   3 -16  852.51   47.70
  -1  -3  16  911.91   51.59
   1  -3 -16  861.21   48.20
  -1   3  16  884.91   50.29
   1   3 -16  818.12   49.00
  -1  -3 -16  510.85   30.80
  -1   3 -16  544.25   33.00
   1   3  16  554.04   34.60
  -3  -3 -16 1118.59   62.09
   3  -3  16 1226.78   67.69
   3   3  16 1132.09   64.99
  -3   3 -16 1130.19   63.99
   8  -4 -16  510.95   35.90
  -8  -4  16  528.15   32.20
   8   4 -16  515.55   29.80
   6  -4 -16  852.51   48.60
  -6  -4  16  898.11   49.90
   6   4 -16  824.42   46.60
  -6   4  16  829.62   49.40
   4  -4 -16  744.43   43.40
  -4  -4  16  761.92   45.10
   4   4 -16  756.52   42.00
  -4   4  16  750.02   44.20
  -2  -4  16  534.45   34.60
   2  -4 -16  545.75   32.00
   2   4 -16  519.45   32.10
  -2   4  16  568.54   33.60
   0  -4 -16   50.49    7.00
   2  -4  16   23.50    6.70
   2   4  16   36.30   12.50
   7  -5 -16  401.96   26.30
  -7  -5  16  419.16   26.80
  -5  -5  16  765.22   42.50
   5  -5 -16  651.33   40.80
   5   5 -16  679.63   42.90
  -5   5  16  697.33   41.60
   3  -5 -16  191.58   14.00
  -3   5  16  187.68   14.60
   3   5 -16  169.48   13.20
  -1  -5  16  392.76   31.80
   1  -5 -16  369.36   22.90
   1   5 -16  356.86   30.20
  -1   5  16  399.16   30.30
   1  -5  16  356.16   24.30
  -1  -5 -16  305.07   19.90
  -1   5 -16  332.87   24.40
   1   5  16  331.97   24.70
   3  -5  16  452.75   29.80
   6  -6 -16   42.70    8.00
  -6  -6  16   35.10    7.60
   6   6 -16   28.30    5.00
   4  -6 -16   52.09    8.50
  -4  -6  16   64.19   10.10
  -4   6  16   55.79    9.40
   4   6 -16   58.89    6.30
  -2  -6  16   12.80    5.70
   2  -6 -16   25.30    5.00
   2   6 -16   18.70    4.90
   0  -6  16   49.30   10.40
   0  -6 -16   40.10    5.00
   0   6  16   57.99    9.60
   0   6 -16   46.80    8.60
   2  -6  16  163.78   15.10
  -2   6 -16  160.08   15.90
   2   6  16  174.68   15.60
   7   7 -16   36.20    5.60
   5  -7 -16    1.70    6.80
   5   7 -16   49.40    7.70
   3  -7 -16   17.60    4.80
  -3  -7  16    3.70    7.10
  -3   7  16   14.60    5.30
   3   7 -16   17.00    4.30
  -1  -7  16   19.90    9.90
  -1   7  16   20.50    8.70
   1  -7  16    5.50    5.10
  -1   7 -16    0.00    3.50
   6   8 -16   23.00    4.70
  -4  -8  16   52.39    7.60
   4  -8 -16   58.19    9.80
   4   8 -16   60.19    6.50
  -2  -8  16  176.18   15.40
   2   8 -16  166.18   13.10
   0  -8  16  108.29   12.60
   0  -8 -16  100.19   11.10
   0   8 -16  100.49   11.70
   3  -9 -16   94.89    9.30
   3   9 -16  116.89    9.50
   6   0 -17   12.70    4.00
  -4   0  17    7.60    4.60
  -2   0  17   23.60    7.90
   2   0 -17    9.60    4.40
   0   0 -17    4.40    3.10
   0   0  17    8.50    4.30
  -2   0 -17   10.20    3.90
   2   0  17    3.30    3.80
  -7  -1  17   22.00    7.50
   7  -1 -17   38.90    6.60
  -7   1  17   31.10    8.80
   7   1 -17   28.00    5.70
   5  -1 -17   35.10    6.50
   5   1 -17   33.60    5.90
  -5   1  17   29.30    8.10
  -3  -1  17   15.30    5.80
   3  -1 -17   15.50    6.40
  -3   1  17   12.10    4.90
  -1  -1  17   25.20    8.20
   1  -1 -17   19.10    8.00
   1   1 -17   38.30   10.70
  -1   1  17   28.60    7.50
  -1  -1 -17  121.99   10.20
   1  -1  17  124.49   13.60
  -1   1 -17  110.89   10.60
   1   1  17  116.49   15.50
  -3  -1 -17  338.07   21.70
  -8  -2  17  575.04   35.90
  -6  -2  17  353.96   25.10
   6   2 -17  361.36   24.10
   4  -2 -17  250.77   17.60
  -4  -2  17  229.18   25.80
   4   2 -17  249.08   16.90
  -4   2  17  275.07   19.50
   2  -2 -17  342.07   24.80
  -2  -2  17  313.57   27.30
   2   2 -17  311.67   22.40
   0  -2 -17  659.33   38.30
   0  -2  17  698.43   41.60
   0   2 -17  600.44   38.70
   0   2  17  696.23   40.70
   2  -2  17  392.56   26.30
  -2   2 -17  344.07   23.90
   2   2  17  377.76   25.70
  -7  -3  17  780.72   43.40
   7  -3 -17  649.93   40.80
   7   3 -17  701.43   39.70
  -5  -3  17  993.80   55.69
   5  -3 -17  966.00   53.19
  -5   3  17  910.81   58.19
   5   3 -17  914.51   51.79
   3  -3 -17  294.37   22.10
  -3  -3  17  337.27   23.60
   3   3 -17  334.27   21.00
  -3   3  17  320.37   27.50
  -1  -3  17  234.88   18.30
  -1   3  17  213.78   17.00
   1   3 -17  220.38   16.30
   1  -3  17   87.79   15.20
  -1  -3 -17   55.69    6.40
   1   3  17   68.89    8.40
  -1   3 -17   79.49   10.90
  -3  -3 -17  118.09    9.90
  -6  -4  17  804.32   45.40
   6  -4 -17  706.23   43.40
   6   4 -17  748.13   42.00
  -6   4  17  769.12   48.20
   4  -4 -17  728.63   42.50
  -4  -4  17  727.73   44.40
   4   4 -17  747.33   41.40
   2  -4 -17  931.01   51.49
  -2  -4  17  949.11   54.69
   2   4 -17  878.41   51.39
  -2   4  17  910.41   52.99
   0  -4 -17  673.43   38.00
   0   4 -17  648.84   41.50
  -2  -4 -17  990.40   54.99
   2  -4  17 1027.20   61.69
  -5  -5  17  582.64   34.30
   5  -5 -17  523.15   32.50
  -5   5  17  505.75   33.50
   5   5 -17  532.65   32.00
   3  -5 -17  664.33   38.00
  -3   5  17  635.84   39.10
   3   5 -17  640.94   38.60
  -1  -5  17  419.16   30.20
   1  -5 -17  405.26   24.00
   1   5 -17  344.17   26.00
   1  -5  17 1622.24   87.79
   1   5  17 1502.85   87.69
  -1   5 -17 1535.65   87.99
  -4  -6  17  840.92   48.20
   4  -6 -17  805.82   46.60
   4   6 -17  787.12   44.90
  -4   6  17  804.32   47.90
  -2  -6  17 1188.08   67.99
   2  -6 -17 1236.28   64.29
   2   6 -17 1218.68   64.89
  -2   6  17 1061.59   67.39
   0  -6  17  885.71   52.29
   0   6 -17  822.82   50.99
   0   6  17  842.82   50.19
  -5   7  17  649.34   44.70
   3  -7 -17 1908.61   97.29
   3   7 -17 1881.61   96.89
  -3   7  17 1668.23   98.49
  -1   7  17 1173.68   74.89
  -6   0  18  994.90   57.69
   6   0 -18  956.50   53.79
   4   0 -18 1251.07   70.49
  -4   0  18 1283.87   74.79
   0   0 -18 1688.53   92.19
   0   0  18 1731.63   94.79
  -7  -1  18 1066.89   61.29
  -7   1  18 1034.80   61.19
  -5  -1  18  802.02   59.39
  -5   1  18  900.41   58.79
  -3   1  18  831.22   51.59
  -1  -1  18  741.03   45.00
   1  -1 -18  754.32   49.80
   1   1 -18  701.23   42.70
  -1   1  18  731.13   44.60
   1  -1  18  568.74   42.50
  -1  -1 -18  542.85   32.40
  -1   1 -18  515.45   34.30
  -6  -2  18 1467.15   79.59
   6  -2 -18 1416.66   80.39
  -6   2  18 1340.57   81.19
   4  -2 -18 1185.68   64.89
  -4  -2  18 1125.19   69.59
  -4   2  18 1171.98   74.29
   4   2 -18 1208.08   64.29
  -2  -2  18  382.86   26.80
  -2   2  18  359.26   33.00
   2   2 -18  373.96   24.50
   0  -2  18  338.77   24.10
   0  -2 -18  335.57   21.10
   0   2  18  297.97   22.60
   0   2 -18  304.57   21.60
   5  -3 -18  333.77   21.60
  -5  -3  18  329.37   23.60
   5   3 -18  320.57   20.60
  -3  -3  18  837.72   51.79
   3  -3 -18  883.31   49.60
   3   3 -18  882.71   49.10
  -1  -3  18  708.93   43.00
   1  -3 -18  679.23   39.50
   1   3 -18  640.34   39.90
  -1   3  18  683.43   41.50
  -1  -3 -18  510.85   30.70
  -6   4  18  115.49   13.50
   4  -4 -18  253.57   17.60
  -4  -4  18  246.38   19.40
   4   4 -18  252.57   16.70
  -4   4  18  221.18   18.70
   2  -4 -18  463.25   28.20
  -2  -4  18  459.35   31.20
  -2   4  18  453.65   29.90
   2   4 -18  450.55   28.30
   0  -4 -18 1027.10   56.59
  -5   5  18  207.68   17.30
   3  -5 -18  330.47   21.30
   3   5 -18  314.67   21.80
  -3   5  18  303.37   22.30
   1  -5 -18  408.66   25.20
   2  -6 -18  152.68   15.20
  -4   0  19    3.40    5.90
  -3   1  19  178.38   20.60

_computing_structure_solution     'SHELXT 2014/4 (Sheldrick, 2014)'
;
_shelx_hkl_checksum              81406
loop_
_space_group_symop_operation_xyz
'x, y, z'
'-x, y, -z+1/2'
'x+1/2, y+1/2, z'
'-x+1/2, y+1/2, -z+1/2'
'-x, -y, -z'
'x, -y, z-1/2'
'-x+1/2, -y+1/2, -z'
'x+1/2, -y+1/2, z-1/2'
loop_
_atom_site_label
_atom_site_type_symbol
_atom_site_fract_x
_atom_site_fract_y
_atom_site_fract_z
_atom_site_U_iso_or_equiv
_atom_site_adp_type
_atom_site_occupancy
_atom_site_site_symmetry_order
_atom_site_calc_flag
_atom_site_refinement_flags_posn
_atom_site_refinement_flags_adp
_atom_site_refinement_flags_occupancy
_atom_site_disorder_assembly
_atom_site_disorder_group
Sm Sm 0.5000 0.46392(2) 0.7500 0.00459(9) Uani 1 2 d S T P . .
Al1 Al 0.44437(12) 0.25008(9) 0.47154(8) 0.00380(14) Uani 1 1 d . . . . .
Al2 Al 0.5000 -0.08861(12) 0.7500 0.00388(18) Uani 1 2 d S T P . .
B1 B 0.7512(4) 0.4709(3) 0.5046(3) 0.0043(4) Uani 1 1 d . . . . .
B2 B 0.6929(4) 0.1864(3) 0.7220(3) 0.0046(4) Uani 1 1 d . . . . .
O1 O 0.9037(3) 0.3968(2) 0.57387(18) 0.0048(3) Uani 1 1 d . . . . .
O2 O 0.5944(3) 0.4023(2) 0.43632(18) 0.0055(3) Uani 1 1 d . . . . .
O3 O 0.8398(3) 0.2634(2) 0.79484(18) 0.0050(3) Uani 1 1 d . . . . .
O4 O 0.7499(3) 0.6195(2) 0.4973(2) 0.0059(3) Uani 1 1 d . . . . .
O5 O 0.5605(3) 0.2595(2) 0.63779(18) 0.0058(3) Uani 1 1 d . . . . .
O6 O 0.6883(3) 0.0423(2) 0.7411(2) 0.0059(3) Uani 1 1 d . . . . .
loop_
_atom_site_aniso_label
_atom_site_aniso_U_11
_atom_site_aniso_U_22
_atom_site_aniso_U_33
_atom_site_aniso_U_23
_atom_site_aniso_U_13
_atom_site_aniso_U_12
Sm 0.00398(10) 0.00505(11) 0.00505(10) 0.000 0.00164(5) 0.000
Al1 0.0027(3) 0.0049(3) 0.0039(3) -0.0001(2) 0.0011(2) 0.0002(2)
Al2 0.0034(4) 0.0037(4) 0.0048(4) 0.000 0.0014(3) 0.000
B1 0.0038(10) 0.0045(10) 0.0046(10) 0.0003(7) 0.0014(8) 0.0005(7)
B2 0.0042(9) 0.0044(9) 0.0049(9) -0.0002(7) 0.0005(7) -0.0012(7)
O1 0.0036(6) 0.0058(7) 0.0044(6) -0.0004(5) 0.0000(5) 0.0016(5)
O2 0.0037(6) 0.0059(7) 0.0064(7) 0.0009(5) 0.0002(5) -0.0018(5)
O3 0.0039(6) 0.0066(7) 0.0042(6) 0.0005(5) 0.0001(5) -0.0027(5)
O4 0.0045(7) 0.0053(7) 0.0090(7) 0.0001(6) 0.0037(5) -0.0001(5)
O5 0.0047(7) 0.0069(7) 0.0048(7) 0.0003(5) -0.0008(5) 0.0015(5)
O6 0.0051(7) 0.0044(7) 0.0089(8) -0.0005(5) 0.0030(6) -0.0014(5)
loop_
_atom_type_symbol
_atom_type_description
_atom_type_scat_dispersion_real
_atom_type_scat_dispersion_imag
_atom_type_scat_source
B B 0.0013 0.0007 'International Tables Vol C Tables 4.2.6.8 and 6.1.1.4'
O O 0.0106 0.0060 'International Tables Vol C Tables 4.2.6.8 and 6.1.1.4'
Al Al 0.0645 0.0514 'International Tables Vol C Tables 4.2.6.8 and 6.1.1.4'
Sm Sm -0.1638 3.4418 'International Tables Vol C Tables 4.2.6.8 and 6.1.1.4'
loop_
_geom_angle_atom_site_label_1
_geom_angle_atom_site_label_2
_geom_angle_atom_site_label_3
_geom_angle
_geom_angle_site_symmetry_1
_geom_angle_site_symmetry_3
_geom_angle_publ_flag
O6 Sm O6 143.72(9) 4_656 3_455 ?
O6 Sm O5 121.22(7) 4_656 2_656 ?
O6 Sm O5 88.98(7) 3_455 2_656 ?
O6 Sm O5 88.98(7) 4_656 . ?
O6 Sm O5 121.22(7) 3_455 . ?
O5 Sm O5 72.96(10) 2_656 . ?
O6 Sm O2 73.61(7) 4_656 6_566 ?
O6 Sm O2 87.43(7) 3_455 6_566 ?
O5 Sm O2 90.97(7) 2_656 6_566 ?
O5 Sm O2 145.86(7) . 6_566 ?
O6 Sm O2 87.43(7) 4_656 5_666 ?
O6 Sm O2 73.61(7) 3_455 5_666 ?
O5 Sm O2 145.86(7) 2_656 5_666 ?
O5 Sm O2 90.97(7) . 5_666 ?
O2 Sm O2 116.64(10) 6_566 5_666 ?
O6 Sm B2 136.94(7) 4_656 2_656 ?
O6 Sm B2 78.96(7) 3_455 2_656 ?
O5 Sm B2 26.24(7) 2_656 2_656 ?
O5 Sm B2 60.30(7) . 2_656 ?
O2 Sm B2 114.36(7) 6_566 2_656 ?
O2 Sm B2 119.80(7) 5_666 2_656 ?
O6 Sm B2 78.96(7) 4_656 . ?
O6 Sm B2 136.94(7) 3_455 . ?
O5 Sm B2 60.31(7) 2_656 . ?
O5 Sm B2 26.24(7) . . ?
O2 Sm B2 119.80(7) 6_566 . ?
O2 Sm B2 114.36(7) 5_666 . ?
B2 Sm B2 60.04(11) 2_656 . ?
O6 Sm B2 26.00(7) 4_656 4_656 ?
O6 Sm B2 117.94(7) 3_455 4_656 ?
O5 Sm B2 136.23(7) 2_656 4_656 ?
O5 Sm B2 112.91(7) . 4_656 ?
O2 Sm B2 59.24(7) 6_566 4_656 ?
O2 Sm B2 77.61(7) 5_666 4_656 ?
B2 Sm B2 159.87(10) 2_656 4_656 ?
B2 Sm B2 104.943(18) . 4_656 ?
O6 Sm B2 117.94(7) 4_656 3_455 ?
O6 Sm B2 26.00(7) 3_455 3_455 ?
O5 Sm B2 112.90(7) 2_656 3_455 ?
O5 Sm B2 136.23(7) . 3_455 ?
O2 Sm B2 77.61(7) 6_566 3_455 ?
O2 Sm B2 59.24(7) 5_666 3_455 ?
B2 Sm B2 104.943(18) 2_656 3_455 ?
B2 Sm B2 159.87(10) . 3_455 ?
B2 Sm B2 92.56(10) 4_656 3_455 ?
O6 Sm B1 62.37(8) 4_656 6_566 ?
O6 Sm B1 109.85(8) 3_455 6_566 ?
O5 Sm B1 79.46(7) 2_656 6_566 ?
O5 Sm B1 120.26(7) . 6_566 ?
O2 Sm B1 25.61(7) 6_566 6_566 ?
O2 Sm B1 133.79(7) 5_666 6_566 ?
B2 Sm B1 105.66(7) 2_656 6_566 ?
B2 Sm B1 94.34(7) . 6_566 ?
B2 Sm B1 59.76(7) 4_656 6_566 ?
B2 Sm B1 103.16(7) 3_455 6_566 ?
O6 Sm B1 109.85(8) 4_656 5_666 ?
O6 Sm B1 62.37(8) 3_455 5_666 ?
O5 Sm B1 120.26(7) 2_656 5_666 ?
O5 Sm B1 79.46(7) . 5_666 ?
O2 Sm B1 133.79(7) 6_566 5_666 ?
O2 Sm B1 25.61(7) 5_666 5_666 ?
B2 Sm B1 94.34(7) 2_656 5_666 ?
B2 Sm B1 105.66(7) . 5_666 ?
B2 Sm B1 103.16(7) 4_656 5_666 ?
B2 Sm B1 59.76(7) 3_455 5_666 ?
B1 Sm B1 156.97(10) 6_566 5_666 ?
O5 Al1 O2 91.09(10) . . ?
O5 Al1 O1 98.12(9) . 7_656 ?
O2 Al1 O1 95.39(9) . 7_656 ?
O5 Al1 O4 93.61(10) . 3_445 ?
O2 Al1 O4 168.85(10) . 3_445 ?
O1 Al1 O4 93.95(9) 7_656 3_445 ?
O5 Al1 O3 175.94(10) . 8_455 ?
O2 Al1 O3 87.08(9) . 8_455 ?
O1 Al1 O3 78.47(9) 7_656 8_455 ?
O4 Al1 O3 88.84(9) 3_445 8_455 ?
O5 Al1 O4 88.54(9) . 5_666 ?
O2 Al1 O4 92.22(9) . 5_666 ?
O1 Al1 O4 169.77(10) 7_656 5_666 ?
O4 Al1 O4 77.81(10) 3_445 5_666 ?
O3 Al1 O4 95.14(9) 8_455 5_666 ?
O5 Al1 Al2 136.89(7) . 5_656 ?
O2 Al1 Al2 91.01(7) . 5_656 ?
O1 Al1 Al2 38.86(6) 7_656 5_656 ?
O4 Al1 Al2 92.46(7) 3_445 5_656 ?
O3 Al1 Al2 39.62(6) 8_455 5_656 ?
O4 Al1 Al2 134.37(7) 5_666 5_656 ?
O6 Al2 O6 97.26(14) . 2_656 ?
O6 Al2 O1 95.30(9) . 3_445 ?
O6 Al2 O1 90.06(9) 2_656 3_445 ?
O6 Al2 O1 90.06(9) . 4_646 ?
O6 Al2 O1 95.30(9) 2_656 4_646 ?
O1 Al2 O1 171.89(14) 3_445 4_646 ?
O6 Al2 O3 167.13(9) . 3_445 ?
O6 Al2 O3 88.09(9) 2_656 3_445 ?
O1 Al2 O3 96.39(9) 3_445 3_445 ?
O1 Al2 O3 77.76(8) 4_646 3_445 ?
O6 Al2 O3 88.09(9) . 4_646 ?
O6 Al2 O3 167.13(9) 2_656 4_646 ?
O1 Al2 O3 77.76(8) 3_445 4_646 ?
O1 Al2 O3 96.39(9) 4_646 4_646 ?
O3 Al2 O3 89.15(13) 3_445 4_646 ?
O6 Al2 Al1 92.86(7) . 5_656 ?
O6 Al2 Al1 128.09(7) 2_656 5_656 ?
O1 Al2 Al1 38.22(6) 3_445 5_656 ?
O1 Al2 Al1 135.59(7) 4_646 5_656 ?
O3 Al2 Al1 93.00(7) 3_445 5_656 ?
O3 Al2 Al1 39.55(6) 4_646 5_656 ?
O6 Al2 Al1 128.09(7) . 6_556 ?
O6 Al2 Al1 92.86(7) 2_656 6_556 ?
O1 Al2 Al1 135.59(7) 3_445 6_556 ?
O1 Al2 Al1 38.22(6) 4_646 6_556 ?
O3 Al2 Al1 39.55(6) 3_445 6_556 ?
O3 Al2 Al1 93.00(7) 4_646 6_556 ?
Al1 Al2 Al1 119.40(5) 5_656 6_556 ?
O2 B1 O1 122.0(2) . . ?
O2 B1 O4 116.1(2) . . ?
O1 B1 O4 121.8(2) . . ?
O2 B1 Sm 48.60(13) . 5_666 ?
O1 B1 Sm 148.06(18) . 5_666 ?
O4 B1 Sm 75.65(14) . 5_666 ?
O5 B2 O6 124.3(2) . . ?
O5 B2 O3 117.9(2) . . ?
O6 B2 O3 117.7(2) . . ?
O5 B2 Sm 50.53(13) . . ?
O6 B2 Sm 144.07(19) . . ?
O3 B2 Sm 78.67(15) . . ?
O5 B2 Sm 143.75(19) . 3_545 ?
O6 B2 Sm 49.14(13) . 3_545 ?
O3 B2 Sm 81.20(16) . 3_545 ?
Sm B2 Sm 159.87(10) . 3_545 ?
B1 O1 Al1 130.79(17) . 7_656 ?
B1 O1 Al2 126.12(17) . 3 ?
Al1 O1 Al2 102.93(9) 7_656 3 ?
B1 O2 Al1 132.98(18) . . ?
B1 O2 Sm 105.79(16) . 5_666 ?
Al1 O2 Sm 120.82(9) . 5_666 ?
B2 O3 Al1 128.95(18) . 8_556 ?
B2 O3 Al2 130.22(18) . 3 ?
Al1 O3 Al2 100.83(9) 8_556 3 ?
B1 O4 Al1 130.04(17) . 3 ?
B1 O4 Al1 127.50(16) . 5_666 ?
Al1 O4 Al1 102.19(10) 3 5_666 ?
B2 O5 Al1 138.67(18) . . ?
B2 O5 Sm 103.23(16) . . ?
Al1 O5 Sm 117.80(10) . . ?
B2 O6 Al2 134.82(19) . . ?
B2 O6 Sm 104.86(17) . 3_545 ?
Al2 O6 Sm 120.19(10) . 3_545 ?
loop_
_geom_bond_atom_site_label_1
_geom_bond_atom_site_label_2
_geom_bond_distance
_geom_bond_site_symmetry_2
_geom_bond_publ_flag
Sm O6 2.353(2) 4_656 ?
Sm O6 2.353(2) 3_455 ?
Sm O5 2.374(2) 2_656 ?
Sm O5 2.374(2) . ?
Sm O2 2.379(2) 6_566 ?
Sm O2 2.379(2) 5_666 ?
Sm B2 2.994(3) 2_656 ?
Sm B2 2.994(3) . ?
Sm B2 3.007(3) 4_656 ?
Sm B2 3.007(3) 3_455 ?
Sm B1 3.052(3) 6_566 ?
Sm B1 3.052(3) 5_666 ?
Al1 O5 1.847(2) . ?
Al1 O2 1.884(2) . ?
Al1 O1 1.898(2) 7_656 ?
Al1 O4 1.932(2) 3_445 ?
Al1 O3 1.938(2) 8_455 ?
Al1 O4 1.951(2) 5_666 ?
Al1 Al2 2.9898(10) 5_656 ?
Al2 O6 1.851(2) . ?
Al2 O6 1.851(2) 2_656 ?
Al2 O1 1.9245(19) 3_445 ?
Al2 O1 1.9245(19) 4_646 ?
Al2 O3 1.941(2) 3_445 ?
Al2 O3 1.941(2) 4_646 ?
Al2 Al1 2.9898(10) 5_656 ?
Al2 Al1 2.9898(10) 6_556 ?
B1 O2 1.371(4) . ?
B1 O1 1.378(3) . ?
B1 O4 1.391(3) . ?
B1 Sm 3.052(3) 5_666 ?
B2 O5 1.360(3) . ?
B2 O6 1.364(3) . ?
B2 O3 1.382(3) . ?
B2 Sm 3.007(3) 3_545 ?
O1 Al1 1.898(2) 7_656 ?
O1 Al2 1.9245(19) 3 ?
O2 Sm 2.379(2) 5_666 ?
O3 Al1 1.938(2) 8_556 ?
O3 Al2 1.941(2) 3 ?
O4 Al1 1.932(2) 3 ?
O4 Al1 1.951(2) 5_666 ?
O6 Sm 2.353(2) 3_545 ?

_cod_database_fobs_code 2108646
