#------------------------------------------------------------------------------
#$Date: 2019-08-01 07:03:08 +0300 (Thu, 01 Aug 2019) $
#$Revision: 217345 $
#$URL: file:///home/coder/svn-repositories/cod/cif/2/10/84/2108452.cif $
#------------------------------------------------------------------------------
#
# This file is available in the Crystallography Open Database (COD),
# http://www.crystallography.net/. The original data for this entry
# were provided by IUCr Journals, http://journals.iucr.org/.
#
# The file may be used within the scientific community so long as
# proper attribution is given to the journal article from which the
# data were obtained.
#
data_2108452
loop_
_publ_author_name
'Fukui, Hiroshi'
'Fujimoto, Manato'
'Akahama, Yuichi'
'Sano-Furukawa, Asami'
'Hattori, Takanori'
_publ_section_title
;
 Structure change of monoclinic ZrO~2~ baddeleyite involving softenings of
 bulk modulus and atom vibrations
;
_journal_issue                   4
_journal_name_full               'Acta Crystallographica Section B'
_journal_page_first
;
;
_journal_paper_doi               10.1107/S2052520619007923
_journal_volume                  75
_journal_year                    2019
_chemical_formula_sum            'O2 Zr'
_chemical_formula_weight         123.22
_space_group_IT_number           14
_space_group_name_Hall           '-P 2ybc'
_space_group_name_H-M_alt        'P 1 21/c 1'
_symmetry_cell_setting           monoclinic
_symmetry_space_group_name_Hall  '-P 2ybc'
_symmetry_space_group_name_H-M   'P 1 21/c 1'
_audit_creation_date             2019-05-07T13:16
_audit_creation_method           'from EXP file using GSAS2CIF'
_audit_update_record
' 2019-05-07T13:16  Initial CIF as created by GSAS2CIF'
_cell_angle_alpha                90.0
_cell_angle_beta                 99.048(4)
_cell_angle_gamma                90.0
_cell_formula_units_Z            4
_cell_length_a                   5.12418(21)
_cell_length_b                   5.20803(23)
_cell_length_c                   5.28293(24)
_cell_volume                     139.231(11)
_computing_structure_refinement  GSAS
_diffrn_radiation_probe          neutron
_exptl_absorpt_correction_T_max  1.00000
_exptl_absorpt_correction_T_min  1.00000
_exptl_absorpt_process_details
;   GSAS Absorption/surface roughness correction: function number 0
 No correction is applied.
;
_pd_block_id                     2019-05-07T13:16|34800|FUKUI,_Hiroshi|PLANET
_pd_calc_method                  'Rietveld Refinement'
_pd_instr_location               ' ?'
_pd_meas_2theta_fixed            90.00
_pd_meas_number_of_points        3712
_pd_phase_name
'from Z:/2017A/Fukui/32p0ton/gsas034786/34786.EXP'
_pd_proc_info_datetime           2019-05-07T13:16:49
_pd_proc_info_excluded_regions   ' ?'
_pd_proc_ls_background_function
;   GSAS Background function number 1 with 16 terms.
 Shifted Chebyshev function of 1st kind
      1:   0.231529     2:   7.972690E-02 3:   1.985010E-02 4:  -8.271670E-05
      5:  -1.164490E-02 6:  -3.707700E-03 7:  -1.142620E-02 8:  -1.386380E-03
      9:  -1.172040E-0310:   1.338090E-0311:   1.196800E-0312:  -6.080360E-04
     13:   7.124650E-0414:  -3.884560E-0415:  -1.108020E-0316:  -1.019030E-04
;
_pd_proc_ls_peak_cutoff          0.00100
_pd_proc_ls_profile_function
;
 TOF Profile function number 3 with  21 terms
 Profile coefficients for exponential pseudovoigt
  convolution Von Dreele, 1990 (unpublished)
 #1 (alp  ) = ******** #2 (bet-0) = 0.015258 #3 (bet-1) = 0.731691
 #4 (sig-0) =      2.8 #5 (sig-1) =    473.0 #6 (sig-2) =    104.8
 #7 (gam-0) =     0.00 #8 (gam-1) =    22.65 #9 (gam-2) =     0.93
 #10(gsf  ) =     0.00 #11(g1ec ) =     0.00 #12(g2ec ) =     0.00
 #13(rstr ) =    0.000 #14(rsta ) =    0.000 #15(rsca ) =    0.000
 #16(L11)   =    0.000 #17(L22)   =    0.000 #18(L33)   =    0.000
 #19(L12)   =    0.000 #20(L13)   =    0.000 #21(L23)   =    0.000
 Peak tails are ignored  where the intensity is below 0.0010 times the peak
   Aniso. broadening axis   0.0   0.0   1.0
;
_pd_proc_ls_prof_R_factor        0.0183
_pd_proc_ls_prof_wR_expected     0.0156
_pd_proc_ls_prof_wR_factor       0.0197
_pd_proc_number_of_points        3712
_pd_spec_mounting                ' ?'
_refine_ls_goodness_of_fit_all   1.27
_refine_ls_matrix_type           full
_refine_ls_number_parameters     33
_refine_ls_number_restraints     0
_refine_ls_R_Fsqd_factor         0.06266
_refine_ls_shift/su_max          0.02
_refine_ls_shift/su_mean         0.00
_reflns_d_resolution_high        0.700
_reflns_d_resolution_low         3.151
_reflns_limit_h_max              7
_reflns_limit_h_min              0
_reflns_limit_k_max              7
_reflns_limit_k_min              0
_reflns_limit_l_max              7
_reflns_limit_l_min              -8
_reflns_number_total             429
_cod_data_source_file            xk5055sup1.cif
_cod_data_source_block           34800
_cod_depositor_comments
;
The following automatic conversions were performed:

'_geom_bond_publ_flag' value 'N' changed to 'n' according to
/home/data/users/saulius/crontab/automatic-downloads/rss-feeds/IUCr/lib/dictionaries/cif_core.dic
dictionary named 'cif_core.dic' version 2.4.2 from 2011-04-26 (21
time).

'_geom_angle_publ_flag' value 'N' changed to 'n' according to
/home/data/users/saulius/crontab/automatic-downloads/rss-feeds/IUCr/lib/dictionaries/cif_core.dic
dictionary named 'cif_core.dic' version 2.4.2 from 2011-04-26 (30
times).

Automatic conversion script
Id: cif_fix_values 4973 2017-02-22 13:04:09Z antanas 
;
_cod_original_cell_volume        139.230(7)
_cod_database_code               2108452
_gsas_exptl_extinct_corr_t_min   1.00000
_gsas_exptl_extinct_corr_t_max   1.00000
loop_
_symmetry_equiv_pos_site_id
_symmetry_equiv_pos_as_xyz
1 +x,+y,+z
2 -x,+y+1/2,-z+1/2
-1 -x,-y,-z
-2 +x,-y+1/2,+z+1/2
loop_
_atom_site_type_symbol
_atom_site_label
_atom_site_fract_x
_atom_site_fract_y
_atom_site_fract_z
_atom_site_occupancy
_atom_site_thermal_displace_type
_atom_site_U_iso_or_equiv
_atom_site_symmetry_multiplicity
Zr Zr 0.2759(4) 0.0378(4) 0.2102(4) 1.0 Uiso 0.00204 4
O O1 0.0727(6) 0.3400(5) 0.3382(5) 1.0 Uiso 0.00363 4
O O2 0.4486(5) 0.7587(5) 0.4823(5) 1.0 Uiso 0.00101 4
loop_
_atom_type_symbol
_atom_type_number_in_cell
_atom_type_scat_length_neutron
_atom_type_scat_source
Zr 4.0 0.7160 International_Tables_Vol_C
O 8.0 0.5803 International_Tables_Vol_C
loop_
_geom_angle_atom_site_label_1
_geom_angle_atom_site_label_2
_geom_angle_atom_site_label_3
_geom_angle
_geom_angle_site_symmetry_1
_geom_angle_site_symmetry_3
_geom_angle_publ_flag
O1 Zr O1 87.07(10) 1_555 2_545 n
O1 Zr O1 82.98(12) 1_555 -2_565 n
O1 Zr O2 118.45(15) 1_555 1_545 n
O1 Zr O2 98.45(15) 1_555 2_645 n
O1 Zr O2 72.19(14) 1_555 -1_666 n
O1 Zr O2 166.59(17) 1_555 -2_565 n
O1 Zr O1 75.46(12) 2_545 -2_565 n
O1 Zr O2 90.15(13) 2_545 1_545 n
O1 Zr O2 145.19(13) 2_545 2_645 n
O1 Zr O2 140.07(13) 2_545 -1_666 n
O1 Zr O2 89.82(15) 2_545 -2_565 n
O1 Zr O2 153.93(12) -2_565 1_545 n
O1 Zr O2 71.22(12) -2_565 2_645 n
O1 Zr O2 132.46(11) -2_565 -1_666 n
O1 Zr O2 83.61(12) -2_565 -2_565 n
O2 Zr O2 116.16(12) 1_545 2_645 n
O2 Zr O2 71.76(13) 1_545 -1_666 n
O2 Zr O2 74.57(9) 1_545 -2_565 n
O2 Zr O2 73.16(9) 2_645 -1_666 n
O2 Zr O2 76.91(11) 2_645 -2_565 n
O2 Zr O2 117.46(12) -1_666 -2_565 n
Zr O1 Zr 145.26(16) 1_555 2_555 n
Zr O1 Zr 109.03(16) 1_555 -2_555 n
Zr O1 Zr 104.54(12) 2_555 -2_555 n
Zr O2 Zr 105.89(13) 1_565 2_655 n
Zr O2 Zr 108.24(13) 1_565 -1_666 n
Zr O2 Zr 132.72(17) 1_565 -2_555 n
Zr O2 Zr 101.91(12) 2_655 -1_666 n
Zr O2 Zr 103.09(11) 2_655 -2_555 n
Zr O2 Zr 101.22(11) -1_666 -2_555 n
loop_
_geom_bond_atom_site_label_1
_geom_bond_atom_site_label_2
_geom_bond_distance
_geom_bond_site_symmetry_2
_geom_bond_publ_flag
Zr Zr 3.4535(30) 2_645 n
Zr Zr 3.4535(30) 2_655 n
Zr Zr 3.333(5) -1_555 n
Zr Zr 3.459(4) -1_655 n
Zr Zr 3.549(5) -1_656 n
Zr Zr 3.4441(28) -2_554 n
Zr Zr 3.4441(28) -2_555 n
Zr O1 2.059(4) 1_555 n
Zr O1 2.0432(34) 2_545 n
Zr O1 2.170(4) -2_554 n
Zr O2 2.1361(33) 1_545 n
Zr O2 2.1911(32) 2_645 n
Zr O2 2.243(4) -1_666 n
Zr O2 2.225(4) -2_554 n
O1 Zr 2.059(4) 1_555 n
O1 Zr 2.0432(34) 2_555 n
O1 Zr 2.170(4) -2_555 n
O2 Zr 2.1361(33) 1_565 n
O2 Zr 2.1911(32) 2_655 n
O2 Zr 2.243(4) -1_666 n
O2 Zr 2.225(4) -2_555 n
loop_
_pd_meas_time_of_flight
_pd_proc_d_spacing
_pd_meas_intensity_total
_pd_proc_ls_weight
_pd_proc_intensity_bkg_calc
_pd_calc_intensity_total
2855.00 . 0.1744(24) . . .
2865.00 . 0.1733(24) . . .
2875.00 . 0.1720(24) . . .
2885.00 . 0.1746(24) . . .
2895.00 . 0.1659(24) . . .
2905.00 . 0.1646(24) . . .
2915.00 . 0.1659(24) . . .
2925.00 . 0.1664(23) . . .
2935.00 . 0.1646(23) . . .
2945.00 . 0.1642(23) . . .
2955.00 . 0.1658(23) . . .
2965.00 . 0.1603(23) . . .
2975.00 . 0.1681(23) . . .
2985.00 . 0.1648(23) . . .
2995.00 . 0.1640(23) . . .
3005.00 . 0.1612(22) . . .
3015.00 . 0.1647(22) . . .
3025.00 . 0.1590(22) . . .
3035.00 . 0.1605(22) . . .
3045.00 . 0.1679(22) . . .
3055.00 . 0.1613(22) . . .
3065.00 . 0.1652(22) . . .
3075.00 . 0.1630(22) . . .
3085.00 . 0.1615(22) . . .
3095.00 . 0.1599(22) . . .
3105.00 . 0.1549(21) . . .
3115.00 . 0.1571(21) . . .
3125.00 . 0.1609(21) . . .
3135.00 . 0.1606(21) . . .
3145.00 . 0.1645(21) . . .
3155.00 . 0.1586(21) . . .
3165.00 . 0.1621(21) . . .
3175.00 . 0.1634(21) . . .
3185.00 . 0.1566(21) . . .
3195.00 . 0.1544(21) . . .
3205.00 . 0.1532(21) . . .
3215.00 . 0.1580(21) . . .
3225.00 . 0.1577(21) . . .
3235.00 . 0.1603(21) . . .
3245.00 . 0.1612(21) . . .
3255.00 . 0.1564(20) . . .
3265.00 . 0.1601(20) . . .
3275.00 . 0.1541(20) . . .
3285.00 . 0.1578(20) . . .
3295.00 . 0.1607(20) . . .
3305.00 . 0.1611(20) . . .
3315.00 . 0.1613(20) . . .
3325.00 . 0.1582(20) . . .
3335.00 . 0.1557(20) . . .
3345.00 . 0.1570(20) . . .
3355.00 . 0.1588(20) . . .
3365.00 . 0.1588(20) . . .
3375.00 . 0.1613(20) . . .
3385.00 . 0.1559(20) . . .
3395.00 . 0.1506(19) . . .
3405.00 . 0.1510(19) . . .
3415.00 . 0.1486(19) . . .
3425.00 . 0.1537(19) . . .
3435.00 . 0.1556(19) . . .
3445.00 . 0.1491(19) . . .
3455.00 . 0.1438(19) . . .
3465.00 . 0.1461(19) . . .
3475.00 . 0.1432(19) . . .
3485.00 . 0.1449(19) . . .
3495.00 . 0.1447(19) . . .
3505.00 . 0.1457(19) . . .
3515.0 . 0.1474(19) . . .
3525.0 . 0.1464(18) . . .
3535.0 . 0.1457(18) . . .
3545.0 . 0.1445(18) . . .
3555.0 . 0.1446(18) . . .
3565.0 . 0.1514(18) . . .
3575.0 . 0.1533(18) . . .
3585.0 . 0.1510(18) . . .
3595.0 . 0.1497(18) . . .
3605.0 . 0.1489(18) . . .
3615.0 . 0.1454(18) . . .
3625.0 . 0.1474(18) . . .
3635.0 . 0.1461(18) . . .
3645.0 . 0.1518(18) . . .
3655.0 . 0.1516(18) . . .
3665.0 . 0.1477(18) . . .
3675.0 . 0.1471(18) . . .
3685.0 . 0.1482(18) . . .
3695.0 . 0.1460(18) . . .
3705.0 . 0.1466(18) . . .
3715.0 . 0.1478(18) . . .
3725.0 . 0.1532(18) . . .
3735.0 . 0.1541(18) . . .
3745.0 . 0.1500(17) . . .
3755.0 . 0.1502(17) . . .
3765.0 . 0.1521(17) . . .
3775.0 . 0.1521(17) . . .
3785.0 . 0.1551(18) . . .
3795.0 . 0.1559(18) . . .
3805.0 . 0.1554(17) . . .
3815.0 . 0.1526(17) . . .
3825.0 . 0.1537(17) . . .
3835.0 . 0.1502(17) . . .
3845.0 . 0.1546(17) . . .
3855.0 . 0.1512(17) . . .
3865.0 . 0.1533(17) . . .
3875.0 . 0.1508(17) . . .
3885.0 . 0.1561(17) . . .
3895.0 . 0.1511(17) . . .
3905.0 . 0.1542(17) . . .
3915.0 . 0.1504(17) . . .
3925.0 . 0.1454(17) . . .
3935.0 . 0.1455(17) . . .
3945.0 . 0.1503(17) . . .
3955.0 . 0.1553(17) . . .
3965.0 . 0.1555(17) . . .
3975.0 . 0.1542(17) . . .
3985.0 . 0.1553(17) . . .
3995.0 . 0.1499(17) . . .
4005.0 . 0.1537(17) . . .
4015.0 . 0.1539(17) . . .
4025.0 . 0.1526(17) . . .
4035.0 . 0.1561(17) . . .
4045.0 . 0.1553(17) . . .
4055.0 . 0.1519(17) . . .
4065.0 . 0.1491(16) . . .
4075.0 . 0.1493(16) . . .
4085.0 . 0.1493(16) . . .
4095.0 . 0.1532(17) . . .
4105.0 . 0.1517(16) . . .
4115.0 . 0.1517(16) . . .
4125.0 . 0.1500(16) . . .
4135.0 . 0.1517(16) . . .
4145.0 . 0.1529(16) . . .
4155.0 . 0.1525(16) . . .
4165.0 . 0.1517(16) . . .
4175.0 . 0.1531(16) . . .
4185.0 . 0.1538(16) . . .
4195.0 . 0.1547(16) . . .
4205.0 . 0.1560(16) . . .
4215.0 . 0.1554(16) . . .
4225.0 . 0.1540(16) . . .
4235.0 . 0.1519(16) . . .
4245.0 . 0.1560(16) . . .
4255.0 . 0.1547(16) . . .
4265.0 . 0.1513(16) . . .
4275.0 . 0.1526(16) . . .
4285.0 . 0.1495(16) . . .
4295.0 . 0.1524(16) . . .
4305.0 . 0.1504(16) . . .
4315.0 . 0.1530(16) . . .
4325.0 . 0.1568(16) . . .
4335.0 . 0.1553(16) . . .
4345.0 . 0.1571(16) . . .
4355.0 . 0.1536(16) . . .
4365.0 . 0.1557(16) . . .
4375.0 . 0.1558(16) . . .
4385.0 . 0.1577(17) . . .
4395.0 . 0.1560(16) . . .
4405.0 . 0.1503(16) . . .
4415.0 . 0.1503(16) . . .
4425.0 . 0.1529(16) . . .
4435.0 . 0.1576(16) . . .
4445.0 . 0.1615(17) . . .
4455.0 . 0.1633(17) . . .
4465.0 . 0.1631(17) . . .
4475.0 . 0.1627(17) . . .
4485.0 . 0.1609(17) . . .
4495.0 . 0.1642(17) . . .
4505.0 . 0.1621(17) . . .
4515.0 . 0.1614(17) . . .
4525.0 . 0.1622(17) . . .
4535.0 . 0.1621(17) . . .
4545.0 . 0.1615(17) . . .
4555.0 . 0.1630(17) . . .
4565.0 . 0.1653(17) . . .
4575.0 . 0.1675(17) . . .
4585.0 . 0.1693(17) . . .
4595.0 . 0.1649(17) . . .
4605.0 . 0.1614(17) . . .
4615.0 . 0.1591(17) . . .
4625.0 . 0.1661(17) . . .
4635.0 . 0.1649(17) . . .
4645.0 . 0.1658(17) . . .
4655.0 . 0.1614(17) . . .
4665.0 . 0.1616(17) . . .
4675.0 . 0.1636(17) . . .
4685.0 . 0.1602(17) . . .
4695.0 . 0.1624(17) . . .
4705.0 . 0.1639(17) . . .
4715.0 . 0.1601(17) . . .
4725.0 . 0.1568(17) . . .
4735.0 . 0.1591(17) . . .
4745.0 . 0.1604(17) . . .
4755.0 . 0.1564(17) . . .
4765.0 . 0.1581(17) . . .
4775.0 . 0.1601(17) . . .
4785.0 . 0.1589(17) . . .
4795.0 . 0.1547(17) . . .
4805.0 . 0.1551(17) . . .
4815.0 . 0.1620(17) . . .
4825.0 . 0.1612(17) . . .
4835.0 . 0.1609(17) . . .
4845.0 . 0.1635(17) . . .
4855.0 . 0.1652(17) . . .
4865.0 . 0.1680(17) . . .
4875.0 . 0.1681(17) . . .
4885.0 . 0.1655(17) . . .
4895.0 . 0.1688(18) . . .
4905.0 . 0.1657(17) . . .
4915.0 . 0.1672(18) . . .
4925.0 . 0.1663(17) . . .
4935.0 . 0.1646(17) . . .
4945.0 . 0.1641(17) . . .
4955.0 . 0.1663(18) . . .
4965.0 . 0.1699(18) . . .
4975.0 . 0.1664(18) . . .
4985.0 . 0.1622(17) . . .
4995.0 . 0.1600(17) . . .
5005.0 . 0.1554(17) . . .
5015.0 . 0.1514(17) . . .
5025.0 . 0.1518(17) . . .
5035.0 . 0.1545(17) . . .
5045.0 . 0.1567(17) . . .
5055.0 . 0.1561(17) . . .
5065.0 . 0.1532(17) . . .
5075.0 . 0.1596(18) . . .
5085.0 . 0.1558(17) . . .
5095.0 . 0.1568(18) . . .
5105.0 . 0.1581(18) . . .
5115.0 . 0.1636(18) . . .
5125.0 . 0.1586(18) . . .
5135.0 . 0.1519(17) . . .
5145.0 . 0.1551(18) . . .
5155.0 . 0.1519(17) . . .
5165.0 . 0.1581(18) . . .
5175.0 . 0.1618(18) . . .
5185.0 . 0.1610(18) . . .
5195.0 . 0.1646(18) . . .
5205.0 . 0.1632(18) . . .
5215.0 . 0.1587(18) . . .
5225.0 . 0.1589(18) . . .
5235.0 . 0.1555(18) . . .
5245.0 . 0.1556(18) . . .
5255.0 . 0.1572(18) . . .
5265.0 . 0.1616(18) . . .
5275.0 . 0.1627(18) . . .
5285.0 . 0.1655(18) . . .
5295.0 . 0.1628(18) . . .
5305.0 . 0.1618(18) . . .
5315.0 . 0.1618(18) . . .
5325.0 . 0.1588(18) . . .
5335.0 . 0.1606(18) . . .
5345.0 . 0.1581(18) . . .
5355.0 . 0.1575(18) . . .
5365.0 . 0.1574(18) . . .
5375.0 . 0.1606(19) . . .
5385.0 . 0.1586(18) . . .
5395.0 . 0.1602(19) . . .
5405.0 . 0.1574(18) . . .
5415.0 . 0.1571(18) . . .
5425.0 . 0.1548(18) . . .
5435.0 . 0.1562(18) . . .
5445.0 . 0.1576(19) . . .
5455.0 . 0.1512(18) . . .
5465.0 . 0.1506(18) . . .
5475.0 . 0.1451(18) . . .
5485.0 . 0.1469(18) . . .
5495.0 . 0.1490(18) . . .
5505.0 . 0.1506(18) . . .
5515.0 . 0.1506(18) . . .
5525.0 . 0.1521(19) . . .
5535.0 . 0.1545(19) . . .
5545.0 . 0.1568(19) . . .
5555.0 . 0.1568(19) . . .
5565.0 . 0.1566(19) . . .
5575.0 . 0.1571(19) . . .
5585.0 . 0.1571(19) . . .
5595.0 . 0.1594(19) . . .
5605.0 . 0.1597(19) . . .
5615.0 . 0.1627(19) . . .
5625.0 . 0.1632(19) . . .
5635.0 . 0.1616(19) . . .
5645.0 . 0.1640(19) . . .
5655.0 . 0.1694(20) . . .
5665.0 . 0.1705(20) . . .
5675.0 . 0.1687(20) . . .
5685.0 . 0.1705(20) . . .
5695.0 . 0.1697(20) . . .
5705.0 . 0.1684(20) . . .
5715.0 . 0.1642(20) . . .
5725.0 . 0.1613(20) . . .
5735.0 . 0.1613(20) . . .
5745.0 . 0.1637(20) . . .
5755.0 . 0.1635(20) . . .
5765.0 . 0.1646(20) . . .
5775.0 . 0.1625(20) . . .
5785.0 . 0.1681(20) . . .
5795.0 . 0.1636(20) . . .
5805.0 . 0.1613(20) . . .
5815.0 . 0.1612(20) . . .
5825.0 . 0.1610(20) . . .
5835.0 . 0.1661(20) . . .
5845.0 . 0.1624(20) . . .
5855.0 . 0.1635(20) . . .
5865.0 . 0.1602(20) . . .
5875.0 . 0.1641(20) . . .
5885.0 . 0.1617(20) . . .
5895.0 . 0.1670(20) . . .
5905.0 . 0.1699(21) . . .
5915.0 . 0.1715(21) . . .
5925.0 . 0.1768(21) . . .
5935.0 . 0.1773(21) . . .
5945.0 . 0.1779(21) . . .
5955.0 . 0.1830(21) . . .
5965.0 . 0.1843(22) . . .
5975.0 . 0.1872(22) . . .
5985.0 . 0.1818(21) . . .
5995.0 . 0.1768(21) . . .
6005.0 . 0.1773(21) . . .
6015.0 . 0.1726(21) . . .
6025.0 . 0.1751(21) . . .
6035.0 . 0.1682(21) . . .
6045.0 . 0.1663(21) . . .
6055.0 . 0.1722(21) . . .
6065.0 . 0.1721(21) . . .
6075.0 . 0.1717(21) . . .
6085.0 . 0.1717(21) . . .
6095.0 . 0.1692(21) . . .
6105.0 . 0.1763(22) . . .
6115.0 . 0.1759(22) . . .
6125.0 . 0.1820(22) . . .
6135.0 . 0.1793(22) . . .
6145.0 . 0.1786(22) . . .
6155.0 . 0.1800(22) . . .
6165.0 . 0.1814(22) . . .
6175.0 . 0.1866(22) . . .
6185.0 . 0.1859(22) . . .
6195.0 . 0.1887(22) . . .
6205.0 . 0.1838(22) . . .
6215.0 . 0.1814(22) . . .
6225.0 . 0.1761(22) . . .
6235.0 . 0.1757(22) . . .
6245.0 . 0.1789(22) . . .
6255.0 . 0.1813(22) . . .
6265.0 . 0.1867(23) . . .
6275.0 . 0.1794(22) . . .
6285.0 . 0.1823(22) . . .
6295.0 . 0.1818(22) . . .
6305.0 . 0.1826(22) . . .
6315.0 . 0.1888(23) . . .
6325.0 . 0.1868(23) . . .
6335.0 . 0.1821(23) . . .
6345.0 . 0.1795(22) . . .
6355.0 . 0.1701(22) . . .
6365.0 . 0.1653(22) . . .
6375.0 . 0.1624(22) . . .
6385.0 . 0.1687(22) . . .
6395.0 . 0.1754(22) . . .
6405.0 . 0.1759(22) . . .
6415.0 . 0.1879(23) . . .
6425.0 . 0.1909(23) . . .
6435.0 . 0.1859(23) . . .
6445.0 . 0.1849(23) . . .
6455.0 . 0.1837(23) . . .
6465.0 . 0.1831(23) . . .
6475.0 . 0.1864(23) . . .
6485.0 . 0.1854(23) . . .
6495.0 . 0.1827(23) . . .
6505.0 . 0.1829(23) . . .
6515.0 . 0.1768(23) . . .
6525.0 . 0.1765(23) . . .
6535.0 . 0.1703(23) . . .
6545.0 . 0.1665(22) . . .
6555.0 . 0.1706(23) . . .
6565.0 . 0.1707(23) . . .
6575.0 . 0.1750(23) . . .
6585.0 . 0.1741(23) . . .
6595.0 0.69726 0.1820(23) 0.0 0.15243 .
6605.0 0.69832 0.1896(24) 0.0 0.15279 .
6615.0 0.69938 0.1917(24) 176217. 0.15315 0.19155
6625.0 0.70044 0.1925(24) 175134. 0.15350 0.19153
6635.0 0.70150 0.1892(24) 177381. 0.15385 0.18960
6645.0 0.70256 0.1920(24) 174872. 0.15420 0.18818
6655.0 0.70362 0.1911(24) 174995. 0.15454 0.18732
6665.0 0.70467 0.1886(24) 176714. 0.15489 0.18630
6675.0 0.70573 0.1865(24) 177991. 0.15522 0.18449
6685.0 0.70679 0.1824(24) 180897. 0.15556 0.18112
6695.0 0.70785 0.1805(23) 182275. 0.15589 0.17672
6705.0 0.70891 0.1727(23) 188711. 0.15622 0.17256
6715.0 0.70997 0.1673(23) 193419. 0.15655 0.17006
6725.0 0.71102 0.1716(23) 188974. 0.15688 0.17006
6735.0 0.71208 0.1737(23) 186874. 0.15720 0.17273
6745.0 0.71314 0.1836(24) 178089. 0.15752 0.17796
6755.0 0.71420 0.1877(24) 174460. 0.15784 0.18495
6765.0 0.71526 0.1944(24) 168747. 0.15815 0.19207
6775.0 0.71632 0.1947(24) 167984. 0.15846 0.19733
6785.0 0.71738 0.1990(25) 164600. 0.15877 0.19916
6795.0 0.71843 0.1911(24) 170011. 0.15908 0.19773
6805.0 0.71949 0.1947(24) 167013. 0.15939 0.19492
6815.0 0.72055 0.1912(24) 169183. 0.15969 0.19245
6825.0 0.72161 0.1913(24) 168874. 0.15999 0.19120
6835.0 0.72267 0.1872(24) 171581. 0.16029 0.19031
6845.0 0.72373 0.1902(24) 169101. 0.16059 0.18909
6855.0 0.72479 0.1855(24) 172268. 0.16089 0.18732
6865.0 0.72584 0.1842(24) 172551. 0.16118 0.18456
6875.0 0.72690 0.1849(24) 171755. 0.16147 0.18122
6885.0 0.72796 0.1774(24) 177402. 0.16176 0.17790
6895.0 0.72902 0.1762(24) 178119. 0.16205 0.17486
6905.0 0.73008 0.1719(23) 181360. 0.16233 0.17258
6915.0 0.73114 0.1708(23) 182032. 0.16262 0.17180
6925.0 0.73220 0.1754(24) 177531. 0.16290 0.17326
6935.0 0.73325 0.1753(24) 177253. 0.16318 0.17731
6945.0 0.73431 0.1815(24) 171741. 0.16346 0.18321
6955.0 0.73537 0.1843(24) 169181. 0.16373 0.18866
6965.0 0.73643 0.1863(24) 167305. 0.16401 0.19054
6975.0 0.73749 0.1853(24) 167575. 0.16428 0.18801
6985.0 0.73855 0.1814(24) 170134. 0.16455 0.18322
6995.0 0.73960 0.1758(24) 174263. 0.16482 0.17854
7005.0 0.74066 0.1695(24) 179410. 0.16509 0.17505
7015.0 0.74172 0.1745(24) 175050. 0.16536 0.17294
7025.0 0.74278 0.1680(24) 180128. 0.16562 0.17215
7035.0 0.74384 0.1669(24) 180803. 0.16589 0.17274
7045.0 0.74490 0.1772(24) 171557. 0.16615 0.17463
7055.0 0.74596 0.1756(24) 172503. 0.16641 0.17756
7065.0 0.74701 0.1813(24) 167676. 0.16667 0.18075
7075.0 0.74807 0.1802(24) 168271. 0.16692 0.18312
7085.0 0.74913 0.1835(25) 165403. 0.16718 0.18400
7095.0 0.75019 0.1821(25) 166161. 0.16743 0.18394
7105.0 0.75125 0.1858(25) 163117. 0.16768 0.18432
7115.0 0.75231 0.1898(25) 159947. 0.16794 0.18574
7125.0 0.75337 0.1855(25) 162708. 0.16818 0.18791
7135.0 0.75442 0.1847(25) 163005. 0.16843 0.19087
7145.0 0.75548 0.1922(25) 157166. 0.16868 0.19514
7155.0 0.75654 0.1966(25) 154136. 0.16892 0.19990
7165.0 0.75760 0.1986(26) 152559. 0.16917 0.20291
7175.0 0.75866 0.1994(26) 151717. 0.16941 0.20227
7185.0 0.75972 0.1997(26) 151036. 0.16965 0.19768
7195.0 0.76078 0.1896(25) 157584. 0.16989 0.19145
7205.0 0.76183 0.1845(25) 160814. 0.17013 0.18636
7215.0 0.76289 0.1839(25) 160927. 0.17036 0.18366
7225.0 0.76395 0.1821(25) 161824. 0.17060 0.18314
7235.0 0.76501 0.1806(25) 162530. 0.17083 0.18387
7245.0 0.76607 0.1757(25) 165901. 0.17106 0.18493
7255.0 0.76713 0.1846(25) 158819. 0.17129 0.18577
7265.0 0.76819 0.1896(25) 155086. 0.17152 0.18636
7275.0 0.76924 0.1844(25) 158448. 0.17175 0.18739
7285.0 0.77030 0.1889(25) 154955. 0.17198 0.18927
7295.0 0.77136 0.1949(26) 150469. 0.17220 0.19189
7305.0 0.77242 0.2013(26) 146204. 0.17242 0.19526
7315.0 0.77348 0.2026(26) 145382. 0.17265 0.19951
7325.0 0.77454 0.2080(27) 141922. 0.17287 0.20332
7335.0 0.77560 0.2020(26) 145366. 0.17309 0.20409
7345.0 0.77665 0.1967(26) 148666. 0.17330 0.20038
7355.0 0.77771 0.1942(26) 150026. 0.17352 0.19393
7365.0 0.77877 0.1919(26) 151141. 0.17374 0.18766
7375.0 0.77983 0.1834(25) 156846. 0.17395 0.18328
7385.0 0.78089 0.1789(25) 159847. 0.17416 0.18103
7395.0 0.78195 0.1826(25) 156950. 0.17437 0.18030
7405.0 0.78300 0.1807(25) 157971. 0.17458 0.18032
7415.0 0.78406 0.1809(25) 157416. 0.17479 0.18050
7425.0 0.78512 0.1806(25) 157091. 0.17500 0.18050
7435.0 0.78618 0.1795(25) 157713. 0.17520 0.18031
7445.0 0.78724 0.1817(25) 156054. 0.17541 0.18029
7455.0 0.78830 0.1801(25) 156897. 0.17561 0.18086
7465.0 0.78936 0.1842(26) 153546. 0.17581 0.18223
7475.0 0.79041 0.1796(25) 156503. 0.17601 0.18445
7485.0 0.79147 0.1870(26) 151441. 0.17621 0.18728
7495.0 0.79253 0.1901(26) 148995. 0.17640 0.19030
7505.0 0.79359 0.1911(26) 147998. 0.17660 0.19282
7515.0 0.79465 0.1933(26) 146194. 0.17679 0.19386
7525.0 0.79571 0.1977(26) 143274. 0.17699 0.19319
7535.0 0.79677 0.1899(26) 147936. 0.17718 0.19231
7545.0 0.79782 0.1887(26) 148347. 0.17737 0.19287
7555.0 0.79888 0.1952(26) 143740. 0.17756 0.19560
7565.0 0.79994 0.2012(27) 139745. 0.17774 0.19992
7575.0 0.80100 0.2084(27) 135051. 0.17793 0.20428
7585.0 0.80206 0.2084(27) 134679. 0.17811 0.20736
7595.0 0.80312 0.2099(27) 133643. 0.17829 0.20829
7605.0 0.80418 0.2043(27) 136501. 0.17847 0.20673
7615.0 0.80523 0.2044(27) 136256. 0.17865 0.20329
7625.0 0.80629 0.2008(27) 138069. 0.17883 0.19961
7635.0 0.80735 0.2025(27) 136925. 0.17901 0.19719
7645.0 0.80841 0.2002(27) 137988. 0.17918 0.19661
7655.0 0.80947 0.1983(27) 138847. 0.17936 0.19735
7665.0 0.81053 0.1995(27) 137979. 0.17953 0.19828
7675.0 0.81159 0.2046(27) 134817. 0.17970 0.19909
7685.0 0.81264 0.2050(27) 134467. 0.17987 0.20027
7695.0 0.81370 0.2049(27) 134359. 0.18004 0.20200
7705.0 0.81476 0.2120(28) 130128. 0.18020 0.20416
7715.0 0.81582 0.2071(27) 132591. 0.18037 0.20671
7725.0 0.81688 0.2155(28) 127835. 0.18053 0.20958
7735.0 0.81794 0.2232(28) 123803. 0.18069 0.21286
7745.0 0.81900 0.2239(28) 123281. 0.18085 0.21627
7755.0 0.82005 0.2204(28) 124907. 0.18101 0.21887
7765.0 0.82111 0.2237(28) 123169. 0.18117 0.22010
7775.0 0.82217 0.2250(29) 122523. 0.18132 0.22023
7785.0 0.82323 0.2239(29) 122891. 0.18148 0.21945
7795.0 0.82429 0.2236(29) 122781. 0.18163 0.21748
7805.0 0.82535 0.2147(28) 127021. 0.18178 0.21487
7815.0 0.82641 0.2174(28) 125515. 0.18193 0.21256
7825.0 0.82746 0.2151(28) 126451. 0.18208 0.21061
7835.0 0.82852 0.2075(28) 130405. 0.18222 0.20866
7845.0 0.82958 0.2117(28) 127939. 0.18237 0.20716
7855.0 0.83064 0.2059(28) 130959. 0.18251 0.20685
7865.0 0.83170 0.2095(28) 128727. 0.18265 0.20766
7875.0 0.83276 0.2093(28) 128680. 0.18279 0.20856
7885.0 0.83382 0.2085(28) 129022. 0.18293 0.20829
7895.0 0.83488 0.2076(28) 129419. 0.18307 0.20648
7905.0 0.83593 0.2048(28) 130591. 0.18321 0.20403
7915.0 0.83699 0.2056(28) 129958. 0.18334 0.20217
7925.0 0.83805 0.2061(28) 129366. 0.18347 0.20180
7935.0 0.83911 0.2023(28) 131442. 0.18360 0.20348
7945.0 0.84017 0.2097(28) 127248. 0.18373 0.20723
7955.0 0.84123 0.2187(29) 122673. 0.18386 0.21205
7965.0 0.84229 0.2145(28) 124681. 0.18399 0.21578
7975.0 0.84334 0.2169(28) 123255. 0.18411 0.21607
7985.0 0.84440 0.2188(29) 122123. 0.18423 0.21256
7995.0 0.84546 0.2143(28) 124492. 0.18435 0.20714
8005.0 0.84652 0.2021(28) 130968. 0.18447 0.20215
8015.0 0.84758 0.1984(27) 132775. 0.18459 0.19891
8025.0 0.84864 0.2018(28) 130690. 0.18471 0.19777
8035.0 0.84970 0.1938(27) 135292. 0.18482 0.19861
8045.0 0.85075 0.2076(28) 127469. 0.18494 0.20128
8055.0 0.85181 0.2031(28) 129727. 0.18505 0.20561
8065.0 0.85287 0.2124(28) 124762. 0.18516 0.21120
8075.0 0.85393 0.2193(29) 121211. 0.18527 0.21698
8085.0 0.85499 0.2247(29) 118519. 0.18537 0.22108
8095.0 0.85605 0.2248(29) 118464. 0.18548 0.22166
8105.0 0.85711 0.2197(29) 120779. 0.18558 0.21882
8115.0 0.85816 0.2226(29) 119402. 0.18569 0.21456
8125.0 0.85922 0.2160(29) 122606. 0.18579 0.21128
8135.0 0.86028 0.2121(28) 124441. 0.18589 0.21022
8145.0 0.86134 0.2121(28) 124414. 0.18598 0.21101
8155.0 0.86240 0.2101(28) 125401. 0.18608 0.21223
8165.0 0.86346 0.2109(28) 125001. 0.18617 0.21252
8175.0 0.86452 0.2107(28) 124890. 0.18627 0.21149
8185.0 0.86557 0.2043(28) 128402. 0.18636 0.20967
8195.0 0.86663 0.2071(28) 126724. 0.18645 0.20790
8205.0 0.86769 0.2059(28) 127385. 0.18654 0.20670
8215.0 0.86875 0.2014(28) 129730. 0.18662 0.20597
8225.0 0.86981 0.2067(28) 126838. 0.18671 0.20556
8235.0 0.87087 0.2071(28) 126527. 0.18679 0.20571
8245.0 0.87193 0.2039(28) 128195. 0.18687 0.20666
8255.0 0.87298 0.2093(28) 125310. 0.18695 0.20803
8265.0 0.87404 0.2044(28) 127952. 0.18703 0.20892
8275.0 0.87510 0.2117(28) 124006. 0.18711 0.20906
8285.0 0.87616 0.2100(28) 124876. 0.18719 0.20945
8295.0 0.87722 0.2095(28) 125034. 0.18726 0.21148
8305.0 0.87828 0.2145(29) 122469. 0.18733 0.21591
8315.0 0.87934 0.2190(29) 120363. 0.18740 0.22274
8325.0 0.88040 0.2255(29) 117324. 0.18747 0.23099
8335.0 0.88145 0.2372(30) 112237. 0.18754 0.23924
8345.0 0.88251 0.2490(31) 107343. 0.18761 0.24695
8355.0 0.88357 0.2554(31) 104795. 0.18767 0.25404
8365.0 0.88463 0.2553(31) 104703. 0.18774 0.25910
8375.0 0.88569 0.2581(31) 103496. 0.18780 0.25903
8385.0 0.88675 0.2486(31) 106992. 0.18786 0.25191
8395.0 0.88781 0.2370(30) 111377. 0.18792 0.24007
8405.0 0.88886 0.2311(30) 113979. 0.18797 0.22785
8415.0 0.88992 0.2188(29) 119520. 0.18803 0.21847
8425.0 0.89098 0.2103(28) 123724. 0.18808 0.21334
8435.0 0.89204 0.2141(29) 121790. 0.18814 0.21229
8445.0 0.89310 0.2161(29) 120671. 0.18819 0.21397
8455.0 0.89416 0.2140(29) 121858. 0.18824 0.21661
8465.0 0.89522 0.2162(29) 120762. 0.18829 0.21861
8475.0 0.89627 0.2230(29) 117499. 0.18833 0.21893
8485.0 0.89733 0.2125(29) 122581. 0.18838 0.21757
8495.0 0.89839 0.2153(29) 121192. 0.18842 0.21539
8505.0 0.89945 0.2065(28) 125614. 0.18847 0.21321
8515.0 0.90051 0.2133(29) 122217. 0.18851 0.21125
8525.0 0.90157 0.2028(28) 127676. 0.18855 0.20919
8535.0 0.90263 0.2078(28) 124998. 0.18858 0.20699
8545.0 0.90369 0.2101(28) 123544. 0.18862 0.20513
8555.0 0.90474 0.2051(28) 126111. 0.18866 0.20387
8565.0 0.90580 0.2048(28) 126067. 0.18869 0.20312
8575.0 0.90686 0.2004(28) 128292. 0.18872 0.20260
8585.0 0.90792 0.1998(28) 128403. 0.18875 0.20218
8595.0 0.90898 0.1948(28) 131155. 0.18878 0.20203
8605.0 0.91004 0.1964(28) 130160. 0.18881 0.20237
8615.0 0.91110 0.2041(28) 125929. 0.18884 0.20296
8625.0 0.91215 0.1992(28) 128537. 0.18886 0.20336
8635.0 0.91321 0.1934(28) 131846. 0.18889 0.20319
8645.0 0.91427 0.1982(28) 129009. 0.18891 0.20262
8655.0 0.91533 0.2021(28) 126804. 0.18893 0.20249
8665.0 0.91639 0.2014(28) 127019. 0.18895 0.20380
8675.0 0.91745 0.1999(28) 127688. 0.18897 0.20725
8685.0 0.91851 0.2157(29) 119390. 0.18899 0.21305
8695.0 0.91956 0.2184(29) 118073. 0.18901 0.22080
8705.0 0.92062 0.2195(29) 117617. 0.18902 0.22934
8715.0 0.92168 0.2290(30) 113022. 0.18903 0.23722
8725.0 0.92274 0.2350(30) 110352. 0.18905 0.24382
8735.0 0.92380 0.2496(31) 104485. 0.18906 0.24880
8745.0 0.92486 0.2496(31) 104366. 0.18907 0.25119
8755.0 0.92592 0.2447(31) 106347. 0.18907 0.25006
8765.0 0.92698 0.2404(30) 108096. 0.18908 0.24583
8775.0 0.92803 0.2397(30) 108313. 0.18909 0.24041
8785.0 0.92909 0.2328(30) 111067. 0.18909 0.23609
8795.0 0.93015 0.2344(30) 110370. 0.18910 0.23392
8805.0 0.93121 0.2302(30) 112019. 0.18910 0.23323
8815.0 0.93227 0.2309(30) 111565. 0.18910 0.23209
8825.0 0.93333 0.2240(30) 114525. 0.18910 0.22890
8835.0 0.93439 0.2172(29) 117608. 0.18910 0.22361
8845.0 0.93544 0.2164(29) 118013. 0.18910 0.21751
8855.0 0.93650 0.2082(29) 121855. 0.18909 0.21221
8865.0 0.93756 0.2074(29) 122241. 0.18909 0.20883
8875.0 0.93862 0.2049(28) 123464. 0.18908 0.20777
8885.0 0.93968 0.2064(29) 122574. 0.18907 0.20875
8895.0 0.94074 0.2086(29) 121283. 0.18907 0.21112
8905.0 0.94180 0.2162(29) 117393. 0.18906 0.21413
8915.0 0.94286 0.2180(29) 116352. 0.18905 0.21698
8925.0 0.94391 0.2220(30) 114381. 0.18903 0.21871
8935.0 0.94497 0.2160(29) 117212. 0.18902 0.21834
8945.0 0.94603 0.2174(29) 116377. 0.18901 0.21583
8955.0 0.94709 0.2067(29) 121601. 0.18899 0.21213
8965.0 0.94815 0.2088(29) 120424. 0.18898 0.20834
8975.0 0.94921 0.2099(29) 119717. 0.18896 0.20500
8985.0 0.95027 0.1992(28) 125104. 0.18894 0.20231
8995.0 0.95132 0.2019(28) 123626. 0.18892 0.20040
9005.0 0.95238 0.2018(28) 123582. 0.18890 0.19938
9015.0 0.95344 0.2008(28) 124310. 0.18888 0.19932
9025.0 0.95450 0.1977(28) 125857. 0.18886 0.20042
9035.0 0.95556 0.1963(28) 126505. 0.18884 0.20288
9045.0 0.95662 0.2072(29) 120503. 0.18881 0.20668
9055.0 0.95768 0.2115(29) 118254. 0.18879 0.21138
9065.0 0.95874 0.2132(29) 117349. 0.18876 0.21614
9075.0 0.95979 0.2253(30) 111556. 0.18873 0.21970
9085.0 0.96085 0.2202(30) 113858. 0.18871 0.22098
9095.0 0.96191 0.2206(30) 113611. 0.18868 0.22013
9105.0 0.96297 0.2180(30) 114732. 0.18865 0.21856
9115.0 0.96403 0.2248(30) 111531. 0.18862 0.21763
9125.0 0.96509 0.2131(29) 116881. 0.18859 0.21783
9135.0 0.96615 0.2208(30) 113374. 0.18855 0.21857
9145.0 0.96720 0.2178(30) 114885. 0.18852 0.21856
9155.0 0.96826 0.2163(29) 115631. 0.18849 0.21690
9165.0 0.96932 0.2109(29) 118077. 0.18845 0.21388
9175.0 0.97038 0.2082(29) 119351. 0.18842 0.21043
9185.0 0.97144 0.2053(29) 120809. 0.18838 0.20736
9195.0 0.97250 0.1957(28) 125914. 0.18834 0.20521
9205.0 0.97356 0.1998(28) 123512. 0.18831 0.20443
9215.0 0.97462 0.2066(29) 119818. 0.18827 0.20533
9225.0 0.97567 0.2066(29) 119684. 0.18823 0.20806
9235.0 0.97673 0.2140(29) 115866. 0.18819 0.21237
9245.0 0.97779 0.2171(30) 114419. 0.18815 0.21730
9255.0 0.97885 0.2153(29) 115269. 0.18810 0.22123
9265.0 0.97991 0.2128(29) 116497. 0.18806 0.22226
9275.0 0.98097 0.2181(30) 113948. 0.18802 0.21976
9285.0 0.98203 0.2135(29) 116100. 0.18797 0.21501
9295.0 0.98309 0.2100(29) 117727. 0.18793 0.20997
9305.0 0.98414 0.2061(29) 119724. 0.18788 0.20622
9315.0 0.98520 0.1953(28) 125567. 0.18784 0.20455
9325.0 0.98626 0.2016(29) 122354. 0.18779 0.20527
9335.0 0.98732 0.2089(29) 118595. 0.18774 0.20815
9345.0 0.98838 0.2174(30) 114466. 0.18770 0.21268
9355.0 0.98944 0.2190(30) 113841. 0.18765 0.21822
9365.0 0.99050 0.2209(30) 113116. 0.18760 0.22426
9375.0 0.99155 0.2301(30) 109158. 0.18755 0.23020
9385.0 0.99261 0.2347(31) 107282. 0.18750 0.23513
9395.0 0.99367 0.2412(31) 104838. 0.18745 0.23828
9405.0 0.99473 0.2409(31) 105089. 0.18740 0.23915
9415.0 0.99579 0.2463(31) 102958. 0.18735 0.23709
9425.0 0.99685 0.2315(30) 108802. 0.18729 0.23191
9435.0 0.99791 0.2297(30) 109566. 0.18724 0.22475
9445.0 0.99897 0.2260(30) 111264. 0.18719 0.21746
9455.0 1.00002 0.2130(29) 117222. 0.18713 0.21157
9465.0 1.00108 0.2109(29) 118286. 0.18708 0.20784
9475.0 1.00214 0.2064(29) 120508. 0.18702 0.20631
9485.0 1.00320 0.2079(29) 119773. 0.18697 0.20655
9495.0 1.00426 0.2077(29) 120043. 0.18691 0.20791
9505.0 1.00532 0.2070(29) 120269. 0.18686 0.20982
9515.0 1.00638 0.2150(29) 116431. 0.18680 0.21168
9525.0 1.00744 0.2168(29) 115468. 0.18674 0.21301
9535.0 1.00849 0.2123(29) 117622. 0.18668 0.21358
9545.0 1.00955 0.2130(29) 117358. 0.18663 0.21321
9555.0 1.01061 0.2117(29) 118110. 0.18657 0.21179
9565.0 1.01167 0.2138(29) 117073. 0.18651 0.20935
9575.0 1.01273 0.2090(29) 119492. 0.18645 0.20632
9585.0 1.01379 0.2058(29) 121178. 0.18639 0.20339
9595.0 1.01485 0.2046(29) 121818. 0.18633 0.20130
9605.0 1.01591 0.2005(28) 123975. 0.18627 0.20055
9615.0 1.01696 0.2039(29) 122120. 0.18621 0.20135
9625.0 1.01802 0.1976(28) 125630. 0.18615 0.20364
9635.0 1.01908 0.2026(29) 122931. 0.18609 0.20707
9645.0 1.02014 0.2148(29) 116868. 0.18603 0.21113
9655.0 1.02120 0.2207(30) 114168. 0.18597 0.21543
9665.0 1.02226 0.2230(30) 113073. 0.18591 0.21995
9675.0 1.02332 0.2275(30) 111079. 0.18584 0.22506
9685.0 1.02437 0.2333(30) 108564. 0.18578 0.23144
9695.0 1.02543 0.2452(31) 103902. 0.18572 0.23958
9705.0 1.02649 0.2520(31) 101632. 0.18566 0.24899
9715.0 1.02755 0.2575(32) 99705. 0.18559 0.25750
9725.0 1.02861 0.2630(32) 97852. 0.18553 0.26223
9735.0 1.02967 0.2611(32) 98319. 0.18547 0.26112
9745.0 1.03073 0.2519(31) 101565. 0.18540 0.25425
9755.0 1.03179 0.2430(31) 104900. 0.18534 0.24363
9765.0 1.03284 0.2348(30) 108092. 0.18528 0.23187
9775.0 1.03390 0.2209(30) 114167. 0.18521 0.22102
9785.0 1.03496 0.2125(29) 118182. 0.18515 0.21228
9795.0 1.03602 0.2101(29) 119490. 0.18508 0.20617
9805.0 1.03708 0.2006(28) 124424. 0.18502 0.20269
9815.0 1.03814 0.2087(29) 120345. 0.18496 0.20137
9825.0 1.03920 0.2019(28) 124007. 0.18489 0.20154
9835.0 1.04026 0.2040(29) 122768. 0.18483 0.20239
9845.0 1.04131 0.2008(28) 124381. 0.18476 0.20313
9855.0 1.04237 0.2043(29) 122541. 0.18470 0.20311
9865.0 1.04343 0.2020(28) 123624. 0.18463 0.20222
9875.0 1.04449 0.1986(28) 125547. 0.18457 0.20100
9885.0 1.04555 0.1988(28) 125261. 0.18450 0.20028
9895.0 1.04661 0.2001(28) 124653. 0.18444 0.20077
9905.0 1.04767 0.2024(28) 123445. 0.18437 0.20282
9915.0 1.04873 0.2077(29) 120779. 0.18431 0.20636
9925.0 1.04978 0.2149(29) 117148. 0.18424 0.21080
9935.0 1.05084 0.2194(29) 115017. 0.18418 0.21507
9945.0 1.05190 0.2194(29) 115074. 0.18411 0.21785
9955.0 1.05296 0.2196(29) 115168. 0.18405 0.21808
9965.0 1.05402 0.2223(30) 114081. 0.18399 0.21573
9975.0 1.05508 0.2122(29) 118906. 0.18392 0.21190
9985.0 1.05614 0.2099(29) 119885. 0.18386 0.20788
9995.0 1.05720 0.2056(29) 122020. 0.18379 0.20449
10005.0 1.05825 0.1993(28) 125242. 0.18373 0.20197
10015.0 1.05931 0.2011(28) 124135. 0.18366 0.20006
10025.0 1.06037 0.1977(28) 125793. 0.18360 0.19838
10035.0 1.06143 0.1923(28) 128939. 0.18353 0.19689
10045.0 1.06249 0.1943(28) 127744. 0.18347 0.19584
10055.0 1.06355 0.1950(28) 127394. 0.18341 0.19541
10065.0 1.06461 0.1948(28) 127374. 0.18334 0.19568
10075.0 1.06567 0.1958(28) 126793. 0.18328 0.19642
10085.0 1.06672 0.1963(28) 126551. 0.18322 0.19723
10095.0 1.06778 0.1960(28) 126671. 0.18315 0.19753
10105.0 1.06884 0.2020(28) 123281. 0.18309 0.19695
10115.0 1.06990 0.2011(28) 123675. 0.18303 0.19560
10125.0 1.07096 0.1938(28) 127711. 0.18296 0.19393
10135.0 1.07202 0.1944(28) 127351. 0.18290 0.19246
10145.0 1.07308 0.1975(28) 125634. 0.18284 0.19155
10155.0 1.07414 0.1934(28) 127936. 0.18278 0.19144
10165.0 1.07519 0.1913(28) 129094. 0.18271 0.19222
10175.0 1.07625 0.1923(28) 128448. 0.18265 0.19391
10185.0 1.07731 0.1974(28) 125551. 0.18259 0.19648
10195.0 1.07837 0.2050(29) 121231. 0.18253 0.19980
10205.0 1.07943 0.2064(29) 120590. 0.18247 0.20372
10215.0 1.08049 0.2113(29) 117988. 0.18241 0.20813
10225.0 1.08155 0.2196(30) 113955. 0.18235 0.21318
10235.0 1.08261 0.2166(29) 115247. 0.18229 0.21906
10245.0 1.08366 0.2263(30) 110776. 0.18223 0.22564
10255.0 1.08472 0.2342(31) 107312. 0.18217 0.23216
10265.0 1.08578 0.2400(31) 104874. 0.18211 0.23742
10275.0 1.08684 0.2338(31) 107269. 0.18205 0.24016
10285.0 1.08790 0.2389(31) 105101. 0.18199 0.23959
10295.0 1.08896 0.2420(31) 103746. 0.18193 0.23620
10305.0 1.09002 0.2340(31) 106923. 0.18187 0.23137
10315.0 1.09108 0.2341(31) 106792. 0.18182 0.22643
10325.0 1.09213 0.2222(30) 111763. 0.18176 0.22225
10335.0 1.09319 0.2197(30) 112995. 0.18170 0.21942
10345.0 1.09425 0.2178(30) 113838. 0.18164 0.21823
10355.0 1.09531 0.2145(29) 115407. 0.18159 0.21865
10365.0 1.09637 0.2208(30) 112355. 0.18153 0.22056
10375.0 1.09743 0.2218(30) 111935. 0.18147 0.22391
10385.0 1.09849 0.2283(30) 109037. 0.18142 0.22841
10395.0 1.09955 0.2325(31) 107236. 0.18136 0.23321
10405.0 1.10060 0.2372(31) 105287. 0.18131 0.23694
10415.0 1.10166 0.2364(31) 105500. 0.18125 0.23824
10425.0 1.10272 0.2386(31) 104428. 0.18120 0.23607
10435.0 1.10378 0.2280(30) 108871. 0.18115 0.23040
10445.0 1.10484 0.2293(30) 108400. 0.18109 0.22249
10455.0 1.10590 0.2192(30) 113001. 0.18104 0.21412
10465.0 1.10696 0.2070(29) 118941. 0.18099 0.20671
10475.0 1.10802 0.2059(29) 119410. 0.18094 0.20111
10485.0 1.10907 0.2000(29) 122676. 0.18088 0.19759
10495.0 1.11013 0.1967(28) 124510. 0.18083 0.19607
10505.0 1.11119 0.1996(29) 122914. 0.18078 0.19625
10515.0 1.11225 0.2016(29) 121957. 0.18073 0.19775
10525.0 1.11331 0.2034(29) 121000. 0.18068 0.20022
10535.0 1.11437 0.2039(29) 120788. 0.18063 0.20346
10545.0 1.11543 0.2146(29) 115435. 0.18058 0.20735
10555.0 1.11649 0.2124(29) 116586. 0.18053 0.21156
10565.0 1.11755 0.2153(29) 115219. 0.18049 0.21541
10575.0 1.11860 0.2136(29) 116130. 0.18044 0.21798
10585.0 1.11966 0.2120(29) 116925. 0.18039 0.21846
10595.0 1.12072 0.2169(30) 114575. 0.18034 0.21642
10605.0 1.12178 0.2087(29) 118564. 0.18030 0.21209
10615.0 1.12284 0.2042(29) 120632. 0.18025 0.20645
10625.0 1.12390 0.1975(28) 124232. 0.18021 0.20059
10635.0 1.12496 0.1940(28) 126191. 0.18016 0.19539
10645.0 1.12602 0.1912(28) 127889. 0.18012 0.19120
10655.0 1.12707 0.1930(28) 126967. 0.18007 0.18814
10665.0 1.12813 0.1859(28) 131187. 0.18003 0.18612
10675.0 1.12919 0.1856(28) 131419. 0.17998 0.18493
10685.0 1.13025 0.1852(28) 131604. 0.17994 0.18438
10695.0 1.13131 0.1866(28) 130795. 0.17990 0.18431
10705.0 1.13237 0.1849(28) 131955. 0.17986 0.18462
10715.0 1.13343 0.1861(28) 131181. 0.17982 0.18521
10725.0 1.13449 0.1840(27) 132421. 0.17978 0.18598
10735.0 1.13554 0.1857(28) 131389. 0.17974 0.18680
10745.0 1.13660 0.1880(28) 130069. 0.17970 0.18749
10755.0 1.13766 0.1845(27) 132441. 0.17966 0.18791
10765.0 1.13872 0.1856(28) 131707. 0.17962 0.18803
10775.0 1.13978 0.1885(28) 129887. 0.17958 0.18809
10785.0 1.14084 0.1879(28) 130095. 0.17954 0.18830
10795.0 1.14190 0.1840(27) 132270. 0.17950 0.18895
10805.0 1.14296 0.1894(28) 128946. 0.17947 0.19019
10815.0 1.14402 0.1878(28) 129790. 0.17943 0.19199
10825.0 1.14507 0.1983(28) 123645. 0.17940 0.19415
10835.0 1.14613 0.1980(28) 123864. 0.17936 0.19634
10845.0 1.14719 0.2054(29) 119967. 0.17933 0.19812
10855.0 1.14825 0.2005(29) 122474. 0.17929 0.19925
10865.0 1.14931 0.2028(29) 121044. 0.17926 0.19992
10875.0 1.15037 0.2034(29) 120759. 0.17923 0.20073
10885.0 1.15143 0.2028(29) 120998. 0.17919 0.20227
10895.0 1.15249 0.2103(29) 117171. 0.17916 0.20489
10905.0 1.15354 0.2116(29) 116532. 0.17913 0.20845
10915.0 1.15460 0.2146(29) 115160. 0.17910 0.21242
10925.0 1.15566 0.2114(29) 116691. 0.17907 0.21587
10935.0 1.15672 0.2165(30) 114136. 0.17904 0.21788
10945.0 1.15778 0.2192(30) 112882. 0.17901 0.21809
10955.0 1.15884 0.2147(29) 114996. 0.17898 0.21719
10965.0 1.15990 0.2194(30) 112806. 0.17895 0.21613
10975.0 1.16096 0.2195(30) 112827. 0.17893 0.21560
10985.0 1.16201 0.2190(30) 112957. 0.17890 0.21567
10995.0 1.16307 0.2151(30) 114697. 0.17887 0.21579
11005.0 1.16413 0.2186(30) 113070. 0.17885 0.21500
11015.0 1.16519 0.2112(29) 116558. 0.17882 0.21253
11025.0 1.16625 0.2174(30) 113584. 0.17879 0.20839
11035.0 1.16731 0.2086(29) 117986. 0.17877 0.20330
11045.0 1.16837 0.2034(29) 120532. 0.17875 0.19808
11055.0 1.16943 0.1916(28) 127097. 0.17872 0.19337
11065.0 1.17049 0.1941(28) 125772. 0.17870 0.18949
11075.0 1.17154 0.1843(28) 131639. 0.17868 0.18664
11085.0 1.17260 0.1858(28) 130663. 0.17866 0.18464
11095.0 1.17366 0.1799(27) 134501. 0.17863 0.18335
11105.0 1.17472 0.1815(27) 133479. 0.17861 0.18255
11115.0 1.17578 0.1858(28) 130792. 0.17859 0.18207
11125.0 1.17684 0.1863(28) 130465. 0.17857 0.18172
11135.0 1.17790 0.1800(27) 134475. 0.17856 0.18144
11145.0 1.17896 0.1811(27) 133797. 0.17854 0.18120
11155.0 1.18001 0.1815(27) 133648. 0.17852 0.18101
11165.0 1.18107 0.1812(27) 133909. 0.17850 0.18087
11175.0 1.18213 0.1813(27) 133850. 0.17848 0.18080
11185.0 1.18319 0.1842(28) 132043. 0.17847 0.18078
11195.0 1.18425 0.1786(27) 135662. 0.17845 0.18083
11205.0 1.18531 0.1803(27) 134397. 0.17844 0.18092
11215.0 1.18637 0.1814(27) 133637. 0.17842 0.18105
11225.0 1.18743 0.1861(28) 130645. 0.17841 0.18118
11235.0 1.18849 0.1814(27) 133566. 0.17839 0.18128
11245.0 1.18954 0.1831(27) 132604. 0.17838 0.18134
11255.0 1.19060 0.1759(27) 137543. 0.17837 0.18132
11265.0 1.19166 0.1798(27) 134905. 0.17836 0.18121
11275.0 1.19272 0.1831(27) 132871. 0.17834 0.18107
11285.0 1.19378 0.1764(27) 137082. 0.17833 0.18093
11295.0 1.19484 0.1788(27) 135618. 0.17832 0.18086
11305.0 1.19590 0.1829(27) 133107. 0.17831 0.18086
11315.0 1.19696 0.1802(27) 134844. 0.17830 0.18101
11325.0 1.19802 0.1820(27) 133703. 0.17829 0.18133
11335.0 1.19907 0.1792(27) 135667. 0.17829 0.18195
11345.0 1.20013 0.1823(27) 133888. 0.17828 0.18295
11355.0 1.20119 0.1889(28) 129812. 0.17827 0.18444
11365.0 1.20225 0.1844(27) 132535. 0.17826 0.18651
11375.0 1.20331 0.1933(28) 127268. 0.17826 0.18920
11385.0 1.20437 0.1941(28) 126765. 0.17825 0.19243
11395.0 1.20543 0.1980(28) 124685. 0.17825 0.19601
11405.0 1.20649 0.1990(28) 124115. 0.17824 0.19954
11415.0 1.20754 0.2079(29) 119533. 0.17824 0.20255
11425.0 1.20860 0.2013(28) 123238. 0.17823 0.20458
11435.0 1.20966 0.2049(29) 121378. 0.17823 0.20538
11445.0 1.21072 0.2032(29) 122491. 0.17823 0.20497
11455.0 1.21178 0.1984(28) 124995. 0.17822 0.20361
11465.0 1.21284 0.2009(28) 123774. 0.17822 0.20175
11475.0 1.21390 0.2025(29) 122894. 0.17822 0.19976
11485.0 1.21496 0.2037(29) 122561. 0.17822 0.19783
11495.0 1.21602 0.1947(28) 127650. 0.17822 0.19603
11505.0 1.21707 0.1915(28) 129686. 0.17822 0.19448
11515.0 1.21813 0.1909(28) 130238. 0.17822 0.19327
11525.0 1.21919 0.1955(28) 127836. 0.17822 0.19270
11535.0 1.22025 0.1944(28) 128515. 0.17822 0.19315
11545.0 1.22131 0.1930(28) 129518. 0.17822 0.19497
11555.0 1.22237 0.1944(28) 128900. 0.17822 0.19845
11565.0 1.22343 0.2041(28) 123598. 0.17823 0.20369
11575.0 1.22449 0.2102(29) 120513. 0.17823 0.21051
11585.0 1.22555 0.2174(29) 117055. 0.17823 0.21835
11595.0 1.22660 0.2301(30) 111462. 0.17824 0.22622
11605.0 1.22766 0.2409(31) 106921. 0.17824 0.23269
11615.0 1.22872 0.2430(31) 106146. 0.17825 0.23623
11625.0 1.22978 0.2391(30) 108002. 0.17825 0.23581
11635.0 1.23084 0.2356(30) 109540. 0.17826 0.23167
11645.0 1.23190 0.2335(30) 110575. 0.17827 0.22510
11655.0 1.23296 0.2196(29) 117105. 0.17827 0.21768
11665.0 1.23402 0.2078(29) 123034. 0.17828 0.21063
11675.0 1.23508 0.2026(28) 125861. 0.17829 0.20480
11685.0 1.23613 0.2031(28) 125592. 0.17830 0.20047
11695.0 1.23719 0.2010(28) 126785. 0.17830 0.19754
11705.0 1.23825 0.1926(28) 131967. 0.17831 0.19572
11715.0 1.23931 0.1916(27) 132718. 0.17832 0.19458
11725.0 1.24037 0.1899(27) 134055. 0.17833 0.19369
11735.0 1.24143 0.1883(27) 135406. 0.17834 0.19267
11745.0 1.24249 0.1855(27) 137191. 0.17835 0.19146
11755.0 1.24355 0.1817(27) 139881. 0.17836 0.19007
11765.0 1.24460 0.1832(27) 138845. 0.17838 0.18866
11775.0 1.24566 0.1895(27) 134980. 0.17839 0.18739
11785.0 1.24672 0.1841(27) 138538. 0.17840 0.18642
11795.0 1.24778 0.1846(27) 138372. 0.17841 0.18583
11805.0 1.24884 0.1818(27) 140131. 0.17842 0.18574
11815.0 1.24990 0.1903(27) 134844. 0.17844 0.18625
11825.0 1.25096 0.1820(27) 140562. 0.17845 0.18753
11835.0 1.25202 0.1875(27) 137168. 0.17847 0.18985
11845.0 1.25308 0.1944(27) 132998. 0.17848 0.19351
11855.0 1.25413 0.1981(28) 130867. 0.17850 0.19887
11865.0 1.25519 0.2038(28) 127568. 0.17851 0.20619
11875.0 1.25625 0.2179(29) 120271. 0.17853 0.21555
11885.0 1.25731 0.2312(30) 114119. 0.17854 0.22672
11895.0 1.25837 0.2378(30) 111415. 0.17856 0.23898
11905.0 1.25943 0.2492(31) 106898. 0.17857 0.25105
11915.0 1.26049 0.2536(31) 105262. 0.17859 0.26127
11925.0 1.26155 0.2591(31) 103392. 0.17861 0.26796
11935.0 1.26261 0.2675(32) 100381. 0.17863 0.27002
11945.0 1.26366 0.2712(32) 99169. 0.17864 0.26714
11955.0 1.26472 0.2591(31) 103499. 0.17866 0.25993
11965.0 1.26578 0.2440(30) 109408. 0.17868 0.24970
11975.0 1.26684 0.2368(30) 112297. 0.17870 0.23815
11985.0 1.26790 0.2264(29) 116789. 0.17872 0.22682
11995.0 1.26896 0.2144(29) 122826. 0.17874 0.21684
12005.0 1.27002 0.2032(28) 128933. 0.17876 0.20881
12015.0 1.27108 0.2012(28) 130290. 0.17878 0.20285
12025.0 1.27214 0.1936(27) 134964. 0.17880 0.19877
12035.0 1.27319 0.1934(27) 135172. 0.17882 0.19622
12045.0 1.27425 0.1931(27) 135606. 0.17884 0.19480
12055.0 1.27531 0.1875(27) 139266. 0.17886 0.19424
12065.0 1.27637 0.1862(27) 140042. 0.17888 0.19442
12075.0 1.27743 0.1926(27) 136120. 0.17891 0.19526
12085.0 1.27849 0.1883(27) 138910. 0.17893 0.19669
12095.0 1.27955 0.1938(27) 135500. 0.17895 0.19857
12105.0 1.28061 0.1976(27) 133242. 0.17897 0.20063
12115.0 1.28167 0.1946(27) 135436. 0.17900 0.20249
12125.0 1.28272 0.1970(27) 133993. 0.17902 0.20366
12135.0 1.28378 0.1954(27) 135205. 0.17904 0.20369
12145.0 1.28484 0.1966(27) 134485. 0.17907 0.20244
12155.0 1.28590 0.2005(28) 132197. 0.17909 0.20014
12165.0 1.28696 0.1911(27) 137909. 0.17912 0.19726
12175.0 1.28802 0.1915(27) 137664. 0.17914 0.19428
12185.0 1.28908 0.1881(27) 140015. 0.17917 0.19156
12195.0 1.29014 0.1885(27) 139771. 0.17919 0.18935
12205.0 1.29120 0.1848(27) 142300. 0.17922 0.18776
12215.0 1.29226 0.1880(27) 140145. 0.17924 0.18685
12225.0 1.29331 0.1823(26) 144080. 0.17927 0.18661
12235.0 1.29437 0.1851(27) 142275. 0.17929 0.18699
12245.0 1.29543 0.1882(27) 140068. 0.17932 0.18799
12255.0 1.29649 0.1895(27) 139199. 0.17935 0.18952
12265.0 1.29755 0.1887(27) 139924. 0.17937 0.19152
12275.0 1.29861 0.1946(27) 136372. 0.17940 0.19384
12285.0 1.29967 0.1937(27) 136984. 0.17943 0.19632
12295.0 1.30073 0.1963(27) 135442. 0.17945 0.19870
12305.0 1.30179 0.1979(27) 134381. 0.17948 0.20074
12315.0 1.30284 0.1975(27) 134616. 0.17951 0.20226
12325.0 1.30390 0.2018(28) 132180. 0.17954 0.20331
12335.0 1.30496 0.2021(28) 132023. 0.17956 0.20417
12345.0 1.30602 0.1991(27) 133883. 0.17959 0.20525
12355.0 1.30708 0.2029(28) 131712. 0.17962 0.20701
12365.0 1.30814 0.2102(28) 127739. 0.17965 0.20976
12375.0 1.30920 0.2140(28) 125608. 0.17968 0.21355
12385.0 1.31026 0.2206(29) 122227. 0.17971 0.21809
12395.0 1.31132 0.2168(28) 124239. 0.17973 0.22275
12405.0 1.31237 0.2252(29) 120073. 0.17976 0.22663
12415.0 1.31343 0.2225(29) 121302. 0.17979 0.22865
12425.0 1.31449 0.2259(29) 119620. 0.17982 0.22823
12435.0 1.31555 0.2217(29) 121741. 0.17985 0.22541
12445.0 1.31661 0.2165(28) 124504. 0.17988 0.22089
12455.0 1.31767 0.2152(28) 125231. 0.17991 0.21560
12465.0 1.31873 0.2160(28) 124944. 0.17994 0.21035
12475.0 1.31979 0.2049(28) 131063. 0.17997 0.20567
12485.0 1.32085 0.2059(28) 130490. 0.18000 0.20184
12495.0 1.32190 0.2025(27) 132453. 0.18003 0.19891
12505.0 1.32296 0.1991(27) 134657. 0.18006 0.19681
12515.0 1.32402 0.1989(27) 134810. 0.18009 0.19540
12525.0 1.32508 0.1969(27) 136203. 0.18012 0.19462
12535.0 1.32614 0.1967(27) 136214. 0.18015 0.19443
12545.0 1.32720 0.1940(27) 138015. 0.18018 0.19478
12555.0 1.32826 0.1913(27) 139833. 0.18022 0.19561
12565.0 1.32932 0.2014(27) 133677. 0.18025 0.19675
12575.0 1.33038 0.1964(27) 136727. 0.18028 0.19798
12585.0 1.33144 0.1998(27) 134720. 0.18031 0.19897
12595.0 1.33249 0.1999(27) 134824. 0.18034 0.19941
12605.0 1.33355 0.2000(27) 134637. 0.18037 0.19909
12615.0 1.33461 0.2001(27) 134633. 0.18040 0.19808
12625.0 1.33567 0.1977(27) 136161. 0.18043 0.19663
12635.0 1.33673 0.1937(27) 138789. 0.18047 0.19512
12645.0 1.33779 0.1980(27) 135850. 0.18050 0.19385
12655.0 1.33885 0.1886(27) 141696. 0.18053 0.19305
12665.0 1.33991 0.1893(27) 141092. 0.18056 0.19282
12675.0 1.34097 0.1993(27) 134909. 0.18059 0.19319
12685.0 1.34202 0.1932(27) 138854. 0.18062 0.19406
12695.0 1.34308 0.1973(27) 136202. 0.18066 0.19526
12705.0 1.34414 0.1965(27) 136503. 0.18069 0.19648
12715.0 1.34520 0.1966(27) 136619. 0.18072 0.19758
12725.0 1.34626 0.2018(27) 133273. 0.18075 0.19837
12735.0 1.34732 0.2049(28) 131543. 0.18078 0.19875
12745.0 1.34838 0.2038(27) 132317. 0.18082 0.19873
12755.0 1.34944 0.2022(27) 133181. 0.18085 0.19827
12765.0 1.35050 0.1978(27) 135879. 0.18088 0.19730
12775.0 1.35156 0.1943(27) 137957. 0.18091 0.19590
12785.0 1.35261 0.1953(27) 137391. 0.18095 0.19423
12795.0 1.35367 0.1917(27) 139613. 0.18098 0.19252
12805.0 1.35473 0.1889(27) 141705. 0.18101 0.19093
12815.0 1.35579 0.1930(27) 138841. 0.18104 0.18954
12825.0 1.35685 0.1878(26) 142450. 0.18107 0.18837
12835.0 1.35791 0.1869(26) 143082. 0.18111 0.18741
12845.0 1.35897 0.1860(26) 143873. 0.18114 0.18659
12855.0 1.36003 0.1886(27) 141871. 0.18117 0.18587
12865.0 1.36109 0.1873(26) 142766. 0.18120 0.18521
12875.0 1.36214 0.1888(27) 141649. 0.18124 0.18462
12885.0 1.36320 0.1890(27) 141620. 0.18127 0.18411
12895.0 1.36426 0.1912(27) 140379. 0.18130 0.18367
12905.0 1.36532 0.1860(26) 143913. 0.18133 0.18332
12915.0 1.36638 0.1879(26) 142665. 0.18136 0.18304
12925.0 1.36744 0.1886(26) 142522. 0.18140 0.18280
12935.0 1.36850 0.1865(26) 144148. 0.18143 0.18264
12945.0 1.36956 0.1833(26) 146452. 0.18146 0.18260
12955.0 1.37062 0.1849(26) 145295. 0.18149 0.18254
12965.0 1.37168 0.1810(26) 148087. 0.18153 0.18250
12975.0 1.37273 0.1821(26) 147381. 0.18156 0.18248
12985.0 1.37379 0.1858(26) 144824. 0.18159 0.18247
12995.0 1.37485 0.1857(26) 144896. 0.18162 0.18247
13005.0 1.37591 0.1873(26) 143799. 0.18165 0.18249
13015.0 1.37697 0.1838(26) 146424. 0.18169 0.18250
13025.0 1.37803 0.1842(26) 146190. 0.18172 0.18252
13035.0 1.37909 0.1795(26) 149685. 0.18175 0.18255
13045.0 1.38015 0.1824(26) 147596. 0.18178 0.18257
13055.0 1.38121 0.1803(26) 148991. 0.18181 0.18260
13065.0 1.38226 0.1799(26) 149291. 0.18184 0.18263
13075.0 1.38332 0.1815(26) 148200. 0.18188 0.18267
13085.0 1.38438 0.1821(26) 147894. 0.18191 0.18271
13095.0 1.38544 0.1829(26) 147405. 0.18194 0.18275
13105.0 1.38650 0.1807(26) 149012. 0.18197 0.18280
13115.0 1.38756 0.1843(26) 146606. 0.18200 0.18284
13125.0 1.38862 0.1884(26) 143769. 0.18203 0.18290
13135.0 1.38968 0.1867(26) 144994. 0.18206 0.18295
13145.0 1.39074 0.1839(26) 147175. 0.18210 0.18301
13155.0 1.39180 0.1784(26) 151136. 0.18213 0.18308
13165.0 1.39285 0.1833(26) 147769. 0.18216 0.18315
13175.0 1.39391 0.1811(26) 149437. 0.18219 0.18322
13185.0 1.39497 0.1829(26) 148449. 0.18222 0.18330
13195.0 1.39603 0.1834(26) 148185. 0.18225 0.18340
13205.0 1.39709 0.1887(26) 144746. 0.18228 0.18350
13215.0 1.39815 0.1851(26) 147300. 0.18231 0.18363
13225.0 1.39921 0.1808(26) 150494. 0.18234 0.18379
13235.0 1.40027 0.1834(26) 148609. 0.18237 0.18399
13245.0 1.40133 0.1827(26) 149178. 0.18240 0.18425
13255.0 1.40239 0.1840(26) 148411. 0.18243 0.18462
13265.0 1.40344 0.1861(26) 147021. 0.18246 0.18515
13275.0 1.40450 0.1853(26) 147519. 0.18249 0.18584
13285.0 1.40556 0.1863(26) 147156. 0.18252 0.18688
13295.0 1.40662 0.1877(26) 146306. 0.18255 0.18829
13305.0 1.40768 0.1928(26) 142858. 0.18258 0.19013
13315.0 1.40874 0.1887(26) 145668. 0.18261 0.19243
13325.0 1.40980 0.1944(27) 142008. 0.18264 0.19517
13335.0 1.41086 0.1983(27) 139664. 0.18267 0.19824
13345.0 1.41192 0.2052(27) 135261. 0.18270 0.20146
13355.0 1.41298 0.2063(27) 134796. 0.18273 0.20453
13365.0 1.41403 0.2118(28) 131771. 0.18276 0.20711
13375.0 1.41509 0.2136(28) 130955. 0.18279 0.20883
13385.0 1.41615 0.2134(28) 131168. 0.18282 0.20944
13395.0 1.41721 0.2141(28) 131051. 0.18285 0.20894
13405.0 1.41827 0.2052(27) 136389. 0.18287 0.20751
13415.0 1.41933 0.2036(27) 137381. 0.18290 0.20562
13425.0 1.42039 0.2044(27) 137015. 0.18293 0.20366
13435.0 1.42145 0.2041(27) 137220. 0.18296 0.20172
13445.0 1.42251 0.2005(27) 139627. 0.18299 0.20007
13455.0 1.42357 0.2001(27) 139936. 0.18302 0.19880
13465.0 1.42462 0.1964(27) 142315. 0.18304 0.19799
13475.0 1.42568 0.1954(26) 143224. 0.18307 0.19768
13485.0 1.42674 0.2005(27) 140149. 0.18310 0.19783
13495.0 1.42780 0.1977(27) 141960. 0.18313 0.19835
13505.0 1.42886 0.2024(27) 139025. 0.18315 0.19907
13515.0 1.42992 0.2025(27) 139097. 0.18318 0.19983
13525.0 1.43098 0.2044(27) 137987. 0.18321 0.20044
13535.0 1.43204 0.1959(26) 143438. 0.18324 0.20074
13545.0 1.43310 0.1992(27) 141464. 0.18326 0.20092
13555.0 1.43416 0.1988(27) 141991. 0.18329 0.20090
13565.0 1.43521 0.2008(27) 140833. 0.18332 0.20092
13575.0 1.43627 0.1998(27) 141679. 0.18334 0.20112
13585.0 1.43733 0.1977(26) 143208. 0.18337 0.20156
13595.0 1.43839 0.2051(27) 138689. 0.18340 0.20219
13605.0 1.43945 0.2027(27) 140301. 0.18342 0.20289
13615.0 1.44051 0.1999(27) 142302. 0.18345 0.20344
13625.0 1.44157 0.2061(27) 138526. 0.18348 0.20363
13635.0 1.44263 0.2023(27) 141060. 0.18350 0.20343
13645.0 1.44369 0.2040(27) 140102. 0.18353 0.20279
13655.0 1.44475 0.2043(27) 139976. 0.18355 0.20176
13665.0 1.44580 0.1999(26) 142864. 0.18358 0.20039
13675.0 1.44686 0.2046(27) 140022. 0.18360 0.19880
13685.0 1.44792 0.1989(26) 143693. 0.18363 0.19709
13695.0 1.44898 0.1963(26) 145361. 0.18365 0.19537
13705.0 1.45004 0.1931(26) 147557. 0.18368 0.19377
13715.0 1.45110 0.1925(26) 148006. 0.18370 0.19238
13725.0 1.45216 0.1956(26) 146136. 0.18373 0.19125
13735.0 1.45322 0.1885(26) 150865. 0.18375 0.19042
13745.0 1.45428 0.1902(26) 149655. 0.18378 0.18990
13755.0 1.45534 0.1897(26) 149994. 0.18380 0.18970
13765.0 1.45639 0.1901(26) 149645. 0.18383 0.18985
13775.0 1.45745 0.1894(26) 150195. 0.18385 0.19038
13785.0 1.45851 0.1908(26) 149338. 0.18388 0.19137
13795.0 1.45957 0.1932(26) 147719. 0.18390 0.19291
13805.0 1.46063 0.1945(26) 147089. 0.18392 0.19512
13815.0 1.46169 0.1961(26) 146036. 0.18395 0.19816
13825.0 1.46275 0.1993(26) 143901. 0.18397 0.20216
13835.0 1.46381 0.2070(27) 139281. 0.18399 0.20722
13845.0 1.46487 0.2100(27) 137654. 0.18402 0.21336
13855.0 1.46593 0.2175(27) 133287. 0.18404 0.22048
13865.0 1.46698 0.2269(28) 128227. 0.18406 0.22828
13875.0 1.46804 0.2292(28) 127220. 0.18409 0.23641
13885.0 1.46910 0.2418(29) 121255. 0.18411 0.24427
13895.0 1.47016 0.2490(29) 118166. 0.18413 0.25121
13905.0 1.47122 0.2524(29) 116610. 0.18415 0.25629
13915.0 1.47228 0.2560(29) 115138. 0.18418 0.25913
13925.0 1.47334 0.2554(29) 115471. 0.18420 0.25898
13935.0 1.47440 0.2516(29) 117168. 0.18422 0.25580
13945.0 1.47546 0.2454(29) 119968. 0.18424 0.25008
13955.0 1.47652 0.2387(28) 123174. 0.18427 0.24273
13965.0 1.47758 0.2319(28) 126468. 0.18429 0.23473
13975.0 1.47863 0.2283(28) 128144. 0.18431 0.22691
13985.0 1.47969 0.2266(28) 128973. 0.18433 0.21988
13995.0 1.48075 0.2131(27) 136348. 0.18435 0.21400
14005.0 1.48181 0.2143(27) 135814. 0.18437 0.20941
14015.0 1.48287 0.2131(27) 136528. 0.18439 0.20607
14025.0 1.48393 0.2025(26) 143068. 0.18442 0.20376
14035.0 1.48499 0.2018(26) 143502. 0.18444 0.20228
14045.0 1.48605 0.1992(26) 145328. 0.18446 0.20119
14055.0 1.48711 0.1993(26) 145356. 0.18448 0.20025
14065.0 1.48817 0.2059(27) 141320. 0.18450 0.19927
14075.0 1.48922 0.2001(26) 144748. 0.18452 0.19817
14085.0 1.49028 0.1935(26) 149196. 0.18454 0.19699
14095.0 1.49134 0.1980(26) 146084. 0.18456 0.19582
14105.0 1.49240 0.1974(26) 146510. 0.18458 0.19477
14115.0 1.49346 0.1936(26) 149338. 0.18460 0.19392
14125.0 1.49452 0.1877(26) 153590. 0.18462 0.19334
14135.0 1.49558 0.1896(26) 152250. 0.18464 0.19308
14145.0 1.49664 0.1916(26) 150973. 0.18466 0.19315
14155.0 1.49770 0.1900(26) 152076. 0.18468 0.19351
14165.0 1.49876 0.1922(26) 150546. 0.18470 0.19410
14175.0 1.49981 0.1973(26) 146987. 0.18472 0.19482
14185.0 1.50087 0.1960(26) 147940. 0.18474 0.19558
14195.0 1.50193 0.1984(26) 146143. 0.18476 0.19625
14205.0 1.50299 0.1918(26) 150987. 0.18478 0.19668
14215.0 1.50405 0.1962(26) 147901. 0.18480 0.19680
14225.0 1.50511 0.1910(26) 151439. 0.18482 0.19657
14235.0 1.50617 0.1982(26) 146481. 0.18483 0.19605
14245.0 1.50723 0.1939(26) 149334. 0.18485 0.19534
14255.0 1.50829 0.1924(26) 150513. 0.18487 0.19455
14265.0 1.50935 0.1922(26) 150536. 0.18489 0.19378
14275.0 1.51041 0.1949(26) 148548. 0.18491 0.19312
14285.0 1.51146 0.1946(26) 148765. 0.18493 0.19264
14295.0 1.51252 0.1947(26) 148698. 0.18495 0.19238
14305.0 1.51358 0.1929(26) 150227. 0.18497 0.19238
14315.0 1.51464 0.1913(26) 151398. 0.18498 0.19275
14325.0 1.51570 0.1943(26) 149406. 0.18500 0.19355
14335.0 1.51676 0.1959(26) 148316. 0.18502 0.19490
14345.0 1.51782 0.2037(26) 143285. 0.18504 0.19695
14355.0 1.51888 0.2023(26) 144354. 0.18506 0.19991
14365.0 1.51994 0.2070(27) 141662. 0.18507 0.20399
14375.0 1.52100 0.2155(27) 136459. 0.18509 0.20940
14385.0 1.52206 0.2229(27) 132508. 0.18511 0.21628
14395.0 1.52311 0.2280(28) 129881. 0.18513 0.22467
14405.0 1.52417 0.2435(29) 122365. 0.18515 0.23453
14415.0 1.52523 0.2471(29) 120631. 0.18516 0.24519
14425.0 1.52629 0.2570(29) 116328. 0.18518 0.25649
14435.0 1.52735 0.2595(29) 115340. 0.18520 0.26749
14445.0 1.52841 0.2670(30) 112536. 0.18522 0.27720
14455.0 1.52947 0.2770(30) 108690. 0.18523 0.28453
14465.0 1.53053 0.2766(30) 108790. 0.18525 0.28870
14475.0 1.53159 0.2868(31) 105334. 0.18527 0.28949
14485.0 1.53265 0.2830(31) 106686. 0.18529 0.28734
14495.0 1.53370 0.2842(31) 106259. 0.18530 0.28344
14505.0 1.53476 0.2794(30) 108018. 0.18532 0.27911
14515.0 1.53582 0.2732(30) 110309. 0.18534 0.27556
14525.0 1.53688 0.2791(30) 108244. 0.18536 0.27353
14535.0 1.53794 0.2798(30) 108065. 0.18537 0.27368
14545.0 1.53900 0.2782(30) 108655. 0.18539 0.27588
14555.0 1.54006 0.2795(30) 108255. 0.18541 0.27967
14565.0 1.54112 0.2920(31) 103916. 0.18542 0.28412
14575.0 1.54218 0.2904(31) 104480. 0.18544 0.28801
14585.0 1.54324 0.2974(31) 102254. 0.18546 0.29001
14595.0 1.54430 0.2895(31) 104874. 0.18548 0.28906
14605.0 1.54535 0.2831(31) 107221. 0.18549 0.28474
14615.0 1.54641 0.2828(31) 107337. 0.18551 0.27734
14625.0 1.54747 0.2725(30) 111260. 0.18553 0.26772
14635.0 1.54853 0.2626(29) 115111. 0.18554 0.25685
14645.0 1.54959 0.2518(29) 119717. 0.18556 0.24570
14655.0 1.55065 0.2405(28) 124995. 0.18558 0.23503
14665.0 1.55171 0.2282(28) 131269. 0.18559 0.22537
14675.0 1.55277 0.2238(27) 133668. 0.18561 0.21706
14685.0 1.55383 0.2198(27) 135904. 0.18563 0.21020
14695.0 1.55489 0.2072(26) 143542. 0.18564 0.20477
14705.0 1.55595 0.1976(26) 149931. 0.18566 0.20061
14715.0 1.55700 0.1986(26) 149304. 0.18568 0.19752
14725.0 1.55806 0.1984(26) 149445. 0.18570 0.19529
14735.0 1.55912 0.1989(26) 149122. 0.18571 0.19371
14745.0 1.56018 0.1939(26) 152606. 0.18573 0.19260
14755.0 1.56124 0.1994(26) 148876. 0.18575 0.19182
14765.0 1.56230 0.1924(25) 154005. 0.18576 0.19136
14775.0 1.56336 0.1962(26) 151416. 0.18578 0.19099
14785.0 1.56442 0.1904(25) 155761. 0.18580 0.19073
14795.0 1.56548 0.1940(26) 153321. 0.18581 0.19057
14805.0 1.56654 0.1877(25) 158286. 0.18583 0.19047
14815.0 1.56760 0.1910(25) 155956. 0.18585 0.19045
14825.0 1.56865 0.1912(25) 156017. 0.18587 0.19048
14835.0 1.56971 0.1954(26) 152964. 0.18588 0.19056
14845.0 1.57077 0.1915(25) 155848. 0.18590 0.19061
14855.0 1.57183 0.1944(26) 153766. 0.18592 0.19076
14865.0 1.57289 0.1925(25) 155272. 0.18593 0.19092
14875.0 1.57395 0.1924(25) 155643. 0.18595 0.19109
14885.0 1.57501 0.1939(25) 154859. 0.18597 0.19127
14895.0 1.57607 0.1918(25) 156420. 0.18599 0.19144
14905.0 1.57713 0.1902(25) 157828. 0.18600 0.19165
14915.0 1.57819 0.1897(25) 158353. 0.18602 0.19191
14925.0 1.57925 0.1938(25) 155472. 0.18604 0.19226
14935.0 1.58030 0.1940(25) 155244. 0.18606 0.19274
14945.0 1.58136 0.1966(26) 153559. 0.18607 0.19338
14955.0 1.58242 0.1957(25) 154167. 0.18609 0.19420
14965.0 1.58348 0.1941(25) 155601. 0.18611 0.19520
14975.0 1.58454 0.1955(25) 154630. 0.18613 0.19636
14985.0 1.58560 0.1995(26) 151821. 0.18614 0.19765
14995.0 1.58666 0.2001(26) 151756. 0.18616 0.19902
15005.0 1.58772 0.2062(26) 147857. 0.18618 0.20042
15015.0 1.58878 0.2056(26) 148507. 0.18620 0.20179
15025.0 1.58984 0.2041(26) 149596. 0.18622 0.20314
15035.0 1.59090 0.1974(25) 154160. 0.18623 0.20450
15045.0 1.59196 0.2059(26) 148675. 0.18625 0.20599
15055.0 1.59301 0.2052(26) 149369. 0.18627 0.20773
15065.0 1.59407 0.2126(26) 144612. 0.18629 0.20994
15075.0 1.59513 0.2127(26) 144508. 0.18631 0.21269
15085.0 1.59619 0.2156(26) 142723. 0.18633 0.21601
15095.0 1.59725 0.2266(27) 136360. 0.18635 0.21982
15105.0 1.59831 0.2255(27) 136997. 0.18636 0.22393
15115.0 1.59937 0.2261(27) 136764. 0.18638 0.22801
15125.0 1.60043 0.2336(27) 132774. 0.18640 0.23165
15135.0 1.60149 0.2268(27) 136578. 0.18642 0.23437
15145.0 1.60255 0.2302(27) 134727. 0.18644 0.23572
15155.0 1.60361 0.2321(27) 133773. 0.18646 0.23545
15165.0 1.60466 0.2307(27) 134583. 0.18648 0.23354
15175.0 1.60572 0.2282(27) 135993. 0.18650 0.23026
15185.0 1.60678 0.2228(27) 139116. 0.18652 0.22601
15195.0 1.60784 0.2142(26) 144273. 0.18654 0.22123
15205.0 1.60890 0.2140(26) 144574. 0.18656 0.21632
15215.0 1.60996 0.2051(26) 150466. 0.18658 0.21161
15225.0 1.61102 0.2064(26) 149815. 0.18660 0.20735
15235.0 1.61208 0.2055(26) 150367. 0.18662 0.20365
15245.0 1.61314 0.1975(25) 156261. 0.18664 0.20060
15255.0 1.61420 0.1986(25) 155466. 0.18666 0.19817
15265.0 1.61526 0.1946(25) 158329. 0.18668 0.19632
15275.0 1.61631 0.1930(25) 159754. 0.18670 0.19498
15285.0 1.61737 0.1930(25) 159765. 0.18672 0.19405
15295.0 1.61843 0.1938(25) 159248. 0.18674 0.19346
15305.0 1.61949 0.1895(25) 162693. 0.18676 0.19313
15315.0 1.62055 0.1966(25) 157209. 0.18678 0.19300
15325.0 1.62161 0.1932(25) 159970. 0.18680 0.19305
15335.0 1.62267 0.1921(25) 160960. 0.18683 0.19326
15345.0 1.62373 0.1881(25) 164052. 0.18685 0.19363
15355.0 1.62479 0.1945(25) 159203. 0.18687 0.19421
15365.0 1.62585 0.1925(25) 160683. 0.18689 0.19504
15375.0 1.62691 0.1960(25) 158103. 0.18691 0.19623
15385.0 1.62797 0.1937(25) 159775. 0.18694 0.19788
15395.0 1.62902 0.1989(25) 155975. 0.18696 0.20014
15405.0 1.63008 0.1984(25) 156587. 0.18698 0.20315
15415.0 1.63114 0.2139(26) 145956. 0.18700 0.20714
15425.0 1.63220 0.2122(26) 147168. 0.18703 0.21225
15435.0 1.63326 0.2138(26) 146028. 0.18705 0.21860
15445.0 1.63432 0.2289(27) 137165. 0.18707 0.22628
15455.0 1.63538 0.2344(27) 134366. 0.18710 0.23525
15465.0 1.63644 0.2491(28) 126973. 0.18712 0.24527
15475.0 1.63750 0.2544(28) 124614. 0.18714 0.25627
15485.0 1.63856 0.2663(29) 119239. 0.18717 0.26770
15495.0 1.63962 0.2803(30) 113759. 0.18719 0.27897
15505.0 1.64068 0.2924(30) 109373. 0.18722 0.28935
15515.0 1.64173 0.2993(31) 106944. 0.18724 0.29811
15525.0 1.64279 0.3051(31) 105016. 0.18727 0.30471
15535.0 1.64385 0.3041(31) 105216. 0.18729 0.30898
15545.0 1.64491 0.3122(31) 102640. 0.18731 0.31093
15555.0 1.64597 0.3162(31) 101415. 0.18734 0.31089
15565.0 1.64703 0.3113(31) 102851. 0.18737 0.30916
15575.0 1.64809 0.3116(31) 102691. 0.18739 0.30592
15585.0 1.64915 0.3020(31) 105811. 0.18742 0.30113
15595.0 1.65021 0.2956(30) 107936. 0.18744 0.29510
15605.0 1.65127 0.2940(30) 108311. 0.18747 0.28792
15615.0 1.65233 0.2796(30) 113441. 0.18750 0.27994
15625.0 1.65338 0.2807(30) 113110. 0.18752 0.27157
15635.0 1.65444 0.2706(29) 116811. 0.18755 0.26316
15645.0 1.65550 0.2579(29) 122263. 0.18758 0.25498
15655.0 1.65656 0.2503(28) 125768. 0.18760 0.24720
15665.0 1.65762 0.2444(28) 128576. 0.18763 0.23989
15675.0 1.65868 0.2397(28) 130842. 0.18766 0.23314
15685.0 1.65974 0.2263(27) 138086. 0.18769 0.22703
15695.0 1.66080 0.2314(27) 135430. 0.18771 0.22163
15705.0 1.66186 0.2229(27) 140142. 0.18774 0.21700
15715.0 1.66292 0.2103(26) 148019. 0.18777 0.21331
15725.0 1.66398 0.2083(26) 149472. 0.18780 0.21026
15735.0 1.66504 0.2134(26) 146151. 0.18783 0.20794
15745.0 1.66609 0.2061(26) 151090. 0.18786 0.20630
15755.0 1.66715 0.2070(26) 150395. 0.18789 0.20527
15765.0 1.66821 0.2027(26) 153228. 0.18791 0.20476
15775.0 1.66927 0.2045(26) 151807. 0.18794 0.20469
15785.0 1.67033 0.2037(26) 152336. 0.18797 0.20497
15795.0 1.67139 0.2109(26) 147645. 0.18800 0.20554
15805.0 1.67245 0.2001(25) 155099. 0.18804 0.20637
15815.0 1.67351 0.2128(26) 146438. 0.18807 0.20746
15825.0 1.67457 0.2057(26) 151096. 0.18810 0.20890
15835.0 1.67563 0.2096(26) 148513. 0.18813 0.21084
15845.0 1.67669 0.2124(26) 146769. 0.18816 0.21345
15855.0 1.67775 0.2152(26) 144917. 0.18819 0.21691
15865.0 1.67880 0.2236(27) 139870. 0.18822 0.22137
15875.0 1.67986 0.2291(27) 136686. 0.18825 0.22691
15885.0 1.68092 0.2317(27) 135181. 0.18829 0.23369
15895.0 1.68198 0.2399(28) 130844. 0.18832 0.24122
15905.0 1.68304 0.2480(28) 127024. 0.18835 0.24938
15915.0 1.68410 0.2562(28) 123252. 0.18839 0.25772
15925.0 1.68516 0.2627(29) 120299. 0.18842 0.26567
15935.0 1.68622 0.2702(29) 117156. 0.18845 0.27249
15945.0 1.68728 0.2709(29) 116878. 0.18849 0.27746
15955.0 1.68834 0.2788(30) 113855. 0.18852 0.27990
15965.0 1.68940 0.2757(29) 115196. 0.18855 0.27948
15975.0 1.69046 0.2732(29) 116340. 0.18859 0.27623
15985.0 1.69151 0.2667(29) 118991. 0.18862 0.27057
15995.0 1.69257 0.2649(29) 119669. 0.18866 0.26313
16005.0 1.69363 0.2538(28) 124682. 0.18869 0.25462
16015.0 1.69469 0.2464(28) 128042. 0.18873 0.24572
16025.0 1.69575 0.2398(28) 131384. 0.18876 0.23698
16035.0 1.69681 0.2306(27) 136136. 0.18880 0.22880
16045.0 1.69787 0.2222(27) 140789. 0.18884 0.22148
16055.0 1.69893 0.2194(27) 142378. 0.18887 0.21517
16065.0 1.69999 0.2156(26) 144726. 0.18891 0.20991
16075.0 1.70105 0.2101(26) 148379. 0.18895 0.20578
16085.0 1.70211 0.2067(26) 150700. 0.18898 0.20245
16095.0 1.70317 0.2000(25) 155591. 0.18902 0.19989
16105.0 1.70423 0.1993(25) 156048. 0.18906 0.19799
16115.0 1.70528 0.2003(25) 155373. 0.18910 0.19659
16125.0 1.70634 0.1953(25) 159069. 0.18914 0.19557
16135.0 1.70740 0.2001(25) 155321. 0.18918 0.19486
16145.0 1.70846 0.1991(25) 156039. 0.18921 0.19432
16155.0 1.70952 0.1956(25) 158420. 0.18925 0.19393
16165.0 1.71058 0.1966(25) 157662. 0.18929 0.19364
16175.0 1.71164 0.1946(25) 158922. 0.18933 0.19342
16185.0 1.71270 0.1928(25) 160353. 0.18937 0.19325
16195.0 1.71376 0.1942(25) 159245. 0.18941 0.19311
16205.0 1.71482 0.1941(25) 159379. 0.18945 0.19300
16215.0 1.71588 0.1916(25) 161412. 0.18949 0.19287
16225.0 1.71694 0.1968(25) 157571. 0.18953 0.19281
16235.0 1.71799 0.1895(25) 163152. 0.18958 0.19275
16245.0 1.71905 0.1891(25) 163728. 0.18962 0.19271
16255.0 1.72011 0.1894(25) 163250. 0.18966 0.19269
16265.0 1.72117 0.1923(25) 161072. 0.18970 0.19267
16275.0 1.72223 0.1878(25) 164519. 0.18974 0.19266
16285.0 1.72329 0.1910(25) 161749. 0.18979 0.19266
16295.0 1.72435 0.1944(25) 159030. 0.18983 0.19267
16305.0 1.72541 0.1915(25) 161242. 0.18987 0.19269
16315.0 1.72647 0.1914(25) 161504. 0.18992 0.19271
16325.0 1.72753 0.1884(25) 163987. 0.18996 0.19275
16335.0 1.72859 0.1880(25) 164378. 0.19000 0.19278
16345.0 1.72965 0.1880(25) 164413. 0.19005 0.19283
16355.0 1.73071 0.1942(25) 159572. 0.19009 0.19288
16365.0 1.73176 0.1891(25) 163442. 0.19014 0.19293
16375.0 1.73282 0.1850(24) 166662. 0.19018 0.19299
16385.0 1.73388 0.1893(25) 163158. 0.19023 0.19306
16395.0 1.73494 0.1911(25) 161668. 0.19027 0.19313
16405.0 1.73600 0.1925(25) 160489. 0.19032 0.19321
16415.0 1.73706 0.1909(25) 161856. 0.19037 0.19330
16425.0 1.73812 0.1951(25) 158734. 0.19041 0.19339
16435.0 1.73918 0.1899(25) 162701. 0.19046 0.19348
16445.0 1.74024 0.1909(25) 161905. 0.19051 0.19359
16455.0 1.74130 0.1881(25) 164041. 0.19055 0.19370
16465.0 1.74236 0.1906(25) 162255. 0.19060 0.19382
16475.0 1.74342 0.1884(25) 163932. 0.19065 0.19395
16485.0 1.74448 0.1909(25) 161907. 0.19070 0.19408
16495.0 1.74553 0.1896(25) 162881. 0.19075 0.19423
16505.0 1.74659 0.1894(25) 162877. 0.19080 0.19438
16515.0 1.74765 0.1911(25) 161904. 0.19084 0.19455
16525.0 1.74871 0.1890(25) 163582. 0.19089 0.19473
16535.0 1.74977 0.1903(25) 162575. 0.19094 0.19492
16545.0 1.75083 0.1888(25) 163972. 0.19099 0.19513
16555.0 1.75189 0.1912(25) 162097. 0.19104 0.19535
16565.0 1.75295 0.1923(25) 161113. 0.19109 0.19560
16575.0 1.75401 0.1919(25) 161240. 0.19114 0.19588
16585.0 1.75507 0.1875(25) 164663. 0.19120 0.19611
16595.0 1.75613 0.1960(25) 157888. 0.19125 0.19649
16605.0 1.75719 0.1918(25) 161195. 0.19130 0.19694
16615.0 1.75824 0.1969(25) 157340. 0.19135 0.19748
16625.0 1.75930 0.1929(25) 160284. 0.19140 0.19817
16635.0 1.76036 0.1969(25) 156969. 0.19145 0.19904
16645.0 1.76142 0.1960(25) 157813. 0.19151 0.20016
16655.0 1.76248 0.1987(25) 155607. 0.19156 0.20159
16665.0 1.76354 0.2020(26) 152910. 0.19161 0.20341
16675.0 1.76460 0.2015(26) 153178. 0.19167 0.20571
16685.0 1.76566 0.1996(25) 154475. 0.19172 0.20856
16695.0 1.76672 0.2131(26) 145301. 0.19177 0.21203
16705.0 1.76778 0.2137(26) 144928. 0.19183 0.21615
16715.0 1.76884 0.2165(26) 143295. 0.19188 0.22091
16725.0 1.76990 0.2237(27) 138755. 0.19194 0.22626
16735.0 1.77096 0.2252(27) 137708. 0.19199 0.23208
16745.0 1.77201 0.2390(28) 130164. 0.19205 0.23819
16755.0 1.77307 0.2437(28) 127808. 0.19210 0.24431
16765.0 1.77413 0.2433(28) 127914. 0.19216 0.25015
16775.0 1.77519 0.2488(28) 125102. 0.19222 0.25532
16785.0 1.77625 0.2636(29) 118343. 0.19227 0.25946
16795.0 1.77731 0.2616(29) 119192. 0.19233 0.26230
16805.0 1.77837 0.2624(29) 118847. 0.19239 0.26365
16815.0 1.77943 0.2654(29) 117552. 0.19244 0.26375
16825.0 1.78049 0.2612(29) 119099. 0.19250 0.26287
16835.0 1.78155 0.2573(29) 120725. 0.19256 0.26151
16845.0 1.78261 0.2546(29) 121970. 0.19262 0.26024
16855.0 1.78367 0.2578(29) 120464. 0.19267 0.25965
16865.0 1.78473 0.2566(29) 121081. 0.19273 0.26027
16875.0 1.78579 0.2556(29) 121569. 0.19279 0.26256
16885.0 1.78684 0.2646(29) 117428. 0.19285 0.26685
16895.0 1.78790 0.2684(29) 115819. 0.19291 0.27330
16905.0 1.78896 0.2802(30) 111174. 0.19297 0.28194
16915.0 1.79002 0.2931(31) 106392. 0.19303 0.29256
16925.0 1.79108 0.2978(31) 104815. 0.19309 0.30478
16935.0 1.79214 0.3142(32) 99442. 0.19315 0.31800
16945.0 1.79320 0.3323(33) 94129. 0.19321 0.33145
16955.0 1.79426 0.3441(33) 90939. 0.19327 0.34418
16965.0 1.79532 0.3476(33) 89936. 0.19333 0.35519
16975.0 1.79638 0.3585(34) 87048. 0.19339 0.36353
16985.0 1.79744 0.3647(34) 85549. 0.19345 0.36849
16995.0 1.79850 0.3719(35) 83872. 0.19352 0.36983
17005.0 1.79956 0.3703(34) 84165. 0.19358 0.36787
17015.0 1.80061 0.3654(34) 85100. 0.19364 0.36338
17025.0 1.80167 0.3491(34) 88754. 0.19370 0.35746
17035.0 1.80273 0.3428(33) 90150. 0.19377 0.35126
17045.0 1.80379 0.3407(33) 90612. 0.19383 0.34588
17055.0 1.80485 0.3396(33) 90728. 0.19389 0.34223
17065.0 1.80591 0.3375(33) 91132. 0.19396 0.34093
17075.0 1.80697 0.3427(33) 89715. 0.19402 0.34230
17085.0 1.80803 0.3442(33) 89208. 0.19408 0.34635
17095.0 1.80909 0.3601(34) 85306. 0.19415 0.35273
17105.0 1.81015 0.3648(34) 84162. 0.19421 0.36068
17115.0 1.81121 0.3764(35) 81580. 0.19428 0.36942
17125.0 1.81227 0.388(4) 79203. 0.1943 0.3777
17135.0 1.81333 0.394(4) 77848. 0.1944 0.3842
17145.0 1.81439 0.398(4) 77063. 0.1945 0.3877
17155.0 1.81544 0.403(4) 75917. 0.1945 0.3875
17165.0 1.81650 0.396(4) 77156. 0.1946 0.3830
17175.0 1.81756 0.385(4) 79280. 0.1947 0.3746
17185.0 1.81862 0.3706(35) 82073. 0.19473 0.36290
17195.0 1.81968 0.3542(34) 85507. 0.19480 0.34880
17205.0 1.82074 0.3404(34) 88699. 0.19487 0.33332
17215.0 1.82180 0.3147(32) 95473. 0.19493 0.31743
17225.0 1.82286 0.3023(32) 99124. 0.19500 0.30195
17235.0 1.82392 0.2911(31) 102569. 0.19507 0.28760
17245.0 1.82498 0.2729(30) 108941. 0.19514 0.27490
17255.0 1.82604 0.2589(30) 114324. 0.19520 0.26424
17265.0 1.82710 0.2485(29) 118579. 0.19527 0.25589
17275.0 1.82816 0.2489(29) 118316. 0.19534 0.24996
17285.0 1.82921 0.2456(29) 119656. 0.19541 0.24653
17295.0 1.83027 0.2431(29) 120756. 0.19548 0.24559
17305.0 1.83133 0.2460(29) 119271. 0.19555 0.24708
17315.0 1.83239 0.2534(29) 115781. 0.19561 0.25089
17325.0 1.83345 0.2607(30) 112495. 0.19568 0.25688
17335.0 1.83451 0.2649(30) 110664. 0.19575 0.26485
17345.0 1.83557 0.2720(30) 107678. 0.19582 0.27449
17355.0 1.83663 0.2929(32) 100265. 0.19589 0.28546
17365.0 1.83769 0.3008(32) 97702. 0.19596 0.29728
17375.0 1.83875 0.3208(33) 91744. 0.19603 0.30937
17385.0 1.83981 0.3272(33) 89895. 0.19610 0.32105
17395.0 1.84087 0.3396(34) 86655. 0.19617 0.33153
17405.0 1.84193 0.3420(34) 86102. 0.19624 0.34000
17415.0 1.84299 0.3504(34) 84082. 0.19631 0.34578
17425.0 1.84404 0.3492(34) 84209. 0.19638 0.34840
17435.0 1.84510 0.3515(35) 83547. 0.19646 0.34771
17445.0 1.84616 0.3459(34) 84710. 0.19653 0.34390
17455.0 1.84722 0.3387(34) 86450. 0.19660 0.33736
17465.0 1.84828 0.3308(34) 88251. 0.19667 0.32866
17475.0 1.84934 0.3229(33) 90104. 0.19674 0.31834
17485.0 1.85040 0.3057(32) 94844. 0.19681 0.30700
17495.0 1.85146 0.2880(32) 100183. 0.19689 0.29515
17505.0 1.85252 0.2806(31) 102507. 0.19696 0.28329
17515.0 1.85358 0.2656(30) 107845. 0.19703 0.27184
17525.0 1.85464 0.2560(30) 111621. 0.19710 0.26111
17535.0 1.85570 0.2466(29) 115598. 0.19718 0.25135
17545.0 1.85676 0.2387(29) 118965. 0.19725 0.24269
17555.0 1.85782 0.2345(29) 120731. 0.19732 0.23517
17565.0 1.85887 0.2276(28) 123964. 0.19740 0.22878
17575.0 1.85993 0.2235(28) 125933. 0.19747 0.22344
17585.0 1.86099 0.2264(28) 124256. 0.19754 0.21906
17595.0 1.86205 0.2186(28) 128254. 0.19762 0.21552
17605.0 1.86311 0.2198(28) 127600. 0.19769 0.21284
17615.0 1.86417 0.2075(27) 134432. 0.19776 0.21061
17625.0 1.86523 0.2199(28) 127198. 0.19784 0.20886
17635.0 1.86629 0.2141(28) 130429. 0.19791 0.20751
17645.0 1.86735 0.2140(28) 130413. 0.19799 0.20645
17655.0 1.86841 0.2075(27) 133957. 0.19806 0.20563
17665.0 1.86947 0.2058(27) 134814. 0.19814 0.20499
17675.0 1.87053 0.2112(28) 131400. 0.19821 0.20449
17685.0 1.87159 0.2030(27) 136232. 0.19829 0.20409
17695.0 1.87265 0.2043(27) 135172. 0.19836 0.20377
17705.0 1.87371 0.2072(27) 133138. 0.19844 0.20350
17715.0 1.87476 0.2098(28) 131484. 0.19851 0.20329
17725.0 1.87582 0.2163(28) 127812. 0.19859 0.20310
17735.0 1.87688 0.2104(28) 131122. 0.19866 0.20295
17745.0 1.87794 0.2138(28) 128807. 0.19874 0.20282
17755.0 1.87900 0.2101(28) 130778. 0.19881 0.20271
17765.0 1.88006 0.2136(28) 128559. 0.19889 0.20261
17775.0 1.88112 0.2129(28) 128701. 0.19896 0.20253
17785.0 1.88218 0.2152(28) 127085. 0.19904 0.20246
17795.0 1.88324 0.2131(28) 128063. 0.19912 0.20240
17805.0 1.88430 0.2160(28) 126363. 0.19919 0.20235
17815.0 1.88536 0.2142(28) 127130. 0.19927 0.20232
17825.0 1.88642 0.2122(28) 128027. 0.19935 0.20228
17835.0 1.88748 0.2023(27) 133715. 0.19942 0.20226
17845.0 1.88854 0.2057(28) 131438. 0.19950 0.20224
17855.0 1.88959 0.2025(27) 133045. 0.19958 0.20223
17865.0 1.89065 0.2049(28) 131408. 0.19965 0.20223
17875.0 1.89171 0.2035(28) 131947. 0.19973 0.20223
17885.0 1.89277 0.2058(28) 130487. 0.19981 0.20223
17895.0 1.89383 0.2009(27) 133488. 0.19988 0.20224
17905.0 1.89489 0.1961(27) 136261. 0.19996 0.20226
17915.0 1.89595 0.2026(28) 131923. 0.20004 0.20227
17925.0 1.89701 0.2029(28) 131347. 0.20012 0.20230
17935.0 1.89807 0.2055(28) 129476. 0.20019 0.20232
17945.0 1.89913 0.1976(27) 134072. 0.20027 0.20235
17955.0 1.90019 0.2007(28) 131905. 0.20035 0.20238
17965.0 1.90125 0.1979(27) 133432. 0.20043 0.20241
17975.0 1.90231 0.1984(27) 133181. 0.20050 0.20246
17985.0 1.90337 0.2056(28) 128440. 0.20058 0.20250
17995.0 1.90443 0.1999(28) 131804. 0.20066 0.20254
18005.0 1.90548 0.1981(27) 132643. 0.20074 0.20258
18015.0 1.90654 0.1984(27) 132232. 0.20081 0.20263
18025.0 1.90760 0.2032(28) 128971. 0.20089 0.20262
18035.0 1.90866 0.2012(28) 129855. 0.20097 0.20267
18045.0 1.90972 0.2005(28) 129934. 0.20105 0.20272
18055.0 1.91078 0.1963(27) 132391. 0.20113 0.20278
18065.0 1.91184 0.2000(28) 129982. 0.20120 0.20283
18075.0 1.91290 0.1970(28) 131681. 0.20128 0.20289
18085.0 1.91396 0.2033(28) 127419. 0.20136 0.20295
18095.0 1.91502 0.1960(28) 131602. 0.20144 0.20301
18105.0 1.91608 0.1987(28) 129498. 0.20152 0.20308
18115.0 1.91714 0.1968(28) 130514. 0.20160 0.20314
18125.0 1.91820 0.1988(28) 128871. 0.20167 0.20321
18135.0 1.91926 0.2019(28) 126693. 0.20175 0.20328
18145.0 1.92032 0.2022(28) 126352. 0.20183 0.20335
18155.0 1.92137 0.1988(28) 128166. 0.20191 0.20342
18165.0 1.92243 0.2001(28) 127189. 0.20199 0.20349
18175.0 1.92349 0.2050(28) 124003. 0.20207 0.20356
18185.0 1.92455 0.2020(28) 125525. 0.20214 0.20364
18195.0 1.92561 0.1986(28) 127223. 0.20222 0.20371
18205.0 1.92667 0.1993(28) 126662. 0.20230 0.20363
18215.0 1.92773 0.2052(29) 122976. 0.20238 0.20371
18225.0 1.92879 0.2039(28) 123453. 0.20246 0.20379
18235.0 1.92985 0.2010(28) 124822. 0.20254 0.20388
18245.0 1.93091 0.2020(28) 123947. 0.20262 0.20396
18255.0 1.93197 0.2048(29) 122154. 0.20269 0.20405
18265.0 1.93303 0.2041(29) 122324. 0.20277 0.20414
18275.0 1.93409 0.2087(29) 119465. 0.20285 0.20423
18285.0 1.93515 0.2048(29) 121269. 0.20293 0.20432
18295.0 1.93621 0.2055(29) 120591. 0.20301 0.20442
18305.0 1.93726 0.1999(28) 123600. 0.20309 0.20451
18315.0 1.93832 0.2015(29) 122404. 0.20316 0.20461
18325.0 1.93938 0.2027(29) 121541. 0.20324 0.20471
18335.0 1.94044 0.2006(29) 122312. 0.20332 0.20481
18345.0 1.94150 0.2025(29) 121034. 0.20340 0.20492
18355.0 1.94256 0.2033(29) 120352. 0.20348 0.20503
18365.0 1.94362 0.2095(29) 116787. 0.20356 0.20514
18375.0 1.94468 0.2007(29) 121291. 0.20364 0.20506
18385.0 1.94574 0.2144(30) 113664. 0.20371 0.20518
18395.0 1.94680 0.2038(29) 118930. 0.20379 0.20530
18405.0 1.94786 0.2046(29) 118199. 0.20387 0.20543
18415.0 1.94892 0.2056(29) 117476. 0.20395 0.20556
18425.0 1.94998 0.2024(29) 119052. 0.20403 0.20570
18435.0 1.95104 0.2029(29) 118598. 0.20411 0.20584
18445.0 1.95210 0.2098(30) 114685. 0.20418 0.20599
18455.0 1.95316 0.2053(29) 116896. 0.20426 0.20615
18465.0 1.95421 0.2052(29) 116745. 0.20434 0.20633
18475.0 1.95527 0.2051(29) 116533. 0.20442 0.20652
18485.0 1.95633 0.2110(30) 113135. 0.20450 0.20673
18495.0 1.95739 0.2096(30) 113503. 0.20457 0.20697
18505.0 1.95845 0.2088(30) 113688. 0.20465 0.20725
18515.0 1.95951 0.2031(29) 116522. 0.20473 0.20757
18525.0 1.96057 0.2062(30) 114608. 0.20481 0.20795
18535.0 1.96163 0.2099(30) 112480. 0.20488 0.20841
18545.0 1.96269 0.2067(30) 113822. 0.20496 0.20896
18555.0 1.96375 0.2079(30) 112975. 0.20504 0.20962
18565.0 1.96481 0.2118(30) 110831. 0.20512 0.21041
18575.0 1.96587 0.2124(30) 110375. 0.20520 0.21135
18585.0 1.96693 0.2174(30) 107828. 0.20527 0.21246
18595.0 1.96799 0.2151(30) 108735. 0.20535 0.21375
18605.0 1.96905 0.2126(30) 109760. 0.20543 0.21523
18615.0 1.97011 0.2172(31) 107368. 0.20550 0.21690
18625.0 1.97116 0.2155(30) 107932. 0.20558 0.21875
18635.0 1.97222 0.2231(31) 104134. 0.20566 0.22077
18645.0 1.97328 0.2182(31) 106009. 0.20574 0.22294
18655.0 1.97434 0.2254(31) 102565. 0.20581 0.22519
18665.0 1.97540 0.2292(32) 100761. 0.20589 0.22748
18675.0 1.97646 0.2287(31) 100816. 0.20597 0.22973
18685.0 1.97752 0.2316(32) 99395. 0.20604 0.23187
18695.0 1.97858 0.2325(32) 98684. 0.20612 0.23382
18705.0 1.97964 0.2367(32) 96921. 0.20620 0.23550
18715.0 1.98070 0.2325(32) 98404. 0.20627 0.23688
18725.0 1.98176 0.2380(32) 96105. 0.20635 0.23779
18735.0 1.98282 0.2381(32) 95896. 0.20643 0.23846
18745.0 1.98388 0.2323(32) 97963. 0.20650 0.23876
18755.0 1.98494 0.2442(33) 93258. 0.20658 0.23868
18765.0 1.98600 0.2400(33) 94478. 0.20665 0.23824
18775.0 1.98706 0.2400(33) 94235. 0.20673 0.23747
18785.0 1.98811 0.2341(32) 96371. 0.20680 0.23642
18795.0 1.98917 0.2323(32) 96939. 0.20688 0.23523
18805.0 1.99023 0.2347(32) 95873. 0.20696 0.23397
18815.0 1.99129 0.2344(32) 95863. 0.20703 0.23277
18825.0 1.99235 0.2351(32) 95529. 0.20711 0.23177
18835.0 1.99341 0.2305(32) 97124. 0.20718 0.23109
18845.0 1.99447 0.2342(32) 95674. 0.20726 0.23089
18855.0 1.99553 0.2300(32) 97070. 0.20733 0.23128
18865.0 1.99659 0.2321(32) 96176. 0.20741 0.23242
18875.0 1.99765 0.2401(33) 92968. 0.20748 0.23441
18885.0 1.99871 0.2371(33) 94073. 0.20756 0.23739
18895.0 1.99977 0.2448(33) 91242. 0.20763 0.24146
18905.0 2.00083 0.2512(34) 88922. 0.20771 0.24669
18915.0 2.00189 0.2558(34) 87216. 0.20778 0.25311
18925.0 2.00295 0.2596(34) 85918. 0.20785 0.26072
18935.0 2.00401 0.276(4) 81048. 0.2079 0.2694
18945.0 2.00506 0.280(4) 79837. 0.2080 0.2791
18955.0 2.00612 0.296(4) 75366. 0.2081 0.2896
18965.0 2.00718 0.309(4) 72227. 0.2081 0.3006
18975.0 2.00824 0.321(4) 69478. 0.2082 0.3117
18985.0 2.00930 0.325(4) 68657. 0.2083 0.3224
18995.0 2.01036 0.339(4) 65812. 0.2084 0.3321
19005.0 2.01142 0.342(4) 65169. 0.2084 0.3404
19015.0 2.01248 0.351(4) 63473. 0.2085 0.3467
19025.0 2.01354 0.348(4) 63886. 0.2086 0.3505
19035.0 2.01460 0.348(4) 63853. 0.2087 0.3516
19045.0 2.01566 0.357(4) 62382. 0.2087 0.3498
19055.0 2.01672 0.340(4) 65283. 0.2088 0.3454
19065.0 2.01778 0.340(4) 65014. 0.2089 0.3387
19075.0 2.01884 0.327(4) 67479. 0.2090 0.3302
19085.0 2.01990 0.312(4) 70523. 0.2090 0.3204
19095.0 2.02096 0.309(4) 71011. 0.2091 0.3097
19105.0 2.02202 0.297(4) 73664. 0.2092 0.2988
19115.0 2.02307 0.280(4) 77784. 0.2092 0.2879
19125.0 2.02413 0.277(4) 78334. 0.2093 0.2775
19135.0 2.02519 0.2635(35) 82047. 0.20938 0.26778
19145.0 2.02625 0.2625(35) 82343. 0.20945 0.25893
19155.0 2.02731 0.2534(34) 85091. 0.20952 0.25105
19165.0 2.02837 0.2415(34) 89007. 0.20959 0.24418
19175.0 2.02943 0.2375(33) 90251. 0.20967 0.23832
19185.0 2.03049 0.2385(33) 89786. 0.20974 0.23340
19195.0 2.03155 0.2341(33) 91305. 0.20981 0.22935
19205.0 2.03261 0.2252(33) 94440. 0.20988 0.22606
19215.0 2.03367 0.2282(33) 93113. 0.20995 0.22344
19225.0 2.03473 0.2239(33) 94634. 0.21002 0.22142
19235.0 2.03579 0.2239(33) 94456. 0.21009 0.21981
19245.0 2.03685 0.2225(32) 94906. 0.21016 0.21856
19255.0 2.03791 0.2187(32) 96276. 0.21023 0.21761
19265.0 2.03897 0.2154(32) 97490. 0.21030 0.21689
19275.0 2.04003 0.2151(32) 97551. 0.21036 0.21635
19285.0 2.04109 0.2170(32) 96635. 0.21043 0.21596
19295.0 2.04214 0.2155(32) 97075. 0.21050 0.21569
19305.0 2.04320 0.2205(32) 94780. 0.21057 0.21551
19315.0 2.04426 0.2193(32) 95204. 0.21064 0.21542
19325.0 2.04532 0.2177(32) 95639. 0.21071 0.21540
19335.0 2.04638 0.2173(32) 95674. 0.21078 0.21546
19345.0 2.04744 0.2222(33) 93569. 0.21084 0.21559
19355.0 2.04850 0.2238(33) 92866. 0.21091 0.21580
19365.0 2.04956 0.2168(32) 95520. 0.21098 0.21607
19375.0 2.05062 0.2184(32) 94688. 0.21105 0.21642
19385.0 2.05168 0.2196(33) 94024. 0.21111 0.21683
19395.0 2.05274 0.2215(33) 93025. 0.21118 0.21731
19405.0 2.05380 0.2167(32) 94890. 0.21125 0.21785
19415.0 2.05486 0.2240(33) 91734. 0.21132 0.21842
19425.0 2.05592 0.2218(33) 92422. 0.21138 0.21903
19435.0 2.05698 0.2211(33) 92543. 0.21145 0.21963
19445.0 2.05804 0.2249(33) 90871. 0.21152 0.22022
19455.0 2.05910 0.2230(33) 91407. 0.21158 0.22077
19465.0 2.06015 0.2253(33) 90366. 0.21165 0.22123
19475.0 2.06121 0.2201(33) 92175. 0.21171 0.22159
19485.0 2.06227 0.2236(33) 90599. 0.21178 0.22182
19495.0 2.06333 0.2239(33) 90411. 0.21184 0.22191
19505.0 2.06439 0.2269(33) 89199. 0.21191 0.22185
19515.0 2.06545 0.2239(33) 90272. 0.21197 0.22164
19525.0 2.06651 0.2206(33) 91361. 0.21204 0.22131
19535.0 2.06757 0.2194(33) 91614. 0.21210 0.22087
19545.0 2.06863 0.2176(33) 92135. 0.21217 0.22036
19555.0 2.06969 0.2187(33) 91527. 0.21223 0.21980
19565.0 2.07075 0.2202(33) 90791. 0.21230 0.21922
19575.0 2.07181 0.2197(33) 90758. 0.21236 0.21863
19585.0 2.07287 0.2140(33) 92809. 0.21243 0.21807
19595.0 2.07393 0.2199(33) 90199. 0.21249 0.21754
19605.0 2.07499 0.2215(33) 89472. 0.21255 0.21705
19615.0 2.07605 0.2195(33) 90088. 0.21262 0.21662
19625.0 2.07711 0.2181(33) 90409. 0.21268 0.21624
19635.0 2.07817 0.2177(33) 90427. 0.21274 0.21592
19645.0 2.07922 0.2089(33) 93818. 0.21281 0.21565
19655.0 2.08028 0.2189(33) 89511. 0.21287 0.21543
19665.0 2.08134 0.2146(33) 91035. 0.21293 0.21526
19675.0 2.08240 0.2153(33) 90598. 0.21299 0.21513
19685.0 2.08346 0.2129(33) 91249. 0.21306 0.21504
19695.0 2.08452 0.2114(33) 91640. 0.21312 0.21497
19705.0 2.08558 0.2104(33) 91806. 0.21318 0.21493
19715.0 2.08664 0.2136(33) 90382. 0.21324 0.21491
19725.0 2.08770 0.2131(33) 90480. 0.21330 0.21491
19735.0 2.08876 0.2184(34) 88186. 0.21336 0.21492
19745.0 2.08982 0.2146(33) 89457. 0.21342 0.21494
19755.0 2.09088 0.2179(34) 88165. 0.21349 0.21497
19765.0 2.09194 0.2138(33) 89582. 0.21355 0.21500
19775.0 2.09300 0.2168(34) 88253. 0.21361 0.21504
19785.0 2.09406 0.2047(33) 92844. 0.21367 0.21509
19795.0 2.09512 0.2107(33) 90097. 0.21373 0.21513
19805.0 2.09618 0.2190(34) 86587. 0.21379 0.21518
19815.0 2.09724 0.2153(34) 87716. 0.21385 0.21524
19825.0 2.09829 0.2163(34) 87033. 0.21391 0.21539
19835.0 2.09935 0.2158(34) 87012. 0.21397 0.21545
19845.0 2.10041 0.2142(34) 87402. 0.21403 0.21550
19855.0 2.10147 0.2120(34) 88039. 0.21408 0.21557
19865.0 2.10253 0.2144(34) 87246. 0.21414 0.21563
19875.0 2.10359 0.2130(34) 87820. 0.21420 0.21569
19885.0 2.10465 0.2155(34) 86563. 0.21426 0.21576
19895.0 2.10571 0.2196(34) 84772. 0.21432 0.21582
19905.0 2.10677 0.2191(34) 84747. 0.21438 0.21589
19915.0 2.10783 0.2131(34) 86739. 0.21444 0.21596
19925.0 2.10889 0.2136(34) 86415. 0.21449 0.21604
19935.0 2.10995 0.2174(34) 84735. 0.21455 0.21611
19945.0 2.11101 0.2175(34) 84687. 0.21461 0.21618
19955.0 2.11207 0.2140(34) 85877. 0.21467 0.21626
19965.0 2.11313 0.2066(34) 88678. 0.21472 0.21634
19975.0 2.11419 0.2121(34) 86530. 0.21478 0.21642
19985.0 2.11525 0.2174(34) 84489. 0.21484 0.21650
19995.0 2.11631 0.2183(34) 84125. 0.21489 0.21658
20005.0 2.11737 0.2148(34) 85334. 0.21495 0.21667
20015.0 2.11842 0.2139(34) 85522. 0.21501 0.21675
20025.0 2.11948 0.2206(35) 82983. 0.21506 0.21684
20035.0 2.12054 0.2137(34) 85413. 0.21512 0.21693
20045.0 2.12160 0.2144(34) 84991. 0.21518 0.21703
20055.0 2.12266 0.2153(34) 84513. 0.21523 0.21713
20065.0 2.12372 0.2186(35) 83231. 0.21529 0.21722
20075.0 2.12478 0.2207(35) 82366. 0.21534 0.21733
20085.0 2.12584 0.2186(35) 83102. 0.21540 0.21742
20095.0 2.12690 0.2127(34) 85072. 0.21545 0.21752
20105.0 2.12796 0.2108(34) 85699. 0.21551 0.21764
20115.0 2.12902 0.2147(34) 84059. 0.21556 0.21775
20125.0 2.13008 0.2160(35) 83329. 0.21562 0.21787
20135.0 2.13114 0.2158(35) 83233. 0.21567 0.21800
20145.0 2.13220 0.2197(35) 81809. 0.21573 0.21812
20155.0 2.13326 0.224(4) 80211. 0.2158 0.2182
20165.0 2.13432 0.2153(35) 83150. 0.21583 0.21838
20175.0 2.13538 0.2151(35) 83072. 0.21589 0.21853
20185.0 2.13644 0.2141(35) 83355. 0.21594 0.21868
20195.0 2.13750 0.2147(35) 83020. 0.21600 0.21885
20205.0 2.13856 0.2151(35) 82834. 0.21605 0.21902
20215.0 2.13961 0.223(4) 79947. 0.2161 0.2192
20225.0 2.14067 0.2166(35) 81963. 0.21616 0.21939
20235.0 2.14173 0.224(4) 79439. 0.2162 0.2196
20245.0 2.14279 0.2158(35) 81891. 0.21626 0.21981
20255.0 2.14385 0.222(4) 79475. 0.2163 0.2201
20265.0 2.14491 0.224(4) 78708. 0.2164 0.2203
20275.0 2.14597 0.2146(35) 81614. 0.21642 0.22062
20285.0 2.14703 0.216(4) 80986. 0.2165 0.2209
20295.0 2.14809 0.225(4) 77763. 0.2165 0.2213
20305.0 2.14915 0.219(4) 79555. 0.2166 0.2218
20315.0 2.15021 0.221(4) 78772. 0.2166 0.2223
20325.0 2.15127 0.219(4) 79178. 0.2167 0.2229
20335.0 2.15233 0.223(4) 77880. 0.2167 0.2237
20345.0 2.15339 0.228(4) 76133. 0.2168 0.2246
20355.0 2.15445 0.223(4) 77624. 0.2168 0.2258
20365.0 2.15551 0.226(4) 76394. 0.2169 0.2272
20375.0 2.15657 0.227(4) 75912. 0.2169 0.2289
20385.0 2.15763 0.230(4) 75053. 0.2170 0.2309
20395.0 2.15869 0.232(4) 74161. 0.2170 0.2334
20405.0 2.15974 0.233(4) 73738. 0.2171 0.2364
20415.0 2.16080 0.240(4) 71381. 0.2171 0.2398
20425.0 2.16186 0.239(4) 71661. 0.2172 0.2440
20435.0 2.16292 0.244(4) 69951. 0.2172 0.2488
20445.0 2.16398 0.263(4) 65045. 0.2173 0.2542
20455.0 2.16504 0.258(4) 66159. 0.2173 0.2603
20465.0 2.16610 0.267(4) 63680. 0.2174 0.2671
20475.0 2.16716 0.274(4) 62047. 0.2174 0.2745
20485.0 2.16822 0.280(4) 60606. 0.2175 0.2823
20495.0 2.16928 0.301(4) 56610. 0.2175 0.2905
20505.0 2.17034 0.302(4) 56215. 0.2176 0.2990
20515.0 2.17140 0.319(4) 53329. 0.2176 0.3074
20525.0 2.17246 0.319(4) 53122. 0.2177 0.3156
20535.0 2.17352 0.331(4) 51253. 0.2177 0.3232
20545.0 2.17458 0.340(4) 49781. 0.2178 0.3301
20555.0 2.17564 0.344(5) 49136. 0.2178 0.3360
20565.0 2.17670 0.348(5) 48431. 0.2179 0.3407
20575.0 2.17776 0.353(5) 47581. 0.2179 0.3441
20585.0 2.17882 0.351(5) 47810. 0.2180 0.3461
20595.0 2.17988 0.350(5) 47884. 0.2180 0.3467
20605.0 2.18094 0.345(5) 48360. 0.2181 0.3459
20615.0 2.18199 0.350(5) 47731. 0.2181 0.3440
20625.0 2.18305 0.337(5) 49349. 0.2182 0.3409
20635.0 2.18411 0.336(5) 49296. 0.2182 0.3368
20645.0 2.18517 0.333(4) 49601. 0.2183 0.3320
20655.0 2.18623 0.319(4) 51713. 0.2183 0.3265
20665.0 2.18729 0.321(4) 51322. 0.2184 0.3208
20675.0 2.18835 0.303(4) 54135. 0.2184 0.3149
20685.0 2.18941 0.300(4) 54535. 0.2185 0.3092
20695.0 2.19047 0.304(4) 53674. 0.2185 0.3039
20705.0 2.19153 0.301(4) 54124. 0.2186 0.2990
20715.0 2.19259 0.293(4) 55533. 0.2186 0.2948
20725.0 2.19365 0.299(4) 54322. 0.2186 0.2913
20735.0 2.19471 0.290(4) 55898. 0.2187 0.2885
20745.0 2.19577 0.288(4) 56153. 0.2187 0.2865
20755.0 2.19683 0.278(4) 57931. 0.2188 0.2851
20765.0 2.19789 0.282(4) 57137. 0.2188 0.2844
20775.0 2.19895 0.281(4) 57098. 0.2189 0.2840
20785.0 2.20001 0.283(4) 56721. 0.2189 0.2839
20795.0 2.20107 0.282(4) 56748. 0.2190 0.2840
20805.0 2.20213 0.287(4) 55741. 0.2190 0.2839
20815.0 2.20319 0.290(4) 55132. 0.2191 0.2836
20825.0 2.20424 0.284(4) 55908. 0.2191 0.2829
20835.0 2.20530 0.273(4) 57815. 0.2192 0.2816
20845.0 2.20636 0.281(4) 56261. 0.2192 0.2799
20855.0 2.20742 0.275(4) 57381. 0.2193 0.2776
20865.0 2.20848 0.276(4) 57032. 0.2193 0.2748
20875.0 2.20954 0.272(4) 57675. 0.2193 0.2715
20885.0 2.21060 0.269(4) 58150. 0.2194 0.2680
20895.0 2.21166 0.266(4) 58592. 0.2194 0.2643
20905.0 2.21272 0.261(4) 59593. 0.2195 0.2605
20915.0 2.21378 0.257(4) 60350. 0.2195 0.2567
20925.0 2.21484 0.253(4) 61184. 0.2196 0.2529
20935.0 2.21590 0.244(4) 63251. 0.2196 0.2493
20945.0 2.21696 0.239(4) 64279. 0.2197 0.2460
20955.0 2.21802 0.239(4) 64338. 0.2197 0.2429
20965.0 2.21908 0.234(4) 65471. 0.2198 0.2401
20975.0 2.22014 0.234(4) 65390. 0.2198 0.2376
20985.0 2.22120 0.234(4) 65178. 0.2198 0.2354
20995.0 2.22226 0.232(4) 65510. 0.2199 0.2336
21005.0 2.22332 0.227(4) 66614. 0.2199 0.2320
21015.0 2.22438 0.224(4) 67362. 0.2200 0.2307
21025.0 2.22544 0.226(4) 66718. 0.2200 0.2296
21035.0 2.22650 0.228(4) 66144. 0.2201 0.2287
21045.0 2.22755 0.222(4) 67761. 0.2201 0.2280
21055.0 2.22861 0.230(4) 65406. 0.2202 0.2275
21065.0 2.22967 0.230(4) 65355. 0.2202 0.2272
21075.0 2.23073 0.230(4) 65085. 0.2203 0.2269
21085.0 2.23179 0.218(4) 68310. 0.2203 0.2267
21095.0 2.23285 0.224(4) 66271. 0.2203 0.2267
21105.0 2.23391 0.224(4) 65970. 0.2204 0.2267
21115.0 2.23497 0.220(4) 67100. 0.2204 0.2267
21125.0 2.23603 0.225(4) 65522. 0.2205 0.2268
21135.0 2.23709 0.224(4) 65654. 0.2205 0.2269
21145.0 2.23815 0.230(4) 63899. 0.2206 0.2270
21155.0 2.23921 0.222(4) 66117. 0.2206 0.2271
21165.0 2.24027 0.232(4) 63279. 0.2207 0.2273
21175.0 2.24133 0.224(4) 65054. 0.2207 0.2274
21185.0 2.24239 0.223(4) 65300. 0.2208 0.2275
21195.0 2.24345 0.226(4) 64496. 0.2208 0.2277
21205.0 2.24451 0.223(4) 65113. 0.2208 0.2278
21215.0 2.24557 0.221(4) 65446. 0.2209 0.2279
21225.0 2.24663 0.224(4) 64543. 0.2209 0.2281
21235.0 2.24769 0.225(4) 64116. 0.2210 0.2283
21245.0 2.24875 0.229(4) 62783. 0.2210 0.2285
21255.0 2.24981 0.221(4) 64665. 0.2211 0.2289
21265.0 2.25086 0.232(4) 61725. 0.2211 0.2293
21275.0 2.25192 0.233(4) 61294. 0.2212 0.2299
21285.0 2.25298 0.235(4) 60697. 0.2212 0.2306
21295.0 2.25404 0.226(4) 62751. 0.2212 0.2316
21305.0 2.25510 0.235(4) 60476. 0.2213 0.2328
21315.0 2.25616 0.237(4) 59790. 0.2213 0.2343
21325.0 2.25722 0.235(4) 60181. 0.2214 0.2362
21335.0 2.25828 0.240(4) 58679. 0.2214 0.2385
21345.0 2.25934 0.234(4) 60022. 0.2215 0.2412
21355.0 2.26040 0.236(4) 59437. 0.2215 0.2444
21365.0 2.26146 0.244(4) 57419. 0.2216 0.2482
21375.0 2.26252 0.255(4) 54910. 0.2216 0.2524
21385.0 2.26358 0.257(4) 54403. 0.2217 0.2572
21395.0 2.26464 0.264(4) 52890. 0.2217 0.2625
21405.0 2.26570 0.265(4) 52566. 0.2217 0.2683
21415.0 2.26676 0.275(4) 50664. 0.2218 0.2745
21425.0 2.26782 0.283(5) 49075. 0.2218 0.2809
21435.0 2.26888 0.287(5) 48265. 0.2219 0.2876
21445.0 2.26994 0.295(5) 46991. 0.2219 0.2943
21455.0 2.27100 0.300(5) 46188. 0.2220 0.3008
21465.0 2.27206 0.314(5) 44157. 0.2220 0.3069
21475.0 2.27312 0.320(5) 43284. 0.2221 0.3124
21485.0 2.27418 0.317(5) 43595. 0.2221 0.3171
21495.0 2.27524 0.327(5) 42187. 0.2221 0.3207
21505.0 2.27629 0.327(5) 42117. 0.2222 0.3231
21515.0 2.27735 0.326(5) 42101. 0.2222 0.3242
21525.0 2.27841 0.329(5) 41701. 0.2223 0.3239
21535.0 2.27947 0.328(5) 41696. 0.2223 0.3222
21545.0 2.28053 0.328(5) 41582. 0.2224 0.3193
21555.0 2.28159 0.319(5) 42630. 0.2224 0.3153
21565.0 2.28265 0.321(5) 42192. 0.2225 0.3104
21575.0 2.28371 0.304(5) 44260. 0.2225 0.3048
21585.0 2.28477 0.293(5) 45854. 0.2226 0.2988
21595.0 2.28583 0.288(5) 46412. 0.2226 0.2925
21605.0 2.28689 0.281(5) 47513. 0.2227 0.2861
21615.0 2.28795 0.273(5) 48534. 0.2227 0.2797
21625.0 2.28901 0.265(4) 49778. 0.2227 0.2736
21635.0 2.29007 0.262(4) 50229. 0.2228 0.2678
21645.0 2.29113 0.265(4) 49388. 0.2228 0.2624
21655.0 2.29219 0.248(4) 52338. 0.2229 0.2575
21665.0 2.29325 0.251(4) 51568. 0.2229 0.2531
21675.0 2.29431 0.246(4) 52531. 0.2230 0.2492
21685.0 2.29537 0.248(4) 52111. 0.2230 0.2459
21695.0 2.29643 0.241(4) 53433. 0.2231 0.2431
21705.0 2.29749 0.238(4) 53867. 0.2231 0.2407
21715.0 2.29855 0.236(4) 54199. 0.2232 0.2388
21725.0 2.29961 0.231(4) 54985. 0.2232 0.2373
21735.0 2.30067 0.234(4) 54248. 0.2233 0.2362
21745.0 2.30173 0.233(4) 54362. 0.2233 0.2355
21755.0 2.30278 0.235(4) 53712. 0.2234 0.2350
21765.0 2.30384 0.239(4) 52777. 0.2234 0.2348
21775.0 2.30490 0.246(4) 51336. 0.2234 0.2348
21785.0 2.30596 0.233(4) 53839. 0.2235 0.2350
21795.0 2.30702 0.240(4) 52200. 0.2235 0.2354
21805.0 2.30808 0.239(4) 52431. 0.2236 0.2359
21815.0 2.30914 0.242(4) 51791. 0.2236 0.2366
21825.0 2.31020 0.238(4) 52537. 0.2237 0.2373
21835.0 2.31126 0.241(4) 51885. 0.2237 0.2380
21845.0 2.31232 0.236(4) 52668. 0.2238 0.2388
21855.0 2.31338 0.241(4) 51539. 0.2238 0.2396
21865.0 2.31444 0.238(4) 51926. 0.2239 0.2403
21875.0 2.31550 0.234(4) 52711. 0.2239 0.2410
21885.0 2.31656 0.243(4) 50764. 0.2240 0.2417
21895.0 2.31762 0.234(4) 52424. 0.2240 0.2423
21905.0 2.31868 0.233(4) 52468. 0.2241 0.2428
21915.0 2.31974 0.244(4) 50268. 0.2241 0.2433
21925.0 2.32080 0.235(4) 51854. 0.2242 0.2437
21935.0 2.32186 0.243(4) 50184. 0.2242 0.2441
21945.0 2.32292 0.242(4) 50259. 0.2243 0.2445
21955.0 2.32398 0.247(5) 49278. 0.2243 0.2448
21965.0 2.32504 0.246(5) 49146. 0.2244 0.2451
21975.0 2.32610 0.245(5) 49337. 0.2244 0.2454
21985.0 2.32716 0.247(5) 48794. 0.2245 0.2456
21995.0 2.32822 0.241(4) 49803. 0.2245 0.2458
22005.0 2.32928 0.246(5) 48637. 0.2246 0.2459
22015.0 2.33033 0.240(4) 49716. 0.2246 0.2459
22025.0 2.33139 0.248(5) 47996. 0.2247 0.2458
22035.0 2.33245 0.242(5) 49115. 0.2247 0.2456
22045.0 2.33351 0.246(5) 48278. 0.2248 0.2452
22055.0 2.33457 0.242(5) 48876. 0.2248 0.2447
22065.0 2.33563 0.245(5) 48374. 0.2249 0.2440
22075.0 2.33669 0.246(5) 47997. 0.2249 0.2433
22085.0 2.33775 0.237(4) 49569. 0.2250 0.2424
22095.0 2.33881 0.244(5) 48174. 0.2250 0.2414
22105.0 2.33987 0.236(4) 49687. 0.2251 0.2404
22115.0 2.34093 0.234(4) 49919. 0.2251 0.2393
22125.0 2.34199 0.228(4) 50853. 0.2252 0.2382
22135.0 2.34305 0.245(5) 47386. 0.2252 0.2371
22145.0 2.34411 0.229(4) 50554. 0.2253 0.2360
22155.0 2.34517 0.236(5) 49019. 0.2253 0.2350
22165.0 2.34623 0.226(4) 50708. 0.2254 0.2341
22175.0 2.34729 0.229(4) 50013. 0.2254 0.2332
22185.0 2.34835 0.228(4) 49932. 0.2255 0.2324
22195.0 2.34941 0.237(5) 48182. 0.2255 0.2316
22205.0 2.35047 0.232(5) 48987. 0.2256 0.2309
22215.0 2.35153 0.226(4) 50008. 0.2256 0.2303
22225.0 2.35259 0.233(5) 48474. 0.2257 0.2298
22235.0 2.35365 0.234(5) 48053. 0.2257 0.2294
22245.0 2.35471 0.226(4) 49581. 0.2258 0.2290
22255.0 2.35577 0.233(5) 48074. 0.2258 0.2287
22265.0 2.35683 0.231(5) 48307. 0.2259 0.2285
22275.0 2.35789 0.230(5) 48501. 0.2259 0.2283
22285.0 2.35894 0.224(4) 49530. 0.2260 0.2281
22295.0 2.36000 0.231(5) 47951. 0.2261 0.2280
22305.0 2.36106 0.227(5) 48675. 0.2261 0.2279
22315.0 2.36212 0.226(5) 48835. 0.2262 0.2278
22325.0 2.36318 0.224(5) 49155. 0.2262 0.2277
22335.0 2.36424 0.229(5) 48156. 0.2263 0.2277
22345.0 2.36530 0.226(5) 48683. 0.2263 0.2277
22355.0 2.36636 0.224(5) 49156. 0.2264 0.2277
22365.0 2.36742 0.229(5) 48061. 0.2264 0.2276
22375.0 2.36848 0.225(5) 48797. 0.2265 0.2277
22385.0 2.36954 0.223(5) 48953. 0.2265 0.2276
22395.0 2.37060 0.237(5) 46213. 0.2266 0.2276
22405.0 2.37166 0.240(5) 45553. 0.2266 0.2276
22415.0 2.37272 0.222(5) 48819. 0.2267 0.2277
22425.0 2.37378 0.231(5) 46849. 0.2268 0.2277
22435.0 2.37484 0.231(5) 46670. 0.2268 0.2277
22445.0 2.37590 0.228(5) 47102. 0.2269 0.2278
22455.0 2.37696 0.225(5) 47594. 0.2269 0.2278
22465.0 2.37802 0.231(5) 46433. 0.2270 0.2278
22475.0 2.37908 0.228(5) 46846. 0.2270 0.2279
22485.0 2.38014 0.230(5) 46317. 0.2271 0.2279
22495.0 2.38120 0.235(5) 45376. 0.2271 0.2279
22505.0 2.38226 0.231(5) 45860. 0.2272 0.2280
22515.0 2.38332 0.232(5) 45587. 0.2273 0.2280
22525.0 2.38438 0.231(5) 45690. 0.2273 0.2281
22535.0 2.38544 0.235(5) 45018. 0.2274 0.2281
22545.0 2.38650 0.225(5) 46704. 0.2274 0.2282
22555.0 2.38756 0.232(5) 45280. 0.2275 0.2282
22565.0 2.38862 0.227(5) 46235. 0.2275 0.2283
22575.0 2.38967 0.225(5) 46465. 0.2276 0.2283
22585.0 2.39073 0.221(5) 47116. 0.2277 0.2284
22595.0 2.39179 0.232(5) 45017. 0.2277 0.2284
22605.0 2.39285 0.232(5) 44839. 0.2278 0.2285
22615.0 2.39391 0.224(5) 46347. 0.2278 0.2285
22625.0 2.39497 0.230(5) 45058. 0.2279 0.2286
22635.0 2.39603 0.234(5) 44230. 0.2279 0.2286
22645.0 2.39709 0.240(5) 43284. 0.2280 0.2287
22655.0 2.39815 0.229(5) 45070. 0.2281 0.2287
22665.0 2.39921 0.225(5) 45870. 0.2281 0.2288
22675.0 2.40027 0.228(5) 45117. 0.2282 0.2288
22685.0 2.40133 0.224(5) 45824. 0.2282 0.2289
22695.0 2.40239 0.229(5) 44843. 0.2283 0.2290
22705.0 2.40345 0.235(5) 43548. 0.2284 0.2290
22715.0 2.40451 0.228(5) 44769. 0.2284 0.2291
22725.0 2.40557 0.235(5) 43329. 0.2285 0.2291
22735.0 2.40663 0.227(5) 44457. 0.2285 0.2292
22745.0 2.40769 0.228(5) 44292. 0.2286 0.2293
22755.0 2.40875 0.226(5) 44607. 0.2287 0.2293
22765.0 2.40981 0.231(5) 43561. 0.2287 0.2294
22775.0 2.41087 0.235(5) 42826. 0.2288 0.2295
22785.0 2.41193 0.229(5) 43781. 0.2288 0.2295
22795.0 2.41299 0.230(5) 43616. 0.2289 0.2296
22805.0 2.41405 0.226(5) 44345. 0.2290 0.2297
22815.0 2.41511 0.230(5) 43395. 0.2290 0.2297
22825.0 2.41617 0.224(5) 44332. 0.2291 0.2298
22835.0 2.41723 0.229(5) 43410. 0.2291 0.2299
22845.0 2.41829 0.233(5) 42620. 0.2292 0.2299
22855.0 2.41935 0.230(5) 42974. 0.2293 0.2300
22865.0 2.42041 0.235(5) 41934. 0.2293 0.2301
22875.0 2.42147 0.227(5) 43320. 0.2294 0.2301
22885.0 2.42252 0.231(5) 42667. 0.2295 0.2302
22895.0 2.42358 0.228(5) 43120. 0.2295 0.2303
22905.0 2.42464 0.239(5) 41093. 0.2296 0.2304
22915.0 2.42570 0.226(5) 43299. 0.2296 0.2304
22925.0 2.42676 0.236(5) 41470. 0.2297 0.2305
22935.0 2.42782 0.236(5) 41424. 0.2298 0.2306
22945.0 2.42888 0.229(5) 42383. 0.2298 0.2307
22955.0 2.42994 0.231(5) 42167. 0.2299 0.2307
22965.0 2.43100 0.236(5) 41202. 0.2300 0.2308
22975.0 2.43206 0.236(5) 41028. 0.2300 0.2309
22985.0 2.43312 0.232(5) 41629. 0.2301 0.2310
22995.0 2.43418 0.238(5) 40611. 0.2302 0.2311
23005.0 2.43524 0.238(5) 40481. 0.2302 0.2312
23015.0 2.43630 0.233(5) 41202. 0.2303 0.2313
23025.0 2.43736 0.239(5) 40142. 0.2303 0.2314
23035.0 2.43842 0.236(5) 40552. 0.2304 0.2315
23045.0 2.43948 0.231(5) 41308. 0.2305 0.2316
23055.0 2.44054 0.243(5) 39223. 0.2305 0.2317
23065.0 2.44160 0.235(5) 40276. 0.2306 0.2318
23075.0 2.44266 0.242(5) 39181. 0.2307 0.2319
23085.0 2.44372 0.229(5) 41236. 0.2307 0.2320
23095.0 2.44478 0.245(5) 38627. 0.2308 0.2321
23105.0 2.44584 0.232(5) 40530. 0.2309 0.2322
23115.0 2.44690 0.233(5) 40247. 0.2309 0.2324
23125.0 2.44796 0.239(5) 39354. 0.2310 0.2325
23135.0 2.44902 0.227(5) 41078. 0.2311 0.2327
23145.0 2.45008 0.235(5) 39765. 0.2311 0.2328
23155.0 2.45114 0.242(5) 38564. 0.2312 0.2330
23165.0 2.45220 0.241(5) 38665. 0.2313 0.2332
23175.0 2.45326 0.232(5) 39957. 0.2313 0.2334
23185.0 2.45432 0.243(5) 38328. 0.2314 0.2337
23195.0 2.45538 0.235(5) 39393. 0.2315 0.2340
23205.0 2.45643 0.241(5) 38555. 0.2315 0.2344
23215.0 2.45749 0.232(5) 39679. 0.2316 0.2349
23225.0 2.45855 0.244(5) 37806. 0.2317 0.2354
23235.0 2.45961 0.238(5) 38635. 0.2317 0.2361
23245.0 2.46067 0.242(5) 38022. 0.2318 0.2368
23255.0 2.46173 0.248(5) 37053. 0.2319 0.2376
23265.0 2.46279 0.245(5) 37455. 0.2319 0.2386
23275.0 2.46385 0.250(5) 36534. 0.2320 0.2398
23285.0 2.46491 0.253(5) 36090. 0.2321 0.2411
23295.0 2.46597 0.242(5) 37723. 0.2321 0.2426
23305.0 2.46703 0.249(5) 36590. 0.2322 0.2443
23315.0 2.46809 0.250(5) 36420. 0.2323 0.2462
23325.0 2.46915 0.260(5) 35013. 0.2324 0.2482
23335.0 2.47021 0.255(5) 35588. 0.2324 0.2505
23345.0 2.47127 0.265(5) 34231. 0.2325 0.2529
23355.0 2.47233 0.257(5) 35277. 0.2326 0.2555
23365.0 2.47339 0.268(5) 33794. 0.2326 0.2583
23375.0 2.47445 0.263(5) 34328. 0.2327 0.2611
23385.0 2.47551 0.259(5) 34753. 0.2328 0.2639
23395.0 2.47657 0.264(5) 34112. 0.2328 0.2668
23405.0 2.47763 0.269(5) 33566. 0.2329 0.2696
23415.0 2.47869 0.265(5) 33984. 0.2330 0.2723
23425.0 2.47975 0.271(5) 33308. 0.2330 0.2748
23435.0 2.48081 0.275(6) 32810. 0.2331 0.2770
23445.0 2.48187 0.269(5) 33443. 0.2332 0.2789
23455.0 2.48293 0.276(6) 32553. 0.2333 0.2803
23465.0 2.48399 0.284(6) 31754. 0.2333 0.2813
23475.0 2.48505 0.277(6) 32473. 0.2334 0.2818
23485.0 2.48611 0.270(5) 33261. 0.2335 0.2818
23495.0 2.48717 0.268(5) 33347. 0.2335 0.2813
23505.0 2.48823 0.268(5) 33285. 0.2336 0.2804
23515.0 2.48929 0.272(6) 32764. 0.2337 0.2790
23525.0 2.49035 0.280(6) 31825. 0.2338 0.2772
23535.0 2.49141 0.271(6) 32896. 0.2338 0.2751
23545.0 2.49247 0.267(5) 33329. 0.2339 0.2728
23555.0 2.49353 0.266(5) 33296. 0.2340 0.2704
23565.0 2.49459 0.269(6) 32861. 0.2341 0.2678
23575.0 2.49564 0.272(6) 32498. 0.2341 0.2651
23585.0 2.49670 0.267(6) 32891. 0.2342 0.2625
23595.0 2.49776 0.253(5) 34509. 0.2343 0.2599
23605.0 2.49882 0.266(6) 32908. 0.2343 0.2574
23615.0 2.49988 0.255(5) 34315. 0.2344 0.2551
23625.0 2.50094 0.252(5) 34618. 0.2345 0.2529
23635.0 2.50200 0.255(5) 34130. 0.2346 0.2508
23645.0 2.50306 0.262(5) 33189. 0.2346 0.2490
23655.0 2.50412 0.246(5) 35260. 0.2347 0.2473
23665.0 2.50518 0.253(5) 34352. 0.2348 0.2458
23675.0 2.50624 0.245(5) 35467. 0.2349 0.2445
23685.0 2.50730 0.247(5) 35234. 0.2349 0.2434
23695.0 2.50836 0.245(5) 35299. 0.2350 0.2424
23705.0 2.50942 0.246(5) 35170. 0.2351 0.2416
23715.0 2.51048 0.246(5) 35236. 0.2352 0.2409
23725.0 2.51154 0.252(5) 34413. 0.2352 0.2404
23735.0 2.51260 0.237(5) 36324. 0.2353 0.2400
23745.0 2.51366 0.245(5) 35322. 0.2354 0.2396
23755.0 2.51472 0.246(5) 35105. 0.2355 0.2394
23765.0 2.51578 0.247(5) 34907. 0.2355 0.2392
23775.0 2.51684 0.246(5) 35074. 0.2356 0.2391
23785.0 2.51790 0.243(5) 35313. 0.2357 0.2391
23795.0 2.51896 0.246(5) 34957. 0.2358 0.2391
23805.0 2.52002 0.233(5) 36759. 0.2358 0.2391
23815.0 2.52108 0.245(5) 35065. 0.2359 0.2392
23825.0 2.52214 0.236(5) 36373. 0.2360 0.2393
23835.0 2.52320 0.241(5) 35442. 0.2361 0.2394
23845.0 2.52426 0.238(5) 35859. 0.2361 0.2396
23855.0 2.52532 0.239(5) 35753. 0.2362 0.2397
23865.0 2.52638 0.235(5) 36263. 0.2363 0.2399
23875.0 2.52744 0.244(5) 35041. 0.2364 0.2400
23885.0 2.52850 0.236(5) 36035. 0.2364 0.2401
23895.0 2.52956 0.242(5) 35158. 0.2365 0.2403
23905.0 2.53062 0.240(5) 35352. 0.2366 0.2404
23915.0 2.53168 0.244(5) 34584. 0.2367 0.2404
23925.0 2.53274 0.231(5) 36391. 0.2367 0.2405
23935.0 2.53380 0.230(5) 36599. 0.2368 0.2405
23945.0 2.53486 0.243(5) 34703. 0.2369 0.2405
23955.0 2.53592 0.243(5) 34678. 0.2370 0.2405
23965.0 2.53698 0.246(5) 34274. 0.2371 0.2405
23975.0 2.53803 0.230(5) 36485. 0.2371 0.2404
23985.0 2.53909 0.242(5) 34700. 0.2372 0.2403
23995.0 2.54015 0.232(5) 35882. 0.2373 0.2403
24005.0 2.54121 0.228(5) 36429. 0.2374 0.2402
24015.0 2.54227 0.242(5) 34387. 0.2374 0.2401
24025.0 2.54333 0.240(5) 34684. 0.2375 0.2400
24035.0 2.54439 0.244(5) 34016. 0.2376 0.2399
24045.0 2.54545 0.234(5) 35409. 0.2377 0.2398
24055.0 2.54651 0.242(5) 34242. 0.2378 0.2398
24065.0 2.54757 0.244(5) 33911. 0.2378 0.2397
24075.0 2.54863 0.234(5) 35299. 0.2379 0.2397
24085.0 2.54969 0.237(5) 34733. 0.2380 0.2396
24095.0 2.55075 0.244(5) 33834. 0.2381 0.2396
24105.0 2.55181 0.233(5) 35107. 0.2382 0.2395
24115.0 2.55287 0.245(5) 33439. 0.2382 0.2395
24125.0 2.55393 0.241(5) 33975. 0.2383 0.2395
24135.0 2.55499 0.239(5) 34111. 0.2384 0.2395
24145.0 2.55605 0.245(5) 33314. 0.2385 0.2396
24155.0 2.55711 0.244(5) 33297. 0.2385 0.2396
24165.0 2.55817 0.234(5) 34713. 0.2386 0.2396
24175.0 2.55923 0.237(5) 34250. 0.2387 0.2397
24185.0 2.56029 0.247(6) 32846. 0.2388 0.2397
24195.0 2.56135 0.239(5) 33804. 0.2389 0.2398
24205.0 2.56241 0.243(5) 33220. 0.2389 0.2398
24215.0 2.56347 0.244(6) 33014. 0.2390 0.2399
24225.0 2.56453 0.241(5) 33402. 0.2391 0.2400
24235.0 2.56559 0.243(6) 33019. 0.2392 0.2401
24245.0 2.56665 0.231(5) 34551. 0.2393 0.2401
24255.0 2.56771 0.252(6) 31753. 0.2394 0.2402
24265.0 2.56877 0.227(5) 35026. 0.2394 0.2403
24275.0 2.56983 0.230(5) 34591. 0.2395 0.2404
24285.0 2.57089 0.231(5) 34240. 0.2396 0.2405
24295.0 2.57195 0.245(6) 32494. 0.2397 0.2407
24305.0 2.57301 0.247(6) 32092. 0.2398 0.2408
24315.0 2.57407 0.236(5) 33516. 0.2398 0.2409
24325.0 2.57513 0.246(6) 32177. 0.2399 0.2411
24335.0 2.57619 0.239(6) 33036. 0.2400 0.2412
24345.0 2.57725 0.234(5) 33652. 0.2401 0.2414
24355.0 2.57831 0.238(5) 33111. 0.2402 0.2416
24365.0 2.57937 0.236(5) 33396. 0.2402 0.2418
24375.0 2.58043 0.234(5) 33555. 0.2403 0.2421
24385.0 2.58149 0.243(6) 32459. 0.2404 0.2424
24395.0 2.58255 0.251(6) 31396. 0.2405 0.2427
24405.0 2.58361 0.246(6) 31946. 0.2406 0.2431
24415.0 2.58467 0.242(6) 32467. 0.2407 0.2435
24425.0 2.58573 0.251(6) 31316. 0.2407 0.2440
24435.0 2.58678 0.243(6) 32291. 0.2408 0.2445
24445.0 2.58784 0.241(6) 32411. 0.2409 0.2451
24455.0 2.58890 0.245(6) 31889. 0.2410 0.2457
24465.0 2.58996 0.246(6) 31650. 0.2411 0.2464
24475.0 2.59102 0.252(6) 30996. 0.2412 0.2472
24485.0 2.59208 0.244(6) 32003. 0.2412 0.2481
24495.0 2.59314 0.244(6) 31832. 0.2413 0.2490
24505.0 2.59420 0.248(6) 31348. 0.2414 0.2501
24515.0 2.59526 0.256(6) 30455. 0.2415 0.2511
24525.0 2.59632 0.260(6) 29870. 0.2416 0.2522
24535.0 2.59738 0.254(6) 30430. 0.2417 0.2533
24545.0 2.59844 0.254(6) 30543. 0.2417 0.2545
24555.0 2.59950 0.262(6) 29539. 0.2418 0.2557
24565.0 2.60056 0.255(6) 30352. 0.2419 0.2568
24575.0 2.60162 0.251(6) 30714. 0.2420 0.2580
24585.0 2.60268 0.250(6) 30823. 0.2421 0.2591
24595.0 2.60374 0.261(6) 29481. 0.2422 0.2601
24605.0 2.60480 0.268(6) 28772. 0.2423 0.2610
24615.0 2.60586 0.254(6) 30223. 0.2423 0.2618
24625.0 2.60692 0.262(6) 29280. 0.2424 0.2624
24635.0 2.60798 0.270(6) 28348. 0.2425 0.2630
24645.0 2.60904 0.269(6) 28404. 0.2426 0.2633
24655.0 2.61010 0.262(6) 29012. 0.2427 0.2635
24665.0 2.61116 0.266(6) 28476. 0.2428 0.2634
24675.0 2.61222 0.262(6) 28897. 0.2429 0.2633
24685.0 2.61328 0.267(6) 28288. 0.2429 0.2629
24695.0 2.61434 0.260(6) 28960. 0.2430 0.2624
24705.0 2.61540 0.255(6) 29393. 0.2431 0.2618
24715.0 2.61646 0.252(6) 29696. 0.2432 0.2611
24725.0 2.61752 0.278(6) 27032. 0.2433 0.2602
24735.0 2.61858 0.261(6) 28631. 0.2434 0.2593
24745.0 2.61964 0.260(6) 28702. 0.2435 0.2584
24755.0 2.62070 0.260(6) 28692. 0.2435 0.2574
24765.0 2.62176 0.260(6) 28511. 0.2436 0.2564
24775.0 2.62282 0.262(6) 28357. 0.2437 0.2555
24785.0 2.62388 0.249(6) 29722. 0.2438 0.2545
24795.0 2.62494 0.267(6) 27900. 0.2439 0.2536
24805.0 2.62600 0.248(6) 29762. 0.2440 0.2528
24815.0 2.62706 0.250(6) 29561. 0.2441 0.2520
24825.0 2.62812 0.248(6) 29815. 0.2442 0.2512
24835.0 2.62918 0.260(6) 28493. 0.2442 0.2505
24845.0 2.63024 0.249(6) 29692. 0.2443 0.2499
24855.0 2.63130 0.247(6) 29894. 0.2444 0.2494
24865.0 2.63236 0.256(6) 28902. 0.2445 0.2489
24875.0 2.63342 0.248(6) 29685. 0.2446 0.2485
24885.0 2.63448 0.253(6) 29131. 0.2447 0.2481
24895.0 2.63554 0.247(6) 29860. 0.2448 0.2478
24905.0 2.63660 0.239(6) 30717. 0.2449 0.2475
24915.0 2.63766 0.239(6) 30641. 0.2450 0.2473
24925.0 2.63872 0.246(6) 29842. 0.2450 0.2471
24935.0 2.63978 0.245(6) 29960. 0.2451 0.2470
24945.0 2.64084 0.262(6) 28107. 0.2452 0.2469
24955.0 2.64190 0.248(6) 29581. 0.2453 0.2468
24965.0 2.64296 0.252(6) 29076. 0.2454 0.2467
24975.0 2.64402 0.246(6) 29706. 0.2455 0.2467
24985.0 2.64508 0.247(6) 29646. 0.2456 0.2467
24995.0 2.64613 0.246(6) 29701. 0.2457 0.2467
25005.0 2.64719 0.246(6) 29708. 0.2458 0.2467
25015.0 2.64825 0.262(6) 27980. 0.2459 0.2467
25025.0 2.64931 0.241(6) 30253. 0.2460 0.2468
25035.0 2.65037 0.251(6) 29067. 0.2460 0.2468
25045.0 2.65143 0.259(6) 28271. 0.2461 0.2469
25055.0 2.65249 0.256(6) 28535. 0.2462 0.2469
25065.0 2.65355 0.241(6) 30147. 0.2463 0.2470
25075.0 2.65461 0.252(6) 28955. 0.2464 0.2471
25085.0 2.65567 0.241(6) 30121. 0.2465 0.2471
25095.0 2.65673 0.241(6) 29966. 0.2466 0.2472
25105.0 2.65779 0.256(6) 28284. 0.2467 0.2473
25115.0 2.65885 0.250(6) 28910. 0.2468 0.2473
25125.0 2.65991 0.242(6) 29677. 0.2469 0.2474
25135.0 2.66097 0.248(6) 28988. 0.2470 0.2475
25145.0 2.66203 0.251(6) 28558. 0.2471 0.2476
25155.0 2.66309 0.244(6) 29189. 0.2472 0.2477
25165.0 2.66415 0.249(6) 28524. 0.2473 0.2477
25175.0 2.66521 0.248(6) 28581. 0.2473 0.2478
25185.0 2.66627 0.251(6) 28336. 0.2474 0.2479
25195.0 2.66733 0.242(6) 29355. 0.2475 0.2480
25205.0 2.66839 0.234(6) 30282. 0.2476 0.2481
25215.0 2.66945 0.251(6) 28278. 0.2477 0.2482
25225.0 2.67051 0.255(6) 27901. 0.2478 0.2483
25235.0 2.67157 0.238(6) 29794. 0.2479 0.2483
25245.0 2.67263 0.255(6) 27807. 0.2480 0.2484
25255.0 2.67369 0.254(6) 27967. 0.2481 0.2485
25265.0 2.67475 0.251(6) 28255. 0.2482 0.2486
25275.0 2.67581 0.250(6) 28253. 0.2483 0.2487
25285.0 2.67687 0.248(6) 28487. 0.2484 0.2488
25295.0 2.67793 0.245(6) 28765. 0.2485 0.2489
25305.0 2.67899 0.241(6) 29203. 0.2486 0.2490
25315.0 2.68005 0.241(6) 29271. 0.2487 0.2490
25325.0 2.68111 0.252(6) 27984. 0.2488 0.2491
25335.0 2.68217 0.248(6) 28367. 0.2489 0.2492
25345.0 2.68323 0.248(6) 28305. 0.2490 0.2493
25355.0 2.68429 0.248(6) 28297. 0.2491 0.2494
25365.0 2.68535 0.242(6) 28890. 0.2492 0.2495
25375.0 2.68641 0.253(6) 27764. 0.2493 0.2496
25385.0 2.68747 0.250(6) 27965. 0.2494 0.2497
25395.0 2.68853 0.252(6) 27698. 0.2495 0.2498
25405.0 2.68959 0.249(6) 27952. 0.2496 0.2499
25415.0 2.69065 0.252(6) 27575. 0.2497 0.2500
25425.0 2.69171 0.246(6) 28281. 0.2498 0.2501
25435.0 2.69277 0.253(6) 27501. 0.2499 0.2502
25445.0 2.69383 0.245(6) 28290. 0.2500 0.2503
25455.0 2.69489 0.257(6) 27035. 0.2501 0.2504
25465.0 2.69595 0.243(6) 28564. 0.2502 0.2505
25475.0 2.69701 0.239(6) 29003. 0.2503 0.2506
25485.0 2.69807 0.260(6) 26780. 0.2504 0.2507
25495.0 2.69913 0.249(6) 27805. 0.2505 0.2508
25505.0 2.70019 0.242(6) 28652. 0.2506 0.2509
25515.0 2.70125 0.253(6) 27385. 0.2507 0.2510
25525.0 2.70231 0.242(6) 28584. 0.2508 0.2511
25535.0 2.70337 0.248(6) 27972. 0.2509 0.2512
25545.0 2.70443 0.245(6) 28352. 0.2510 0.2513
25555.0 2.70549 0.240(6) 28855. 0.2511 0.2514
25565.0 2.70655 0.253(6) 27464. 0.2512 0.2515
25575.0 2.70761 0.256(6) 27045. 0.2513 0.2516
25585.0 2.70867 0.249(6) 27833. 0.2514 0.2517
25595.0 2.70973 0.248(6) 27868. 0.2515 0.2518
25605.0 2.71079 0.254(6) 27271. 0.2516 0.2519
25615.0 2.71185 0.250(6) 27557. 0.2517 0.2520
25625.0 2.71291 0.256(6) 26867. 0.2518 0.2522
25635.0 2.71397 0.252(6) 27247. 0.2519 0.2523
25645.0 2.71503 0.244(6) 28017. 0.2521 0.2524
25655.0 2.71609 0.252(6) 27167. 0.2522 0.2525
25665.0 2.71715 0.248(6) 27580. 0.2523 0.2526
25675.0 2.71821 0.243(6) 28154. 0.2524 0.2527
25685.0 2.71927 0.244(6) 28039. 0.2525 0.2528
25695.0 2.72033 0.255(6) 26890. 0.2526 0.2529
25705.0 2.72139 0.246(6) 27660. 0.2527 0.2530
25715.0 2.72245 0.246(6) 27602. 0.2528 0.2531
25725.0 2.72351 0.252(6) 26929. 0.2529 0.2533
25735.0 2.72456 0.242(6) 28011. 0.2530 0.2534
25745.0 2.72562 0.251(6) 26927. 0.2531 0.2535
25755.0 2.72668 0.256(6) 26513. 0.2532 0.2536
25765.0 2.72774 0.259(6) 26141. 0.2534 0.2537
25775.0 2.72880 0.253(6) 26663. 0.2535 0.2538
25785.0 2.72986 0.253(6) 26614. 0.2536 0.2539
25795.0 2.73092 0.248(6) 27107. 0.2537 0.2541
25805.0 2.73198 0.252(6) 26531. 0.2538 0.2542
25815.0 2.73304 0.257(6) 26027. 0.2539 0.2543
25825.0 2.73410 0.266(6) 25218. 0.2540 0.2544
25835.0 2.73516 0.252(6) 26565. 0.2541 0.2545
25845.0 2.73622 0.251(6) 26535. 0.2543 0.2547
25855.0 2.73728 0.251(6) 26563. 0.2544 0.2548
25865.0 2.73834 0.257(6) 25971. 0.2545 0.2549
25875.0 2.73940 0.263(6) 25419. 0.2546 0.2550
25885.0 2.74046 0.260(6) 25613. 0.2547 0.2551
25895.0 2.74152 0.252(6) 26433. 0.2548 0.2553
25905.0 2.74258 0.255(6) 26093. 0.2550 0.2554
25915.0 2.74364 0.245(6) 27123. 0.2551 0.2555
25925.0 2.74470 0.250(6) 26690. 0.2552 0.2556
25935.0 2.74576 0.243(6) 27343. 0.2553 0.2558
25945.0 2.74682 0.267(6) 25020. 0.2554 0.2559
25955.0 2.74788 0.246(6) 26993. 0.2555 0.2560
25965.0 2.74894 0.243(6) 27283. 0.2557 0.2561
25975.0 2.75000 0.256(6) 26001. 0.2558 0.2563
25985.0 2.75106 0.258(6) 25866. 0.2559 0.2564
25995.0 2.75212 0.258(6) 25820. 0.2560 0.2565
26005.0 2.75318 0.268(6) 24859. 0.2561 0.2567
26015.0 2.75424 0.249(6) 26641. 0.2563 0.2568
26025.0 2.75530 0.252(6) 26260. 0.2564 0.2569
26035.0 2.75636 0.256(6) 25887. 0.2565 0.2571
26045.0 2.75742 0.253(6) 26237. 0.2566 0.2572
26055.0 2.75848 0.258(6) 25750. 0.2567 0.2573
26065.0 2.75954 0.254(6) 26082. 0.2569 0.2575
26075.0 2.76060 0.253(6) 26099. 0.2570 0.2576
26085.0 2.76166 0.250(6) 26399. 0.2571 0.2577
26095.0 2.76272 0.249(6) 26468. 0.2572 0.2579
26105.0 2.76378 0.247(6) 26721. 0.2574 0.2580
26115.0 2.76484 0.266(6) 24880. 0.2575 0.2582
26125.0 2.76590 0.245(6) 26876. 0.2576 0.2583
26135.0 2.76696 0.257(6) 25678. 0.2577 0.2585
26145.0 2.76802 0.244(6) 26916. 0.2579 0.2586
26155.0 2.76908 0.257(6) 25566. 0.2580 0.2588
26165.0 2.77014 0.252(6) 26095. 0.2581 0.2589
26175.0 2.77120 0.248(6) 26438. 0.2583 0.2591
26185.0 2.77226 0.256(6) 25603. 0.2584 0.2592
26195.0 2.77332 0.257(6) 25435. 0.2585 0.2594
26205.0 2.77438 0.257(6) 25416. 0.2587 0.2595
26215.0 2.77544 0.257(6) 25375. 0.2588 0.2597
26225.0 2.77650 0.249(6) 26071. 0.2589 0.2598
26235.0 2.77756 0.260(6) 25113. 0.2590 0.2600
26245.0 2.77862 0.258(6) 25190. 0.2592 0.2602
26255.0 2.77968 0.253(6) 25697. 0.2593 0.2603
26265.0 2.78074 0.259(6) 25112. 0.2594 0.2605
26275.0 2.78180 0.249(6) 25948. 0.2596 0.2607
26285.0 2.78286 0.266(6) 24362. 0.2597 0.2609
26295.0 2.78392 0.259(6) 24957. 0.2598 0.2610
26305.0 2.78498 0.260(6) 24889. 0.2600 0.2612
26315.0 2.78604 0.263(6) 24552. 0.2601 0.2614
26325.0 2.78710 0.266(6) 24268. 0.2603 0.2616
26335.0 2.78816 0.264(6) 24381. 0.2604 0.2618
26345.0 2.78922 0.264(6) 24311. 0.2605 0.2620
26355.0 2.79028 0.270(6) 23837. 0.2607 0.2622
26365.0 2.79134 0.261(6) 24549. 0.2608 0.2625
26375.0 2.79240 0.261(6) 24537. 0.2609 0.2627
26385.0 2.79346 0.272(7) 23600. 0.2611 0.2630
26395.0 2.79452 0.267(6) 23936. 0.2612 0.2632
26405.0 2.79558 0.272(7) 23480. 0.2614 0.2635
26415.0 2.79664 0.250(6) 25464. 0.2615 0.2639
26425.0 2.79770 0.264(6) 24070. 0.2617 0.2642
26435.0 2.79876 0.273(7) 23290. 0.2618 0.2646
26445.0 2.79982 0.269(7) 23522. 0.2619 0.2650
26455.0 2.80088 0.279(7) 22676. 0.2621 0.2655
26465.0 2.80194 0.258(6) 24370. 0.2622 0.2661
26475.0 2.80300 0.266(7) 23625. 0.2624 0.2667
26485.0 2.80406 0.281(7) 22331. 0.2625 0.2673
26495.0 2.80512 0.271(7) 23145. 0.2627 0.2681
26505.0 2.80618 0.283(7) 22178. 0.2628 0.2690
26515.0 2.80724 0.283(7) 22172. 0.2630 0.2699
26525.0 2.80830 0.273(7) 22951. 0.2631 0.2710
26535.0 2.80936 0.269(7) 23173. 0.2633 0.2722
26545.0 2.81042 0.279(7) 22360. 0.2634 0.2736
26555.0 2.81148 0.276(7) 22512. 0.2636 0.2751
26565.0 2.81254 0.281(7) 22037. 0.2637 0.2767
26575.0 2.81360 0.272(7) 22784. 0.2639 0.2785
26585.0 2.81466 0.278(7) 22303. 0.2640 0.2805
26595.0 2.81572 0.292(7) 21237. 0.2642 0.2826
26605.0 2.81678 0.276(7) 22446. 0.2643 0.2849
26615.0 2.81784 0.285(7) 21674. 0.2645 0.2873
26625.0 2.81890 0.288(7) 21440. 0.2646 0.2899
26635.0 2.81996 0.290(7) 21254. 0.2648 0.2927
26645.0 2.82102 0.287(7) 21464. 0.2649 0.2955
26655.0 2.82208 0.290(7) 21217. 0.2651 0.2985
26665.0 2.82314 0.300(7) 20517. 0.2652 0.3015
26675.0 2.82420 0.307(7) 20004. 0.2654 0.3045
26685.0 2.82526 0.303(7) 20189. 0.2656 0.3076
26695.0 2.82632 0.318(7) 19237. 0.2657 0.3106
26705.0 2.82738 0.309(7) 19704. 0.2659 0.3135
26715.0 2.82844 0.320(7) 19046. 0.2660 0.3162
26725.0 2.82950 0.313(7) 19493. 0.2662 0.3188
26735.0 2.83056 0.321(7) 18930. 0.2664 0.3212
26745.0 2.83162 0.328(7) 18556. 0.2665 0.3233
26755.0 2.83268 0.318(7) 19080. 0.2667 0.3250
26765.0 2.83374 0.332(7) 18295. 0.2669 0.3264
26775.0 2.83480 0.326(7) 18596. 0.2670 0.3274
26785.0 2.83586 0.325(7) 18592. 0.2672 0.3280
26795.0 2.83692 0.317(7) 19033. 0.2673 0.3281
26805.0 2.83798 0.330(7) 18287. 0.2675 0.3279
26815.0 2.83904 0.336(7) 17921. 0.2677 0.3272
26825.0 2.84010 0.326(7) 18423. 0.2679 0.3262
26835.0 2.84116 0.319(7) 18798. 0.2680 0.3248
26845.0 2.84222 0.318(7) 18837. 0.2682 0.3231
26855.0 2.84328 0.326(7) 18378. 0.2684 0.3212
26865.0 2.84434 0.339(8) 17638. 0.2685 0.3190
26875.0 2.84540 0.316(7) 18971. 0.2687 0.3167
26885.0 2.84646 0.308(7) 19439. 0.2689 0.3142
26895.0 2.84752 0.307(7) 19468. 0.2690 0.3116
26905.0 2.84858 0.314(7) 19007. 0.2692 0.3090
26915.0 2.84964 0.327(7) 18216. 0.2694 0.3064
26925.0 2.85070 0.301(7) 19706. 0.2696 0.3038
26935.0 2.85176 0.318(7) 18701. 0.2697 0.3013
26945.0 2.85282 0.289(7) 20485. 0.2699 0.2988
26955.0 2.85388 0.285(7) 20724. 0.2701 0.2965
26965.0 2.85494 0.313(7) 18895. 0.2703 0.2943
26975.0 2.85600 0.285(7) 20706. 0.2704 0.2922
26985.0 2.85706 0.280(7) 21043. 0.2706 0.2902
26995.0 2.85812 0.290(7) 20374. 0.2708 0.2884
27005.0 2.85918 0.300(7) 19712. 0.2710 0.2868
27015.0 2.86024 0.303(7) 19509. 0.2712 0.2853
27025.0 2.86130 0.286(7) 20678. 0.2713 0.2839
27035.0 2.86236 0.279(7) 21157. 0.2715 0.2827
27045.0 2.86342 0.293(7) 20234. 0.2717 0.2816
27055.0 2.86448 0.277(7) 21280. 0.2719 0.2807
27065.0 2.86554 0.274(7) 21510. 0.2721 0.2799
27075.0 2.86660 0.284(7) 20819. 0.2723 0.2792
27085.0 2.86766 0.279(7) 21088. 0.2724 0.2786
27095.0 2.86872 0.287(7) 20529. 0.2726 0.2781
27105.0 2.86978 0.285(7) 20665. 0.2728 0.2777
27115.0 2.87084 0.285(7) 20704. 0.2730 0.2774
27125.0 2.87190 0.273(7) 21557. 0.2732 0.2771
27135.0 2.87296 0.268(7) 21873. 0.2734 0.2769
27145.0 2.87402 0.278(7) 21136. 0.2736 0.2768
27155.0 2.87508 0.278(7) 21222. 0.2738 0.2767
27165.0 2.87614 0.289(7) 20406. 0.2740 0.2766
27175.0 2.87720 0.263(7) 22305. 0.2742 0.2768
27185.0 2.87826 0.277(7) 21240. 0.2743 0.2768
27195.0 2.87932 0.280(7) 21016. 0.2745 0.2768
27205.0 2.88038 0.279(7) 21065. 0.2747 0.2769
27215.0 2.88144 0.277(7) 21192. 0.2749 0.2770
27225.0 2.88250 0.288(7) 20424. 0.2751 0.2770
27235.0 2.88356 0.276(7) 21266. 0.2753 0.2771
27245.0 2.88462 0.266(7) 21940. 0.2755 0.2772
27255.0 2.88568 0.286(7) 20553. 0.2757 0.2774
27265.0 2.88674 0.274(7) 21414. 0.2759 0.2775
27275.0 2.88780 0.281(7) 20893. 0.2761 0.2776
27285.0 2.88886 0.273(7) 21487. 0.2763 0.2778
27295.0 2.88992 0.290(7) 20250. 0.2765 0.2779
27305.0 2.89098 0.289(7) 20318. 0.2767 0.2781
27315.0 2.89204 0.286(7) 20485. 0.2769 0.2782
27325.0 2.89310 0.285(7) 20526. 0.2771 0.2784
27335.0 2.89416 0.276(7) 21198. 0.2773 0.2786
27345.0 2.89522 0.283(7) 20617. 0.2775 0.2787
27355.0 2.89628 0.272(7) 21391. 0.2777 0.2789
27365.0 2.89734 0.280(7) 20821. 0.2779 0.2791
27375.0 2.89840 0.266(7) 21838. 0.2781 0.2793
27385.0 2.89946 0.280(7) 20699. 0.2783 0.2794
27395.0 2.90052 0.277(7) 20879. 0.2785 0.2796
27405.0 2.90158 0.273(7) 21173. 0.2787 0.2798
27415.0 2.90264 0.287(7) 20156. 0.2790 0.2800
27425.0 2.90370 0.285(7) 20176. 0.2792 0.2802
27435.0 2.90476 0.284(7) 20214. 0.2794 0.2804
27445.0 2.90582 0.287(7) 20014. 0.2796 0.2806
27455.0 2.90688 0.280(7) 20448. 0.2798 0.2808
27465.0 2.90794 0.276(7) 20729. 0.2800 0.2809
27475.0 2.90900 0.282(7) 20351. 0.2802 0.2811
27485.0 2.91006 0.272(7) 21048. 0.2804 0.2813
27495.0 2.91112 0.283(7) 20264. 0.2806 0.2815
27505.0 2.91218 0.286(7) 20067. 0.2809 0.2817
27515.0 2.91324 0.281(7) 20313. 0.2811 0.2819
27525.0 2.91430 0.265(7) 21474. 0.2813 0.2821
27535.0 2.91536 0.271(7) 20974. 0.2815 0.2823
27545.0 2.91642 0.281(7) 20239. 0.2817 0.2826
27555.0 2.91748 0.280(7) 20242. 0.2819 0.2828
27565.0 2.91854 0.280(7) 20280. 0.2822 0.2830
27575.0 2.91960 0.283(7) 20071. 0.2824 0.2832
27585.0 2.92066 0.287(7) 19788. 0.2826 0.2834
27595.0 2.92172 0.288(7) 19660. 0.2828 0.2836
27605.0 2.92278 0.281(7) 20107. 0.2830 0.2838
27615.0 2.92384 0.272(7) 20656. 0.2832 0.2840
27625.0 2.92490 0.285(7) 19766. 0.2835 0.2842
27635.0 2.92596 0.287(7) 19556. 0.2837 0.2844
27645.0 2.92702 0.293(7) 19116. 0.2839 0.2847
27655.0 2.92808 0.283(7) 19798. 0.2841 0.2849
27665.0 2.92914 0.276(7) 20254. 0.2844 0.2851
27675.0 2.93020 0.294(7) 19063. 0.2846 0.2853
27685.0 2.93126 0.287(7) 19466. 0.2848 0.2855
27695.0 2.93232 0.279(7) 19876. 0.2850 0.2858
27705.0 2.93338 0.289(7) 19263. 0.2853 0.2860
27715.0 2.93444 0.281(7) 19722. 0.2855 0.2862
27725.0 2.93550 0.285(7) 19377. 0.2857 0.2864
27735.0 2.93656 0.287(7) 19229. 0.2859 0.2866
27745.0 2.93762 0.297(7) 18572. 0.2862 0.2869
27755.0 2.93868 0.291(7) 18930. 0.2864 0.2871
27765.0 2.93974 0.281(7) 19594. 0.2866 0.2873
27775.0 2.94080 0.282(7) 19482. 0.2868 0.2875
27785.0 2.94186 0.285(7) 19324. 0.2871 0.2878
27795.0 2.94292 0.282(7) 19486. 0.2873 0.2880
27805.0 2.94398 0.279(7) 19680. 0.2875 0.2882
27815.0 2.94504 0.283(7) 19288. 0.2878 0.2885
27825.0 2.94610 0.275(7) 19845. 0.2880 0.2887
27835.0 2.94716 0.296(7) 18400. 0.2882 0.2889
27845.0 2.94822 0.291(7) 18700. 0.2885 0.2892
27855.0 2.94928 0.298(7) 18260. 0.2887 0.2894
27865.0 2.95034 0.301(7) 18019. 0.2889 0.2896
27875.0 2.95140 0.302(7) 17937. 0.2892 0.2898
27885.0 2.95246 0.302(7) 17911. 0.2894 0.2901
27895.0 2.95352 0.296(7) 18176. 0.2896 0.2903
27905.0 2.95458 0.306(8) 17510. 0.2899 0.2906
27915.0 2.95564 0.296(7) 18086. 0.2901 0.2908
27925.0 2.95670 0.295(7) 18123. 0.2903 0.2910
27935.0 2.95776 0.284(7) 18774. 0.2906 0.2913
27945.0 2.95882 0.289(7) 18394. 0.2908 0.2915
27955.0 2.95988 0.287(7) 18443. 0.2910 0.2917
27965.0 2.96094 0.303(8) 17433. 0.2913 0.2920
27975.0 2.96200 0.308(8) 17139. 0.2915 0.2922
27985.0 2.96306 0.312(8) 16921. 0.2918 0.2925
27995.0 2.96412 0.295(7) 17804. 0.2920 0.2927
28005.0 2.96518 0.293(7) 17938. 0.2922 0.2929
28015.0 2.96624 0.309(8) 17106. 0.2925 0.2932
28025.0 2.96730 0.301(8) 17498. 0.2927 0.2934
28035.0 2.96836 0.304(8) 17338. 0.2930 0.2937
28045.0 2.96942 0.286(7) 18374. 0.2932 0.2939
28055.0 2.97048 0.290(7) 18097. 0.2934 0.2941
28065.0 2.97154 0.299(8) 17513. 0.2937 0.2944
28075.0 2.97260 0.310(8) 16888. 0.2939 0.2946
28085.0 2.97366 0.299(8) 17470. 0.2942 0.2949
28095.0 2.97472 0.298(8) 17548. 0.2944 0.2951
28105.0 2.97578 0.298(8) 17494. 0.2946 0.2954
28115.0 2.97684 0.305(8) 17146. 0.2949 0.2956
28125.0 2.97790 0.310(8) 16822. 0.2951 0.2959
28135.0 2.97896 0.289(7) 17963. 0.2954 0.2961
28145.0 2.98002 0.306(8) 17001. 0.2956 0.2964
28155.0 2.98108 0.329(8) 15852. 0.2959 0.2966
28165.0 2.98214 0.304(8) 17101. 0.2961 0.2968
28175.0 2.98320 0.309(8) 16816. 0.2963 0.2971
28185.0 2.98426 0.307(8) 16919. 0.2966 0.2973
28195.0 2.98532 0.299(8) 17350. 0.2968 0.2976
28205.0 2.98638 0.309(8) 16808. 0.2971 0.2978
28215.0 2.98744 0.298(8) 17347. 0.2973 0.2981
28225.0 2.98850 0.309(8) 16721. 0.2976 0.2983
28235.0 2.98956 0.291(8) 17764. 0.2978 0.2986
28245.0 2.99062 0.313(8) 16511. 0.2980 0.2988
28255.0 2.99168 0.294(8) 17490. 0.2983 0.2991
28265.0 2.99274 0.309(8) 16715. 0.2985 0.2993
28275.0 2.99380 0.310(8) 16596. 0.2988 0.2996
28285.0 2.99486 0.308(8) 16692. 0.2990 0.2998
28295.0 2.99592 0.310(8) 16598. 0.2993 0.3001
28305.0 2.99698 0.317(8) 16284. 0.2995 0.3004
28315.0 2.99804 0.313(8) 16489. 0.2998 0.3006
28325.0 2.99910 0.320(8) 16211. 0.3000 0.3009
28335.0 3.00016 0.310(8) 16666. 0.3002 0.3011
28345.0 3.00122 0.302(8) 17098. 0.3005 0.3014
28355.0 3.00228 0.311(8) 16608. 0.3007 0.3016
28365.0 3.00334 0.319(8) 16219. 0.3010 0.3019
28375.0 3.00440 0.303(8) 17061. 0.3012 0.3021
28385.0 3.00546 0.297(8) 17407. 0.3015 0.3024
28395.0 3.00652 0.314(8) 16489. 0.3017 0.3026
28405.0 3.00758 0.317(8) 16353. 0.3020 0.3029
28415.0 3.00864 0.304(8) 17055. 0.3022 0.3031
28425.0 3.00970 0.285(7) 18176. 0.3024 0.3034
28435.0 3.01076 0.318(8) 16268. 0.3027 0.3037
28445.0 3.01182 0.298(8) 17354. 0.3029 0.3039
28455.0 3.01288 0.309(8) 16776. 0.3032 0.3042
28465.0 3.01394 0.305(8) 16913. 0.3034 0.3044
28475.0 3.01500 0.316(8) 16419. 0.3037 0.3047
28485.0 3.01606 0.298(8) 17332. 0.3039 0.3049
28495.0 3.01712 0.297(8) 17332. 0.3042 0.3052
28505.0 3.01818 0.310(8) 16658. 0.3044 0.3054
28515.0 3.01924 0.300(8) 17176. 0.3046 0.3057
28525.0 3.02030 0.314(8) 16403. 0.3049 0.3060
28535.0 3.02136 0.312(8) 16551. 0.3051 0.3062
28545.0 3.02242 0.291(8) 17710. 0.3054 0.3065
28555.0 3.02348 0.311(8) 16580. 0.3056 0.3067
28565.0 3.02454 0.299(8) 17182. 0.3058 0.3070
28575.0 3.02560 0.310(8) 16594. 0.3061 0.3072
28585.0 3.02666 0.280(7) 18265. 0.3063 0.3075
28595.0 3.02772 0.310(8) 16582. 0.3066 0.3078
28605.0 3.02878 0.298(8) 17195. 0.3068 0.3080
28615.0 3.02984 0.322(8) 15910. 0.3071 0.3083
28625.0 3.03091 0.300(8) 17066. 0.3073 0.3085
28635.0 3.03197 0.297(8) 17164. 0.3075 0.3088
28645.0 3.03303 0.314(8) 16302. 0.3078 0.3090
28655.0 3.03409 0.299(8) 17081. 0.3080 0.3093
28665.0 3.03515 0.305(8) 16785. 0.3083 0.3096
28675.0 3.03621 0.295(8) 17316. 0.3085 0.3098
28685.0 3.03727 0.315(8) 16204. 0.3087 0.3101
28695.0 3.03833 0.307(8) 16604. 0.3090 0.3103
28705.0 3.03939 0.298(8) 17087. 0.3092 0.3106
28715.0 3.04045 0.305(8) 16654. 0.3094 0.3109
28725.0 3.04151 0.312(8) 16273. 0.3097 0.3111
28735.0 3.04257 0.289(8) 17477. 0.3099 0.3114
28745.0 3.04363 0.304(8) 16636. 0.3101 0.3116
28755.0 3.04469 0.301(8) 16750. 0.3104 0.3119
28765.0 3.04575 0.320(8) 15767. 0.3106 0.3122
28775.0 3.04681 0.307(8) 16388. 0.3108 0.3124
28785.0 3.04787 0.302(8) 16622. 0.3111 0.3127
28795.0 3.04893 0.309(8) 16248. 0.3113 0.3129
28805.0 3.04999 0.322(8) 15579. 0.3115 0.3132
28815.0 3.05105 0.324(8) 15424. 0.3118 0.3135
28825.0 3.05211 0.318(8) 15690. 0.3120 0.3137
28835.0 3.05317 0.308(8) 16168. 0.3122 0.3140
28845.0 3.05423 0.320(8) 15546. 0.3125 0.3143
28855.0 3.05529 0.309(8) 16079. 0.3127 0.3145
28865.0 3.05635 0.318(8) 15589. 0.3129 0.3148
28875.0 3.05741 0.303(8) 16323. 0.3131 0.3150
28885.0 3.05847 0.315(8) 15660. 0.3134 0.3153
28895.0 3.05953 0.329(8) 14971. 0.3136 0.3156
28905.0 3.06059 0.325(8) 15143. 0.3138 0.3158
28915.0 3.06165 0.329(8) 14990. 0.3140 0.3161
28925.0 3.06271 0.313(8) 15736. 0.3143 0.3164
28935.0 3.06377 0.321(8) 15360. 0.3145 0.3166
28945.0 3.06483 0.317(8) 15571. 0.3147 0.3169
28955.0 3.06589 0.310(8) 15871. 0.3149 0.3172
28965.0 3.06695 0.322(8) 15313. 0.3152 0.3175
28975.0 3.06801 0.315(8) 15687. 0.3154 0.3177
28985.0 3.06907 0.319(8) 15547. 0.3156 0.3180
28995.0 3.07013 0.312(8) 15836. 0.3158 0.3183
29005.0 3.07119 0.321(8) 15399. 0.3160 0.3186
29015.0 3.07225 0.324(8) 15182. 0.3162 0.3188
29025.0 3.07331 0.329(8) 14938. 0.3165 0.3190
29035.0 3.07437 0.322(8) 15266. 0.3167 0.3193
29045.0 3.07543 0.333(8) 14770. 0.3169 0.3196
29055.0 3.07649 0.317(8) 15464. 0.3171 0.3199
29065.0 3.07755 0.330(8) 14873. 0.3173 0.3202
29075.0 3.07861 0.319(8) 15327. 0.3175 0.3205
29085.0 3.07967 0.318(8) 15391. 0.3177 0.3208
29095.0 3.08073 0.326(8) 14995. 0.3179 0.3211
29105.0 3.08179 0.327(8) 14926. 0.3181 0.3213
29115.0 3.08285 0.329(8) 14773. 0.3184 0.3216
29125.0 3.08391 0.311(8) 15621. 0.3186 0.3219
29135.0 3.08497 0.310(8) 15705. 0.3188 0.3222
29145.0 3.08603 0.319(8) 15280. 0.3190 0.3226
29155.0 3.08709 0.318(8) 15337. 0.3192 0.3229
29165.0 3.08815 0.327(8) 14965. 0.3194 0.3232
29175.0 3.08921 0.308(8) 15829. 0.3196 0.3235
29185.0 3.09027 0.338(8) 14497. 0.3198 0.3238
29195.0 3.09133 0.310(8) 15743. 0.3200 0.3242
29205.0 3.09239 0.318(8) 15310. 0.3202 0.3245
29215.0 3.09345 0.318(8) 15308. 0.3204 0.3249
29225.0 3.09451 0.331(8) 14738. 0.3206 0.3252
29235.0 3.09557 0.328(8) 14780. 0.3208 0.3256
29245.0 3.09663 0.325(8) 14923. 0.3209 0.3260
29255.0 3.09769 0.348(8) 13962. 0.3211 0.3264
29265.0 3.09875 0.323(8) 14976. 0.3213 0.3268
29275.0 3.09981 0.309(8) 15606. 0.3215 0.3273
29285.0 3.10087 0.322(8) 15010. 0.3217 0.3278
29295.0 3.10193 0.328(8) 14713. 0.3219 0.3283
29305.0 3.10299 0.325(8) 14851. 0.3221 0.3288
29315.0 3.10405 0.342(8) 14153. 0.3223 0.3294
29325.0 3.10511 0.335(8) 14348. 0.3224 0.3301
29335.0 3.10617 0.331(8) 14530. 0.3226 0.3308
29345.0 3.10723 0.332(8) 14464. 0.3228 0.3316
29355.0 3.10829 0.325(8) 14810. 0.3230 0.3324
29365.0 3.10935 0.337(8) 14333. 0.3232 0.3334
29375.0 3.11041 0.332(8) 14503. 0.3233 0.3344
29385.0 3.11148 0.343(8) 14027. 0.3235 0.3356
29395.0 3.11254 0.348(8) 13842. 0.3237 0.3370
29405.0 3.11360 0.347(8) 13866. 0.3239 0.3385
29415.0 3.11466 0.335(8) 14354. 0.3240 0.3402
29425.0 3.11572 0.327(8) 14689. 0.3242 0.3421
29435.0 3.11678 0.345(8) 13949. 0.3244 0.3442
29445.0 3.11784 0.349(8) 13847. 0.3245 0.3466
29455.0 3.11890 0.343(8) 14057. 0.3247 0.3492
29465.0 3.11996 0.348(9) 13812. 0.3249 0.3522
29475.0 3.12102 0.355(9) 13559. 0.3250 0.3555
29485.0 3.12208 0.360(9) 13352. 0.3252 0.3591
29495.0 3.12314 0.350(9) 13701. 0.3253 0.3631
29505.0 3.12420 0.389(9) 12347. 0.3255 0.3676
29515.0 3.12526 0.364(9) 13196. 0.3256 0.3724
29525.0 3.12632 0.353(9) 13561. 0.3258 0.3777
29535.0 3.12738 0.360(9) 13359. 0.3260 0.3834
29545.0 3.12844 0.373(9) 12860. 0.3261 0.3896
29555.0 3.12950 0.384(9) 12444. 0.3263 0.3963
29565.0 3.13056 0.405(9) 11782. 0.3264 0.4034
29575.0 3.13162 0.403(9) 11863. 0.3265 0.4110
29585.0 3.13268 0.414(9) 11518. 0.3267 0.4190
29595.0 3.13374 0.419(9) 11355. 0.3268 0.4274
29605.0 3.13480 0.430(10) 11067. 0.3270 0.4361
29615.0 3.13586 0.431(10) 11020. 0.3271 0.4452
29625.0 3.13692 0.431(10) 11013. 0.3273 0.4546
29635.0 3.13798 0.455(10) 10429. 0.3274 0.4641
29645.0 3.13904 0.462(10) 10263. 0.3275 0.4738
29655.0 3.14010 0.474(10) 9958. 0.3277 0.4836
29665.0 3.14116 0.479(10) 9844. 0.3278 0.4933
29675.0 3.14222 0.473(10) 9918. 0.3279 0.5030
29685.0 3.14328 0.504(10) 9306. 0.3281 0.5123
29695.0 3.14434 0.509(10) 9214. 0.3282 0.5214
29705.0 3.14540 0.517(11) 9027. 0.3283 0.5299
29715.0 3.14646 0.509(10) 9177. 0.3284 0.5379
29725.0 3.14752 0.520(11) 8976. 0.3286 0.5452
29735.0 3.14858 0.544(11) 8562. 0.3287 0.5517
29745.0 3.14964 0.547(11) 8506. 0.3288 0.5572
29755.0 3.15070 0.550(11) 8447. 0.3289 0.5618
29765.0 3.15176 0.561(11) 8244. 0.3290 0.5653
29775.0 3.15282 0.547(11) 8434. 0.3291 0.5676
29785.0 3.15388 0.554(11) 8309. 0.3292 0.5688
29795.0 3.15494 0.538(11) 8558. 0.3294 0.5688
29805.0 3.15600 0.544(11) 8465. 0.3295 0.5676
29815.0 3.15706 0.547(11) 8400. 0.3296 0.5652
29825.0 3.15812 0.531(11) 8609. 0.3297 0.5618
29835.0 3.15918 0.542(11) 8415. 0.3298 0.5574
29845.0 3.16024 0.548(11) 8306. 0.3299 0.5520
29855.0 3.16130 0.527(11) 8615. 0.3300 0.5458
29865.0 3.16236 0.510(11) 8896. 0.3301 0.5389
29875.0 3.16342 0.493(10) 9159. 0.3302 0.5313
29885.0 3.16448 0.493(10) 9143. 0.3303 0.5232
29895.0 3.16554 0.516(11) 8679. 0.3304 0.5146
29905.0 3.16660 0.478(10) 9344. 0.3305 0.5058
29915.0 3.16766 0.466(10) 9591. 0.3305 0.4967
29925.0 3.16873 0.446(10) 9982. 0.3306 0.4875
29935.0 3.16979 0.479(10) 9271. 0.3307 0.4783
29945.0 3.17085 0.462(10) 9611. 0.3308 0.4691
29955.0 3.17191 0.444(10) 9963. 0.3309 0.4600
29965.0 3.17297 0.428(10) 10313. 0.3310 0.4511
29975.0 3.17403 0.435(10) 10142. 0.3310 0.4425
29985.0 3.17509 0.427(10) 10307. 0.3311 0.4342
29995.0 3.17615 0.417(10) 10526. 0.3312 0.4262
30005.0 3.17721 0.397(10) 11014. 0.3313 0.4186
30015.0 3.17827 0.402(10) 10830. 0.3313 0.4114
30025.0 3.17933 0.385(9) 11297. 0.3314 0.4046
30035.0 3.18039 0.389(9) 11172. 0.3315 0.3982
30045.0 3.18145 0.395(10) 10930. 0.3315 0.3923
30055.0 3.18251 0.360(9) 11918. 0.3316 0.3868
30065.0 3.18357 0.384(9) 11166. 0.3317 0.3817
30075.0 3.18463 0.371(9) 11536. 0.3317 0.3770
30085.0 3.18569 0.368(9) 11613. 0.3318 0.3727
30095.0 3.18675 0.376(9) 11335. 0.3318 0.3688
30105.0 3.18781 0.380(9) 11194. 0.3319 0.3653
30115.0 3.18887 0.374(9) 11378. 0.3319 0.3621
30125.0 3.18993 0.369(9) 11487. 0.3320 0.3592
30135.0 3.19099 0.355(9) 11907. 0.3320 0.3566
30145.0 3.19205 0.351(9) 11994. 0.3321 0.3543
30155.0 3.19311 0.366(9) 11448. 0.3321 0.3522
30165.0 3.19417 0.361(9) 11633. 0.3322 0.3504
30175.0 3.19523 0.369(9) 11369. 0.3322 0.3488
30185.0 3.19629 0.375(9) 11185. 0.3322 0.3473
30195.0 3.19735 0.356(9) 11773. 0.3323 0.3460
30205.0 3.19841 0.367(9) 11404. 0.3323 0.3449
30215.0 3.19947 0.348(9) 12009. 0.3323 0.3439
30225.0 3.20053 0.386(10) 10820. 0.3324 0.3430
30235.0 3.20159 0.355(9) 11749. 0.3324 0.3423
30245.0 3.20265 0.353(9) 11789. 0.3324 0.3416
30255.0 3.20371 0.351(9) 11809. 0.3325 0.3410
30265.0 3.20477 0.362(9) 11482. 0.3325 0.3404
30275.0 3.20583 0.356(9) 11628. 0.3325 0.3400
30285.0 3.20689 0.363(9) 11404. 0.3325 0.3395
30295.0 3.20795 0.344(9) 11993. 0.3326 0.3392
30305.0 3.20901 0.373(10) 11062. 0.3326 0.3388
30315.0 3.21007 0.351(9) 11708. 0.3326 0.3385
30325.0 3.21113 0.341(9) 12052. 0.3326 0.3383
30335.0 3.21219 0.370(9) 11158. 0.3326 0.3380
30345.0 3.21325 0.343(9) 11997. 0.3326 0.3378
30355.0 3.21431 0.341(9) 12053. 0.3326 0.3376
30365.0 3.21537 0.361(9) 11405. 0.3326 0.3374
30375.0 3.21643 0.347(9) 11849. 0.3326 0.3372
30385.0 3.21749 0.359(9) 11432. 0.3326 0.3370
30395.0 3.21856 0.358(9) 11477. 0.3326 0.3369
30405.0 3.21962 0.370(9) 11105. 0.3326 0.3367
30415.0 3.22068 0.340(9) 12014. 0.3326 0.3366
30425.0 3.22174 0.348(9) 11715. 0.3326 0.3365
30435.0 3.22280 0.340(9) 11977. 0.3326 0.3363
30445.0 3.22386 0.360(9) 11302. 0.3326 0.3362
30455.0 3.22492 0.355(9) 11458. 0.3326 0.3361
30465.0 3.22598 0.338(9) 12081. 0.3326 0.3360
30475.0 3.22704 0.350(9) 11682. 0.3326 0.3359
30485.0 3.22810 0.326(9) 12517. 0.3326 0.3358
30495.0 3.22916 0.360(9) 11369. 0.3326 0.3356
30505.0 3.23022 0.338(9) 12096. 0.3325 0.3355
30515.0 3.23128 0.346(9) 11783. 0.3325 0.3354
30525.0 3.23234 0.334(9) 12201. 0.3325 0.3353
30535.0 3.23340 0.335(9) 12160. 0.3325 0.3352
30545.0 3.23446 0.334(9) 12127. 0.3324 0.3351
30555.0 3.23552 0.330(9) 12291. 0.3324 0.3351
30565.0 3.23658 0.340(9) 11932. 0.3324 0.3350
30575.0 3.23764 0.345(9) 11750. 0.3324 0.3349
30585.0 3.23870 0.352(9) 11491. 0.3323 0.3348
30595.0 3.23976 0.341(9) 11866. 0.3323 0.3347
30605.0 3.24082 0.348(9) 11643. 0.3323 0.3346
30615.0 3.24188 0.348(9) 11614. 0.3322 0.3345
30625.0 3.24294 0.337(9) 11966. 0.3322 0.3344
30635.0 3.24400 0.341(9) 11849. 0.3321 0.3343
30645.0 3.24506 0.352(9) 11465. 0.3321 0.3342
30655.0 3.24612 0.342(9) 11781. 0.3321 0.3341
30665.0 3.24718 0.338(9) 11893. 0.3320 0.3340
30675.0 3.24824 0.347(9) 11575. 0.3320 0.3339
30685.0 3.24930 0.336(9) 11945. 0.3319 0.3339
30695.0 3.25036 0.352(9) 11418. 0.3319 0.3338
30705.0 3.25142 0.343(9) 11720. 0.3318 0.3337
30715.0 3.25248 0.338(9) 11898. 0.3318 0.3336
30725.0 3.25354 0.347(9) 11621. 0.3317 0.3335
30735.0 3.25460 0.332(9) 12082. 0.3317 0.3334
30745.0 3.25566 0.337(9) 11891. 0.3316 0.3333
30755.0 3.25672 0.329(9) 12187. 0.3315 0.3332
30765.0 3.25778 0.335(9) 11963. 0.3315 0.3331
30775.0 3.25884 0.350(9) 11460. 0.3314 0.3330
30785.0 3.25990 0.317(9) 12582. 0.3313 0.3329
30795.0 3.26097 0.327(9) 12231. 0.3313 0.3328
30805.0 3.26203 0.330(9) 12087. 0.3312 0.3327
30815.0 3.26309 0.338(9) 11828. 0.3311 0.3326
30825.0 3.26415 0.329(9) 12178. 0.3311 0.3325
30835.0 3.26521 0.328(9) 12227. 0.3310 0.3324
30845.0 3.26627 0.326(9) 12272. 0.3309 0.3323
30855.0 3.26733 0.328(9) 12213. 0.3309 0.3322
30865.0 3.26839 0.339(9) 11818. 0.3308 0.3321
30875.0 3.26945 0.334(9) 11985. 0.3307 0.3320
30885.0 3.27051 0.329(9) 12175. 0.3306 0.3319
30895.0 3.27157 0.329(9) 12222. 0.3305 0.3318
30905.0 3.27263 0.322(9) 12524. 0.3305 0.3317
30915.0 3.27369 0.335(9) 12036. 0.3304 0.3316
30925.0 3.27475 0.339(9) 11924. 0.3303 0.3315
30935.0 3.27581 0.337(9) 11992. 0.3302 0.3314
30945.0 3.27687 0.324(9) 12449. 0.3301 0.3313
30955.0 3.27793 0.328(9) 12334. 0.3300 0.3312
30965.0 3.27899 0.337(9) 11999. 0.3299 0.3311
30975.0 3.28005 0.324(9) 12423. 0.3298 0.3310
30985.0 3.28111 0.336(9) 12014. 0.3297 0.3308
30995.0 3.28217 0.328(9) 12261. 0.3297 0.3307
31005.0 3.28323 0.329(9) 12203. 0.3296 0.3306
31015.0 3.28429 0.330(9) 12162. 0.3295 0.3305
31025.0 3.28535 0.316(9) 12684. 0.3294 0.3304
31035.0 3.28641 0.335(9) 11952. 0.3293 0.3303
31045.0 3.28747 0.331(9) 12077. 0.3292 0.3301
31055.0 3.28853 0.344(9) 11617. 0.3290 0.3300
31065.0 3.28959 0.323(9) 12325. 0.3289 0.3299
31075.0 3.29065 0.324(9) 12291. 0.3288 0.3298
31085.0 3.29171 0.327(9) 12155. 0.3287 0.3297
31095.0 3.29277 0.321(9) 12356. 0.3286 0.3295
31105.0 3.29383 0.322(9) 12294. 0.3285 0.3294
31115.0 3.29489 0.337(9) 11754. 0.3284 0.3293
31125.0 3.29595 0.323(9) 12246. 0.3283 0.3292
31135.0 3.29701 0.345(9) 11489. 0.3282 0.3290
31145.0 3.29807 0.319(9) 12392. 0.3280 0.3289
31155.0 3.29914 0.326(9) 12120. 0.3279 0.3288
31165.0 3.30020 0.328(9) 12003. 0.3278 0.3286
31175.0 3.30126 0.329(9) 11939. 0.3277 0.3285
31185.0 3.30232 0.323(9) 12131. 0.3275 0.3284
31195.0 3.30338 0.345(9) 11363. 0.3274 0.3282
31205.0 3.30444 0.324(9) 11999. 0.3273 0.3281
31215.0 3.30550 0.312(9) 12447. 0.3272 0.3280
31225.0 3.30656 0.311(9) 12431. 0.3270 0.3278
31235.0 3.30762 0.306(9) 12621. 0.3269 0.3277
31245.0 3.30868 0.330(9) 11706. 0.3268 0.3275
31255.0 3.30974 0.337(9) 11430. 0.3266 0.3274
31265.0 3.31080 0.342(9) 11218. 0.3265 0.3272
31275.0 3.31186 0.330(9) 11607. 0.3263 0.3271
31285.0 3.31292 0.310(9) 12290. 0.3262 0.3269
31295.0 3.31398 0.337(9) 11303. 0.3261 0.3268
31305.0 3.31504 0.316(9) 11991. 0.3259 0.3266
31315.0 3.31610 0.340(9) 11164. 0.3258 0.3265
31325.0 3.31716 0.327(9) 11591. 0.3256 0.3263
31335.0 3.31822 0.328(9) 11538. 0.3255 0.3261
31345.0 3.31928 0.322(9) 11752. 0.3253 0.3260
31355.0 3.32034 0.326(9) 11634. 0.3251 0.3258
31365.0 3.32140 0.319(9) 11837. 0.3250 0.3257
31375.0 3.32246 0.310(9) 12187. 0.3248 0.3255
31385.0 3.32352 0.318(9) 11913. 0.3247 0.3253
31395.0 3.32458 0.307(9) 12308. 0.3245 0.3251
31405.0 3.32564 0.314(9) 12048. 0.3243 0.3250
31415.0 3.32670 0.335(9) 11285. 0.3242 0.3248
31425.0 3.32776 0.327(9) 11532. 0.3240 0.3246
31435.0 3.32882 0.340(9) 11123. 0.3238 0.3244
31445.0 3.32988 0.315(9) 11974. 0.3236 0.3242
31455.0 3.33094 0.322(9) 11763. 0.3235 0.3241
31465.0 3.33200 0.313(9) 12067. 0.3233 0.3239
31475.0 3.33306 0.321(9) 11794. 0.3231 0.3237
31485.0 3.33413 0.309(9) 12210. 0.3229 0.3235
31495.0 3.33519 0.320(9) 11778. 0.3227 0.3233
31505.0 3.33625 0.326(9) 11542. 0.3225 0.3231
31515.0 3.33731 0.324(9) 11573. 0.3223 0.3229
31525.0 3.33837 0.319(9) 11763. 0.3221 0.3227
31535.0 3.33943 0.324(9) 11541. 0.3219 0.3225
31545.0 3.34049 0.325(9) 11529. 0.3217 0.3223
31555.0 3.34155 0.306(9) 12188. 0.3215 0.3221
31565.0 3.34261 0.307(9) 12093. 0.3213 0.3219
31575.0 3.34367 0.315(9) 11775. 0.3211 0.3216
31585.0 3.34473 0.315(9) 11668. 0.3209 0.3214
31595.0 3.34579 0.324(9) 11359. 0.3207 0.3212
31605.0 3.34685 0.314(9) 11689. 0.3204 0.3210
31615.0 3.34791 0.324(9) 11273. 0.3202 0.3207
31625.0 3.34897 0.318(9) 11469. 0.3200 0.3206
31635.0 3.35003 0.309(9) 11745. 0.3198 0.3203
31645.0 3.35109 0.303(9) 11994. 0.3195 0.3201
31655.0 3.35215 0.318(9) 11469. 0.3193 0.3198
31665.0 3.35321 0.310(9) 11751. 0.3190 0.3196
31675.0 3.35427 0.322(9) 11317. 0.3188 0.3193
31685.0 3.35533 0.307(9) 11819. 0.3185 0.3191
31695.0 3.35639 0.327(9) 11097. 0.3183 0.3188
31705.0 3.35745 0.323(9) 11210. 0.3180 0.3185
31715.0 3.35851 0.311(9) 11553. 0.3177 0.3183
31725.0 3.35957 0.329(10) 10930. 0.3175 0.3180
31735.0 3.36063 0.315(9) 11373. 0.3172 0.3177
31745.0 3.36169 0.313(9) 11423. 0.3169 0.3174
31755.0 3.36275 0.318(9) 11197. 0.3166 0.3171
31765.0 3.36381 0.324(10) 10967. 0.3163 0.3168
31775.0 3.36487 0.321(10) 11053. 0.3160 0.3165
31785.0 3.36594 0.306(9) 11552. 0.3157 0.3162
31795.0 3.36700 0.311(9) 11365. 0.3154 0.3159
31805.0 3.36806 0.321(10) 10944. 0.3151 0.3156
31815.0 3.36912 0.322(10) 10910. 0.3148 0.3153
31825.0 3.37018 0.322(10) 10893. 0.3145 0.3150
31835.0 3.37124 0.327(10) 10703. 0.3141 0.3146
31845.0 3.37230 0.319(10) 10939. 0.3138 0.3143
31855.0 3.37336 0.312(9) 11188. 0.3135 0.3139
31865.0 3.37442 0.305(9) 11406. 0.3131 0.3136
31875.0 3.37548 0.331(10) 10507. 0.3127 0.3132
31885.0 3.37654 0.305(9) 11358. 0.3124 0.3129
31895.0 3.37760 0.313(10) 11028. 0.3120 0.3125
31905.0 3.37866 0.327(10) 10585. 0.3116 0.3121
31915.0 3.37972 0.308(9) 11227. 0.3112 0.3117
31925.0 3.38078 0.312(10) 11062. 0.3108 0.3113
31935.0 3.38184 0.328(10) 10530. 0.3104 0.3109
31945.0 3.38290 0.309(9) 11118. 0.3100 0.3105
31955.0 3.38396 0.314(10) 10884. 0.3096 0.3101
31965.0 3.38502 0.295(9) 11586. 0.3092 0.3096
31975.0 3.38608 0.328(10) 10426. 0.3087 0.3092
31985.0 3.38714 0.313(10) 10936. 0.3083 0.3088
31995.0 3.38820 0.302(9) 11283. 0.3078 0.3083
32005.0 3.38926 0.311(10) 10967. 0.3074 0.3078
32015.0 3.39032 0.303(9) 11203. 0.3069 0.3074
32025.0 3.39138 0.299(9) 11292. 0.3064 0.3069
32035.0 3.39244 0.298(9) 11370. 0.3059 0.3064
32045.0 3.39350 0.318(10) 10725. 0.3054 0.3059
32055.0 3.39456 0.306(9) 11096. 0.3049 0.3054
32065.0 3.39562 0.338(10) 10081. 0.3044 0.3048
32075.0 3.39669 0.303(9) 11148. 0.3038 0.3043
32085.0 3.39775 0.296(9) 11387. 0.3033 0.3037
32095.0 3.39881 0.304(10) 11055. 0.3027 0.3032
32105.0 . 0.307(10) . . .
32115.0 . 0.328(10) . . .
32125.0 . 0.323(10) . . .
32135.0 . 0.299(9) . . .
32145.0 . 0.315(10) . . .
32155.0 . 0.315(10) . . .
32165.0 . 0.312(10) . . .
32175.0 . 0.307(10) . . .
32185.0 . 0.296(9) . . .
32195.0 . 0.312(10) . . .
32205.0 . 0.318(10) . . .
32215.0 . 0.297(9) . . .
32225.0 . 0.320(10) . . .
32235.0 . 0.328(10) . . .
32245.0 . 0.319(10) . . .
32255.0 . 0.303(10) . . .
32265.0 . 0.312(10) . . .
32275.0 . 0.319(10) . . .
32285.0 . 0.297(10) . . .
32295.0 . 0.303(10) . . .
32305.0 . 0.328(10) . . .
32315.0 . 0.297(10) . . .
32325.0 . 0.314(10) . . .
32335.0 . 0.309(10) . . .
32345.0 . 0.313(10) . . .
32355.0 . 0.290(9) . . .
32365.0 . 0.302(10) . . .
32375.0 . 0.302(10) . . .
32385.0 . 0.311(10) . . .
32395.0 . 0.282(9) . . .
32405.0 . 0.311(10) . . .
32415.0 . 0.303(10) . . .
32425.0 . 0.292(10) . . .
32435.0 . 0.305(10) . . .
32445.0 . 0.298(10) . . .
32455.0 . 0.304(10) . . .
32465.0 . 0.310(10) . . .
32475.0 . 0.310(10) . . .
32485.0 . 0.295(10) . . .
32495.0 . 0.317(10) . . .
32505.0 . 0.312(10) . . .
32515.0 . 0.296(10) . . .
32525.0 . 0.320(10) . . .
32535.0 . 0.314(10) . . .
32545.0 . 0.285(9) . . .
32555.0 . 0.309(10) . . .
32565.0 . 0.303(10) . . .
32575.0 . 0.330(10) . . .
32585.0 . 0.302(10) . . .
32595.0 . 0.309(10) . . .
32605.0 . 0.309(10) . . .
32615.0 . 0.313(10) . . .
32625.0 . 0.320(10) . . .
32635.0 . 0.312(10) . . .
32645.0 . 0.301(10) . . .
32655.0 . 0.306(10) . . .
32665.0 . 0.303(10) . . .
32675.0 . 0.306(10) . . .
32685.0 . 0.298(10) . . .
32695.0 . 0.287(10) . . .
32705.0 . 0.301(10) . . .
32715.0 . 0.304(10) . . .
32725.0 . 0.321(10) . . .
32735.0 . 0.310(10) . . .
32745.0 . 0.308(10) . . .
32755.0 . 0.300(10) . . .
32765.0 . 0.286(10) . . .
32775.0 . 0.301(10) . . .
32785.0 . 0.303(10) . . .
32795.0 . 0.307(10) . . .
32805.0 . 0.295(10) . . .
32815.0 . 0.313(10) . . .
32825.0 . 0.298(10) . . .
32835.0 . 0.309(10) . . .
32845.0 . 0.302(10) . . .
32855.0 . 0.304(10) . . .
32865.0 . 0.285(10) . . .
32875.0 . 0.308(10) . . .
32885.0 . 0.293(10) . . .
32895.0 . 0.298(10) . . .
32905.0 . 0.295(10) . . .
32915.0 . 0.313(10) . . .
32925.0 . 0.310(10) . . .
32935.0 . 0.296(10) . . .
32945.0 . 0.290(10) . . .
32955.0 . 0.287(10) . . .
32965.0 . 0.294(10) . . .
32975.0 . 0.304(10) . . .
32985.0 . 0.280(10) . . .
32995.0 . 0.303(10) . . .
33005.0 . 0.283(10) . . .
33015.0 . 0.295(10) . . .
33025.0 . 0.285(10) . . .
33035.0 . 0.306(10) . . .
33045.0 . 0.313(10) . . .
33055.0 . 0.281(10) . . .
33065.0 . 0.292(10) . . .
33075.0 . 0.289(10) . . .
33085.0 . 0.296(10) . . .
33095.0 . 0.296(10) . . .
33105.0 . 0.283(10) . . .
33115.0 . 0.304(10) . . .
33125.0 . 0.295(10) . . .
33135.0 . 0.278(10) . . .
33145.0 . 0.281(10) . . .
33155.0 . 0.287(10) . . .
33165.0 . 0.265(10) . . .
33175.0 . 0.305(10) . . .
33185.0 . 0.287(10) . . .
33195.0 . 0.300(10) . . .
33205.0 . 0.303(10) . . .
33215.0 . 0.280(10) . . .
33225.0 . 0.275(10) . . .
33235.0 . 0.299(10) . . .
33245.0 . 0.290(10) . . .
33255.0 . 0.297(10) . . .
33265.0 . 0.291(10) . . .
33275.0 . 0.283(10) . . .
33285.0 . 0.289(10) . . .
33295.0 . 0.281(10) . . .
33305.0 . 0.287(10) . . .
33315.0 . 0.277(10) . . .
33325.0 . 0.282(10) . . .
33335.0 . 0.282(10) . . .
33345.0 . 0.291(10) . . .
33355.0 . 0.286(10) . . .
33365.0 . 0.268(10) . . .
33375.0 . 0.282(10) . . .
33385.0 . 0.276(10) . . .
33395.0 . 0.286(10) . . .
33405.0 . 0.280(10) . . .
33415.0 . 0.285(10) . . .
33425.0 . 0.278(10) . . .
33435.0 . 0.279(10) . . .
33445.0 . 0.294(10) . . .
33455.0 . 0.268(10) . . .
33465.0 . 0.276(10) . . .
33475.0 . 0.295(10) . . .
33485.0 . 0.267(10) . . .
33495.0 . 0.292(10) . . .
33505.0 . 0.280(10) . . .
33515.0 . 0.270(10) . . .
33525.0 . 0.282(10) . . .
33535.0 . 0.271(10) . . .
33545.0 . 0.280(10) . . .
33555.0 . 0.288(10) . . .
33565.0 . 0.282(10) . . .
33575.0 . 0.290(10) . . .
33585.0 . 0.279(10) . . .
33595.0 . 0.259(10) . . .
33605.0 . 0.279(10) . . .
33615.0 . 0.257(10) . . .
33625.0 . 0.268(10) . . .
33635.0 . 0.251(10) . . .
33645.0 . 0.270(10) . . .
33655.0 . 0.261(10) . . .
33665.0 . 0.254(10) . . .
33675.0 . 0.269(10) . . .
33685.0 . 0.283(10) . . .
33695.0 . 0.280(10) . . .
33705.0 . 0.276(10) . . .
33715.0 . 0.279(10) . . .
33725.0 . 0.276(10) . . .
33735.0 . 0.275(10) . . .
33745.0 . 0.283(10) . . .
33755.0 . 0.291(11) . . .
33765.0 . 0.273(10) . . .
33775.0 . 0.280(10) . . .
33785.0 . 0.270(10) . . .
33795.0 . 0.268(10) . . .
33805.0 . 0.274(10) . . .
33815.0 . 0.296(11) . . .
33825.0 . 0.275(10) . . .
33835.0 . 0.263(10) . . .
33845.0 . 0.266(10) . . .
33855.0 . 0.266(10) . . .
33865.0 . 0.264(10) . . .
33875.0 . 0.280(10) . . .
33885.0 . 0.282(10) . . .
33895.0 . 0.271(10) . . .
33905.0 . 0.280(10) . . .
33915.0 . 0.304(11) . . .
33925.0 . 0.271(10) . . .
33935.0 . 0.268(10) . . .
33945.0 . 0.277(10) . . .
33955.0 . 0.270(10) . . .
33965.0 . 0.281(11) . . .
33975.0 . 0.277(10) . . .
33985.0 . 0.283(11) . . .
33995.0 . 0.253(10) . . .
34005.0 . 0.282(11) . . .
34015.0 . 0.275(10) . . .
34025.0 . 0.303(11) . . .
34035.0 . 0.271(10) . . .
34045.0 . 0.285(11) . . .
34055.0 . 0.274(10) . . .
34065.0 . 0.297(11) . . .
34075.0 . 0.287(11) . . .
34085.0 . 0.274(10) . . .
34095.0 . 0.293(11) . . .
34105.0 . 0.305(11) . . .
34115.0 . 0.280(11) . . .
34125.0 . 0.285(11) . . .
34135.0 . 0.281(11) . . .
34145.0 . 0.271(10) . . .
34155.0 . 0.281(11) . . .
34165.0 . 0.294(11) . . .
34175.0 . 0.299(11) . . .
34185.0 . 0.292(11) . . .
34195.0 . 0.300(11) . . .
34205.0 . 0.289(11) . . .
34215.0 . 0.300(11) . . .
34225.0 . 0.294(11) . . .
34235.0 . 0.308(11) . . .
34245.0 . 0.308(11) . . .
34255.0 . 0.311(11) . . .
34265.0 . 0.311(11) . . .
34275.0 . 0.281(11) . . .
34285.0 . 0.299(11) . . .
34295.0 . 0.282(11) . . .
34305.0 . 0.285(11) . . .
34315.0 . 0.289(11) . . .
34325.0 . 0.304(11) . . .
34335.0 . 0.290(11) . . .
34345.0 . 0.300(11) . . .
34355.0 . 0.295(11) . . .
34365.0 . 0.282(11) . . .
34375.0 . 0.321(12) . . .
34385.0 . 0.286(11) . . .
34395.0 . 0.303(11) . . .
34405.0 . 0.307(11) . . .
34415.0 . 0.300(11) . . .
34425.0 . 0.271(11) . . .
34435.0 . 0.311(11) . . .
34445.0 . 0.287(11) . . .
34455.0 . 0.287(11) . . .
34465.0 . 0.270(11) . . .
34475.0 . 0.301(11) . . .
34485.0 . 0.300(11) . . .
34495.0 . 0.293(11) . . .
34505.0 . 0.294(11) . . .
34515.0 . 0.288(11) . . .
34525.0 . 0.263(11) . . .
34535.0 . 0.286(11) . . .
34545.0 . 0.273(11) . . .
34555.0 . 0.280(11) . . .
34565.0 . 0.295(11) . . .
34575.0 . 0.301(11) . . .
34585.0 . 0.300(11) . . .
34595.0 . 0.291(11) . . .
34605.0 . 0.292(11) . . .
34615.0 . 0.300(11) . . .
34625.0 . 0.302(11) . . .
34635.0 . 0.304(12) . . .
34645.0 . 0.297(11) . . .
34655.0 . 0.291(11) . . .
34665.0 . 0.299(11) . . .
34675.0 . 0.312(12) . . .
34685.0 . 0.310(12) . . .
34695.0 . 0.316(12) . . .
34705.0 . 0.339(12) . . .
34715.0 . 0.298(12) . . .
34725.0 . 0.318(12) . . .
34735.0 . 0.320(12) . . .
34745.0 . 0.332(12) . . .
34755.0 . 0.323(12) . . .
34765.0 . 0.324(12) . . .
34775.0 . 0.322(12) . . .
34785.0 . 0.336(12) . . .
34795.0 . 0.317(12) . . .
34805.0 . 0.347(13) . . .
34815.0 . 0.323(12) . . .
34825.0 . 0.333(12) . . .
34835.0 . 0.309(12) . . .
34845.0 . 0.334(12) . . .
34855.0 . 0.308(12) . . .
34865.0 . 0.310(12) . . .
34875.0 . 0.322(12) . . .
34885.0 . 0.329(12) . . .
34895.0 . 0.330(12) . . .
34905.0 . 0.303(12) . . .
34915.0 . 0.310(12) . . .
34925.0 . 0.317(12) . . .
34935.0 . 0.296(12) . . .
34945.0 . 0.319(12) . . .
34955.0 . 0.315(12) . . .
34965.0 . 0.314(12) . . .
34975.0 . 0.313(12) . . .
34985.0 . 0.299(12) . . .
34995.0 . 0.309(12) . . .
35005.0 . 0.337(13) . . .
35015.0 . 0.289(12) . . .
35025.0 . 0.294(12) . . .
35035.0 . 0.281(12) . . .
35045.0 . 0.294(12) . . .
35055.0 . 0.288(12) . . .
35065.0 . 0.292(12) . . .
35075.0 . 0.278(11) . . .
35085. . 0.278(11) . . .
35095. . 0.258(11) . . .
35105. . 0.283(12) . . .
35115. . 0.264(11) . . .
35125. . 0.283(12) . . .
35135. . 0.265(11) . . .
35145. . 0.244(11) . . .
35155. . 0.260(11) . . .
35165. . 0.286(12) . . .
35175. . 0.251(11) . . .
35185. . 0.259(11) . . .
35195. . 0.236(11) . . .
35205. . 0.256(11) . . .
35215. . 0.245(11) . . .
35225. . 0.243(11) . . .
35235. . 0.271(11) . . .
35245. . 0.240(11) . . .
35255. . 0.259(11) . . .
35265. . 0.259(11) . . .
35275. . 0.234(11) . . .
35285. . 0.243(11) . . .
35295. . 0.254(11) . . .
35305. . 0.252(11) . . .
35315. . 0.240(11) . . .
35325. . 0.263(11) . . .
35335. . 0.252(11) . . .
35345. . 0.236(11) . . .
35355. . 0.235(11) . . .
35365. . 0.270(11) . . .
35375. . 0.236(11) . . .
35385. . 0.242(11) . . .
35395. . 0.228(11) . . .
35405. . 0.246(11) . . .
35415. . 0.241(11) . . .
35425. . 0.254(11) . . .
35435. . 0.242(11) . . .
35445. . 0.243(11) . . .
35455. . 0.265(11) . . .
35465. . 0.251(11) . . .
35475. . 0.220(10) . . .
35485. . 0.240(11) . . .
35495. . 0.232(11) . . .
35505. . 0.229(11) . . .
35515. . 0.233(11) . . .
35525. . 0.241(11) . . .
35535. . 0.253(11) . . .
35545. . 0.226(11) . . .
35555. . 0.251(11) . . .
35565. . 0.231(11) . . .
35575. . 0.251(11) . . .
35585. . 0.221(11) . . .
35595. . 0.233(11) . . .
35605. . 0.231(11) . . .
35615. . 0.232(11) . . .
35625. . 0.219(11) . . .
35635. . 0.222(11) . . .
35645. . 0.213(10) . . .
35655. . 0.237(11) . . .
35665. . 0.216(11) . . .
35675. . 0.237(11) . . .
35685. . 0.227(11) . . .
35695. . 0.223(11) . . .
35705. . 0.210(10) . . .
35715. . 0.227(11) . . .
35725. . 0.215(11) . . .
35735. . 0.225(11) . . .
35745. . 0.241(11) . . .
35755. . 0.235(11) . . .
35765. . 0.236(11) . . .
35775. . 0.231(11) . . .
35785. . 0.231(11) . . .
35795. . 0.232(11) . . .
35805. . 0.231(11) . . .
35815. . 0.215(11) . . .
35825. . 0.220(11) . . .
35835. . 0.229(11) . . .
35845. . 0.249(11) . . .
35855. . 0.213(11) . . .
35865. . 0.229(11) . . .
35875. . 0.213(11) . . .
35885. . 0.236(11) . . .
35895. . 0.231(11) . . .
35905. . 0.219(11) . . .
35915. . 0.208(11) . . .
35925. . 0.204(10) . . .
35935. . 0.227(11) . . .
35945. . 0.221(11) . . .
35955. . 0.250(12) . . .
35965. . 0.222(11) . . .
35975. . 0.218(11) . . .
35985. . 0.214(11) . . .
35995. . 0.225(11) . . .
36005. . 0.236(11) . . .
36015. . 0.227(11) . . .
36025. . 0.210(11) . . .
36035. . 0.233(11) . . .
36045. . 0.222(11) . . .
36055. . 0.239(11) . . .
36065. . 0.237(11) . . .
36075. . 0.227(11) . . .
36085. . 0.223(11) . . .
36095. . 0.217(11) . . .
36105. . 0.215(11) . . .
36115. . 0.212(11) . . .
36125. . 0.200(10) . . .
36135. . 0.218(11) . . .
36145. . 0.231(11) . . .
36155. . 0.218(11) . . .
36165. . 0.201(11) . . .
36175. . 0.210(11) . . .
36185. . 0.225(11) . . .
36195. . 0.202(11) . . .
36205. . 0.214(11) . . .
36215. . 0.231(11) . . .
36225. . 0.215(11) . . .
36235. . 0.195(10) . . .
36245. . 0.215(11) . . .
36255. . 0.222(11) . . .
36265. . 0.216(11) . . .
36275. . 0.210(11) . . .
36285. . 0.223(11) . . .
36295. . 0.229(11) . . .
36305. . 0.194(10) . . .
36315. . 0.205(11) . . .
36325. . 0.206(11) . . .
36335. . 0.216(11) . . .
36345. . 0.188(10) . . .
36355. . 0.206(11) . . .
36365. . 0.207(11) . . .
36375. . 0.209(11) . . .
36385. . 0.203(11) . . .
36395. . 0.202(11) . . .
36405. . 0.182(10) . . .
36415. . 0.193(10) . . .
36425. . 0.193(10) . . .
36435. . 0.224(11) . . .
36445. . 0.212(11) . . .
36455. . 0.216(11) . . .
36465. . 0.179(10) . . .
36475. . 0.200(11) . . .
36485. . 0.218(11) . . .
36495. . 0.213(11) . . .
36505. . 0.215(11) . . .
36515. . 0.197(11) . . .
36525. . 0.214(11) . . .
36535. . 0.192(10) . . .
36545. . 0.198(11) . . .
36555. . 0.208(11) . . .
36565. . 0.197(11) . . .
36575. . 0.201(11) . . .
36585. . 0.220(11) . . .
36595. . 0.204(11) . . .
36605. . 0.200(11) . . .
36615. . 0.223(11) . . .
36625. . 0.200(11) . . .
36635. . 0.205(11) . . .
36645. . 0.199(11) . . .
36655. . 0.205(11) . . .
36665. . 0.203(11) . . .
36675. . 0.201(11) . . .
36685. . 0.192(11) . . .
36695. . 0.189(11) . . .
36705. . 0.212(11) . . .
36715. . 0.189(11) . . .
36725. . 0.205(11) . . .
36735. . 0.183(10) . . .
36745. . 0.206(11) . . .
36755. . 0.192(11) . . .
36765. . 0.195(11) . . .
36775. . 0.206(11) . . .
36785. . 0.199(11) . . .
36795. . 0.192(11) . . .
36805. . 0.202(11) . . .
36815. . 0.191(11) . . .
36825. . 0.208(11) . . .
36835. . 0.198(11) . . .
36845. . 0.199(11) . . .
36855. . 0.215(11) . . .
36865. . 0.200(11) . . .
36875. . 0.212(11) . . .
36885. . 0.207(11) . . .
36895. . 0.213(12) . . .
36905. . 0.226(12) . . .
36915. . 0.204(11) . . .
36925. . 0.193(11) . . .
36935. . 0.215(12) . . .
36945. . 0.194(11) . . .
36955. . 0.191(11) . . .
36965. . 0.198(11) . . .
36975. . 0.204(11) . . .
36985. . 0.213(12) . . .
36995. . 0.195(11) . . .
37005. . 0.220(12) . . .
37015. . 0.203(11) . . .
37025. . 0.220(12) . . .
37035. . 0.205(12) . . .
37045. . 0.187(11) . . .
37055. . 0.206(12) . . .
37065. . 0.171(11) . . .
37075. . 0.195(11) . . .
37085. . 0.203(12) . . .
37095. . 0.204(12) . . .
37105. . 0.203(12) . . .
37115. . 0.226(12) . . .
37125. . 0.208(12) . . .
37135. . 0.200(12) . . .
37145. . 0.215(12) . . .
37155. . 0.203(12) . . .
37165. . 0.213(12) . . .
37175. . 0.206(12) . . .
37185. . 0.201(12) . . .
37195. . 0.207(12) . . .
37205. . 0.173(11) . . .
37215. . 0.185(11) . . .
37225. . 0.206(12) . . .
37235. . 0.201(12) . . .
37245. . 0.204(12) . . .
37255. . 0.216(12) . . .
37265. . 0.217(12) . . .
37275. . 0.236(13) . . .
37285. . 0.212(12) . . .
37295. . 0.198(12) . . .
37305. . 0.192(12) . . .
37315. . 0.202(12) . . .
37325. . 0.200(12) . . .
37335. . 0.215(12) . . .
37345. . 0.205(12) . . .
37355. . 0.212(12) . . .
37365. . 0.216(12) . . .
37375. . 0.174(11) . . .
37385. . 0.199(12) . . .
37395. . 0.211(12) . . .
37405. . 0.220(13) . . .
37415. . 0.200(12) . . .
37425. . 0.197(12) . . .
37435. . 0.194(12) . . .
37445. . 0.200(12) . . .
37455. . 0.200(12) . . .
37465. . 0.202(12) . . .
37475. . 0.194(12) . . .
37485. . 0.193(12) . . .
37495. . 0.182(12) . . .
37505. . 0.179(12) . . .
37515. . 0.202(12) . . .
37525. . 0.203(12) . . .
37535. . 0.188(12) . . .
37545. . 0.211(13) . . .
37555. . 0.205(12) . . .
37565. . 0.197(12) . . .
37575. . 0.204(12) . . .
37585. . 0.200(12) . . .
37595. . 0.202(12) . . .
37605. . 0.174(12) . . .
37615. . 0.186(12) . . .
37625. . 0.186(12) . . .
37635. . 0.200(12) . . .
37645. . 0.205(13) . . .
37655. . 0.171(12) . . .
37665. . 0.169(12) . . .
37675. . 0.200(13) . . .
37685. . 0.186(12) . . .
37695. . 0.185(12) . . .
37705. . 0.209(13) . . .
37715. . 0.172(12) . . .
37725. . 0.179(12) . . .
37735. . 0.189(12) . . .
37745. . 0.170(12) . . .
37755. . 0.182(12) . . .
37765. . 0.172(12) . . .
37775. . 0.202(13) . . .
37785. . 0.187(12) . . .
37795. . 0.183(12) . . .
37805. . 0.177(12) . . .
37815. . 0.174(12) . . .
37825. . 0.195(12) . . .
37835. . 0.172(12) . . .
37845. . 0.180(12) . . .
37855. . 0.172(12) . . .
37865. . 0.193(12) . . .
37875. . 0.176(12) . . .
37885. . 0.181(12) . . .
37895. . 0.188(12) . . .
37905. . 0.185(12) . . .
37915. . 0.198(13) . . .
37925. . 0.181(12) . . .
37935. . 0.174(12) . . .
37945. . 0.204(13) . . .
37955. . 0.177(12) . . .
37965. . 0.193(13) . . .
37975. . 0.202(13) . . .
37985. . 0.205(13) . . .
37995. . 0.182(12) . . .
38005. . 0.180(12) . . .
38015. . 0.183(13) . . .
38025. . 0.174(12) . . .
38035. . 0.180(13) . . .
38045. . 0.177(12) . . .
38055. . 0.172(12) . . .
38065. . 0.188(13) . . .
38075. . 0.185(13) . . .
38085. . 0.189(13) . . .
38095. . 0.189(13) . . .
38105. . 0.172(12) . . .
38115. . 0.173(12) . . .
38125. . 0.190(13) . . .
38135. . 0.171(12) . . .
38145. . 0.189(13) . . .
38155. . 0.175(13) . . .
38165. . 0.161(12) . . .
38175. . 0.178(13) . . .
38185. . 0.199(13) . . .
38195. . 0.193(13) . . .
38205. . 0.156(12) . . .
38215. . 0.180(13) . . .
38225. . 0.186(13) . . .
38235. . 0.195(14) . . .
38245. . 0.152(12) . . .
38255. . 0.176(13) . . .
38265. . 0.188(13) . . .
38275. . 0.187(13) . . .
38285. . 0.196(14) . . .
38295. . 0.186(13) . . .
38305. . 0.183(13) . . .
38315. . 0.173(13) . . .
38325. . 0.170(13) . . .
38335. . 0.154(12) . . .
38345. . 0.169(13) . . .
38355. . 0.193(14) . . .
38365. . 0.169(13) . . .
38375. . 0.178(13) . . .
38385. . 0.185(14) . . .
38395. . 0.191(14) . . .
38405. . 0.183(14) . . .
38415. . 0.175(13) . . .
38425. . 0.182(14) . . .
38435. . 0.183(14) . . .
38445. . 0.174(13) . . .
38455. . 0.183(14) . . .
38465. . 0.196(14) . . .
38475. . 0.149(12) . . .
38485. . 0.201(14) . . .
38495. . 0.184(14) . . .
38505. . 0.161(13) . . .
38515. . 0.179(14) . . .
38525. . 0.161(13) . . .
38535. . 0.177(14) . . .
38545. . 0.192(14) . . .
38555. . 0.194(14) . . .
38565. . 0.186(14) . . .
38575. . 0.191(14) . . .
38585. . 0.158(13) . . .
38595. . 0.169(13) . . .
38605. . 0.166(13) . . .
38615. . 0.161(13) . . .
38625. . 0.171(14) . . .
38635. . 0.162(13) . . .
38645. . 0.188(14) . . .
38655. . 0.173(14) . . .
38665. . 0.168(14) . . .
38675. . 0.191(15) . . .
38685. . 0.166(14) . . .
38695. . 0.147(13) . . .
38705. . 0.177(14) . . .
38715. . 0.149(13) . . .
38725. . 0.161(14) . . .
38735. . 0.164(14) . . .
38745. . 0.169(14) . . .
38755. . 0.168(14) . . .
38765. . 0.173(14) . . .
38775. . 0.187(15) . . .
38785. . 0.155(13) . . .
38795. . 0.179(14) . . .
38805. . 0.179(14) . . .
38815. . 0.170(14) . . .
38825. . 0.175(14) . . .
38835. . 0.160(14) . . .
38845. . 0.162(14) . . .
38855. . 0.182(15) . . .
38865. . 0.154(14) . . .
38875. . 0.146(13) . . .
38885. . 0.177(14) . . .
38895. . 0.159(14) . . .
38905. . 0.156(14) . . .
38915. . 0.152(13) . . .
38925. . 0.161(14) . . .
38935. . 0.179(15) . . .
38945. . 0.160(14) . . .
38955. . 0.168(14) . . .
38965. . 0.159(14) . . .
38975. . 0.155(14) . . .
38985. . 0.153(14) . . .
38995. . 0.147(13) . . .
39005. . 0.170(14) . . .
39015. . 0.144(13) . . .
39025. . 0.147(13) . . .
39035. . 0.162(14) . . .
39045. . 0.128(13) . . .
39055. . 0.136(13) . . .
39065. . 0.151(14) . . .
39075. . 0.134(13) . . .
39085. . 0.140(13) . . .
39095. . 0.131(13) . . .
39105. . 0.142(13) . . .
39115. . 0.184(15) . . .
39125. . 0.172(15) . . .
39135. . 0.150(14) . . .
39145. . 0.158(14) . . .
39155. . 0.148(14) . . .
39165. . 0.151(14) . . .
39175. . 0.147(14) . . .
39185. . 0.138(13) . . .
39195. . 0.160(14) . . .
39205. . 0.142(14) . . .
39215. . 0.139(13) . . .
39225. . 0.139(13) . . .
39235. . 0.126(13) . . .
39245. . 0.133(13) . . .
39255. . 0.139(13) . . .
39265. . 0.140(14) . . .
39275. . 0.158(14) . . .
39285. . 0.133(13) . . .
39295. . 0.123(13) . . .
39305. . 0.149(14) . . .
39315. . 0.143(14) . . .
39325. . 0.118(13) . . .
39335. . 0.174(15) . . .
39345. . 0.144(14) . . .
39355. . 0.152(14) . . .
39365. . 0.154(14) . . .
39375. . 0.137(14) . . .
39385. . 0.117(13) . . .
39395. . 0.133(14) . . .
39405. . 0.131(13) . . .
39415. . 0.109(12) . . .
39425. . 0.131(14) . . .
39435. . 0.140(14) . . .
39445. . 0.124(13) . . .
39455. . 0.124(13) . . .
39465. . 0.135(14) . . .
39475. . 0.128(14) . . .
39485. . 0.149(15) . . .
39495. . 0.125(13) . . .
39505. . 0.136(14) . . .
39515. . 0.128(14) . . .
39525. . 0.158(15) . . .
39535. . 0.133(14) . . .
39545. . 0.126(14) . . .
39555. . 0.117(13) . . .
39565. . 0.149(15) . . .
39575. . 0.146(15) . . .
39585. . 0.140(15) . . .
39595. . 0.145(15) . . .
39605. . 0.136(15) . . .
39615. . 0.112(13) . . .
39625. . 0.165(16) . . .
39635. . 0.153(15) . . .
39645. . 0.111(13) . . .
39655. . 0.139(15) . . .
39665. . 0.126(14) . . .
39675. . 0.126(14) . . .
39685. . 0.129(15) . . .
39695. . 0.115(14) . . .
39705. . 0.135(15) . . .
39715. . 0.143(15) . . .
39725. . 0.129(15) . . .
39735. . 0.139(15) . . .
39745. . 0.154(16) . . .
39755. . 0.166(17) . . .
39765. . 0.124(15) . . .
39775. . 0.123(15) . . .
39785. . 0.126(15) . . .
39795. . 0.140(16) . . .
39805. . 0.146(16) . . .
39815. . 0.119(15) . . .
39825. . 0.150(16) . . .
39835. . 0.141(16) . . .
39845. . 0.129(15) . . .
39855. . 0.157(17) . . .
39865. . 0.141(16) . . .
39875. . 0.122(15) . . .
39885. . 0.110(15) . . .
39895. . 0.128(16) . . .
39905. . 0.136(16) . . .
39915. . 0.113(15) . . .
39925. . 0.126(16) . . .
39935. . 0.115(15) . . .
39945. . 0.107(15) . . .
39955. . 0.141(17) . . .
39965. . 0.153(18) . . .
loop_
_refln_index_h
_refln_index_k
_refln_index_l
_refln_observed_status
_refln_F_squared_meas
_refln_F_squared_calc
_refln_phase_calc
_refln_d_spacing
_gsas_i100_meas
1 1 -1 o 7.684 7.745 0.00 3.15057 78.66
1 1 1 o 2.544 2.557 180.00 2.83329 17.03
0 0 2 o 1.608 1.601 180.00 2.60859 3.87
0 2 0 o 0.540 0.557 180.00 2.60401 1.29
2 0 0 o 0.251 0.308 0.00 2.53021 0.53
1 0 -2 o 6.412 5.636 180.00 2.48315 12.66
0 1 2 o 0.775 0.812 0.00 2.33238 2.38
0 2 1 o 0.269 0.282 0.00 2.32992 0.82
1 2 0 o 0.784 0.802 0.00 2.31544 2.34
2 1 0 o 7.309 7.316 180.00 2.27584 20.37
1 1 -2 o 0.125 0.170 180.00 2.24141 0.33
2 1 -1 o 3.993 4.183 180.00 2.20336 9.78
1 0 2 o 8.488 8.594 180.00 2.18304 10.01
1 2 -1 o 6.944 6.941 180.00 2.17520 16.15
1 2 1 o 0.896 0.770 0.00 2.06207 1.68
1 1 2 o 14.333 14.061 0.00 2.01332 24.47
2 1 1 o 1.773 1.773 0.00 1.98561 2.86
2 0 -2 o 3.139 3.201 0.00 1.97834 2.50
2 1 -2 o 3.406 3.268 180.00 1.84940 4.14
0 2 2 o 16.636 16.108 180.00 1.84293 19.94
2 2 0 o 23.569 23.092 180.00 1.81466 26.55
1 2 -2 o 20.589 21.150 0.00 1.79706 22.31
2 2 -1 o 7.631 8.284 180.00 1.77727 7.91
2 0 2 o 27.447 27.652 0.00 1.68835 11.59
3 0 0 o 0.218 0.221 0.00 1.68680 0.09
1 2 2 o 1.280 1.285 0.00 1.67293 1.04
0 1 3 o 10.531 10.226 180.00 1.64953 8.10
2 2 1 o 2.944 2.794 0.00 1.65693 2.31
0 3 1 o 0.078 0.076 180.00 1.64721 0.06
1 1 -3 o 7.215 7.179 180.00 1.64215 5.45
1 3 0 o 7.148 7.113 180.00 1.64207 5.40
2 1 2 o 0.006 0.006 0.00 1.60606 0.00
3 1 0 o 0.353 0.375 0.00 1.60473 0.24
3 1 -1 o 7.616 7.973 180.00 1.60267 5.22
1 3 -1 o 1.963 1.867 0.00 1.58972 1.30
2 2 -2 o 0.364 0.305 0.00 1.57529 0.23
1 3 1 o 20.157 18.993 180.00 1.54392 11.90
3 0 -2 o 38.946 38.655 180.00 1.53046 11.10
1 1 3 o 1.684 1.813 0.00 1.50361 0.89
2 1 -3 o 2.194 2.153 0.00 1.48702 1.11
3 1 1 o 14.332 14.774 0.00 1.47313 7.01
3 1 -2 o 2.703 2.848 0.00 1.46837 1.31
0 2 3 o 1.546 1.457 0.00 1.44620 0.70
0 3 2 o 0.018 0.017 180.00 1.44523 0.01
1 2 -3 o 3.110 3.049 0.00 1.44122 1.39
2 3 0 o 3.015 2.989 0.00 1.43147 1.32
1 3 -2 o 1.140 1.097 0.00 1.42278 0.49
2 2 2 o 0.340 0.319 0.00 1.41664 0.14
3 2 0 o 5.541 5.190 0.00 1.41573 2.31
3 2 -1 o 0.541 0.508 180.00 1.41432 0.22
2 3 -1 o 0.003 0.003 180.00 1.41290 0.00
1 3 2 o 1.130 0.700 0.00 1.35875 0.40
2 3 1 o 3.592 3.126 180.00 1.35014 1.24
1 2 3 o 2.892 2.590 0.00 1.34484 0.98
2 2 -3 o 4.903 4.679 0.00 1.33292 1.61
3 0 2 o 0.947 0.875 0.00 1.32466 0.15
3 2 1 o 1.618 1.496 180.00 1.32290 0.51
3 2 -2 o 0.273 0.260 0.00 1.31945 0.09
1 0 -4 o 26.968 27.718 180.00 1.31395 4.18
2 3 -2 o 0.200 0.221 180.00 1.30486 0.06
0 0 4 o 4.530 5.025 0.00 1.30430 0.68
2 1 3 o 0.146 0.169 0.00 1.29619 0.04
0 4 0 o 5.333 5.978 0.00 1.30201 0.80
3 1 2 o 5.291 6.879 0.00 1.28378 1.49
3 1 -3 o 0.306 0.411 0.00 1.27853 0.08
1 1 -4 o 1.348 1.704 0.00 1.27403 0.37
0 1 4 o 3.475 3.710 180.00 1.26522 0.93
4 0 0 o 4.916 5.245 0.00 1.26510 0.65
0 4 1 o 13.046 13.765 180.00 1.26326 3.45
1 4 0 o 12.751 13.364 180.00 1.26094 3.35
2 0 -4 o 3.687 4.667 0.00 1.24157 0.46
4 1 -1 o 0.752 0.893 0.00 1.23962 0.18
1 4 -1 o 0.739 0.793 0.00 1.23677 0.18
4 1 0 o 20.078 19.397 180.00 1.22935 4.76
0 3 3 o 1.256 1.215 0.00 1.22862 0.30
1 3 -3 o 0.151 0.150 0.00 1.22556 0.04
1 0 4 o 2.380 2.404 180.00 1.21759 0.27
4 0 -2 o 2.849 2.866 180.00 1.21585 0.32
1 4 1 o 0.793 0.796 180.00 1.21483 0.18
2 1 -4 o 4.017 3.911 0.00 1.20773 0.89
2 3 2 o 5.261 5.242 0.00 1.21034 1.17
3 3 0 o 0.278 0.275 180.00 1.20977 0.06
3 3 -1 o 0.043 0.042 180.00 1.20889 0.01
2 2 3 o 0.492 0.538 0.00 1.19030 0.10
1 1 4 o 0.107 0.093 0.00 1.18562 0.02
4 1 -2 o 0.037 0.032 180.00 1.18401 0.01
3 2 2 o 0.022 0.018 0.00 1.18067 0.00
3 2 -3 o 0.369 0.311 0.00 1.17659 0.07
1 2 -4 o 0.029 0.026 0.00 1.17307 0.01
0 2 4 o 0.027 0.025 180.00 1.16619 0.01
0 4 2 o 2.094 1.924 0.00 1.16496 0.40
1 3 3 o 11.948 11.002 0.00 1.16464 2.28
2 4 0 o 0.380 0.366 180.00 1.15772 0.07
4 1 1 o 0.073 0.070 180.00 1.15774 0.01
2 3 -3 o 14.176 13.640 0.00 1.15687 2.64
1 4 -2 o 0.013 0.012 180.00 1.15311 0.00
3 3 1 o 0.036 0.033 180.00 1.15030 0.01
3 3 -2 o 6.459 6.034 180.00 1.14803 1.17
2 4 -1 o 0.340 0.319 180.00 1.14783 0.06
4 2 -1 o 0.196 0.190 0.00 1.14605 0.04
4 2 0 o 2.243 2.469 0.00 1.13792 0.39
2 2 -4 o 9.250 9.405 180.00 1.12071 1.52
3 0 -4 o 4.943 5.023 0.00 1.12062 0.40
1 4 2 o 6.010 5.919 180.00 1.11822 0.98
2 4 1 o 3.321 3.008 0.00 1.11341 0.53
1 2 4 o 19.176 18.468 0.00 1.10297 2.95
4 2 -2 o 1.982 1.937 180.00 1.10168 0.30
3 1 3 o 7.332 7.262 180.00 1.10016 1.12
3 1 -4 o 6.652 6.630 0.00 1.09554 1.00
2 0 4 o 11.138 10.819 180.00 1.09152 0.82
2 4 -2 o 20.823 20.145 0.00 1.08760 3.03
4 1 -3 o 6.690 6.409 180.00 1.08506 0.96
4 2 1 o 6.030 5.524 180.00 1.08042 0.85
4 0 2 o 0.252 0.217 180.00 1.07392 0.02
2 1 4 o 6.479 5.988 180.00 1.06831 0.88
2 3 3 o 4.808 4.968 0.00 1.05991 0.63
3 3 2 o 14.705 13.878 180.00 1.05309 1.88
4 1 2 o 3.424 3.234 180.00 1.05179 0.44
3 3 -3 o 1.041 0.995 0.00 1.05019 0.13
1 3 -4 o 0.030 0.030 180.00 1.04769 0.00
0 3 4 o 5.185 5.138 0.00 1.04278 0.64
0 4 3 o 1.788 1.761 0.00 1.04226 0.22
1 4 -3 o 1.438 1.381 0.00 1.04040 0.18
1 1 -5 o 2.026 1.948 0.00 1.03427 0.24
3 2 3 o 1.979 1.919 0.00 1.03318 0.23
2 4 2 o 5.954 5.825 0.00 1.03103 0.70
3 4 0 o 0.626 0.613 180.00 1.03068 0.07
3 4 -1 o 9.392 9.188 0.00 1.03014 1.10
3 2 -4 o 14.726 14.376 0.00 1.02935 1.72
4 3 -1 o 15.152 14.720 0.00 1.02830 1.76
0 1 5 o 8.553 8.173 0.00 1.02311 0.97
4 3 0 o 0.670 0.642 0.00 1.02242 0.08
0 5 1 o 0.000 0.000 180.00 1.02145 0.00
4 2 -3 o 3.823 3.717 0.00 1.02064 0.43
1 5 0 o 0.863 0.842 180.00 1.02022 0.10
5 0 0 o 11.839 11.046 180.00 1.01208 0.65
2 3 -4 o 6.386 6.050 0.00 1.00988 0.69
1 5 -1 o 2.698 2.590 0.00 1.00729 0.29
2 2 4 o 4.322 4.154 180.00 1.00666 0.46
5 1 -1 o 0.026 0.025 0.00 1.00488 0.00
2 1 -5 o 2.987 2.846 180.00 1.00382 0.32
1 4 3 o 0.487 0.458 0.00 1.00234 0.05
5 0 -2 o 2.199 2.032 0.00 0.99796 0.11
2 4 -3 o 0.104 0.096 180.00 0.99738 0.01
1 3 4 o 8.912 8.307 180.00 0.99684 0.91
4 3 -2 o 15.255 14.365 0.00 0.99589 1.56
1 5 1 o 0.011 0.010 0.00 0.99533 0.00
5 1 0 o 0.206 0.200 0.00 0.99350 0.02
3 4 1 o 0.240 0.234 0.00 0.99316 0.02
4 2 2 o 12.125 11.882 180.00 0.99280 1.22
3 4 -2 o 2.694 2.677 180.00 0.99169 0.27
4 0 -4 o 10.408 10.731 0.00 0.98917 0.52
5 1 -2 o 15.044 16.612 0.00 0.98013 1.44
4 3 1 o 4.473 4.939 180.00 0.98010 0.43
1 2 -5 o 0.016 0.018 0.00 0.97803 0.00
1 1 5 o 1.373 1.576 180.00 0.97406 0.13
4 1 -4 o 2.386 2.742 180.00 0.97180 0.22
0 2 5 o 4.030 4.310 180.00 0.96857 0.37
0 5 2 o 12.004 12.484 180.00 0.96734 1.09
2 5 0 o 1.258 1.250 0.00 0.96318 0.11
3 0 4 o 13.255 13.267 180.00 0.96125 0.59
1 5 -2 o 11.890 11.985 0.00 0.96052 1.05
5 2 -1 o 1.066 1.075 180.00 0.95307 0.09
2 2 -5 o 0.335 0.334 0.00 0.95216 0.03
2 5 -1 o 1.661 1.744 180.00 0.95746 0.15
5 1 1 o 3.737 3.703 180.00 0.94940 0.32
3 1 4 o 12.678 12.804 0.00 0.94529 1.05
3 3 3 o 3.447 3.491 180.00 0.94443 0.28
5 2 0 o 1.584 1.616 180.00 0.94334 0.13
3 1 -5 o 2.745 2.872 0.00 0.94152 0.22
3 3 -4 o 0.574 0.601 180.00 0.94150 0.05
1 5 2 o 2.072 2.222 0.00 0.94008 0.17
4 1 3 o 0.017 0.018 0.00 0.93852 0.00
2 5 1 o 0.074 0.081 0.00 0.93721 0.01
4 3 -3 o 4.296 4.732 180.00 0.93482 0.34
2 4 3 o 13.460 14.645 180.00 0.93322 1.06
5 2 -2 o 8.958 9.636 0.00 0.93187 0.70
3 4 2 o 3.309 3.529 180.00 0.92856 0.26
1 2 5 o 9.664 10.397 180.00 0.92665 0.74
3 4 -3 o 10.643 11.457 180.00 0.92657 0.82
5 1 -3 o 0.442 0.476 0.00 0.92645 0.03
1 4 -4 o 10.579 11.566 180.00 0.92485 0.80
4 2 -4 o 5.862 6.420 180.00 0.92470 0.45
2 3 4 o 0.673 0.744 0.00 0.92405 0.05
2 5 -2 o 4.929 5.613 180.00 0.92166 0.37
0 4 4 o 11.823 13.492 0.00 0.92147 0.89
4 3 2 o 4.866 6.533 0.00 0.91329 0.35
4 4 -1 o 1.473 1.959 0.00 0.91143 0.11
4 4 0 o 4.337 4.910 0.00 0.90733 0.31
5 2 1 o 1.921 2.001 180.00 0.90534 0.13
3 2 4 o 0.000 0.000 180.00 0.90177 0.00
1 3 -5 o 2.435 2.543 180.00 0.90175 0.17
2 1 5 o 7.204 7.559 180.00 0.90142 0.49
2 4 -4 o 1.910 2.028 0.00 0.89853 0.13
3 2 -5 o 0.605 0.642 0.00 0.89850 0.04
5 0 2 o 11.617 12.192 0.00 0.89717 0.39
4 2 3 o 10.477 10.852 0.00 0.89590 0.70
0 3 5 o 2.224 2.272 0.00 0.89432 0.15
0 5 3 o 3.645 3.706 180.00 0.89358 0.24
1 5 -3 o 0.377 0.381 180.00 0.89241 0.02
1 4 4 o 0.618 0.627 0.00 0.88931 0.04
4 4 -2 o 2.034 2.067 0.00 0.88863 0.13
2 5 2 o 9.020 9.223 180.00 0.88648 0.58
3 5 0 o 35.173 35.976 0.00 0.88625 2.25
3 5 -1 o 0.665 0.680 180.00 0.88591 0.04
5 2 -3 o 6.422 6.579 0.00 0.88538 0.41
5 1 2 o 5.356 5.504 0.00 0.88415 0.34
5 3 -1 o 8.911 9.267 0.00 0.88208 0.56
2 3 -5 o 13.121 13.708 180.00 0.88135 0.82
1 0 -6 o 6.511 6.830 0.00 0.88039 0.20
4 4 1 o 1.732 1.799 180.00 0.87736 0.11
0 0 6 o 12.766 13.453 0.00 0.86953 0.38
5 3 0 o 12.911 13.312 180.00 0.87434 0.78
5 0 -4 o 1.872 1.989 180.00 0.86848 0.06
1 1 -6 o 1.592 1.695 180.00 0.86808 0.09
1 5 3 o 0.563 0.600 0.00 0.86804 0.03
0 6 0 o 0.083 0.088 0.00 0.86800 0.00
2 0 -6 o 9.353 9.855 0.00 0.86521 0.27
5 3 -2 o 2.139 2.253 180.00 0.86519 0.12
2 5 -3 o 0.017 0.018 180.00 0.86481 0.00
2 2 5 o 0.425 0.432 180.00 0.86345 0.02
4 1 -5 o 10.857 10.987 0.00 0.86326 0.63
3 5 1 o 3.622 3.546 0.00 0.86205 0.21
3 5 -2 o 0.190 0.181 180.00 0.86110 0.01
1 3 5 o 1.073 1.021 180.00 0.86101 0.06
4 3 -4 o 0.000 0.000 0.00 0.85944 0.00
0 1 6 o 6.046 5.534 180.00 0.85766 0.34
5 1 -4 o 4.842 4.454 0.00 0.85665 0.27
0 6 1 o 9.528 8.792 180.00 0.85623 0.53
1 6 0 o 15.495 14.382 0.00 0.85551 0.86
2 1 -6 o 3.277 3.088 180.00 0.85351 0.18
3 4 3 o 3.074 2.911 180.00 0.85150 0.17
3 4 -4 o 1.607 1.508 180.00 0.84935 0.09
5 2 2 o 0.540 0.501 180.00 0.84824 0.03
1 6 -1 o 0.542 0.501 180.00 0.84784 0.03
4 4 -3 o 6.179 5.590 180.00 0.84443 0.33
4 0 4 o 0.843 0.763 0.00 0.84417 0.02
5 3 1 o 5.810 5.266 180.00 0.84383 0.31
6 0 0 o 19.903 18.068 180.00 0.84340 0.52
6 1 -1 o 12.441 11.317 180.00 0.84276 0.65
6 0 -2 o 0.004 0.003 0.00 0.84221 0.00
3 3 4 o 0.322 0.294 180.00 0.84094 0.02
1 6 1 o 0.734 0.670 180.00 0.84067 0.04
3 3 -5 o 4.563 4.169 180.00 0.83828 0.23
2 4 4 o 1.380 1.277 0.00 0.83647 0.07
4 3 3 o 0.932 0.865 180.00 0.83617 0.05
1 0 6 o 5.132 4.800 180.00 0.83533 0.13
1 2 -6 o 14.082 13.298 0.00 0.83402 0.71
4 1 4 o 0.403 0.382 180.00 0.83330 0.02
6 1 0 o 5.418 5.129 180.00 0.83256 0.27
6 1 -2 o 1.280 1.207 180.00 0.83141 0.06
4 2 -5 o 1.956 1.824 180.00 0.82974 0.10
4 4 2 o 8.075 7.453 180.00 0.82847 0.40
3 0 -6 o 16.044 14.723 180.00 0.82772 0.39
5 3 -3 o 1.912 1.753 180.00 0.82760 0.09
1 1 6 o 1.049 0.947 0.00 0.82478 0.05
0 2 6 o 8.686 7.847 180.00 0.82476 0.42
5 2 -4 o 6.084 5.474 180.00 0.82386 0.29
0 6 2 o 12.308 11.060 180.00 0.82361 0.59
2 5 3 o 0.082 0.073 180.00 0.82198 0.00
2 2 -6 o 13.972 12.326 180.00 0.82108 0.66
2 6 0 o 0.797 0.703 180.00 0.82103 0.04
3 1 5 o 1.054 0.924 0.00 0.82047 0.05
1 4 -5 o 13.045 11.339 180.00 0.81982 0.61
1 6 -2 o 0.659 0.570 0.00 0.81939 0.03
3 5 2 o 3.401 2.923 180.00 0.81879 0.16
2 6 -1 o 2.228 1.900 180.00 0.81749 0.10
3 1 -6 o 0.582 0.496 180.00 0.81746 0.03
3 5 -3 o 0.472 0.402 0.00 0.81743 0.02
1 5 -4 o 12.037 10.231 180.00 0.81624 0.56
0 4 5 o 0.354 0.301 0.00 0.81423 0.02
0 5 4 o 8.951 7.608 0.00 0.81391 0.41
6 2 -1 o 0.969 0.836 0.00 0.81149 0.04
5 1 3 o 13.054 11.365 0.00 0.81044 0.59
2 3 5 o 0.210 0.184 180.00 0.80961 0.01
4 5 -1 o 0.003 0.003 180.00 0.80698 0.00
1 6 2 o 3.086 2.826 0.00 0.80658 0.14
5 4 -1 o 2.996 2.826 180.00 0.80495 0.13
2 6 1 o 10.176 9.621 0.00 0.80477 0.44
2 4 -5 o 0.243 0.230 180.00 0.80440 0.01
4 5 0 o 2.982 2.839 180.00 0.80412 0.13
4 2 4 o 10.403 9.990 0.00 0.80303 0.45
6 1 1 o 2.752 2.644 0.00 0.80298 0.12
6 2 0 o 0.079 0.076 0.00 0.80237 0.00
6 2 -2 o 0.241 0.235 0.00 0.80134 0.01
6 1 -3 o 12.956 12.718 0.00 0.80092 0.55
1 2 6 o 3.170 3.253 180.00 0.79540 0.13
2 6 -2 o 12.897 13.292 180.00 0.79486 0.53
5 4 0 o 0.031 0.032 180.00 0.79906 0.00
2 5 -4 o 0.007 0.007 0.00 0.79798 0.00
5 4 -2 o 2.492 2.648 0.00 0.79206 0.10
5 3 2 o 0.279 0.286 180.00 0.79703 0.01
3 2 5 o 0.159 0.169 180.00 0.79153 0.01
1 5 4 o 0.494 0.525 0.00 0.79150 0.02
4 5 -2 o 0.796 0.843 180.00 0.79102 0.03
1 4 5 o 0.001 0.001 0.00 0.78885 0.00
3 2 -6 o 0.139 0.141 180.00 0.78882 0.01
4 4 -4 o 0.011 0.011 0.00 0.78764 0.00
2 0 6 o 6.780 6.521 0.00 0.78525 0.13
1 3 -6 o 0.270 0.260 0.00 0.78519 0.01
4 5 1 o 0.003 0.003 180.00 0.78304 0.00
5 2 3 o 1.027 0.976 0.00 0.78252 0.04
5 1 -5 o 0.462 0.440 180.00 0.78236 0.02
4 3 -5 o 0.298 0.284 0.00 0.78163 0.01
0 3 6 o 0.188 0.182 180.00 0.77746 0.01
5 3 -4 o 2.751 2.660 180.00 0.77670 0.10
0 6 3 o 4.687 4.530 0.00 0.77664 0.18
2 1 6 o 10.169 9.814 180.00 0.77647 0.38
1 6 -3 o 3.857 3.696 0.00 0.77587 0.15
6 2 1 o 0.525 0.503 180.00 0.77580 0.02
4 0 -6 o 10.323 9.883 0.00 0.77580 0.19
5 4 1 o 10.495 10.013 0.00 0.77557 0.39
2 3 -6 o 3.899 3.655 180.00 0.77437 0.15
6 2 -3 o 0.932 0.870 0.00 0.77394 0.03
3 4 4 o 0.006 0.006 0.00 0.77333 0.00
2 6 2 o 0.016 0.015 180.00 0.77196 0.00
3 6 0 o 3.336 3.177 0.00 0.77181 0.12
3 6 -1 o 2.630 2.521 0.00 0.77158 0.10
3 4 -5 o 7.053 6.828 0.00 0.77126 0.26
4 4 3 o 0.035 0.036 0.00 0.76961 0.00
6 0 2 o 6.480 7.262 0.00 0.76793 0.12
4 1 -6 o 5.500 6.330 180.00 0.76734 0.20
6 3 -1 o 0.095 0.112 180.00 0.76631 0.00
6 0 -4 o 7.711 9.093 0.00 0.76523 0.14
3 5 3 o 0.655 0.758 180.00 0.76449 0.02
3 5 -4 o 0.030 0.033 180.00 0.76293 0.00
5 4 -3 o 1.667 1.846 0.00 0.76291 0.06
6 1 2 o 9.965 10.744 180.00 0.75971 0.34
1 6 3 o 0.531 0.573 0.00 0.75969 0.02
4 5 -3 o 1.397 1.511 180.00 0.75936 0.05
4 3 4 o 8.210 8.895 0.00 0.75917 0.28
6 3 0 o 10.687 11.655 0.00 0.75861 0.37
6 3 -2 o 0.454 0.501 0.00 0.75774 0.02
2 6 -3 o 1.096 1.210 0.00 0.75753 0.04
5 2 -5 o 7.741 8.573 180.00 0.75715 0.26
6 1 -4 o 5.741 6.360 180.00 0.75710 0.20
3 6 1 o 1.068 1.181 180.00 0.75567 0.04
3 6 -2 o 0.421 0.462 180.00 0.75503 0.01
2 5 4 o 11.150 11.805 180.00 0.75355 0.37
1 3 6 o 2.456 2.557 180.00 0.75272 0.08
2 2 6 o 0.003 0.003 180.00 0.75181 0.00
3 3 5 o 9.282 9.891 0.00 0.74944 0.30
2 4 5 o 4.466 4.825 0.00 0.74875 0.15
4 5 2 o 4.274 4.740 180.00 0.74769 0.14
3 3 -6 o 0.030 0.034 180.00 0.74714 0.00
1 1 -7 o 1.452 1.657 0.00 0.74686 0.05
5 0 4 o 0.968 1.233 0.00 0.74487 0.02
4 2 -6 o 0.141 0.190 180.00 0.74351 0.00
5 3 3 o 0.356 0.473 0.00 0.74177 0.01
4 1 5 o 0.126 0.167 0.00 0.74157 0.00
1 5 -5 o 1.113 1.459 0.00 0.74132 0.03
2 1 -7 o 3.029 3.786 0.00 0.73993 0.09
5 4 2 o 0.036 0.044 180.00 0.73877 0.00
0 1 7 o 3.065 3.601 180.00 0.73780 0.09
5 1 4 o 7.936 9.236 0.00 0.73736 0.24
0 5 5 o 0.370 0.429 0.00 0.73717 0.01
0 7 1 o 2.110 2.415 0.00 0.73655 0.06
6 2 2 o 6.247 7.153 0.00 0.73657 0.19
1 7 0 o 13.307 15.080 180.00 0.73609 0.41
6 3 1 o 1.931 2.185 0.00 0.73604 0.06
6 3 -3 o 0.035 0.039 0.00 0.73445 0.00
6 2 -4 o 0.000 0.000 0.00 0.73418 0.00
1 7 -1 o 0.799 0.812 180.00 0.73119 0.02
5 5 -1 o 0.009 0.009 180.00 0.73027 0.00
2 5 -5 o 0.992 0.991 180.00 0.72986 0.03
1 4 -6 o 3.136 3.113 180.00 0.72931 0.09
2 6 3 o 5.007 4.931 180.00 0.72824 0.15
3 0 6 o 5.993 5.898 0.00 0.72768 0.09
7 0 -2 o 0.410 0.406 180.00 0.72669 0.01
1 7 1 o 0.548 0.543 0.00 0.72658 0.02
4 4 -5 o 0.013 0.013 180.00 0.72645 0.00
3 6 2 o 5.480 5.461 0.00 0.72602 0.16
5 5 0 o 3.688 3.682 0.00 0.72586 0.11
5 3 -5 o 4.127 4.285 180.00 0.72006 0.12
3 6 -3 o 11.445 11.535 180.00 0.72507 0.33
4 2 5 o 0.916 0.951 180.00 0.72000 0.03
1 2 -7 o 0.259 0.262 180.00 0.72484 0.01
7 1 -1 o 1.080 1.092 180.00 0.72477 0.03
7 1 -2 o 11.923 12.378 0.00 0.71972 0.33
1 6 -4 o 1.872 1.903 0.00 0.72424 0.05
2 2 -7 o 5.695 5.861 180.00 0.71850 0.16
3 1 -7 o 4.387 4.499 180.00 0.71826 0.12
1 5 5 o 0.015 0.016 180.00 0.71818 0.00
0 4 6 o 0.112 0.115 0.00 0.72310 0.00
7 0 0 o 3.185 3.272 0.00 0.72292 0.05
4 6 -1 o 5.862 5.954 0.00 0.71774 0.16
5 0 -6 o 0.143 0.145 180.00 0.71769 0.00
0 6 4 o 8.066 8.300 180.00 0.72261 0.23
5 4 -4 o 12.829 13.209 180.00 0.72250 0.36
4 5 -4 o 22.810 22.914 180.00 0.71727 0.63
0 2 7 o 1.733 1.707 0.00 0.71654 0.05
5 2 4 o 0.182 0.177 180.00 0.71614 0.00
7 1 0 o 4.447 4.317 0.00 0.71605 0.12
4 6 0 o 0.625 0.602 180.00 0.71573 0.02
3 1 6 o 0.034 0.036 0.00 0.72068 0.00
2 4 -6 o 0.660 0.685 0.00 0.72061 0.02
5 5 -2 o 0.888 0.922 0.00 0.72060 0.02
0 7 2 o 0.189 0.180 0.00 0.71547 0.01
2 3 6 o 12.837 12.254 0.00 0.71546 0.35
1 1 7 o 1.099 1.026 0.00 0.71437 0.03
6 4 -1 o 4.698 4.374 180.00 0.71411 0.13
2 7 0 o 1.070 0.994 0.00 0.71378 0.03
1 7 -2 o 1.140 1.065 0.00 0.71270 0.03
2 7 -1 o 0.118 0.113 0.00 0.71145 0.00
2 6 -4 o 2.833 2.701 180.00 0.71139 0.08
5 1 -6 o 0.007 0.006 180.00 0.71097 0.00
6 1 3 o 0.290 0.279 0.00 0.70928 0.01
4 4 4 o 3.737 3.553 0.00 0.70832 0.10
4 3 -6 o 6.459 6.140 0.00 0.70829 0.17
5 5 1 o 0.579 0.549 180.00 0.70812 0.02
6 4 0 o 0.218 0.206 180.00 0.70786 0.01
6 4 -2 o 0.066 0.062 180.00 0.70716 0.00
1 6 4 o 0.005 0.004 0.00 0.70679 0.00
4 6 -2 o 7.416 6.943 180.00 0.70645 0.19
6 1 -5 o 4.367 4.088 180.00 0.70644 0.11
3 5 4 o 12.588 11.782 0.00 0.70641 0.33
3 5 -5 o 1.896 1.770 0.00 0.70483 0.05
7 2 -1 o 7.136 6.666 0.00 0.70459 0.18
1 7 2 o 8.282 7.747 0.00 0.70423 0.21
4 5 3 o 0.023 0.021 0.00 0.70357 0.00
1 4 6 o 14.659 13.828 180.00 0.70307 0.37
2 7 1 o 4.442 4.192 0.00 0.70302 0.11
6 3 2 o 0.801 0.762 0.00 0.70228 0.02
7 1 -3 o 0.052 0.049 0.00 0.70172 0.00
3 2 6 o 3.491 3.371 0.00 0.70083 0.09
4 6 1 o 1.827 1.766 180.00 0.70075 0.05
3 4 5 o 8.114 7.862 0.00 0.70039 0.20
6 3 -4 o 13.722 13.311 0.00 0.70022 0.34
7 2 -2 o 14.538 14.127 180.00 0.69995 0.36
