#------------------------------------------------------------------------------
#$Date: 2020-11-24 07:07:10 +0200 (Tue, 24 Nov 2020) $
#$Revision: 259224 $
#$URL: file:///home/coder/svn-repositories/cod/cif/2/10/86/2108695.cif $
#------------------------------------------------------------------------------
#
# This file is available in the Crystallography Open Database (COD),
# http://www.crystallography.net/. The original data for this entry
# were provided by IUCr Journals, http://journals.iucr.org/.
#
# The file may be used within the scientific community so long as
# proper attribution is given to the journal article from which the
# data were obtained.
#
data_2108695
loop_
_publ_author_name
'Lindenthal, Lorenz'
'Ruh, Thomas'
'Rameshan, Raffael'
'Summerer, Harald'
'Nenning, Andreas'
'Herzig, Christopher'
'L\"offler, Stefan'
'Limbeck, Andreas'
'Opitz, Alexander Karl'
'Blaha, Peter'
'Rameshan, Christoph'
_publ_section_title
;
 Ca-doped rare earth perovskite materials for tailored exsolution of metal
 nanoparticles
;
_journal_issue                   6
_journal_name_full               'Acta Crystallographica Section B'
_journal_page_first
;
;
_journal_paper_doi               10.1107/S2052520620013475
_journal_volume                  76
_journal_year                    2020
_chemical_formula_structural     'Nd0.6 Ca0.4 Fe O3'
_chemical_formula_sum            'Ca0.4 Fe Nd0.6 O3'
_chemical_formula_weight         206.42
_chemical_name_common
;
Neodymium calcium ferrite
;
_chemical_name_systematic
;
Neodymium calcium iron oxide
;
_space_group_crystal_system      orthorhombic
_space_group_IT_number           62
_space_group_name_Hall           '-P 2ac 2n'
_space_group_name_H-M_alt        'P n m a'
_symmetry_Int_Tables_number      62
_symmetry_space_group_name_H-M   'P n m a'
_cell_angle_alpha                90
_cell_angle_beta                 90
_cell_angle_gamma                90
_cell_formula_units_Z            4
_cell_length_a                   5.533425
_cell_length_b                   7.725984
_cell_length_c                   5.448728
_cell_measurement_temperature    295
_cell_volume                     232.939
_computing_structure_refinement  'HighScore Plus 4.8.0'
_diffrn_ambient_temperature      295
_diffrn_measurement_device_type  'PANalytical X'Pert Pro'
_diffrn_radiation_probe          x-ray
_diffrn_radiation_type           'Cu K\a~1+2~'
_diffrn_radiation_wavelength     1.540598
_diffrn_source                   'sealed X-ray tube'
_diffrn_source_target            Cu
_exptl_crystal_density_diffrn    5.89477248
_exptl_crystal_density_method    'not measured'
_exptl_crystal_F_000             376.51775112
_pd_instr_cons_illum_flag        no
_pd_meas_2theta_range_inc        0.02000000
_pd_meas_2theta_range_max        116.98302676
_pd_meas_2theta_range_min        15.00302676
_pd_meas_datetime_initiated      '6/21/2018 10:34:26 AM'
_pd_meas_number_of_points        5100
_pd_meas_scan_method             step
_pd_proc_2theta_range_inc        0.02000000
_pd_proc_2theta_range_max        116.98302676
_pd_proc_2theta_range_min        15.00302676
_pd_proc_ls_background_function  'Vorhandenen Untergrund benutzen'
_pd_proc_ls_pref_orient_corr     'March/Dollase Modell'
_pd_proc_ls_profile_function     Pseudo-Voigt
_pd_proc_ls_prof_R_factor        0.02353662
_pd_proc_ls_prof_wR_expected     0.02595615
_pd_proc_ls_prof_wR_factor       0.03044061
_pd_proc_number_of_points        5100
_pd_spec_mounting                'Si single crystal'
_pd_spec_mount_mode              reflection
_pd_spec_shape                   irregular
_refine_ls_goodness_of_fit_all   1.17277075
_refine_ls_matrix_type           full
_refine_ls_R_I_factor            0.01111423
_refine_ls_weighting_details     1/[Y~i~+\s(Y~i~)]
_refine_ls_weighting_scheme      sigma
_reflns_d_resolution_high        0.905
_reflns_d_resolution_low         4.417
_reflns_limit_h_max              6
_reflns_limit_h_min              0
_reflns_limit_k_max              8
_reflns_limit_k_min              0
_reflns_limit_l_max              6
_reflns_limit_l_min              0
_reflns_number_observed          178
_cod_data_source_file            je5034sup1.cif
_cod_data_source_block           Nd0.6_Rietveld
_cod_original_cell_volume        232.939400
_cod_original_formula_sum        'Nd0.6 Ca0.4 Fe O3'
_cod_database_code               2108695
_xact_pref_orient_vector_h       0.00000000
_xact_pref_orient_vector_k       0.00000000
_xact_pref_orient_vector_l       1.00000000
_xact_pref_orient_param          1.000000
_xact_scale_factor               0.000635
_xact_cagliotti_u                0.948956
_xact_cagliotti_v                0.000000
_xact_cagliotti_w                0.080536
_xact_shape_param_1              0.600000
_xact_shape_param_2              0.000000
_xact_shape_param_3              0.000000
_xact_asym_param_1               0.025000
_xact_asym_param_2               0.025000
loop_
_symmetry_equiv_pos_as_xyz
'x, y, z'
'-x+1/2, -y, z+1/2'
'x+1/2, -y+1/2, -z+1/2'
'-x, y+1/2, -z'
'-x, -y, -z'
'x+1/2, y, -z+1/2'
'-x+1/2, y+1/2, z+1/2'
'x, -y+1/2, z'
loop_
_atom_site_label
_atom_site_type_symbol
_atom_site_fract_x
_atom_site_fract_y
_atom_site_fract_z
_atom_site_U_iso_or_equiv
_atom_site_thermal_displace_type
_atom_site_occupancy
_atom_site_symmetry_multiplicity
_atom_site_Wyckoff_symbol
_atom_site_calc_flag
ND1 Nd 0.043050 0.250000 0.493855 0.004407 Uiso 0.603236 4 c d
FE1 Fe 0.000000 0.000000 0.000000 0.001482 Uiso 1.000000 4 a d
O1 O 0.492082 0.250000 0.589744 0.005598 Uiso 1.000000 4 c d
O2 O 0.282599 0.050885 0.228095 0.005598 Uiso 1.000000 8 d d
CA1 Ca 0.043050 0.250000 0.493855 0.004407 Uiso 0.396764 4 c d
loop_
_pd_meas_intensity_total
_pd_proc_ls_weight
_pd_proc_intensity_bgk_calc
_pd_calc_intensity_total
1587.6834 0.000630 1587.6834 1587.6834
1565.6140 0.000639 1586.7379 1586.7379
1520.0593 0.000658 1585.7925 1585.7925
1560.6666 0.000641 1584.8471 1584.8471
1588.0195 0.000630 1583.9017 1583.9017
1567.2751 0.000638 1582.9563 1582.9563
1568.7869 0.000637 1582.0109 1582.0109
1558.0439 0.000642 1581.0654 1581.0654
1588.6189 0.000629 1580.1200 1580.1200
1546.6116 0.000647 1579.1746 1579.1746
1547.4283 0.000646 1578.2292 1578.2292
1551.6044 0.000644 1577.2838 1577.2838
1587.0781 0.000630 1576.3383 1576.3383
1590.3711 0.000629 1575.3929 1575.3929
1609.0403 0.000621 1574.4475 1574.4475
1575.9047 0.000635 1573.5021 1573.5021
1536.5779 0.000651 1572.5567 1572.5567
1554.1423 0.000643 1571.6112 1571.6112
1559.2808 0.000641 1570.6658 1570.6658
1547.7987 0.000646 1569.7204 1569.7204
1561.2889 0.000640 1568.7750 1568.7750
1594.1325 0.000627 1567.8296 1567.8296
1578.6181 0.000633 1566.8842 1566.8842
1603.2713 0.000624 1565.9387 1565.9387
1567.8943 0.000638 1564.9933 1564.9933
1488.9406 0.000672 1564.0479 1564.0479
1527.7535 0.000655 1563.1025 1563.1025
1563.4134 0.000640 1562.1571 1562.1571
1564.9611 0.000639 1561.2116 1561.2116
1561.2853 0.000640 1560.2662 1560.2662
1561.3169 0.000640 1559.3208 1559.3208
1547.3569 0.000646 1558.3754 1558.3754
1514.5098 0.000660 1557.4300 1557.4300
1541.9591 0.000649 1556.4845 1556.4845
1576.6408 0.000634 1555.5391 1555.5391
1600.2099 0.000625 1554.5937 1554.5937
1611.5515 0.000621 1553.6483 1553.6483
1555.2237 0.000643 1552.7029 1552.7029
1505.8893 0.000664 1551.7574 1551.7574
1517.1360 0.000659 1550.8120 1550.8120
1532.6922 0.000652 1549.8666 1549.8666
1535.6842 0.000651 1548.9212 1548.9212
1542.0287 0.000648 1547.9758 1547.9758
1562.6822 0.000640 1547.0304 1547.0304
1593.1556 0.000628 1546.0849 1546.0849
1538.1579 0.000650 1545.1395 1545.1395
1529.6819 0.000654 1544.1941 1544.1941
1551.0018 0.000645 1543.2487 1543.2487
1522.9745 0.000657 1542.3033 1542.3033
1559.5254 0.000641 1541.3578 1541.3578
1573.6678 0.000635 1540.4124 1540.4124
1582.5486 0.000632 1539.4670 1539.4670
1558.9228 0.000641 1538.5216 1538.5216
1550.5276 0.000645 1537.5762 1537.5762
1566.6718 0.000638 1536.6307 1536.6307
1484.3980 0.000674 1535.6853 1535.6853
1477.2233 0.000677 1534.7399 1534.7399
1530.6310 0.000653 1533.7945 1533.7945
1593.8606 0.000627 1532.8491 1532.8491
1603.2832 0.000624 1531.9037 1531.9037
1533.4649 0.000652 1530.9582 1530.9582
1525.2571 0.000656 1530.0128 1530.0128
1506.1299 0.000664 1529.0674 1529.0674
1491.1024 0.000671 1528.1220 1528.1220
1511.5001 0.000662 1527.1766 1527.1766
1494.5978 0.000669 1526.2311 1526.2311
1444.8347 0.000692 1525.2857 1525.2857
1464.1700 0.000683 1524.3403 1524.3403
1497.4260 0.000668 1523.3949 1523.3949
1521.2880 0.000657 1522.4495 1522.4495
1555.4157 0.000643 1521.5040 1521.5040
1522.7463 0.000657 1520.5586 1520.5586
1528.8057 0.000654 1519.6132 1519.6132
1526.5837 0.000655 1518.6678 1518.6678
1475.4332 0.000678 1517.7224 1517.7224
1507.8320 0.000663 1516.7769 1516.7769
1549.0881 0.000646 1515.8315 1515.8315
1517.9708 0.000659 1514.8861 1514.8861
1471.0765 0.000680 1513.9407 1513.9407
1496.0988 0.000668 1512.9953 1512.9953
1550.2498 0.000645 1512.0499 1512.0499
1533.0012 0.000652 1511.1044 1511.1044
1502.3893 0.000666 1510.1590 1510.1590
1481.8137 0.000675 1509.2136 1509.2136
1515.4665 0.000660 1508.2682 1508.2682
1524.9958 0.000656 1507.4268 1507.4268
1516.3194 0.000659 1506.5854 1506.5854
1515.6683 0.000660 1505.7440 1505.7440
1506.4821 0.000664 1504.9025 1504.9025
1502.9640 0.000665 1504.0611 1504.0773
1569.8091 0.000637 1503.2197 1503.2361
1573.7459 0.000635 1502.3783 1502.3949
1514.2294 0.000660 1501.5369 1501.5619
1496.3991 0.000668 1500.6955 1500.7208
1537.9189 0.000650 1499.8541 1499.8797
1519.1997 0.000658 1499.0127 1499.0386
1501.0233 0.000666 1498.1713 1498.1975
1528.8176 0.000654 1497.3299 1497.3564
1498.1309 0.000667 1496.4885 1496.5153
1503.3636 0.000665 1495.6470 1495.6743
1543.2710 0.000648 1494.8056 1494.8332
1551.1911 0.000645 1493.9642 1493.9922
1535.4405 0.000651 1493.1228 1493.1511
1517.2081 0.000659 1492.2814 1492.3101
1496.3367 0.000668 1491.4400 1491.4691
1463.6564 0.000683 1490.5986 1490.6280
1469.6982 0.000680 1489.7572 1489.7870
1464.1960 0.000683 1488.9158 1488.9460
1457.7813 0.000686 1488.0744 1488.1050
1475.9252 0.000678 1487.2330 1487.2640
1484.4200 0.000674 1486.3915 1486.4231
1535.2842 0.000651 1485.5501 1485.5821
1524.1667 0.000656 1484.7087 1484.7411
1563.5681 0.000640 1483.8673 1483.9002
1482.7413 0.000674 1483.0259 1483.0592
1451.0179 0.000689 1482.1845 1482.2183
1489.0264 0.000672 1481.3431 1481.3774
1485.5857 0.000673 1480.5017 1480.5365
1475.2727 0.000678 1479.6603 1479.6956
1470.0794 0.000680 1478.8189 1478.8547
1540.8899 0.000649 1477.9775 1478.0138
1546.9923 0.000646 1477.1361 1477.1729
1474.7618 0.000678 1476.2946 1476.3321
1472.8063 0.000679 1475.4532 1475.4912
1450.1630 0.000690 1474.6118 1474.6504
1469.0823 0.000681 1473.7704 1473.8096
1517.9198 0.000659 1472.9290 1472.9688
1476.3232 0.000677 1472.0876 1472.1280
1484.9505 0.000673 1471.2462 1471.2872
1490.7142 0.000671 1470.4048 1470.4465
1478.5509 0.000676 1469.5634 1469.6057
1469.1029 0.000681 1468.7220 1468.7650
1464.7991 0.000683 1467.8806 1467.9243
1433.0538 0.000698 1467.0391 1467.0836
1456.8411 0.000686 1466.1977 1466.2429
1486.8632 0.000673 1465.3563 1465.4023
1475.6071 0.000678 1464.5149 1464.5616
1451.6816 0.000689 1463.6735 1463.7210
1467.5294 0.000681 1462.8321 1462.8804
1457.5952 0.000686 1461.9907 1462.0398
1485.9436 0.000673 1461.1493 1461.1993
1487.9249 0.000672 1460.3079 1460.3587
1464.2532 0.000683 1459.4665 1459.5182
1466.3005 0.000682 1458.6251 1458.6777
1443.7246 0.000693 1457.7836 1457.8373
1462.3666 0.000684 1456.9422 1456.9968
1480.6578 0.000675 1456.1008 1456.1564
1467.5570 0.000681 1455.2594 1455.3161
1458.2426 0.000686 1454.4180 1454.4757
1416.8882 0.000706 1453.5766 1453.6354
1418.2460 0.000705 1452.7352 1452.7951
1498.0558 0.000668 1451.8938 1451.9548
1446.6136 0.000691 1451.0524 1451.1146
1449.7120 0.000690 1450.2110 1450.2744
1474.4018 0.000678 1449.3696 1449.4343
1467.2571 0.000682 1448.5282 1448.5941
1469.5269 0.000680 1447.6867 1447.7541
1460.6541 0.000685 1446.8453 1446.9140
1440.9312 0.000694 1446.0039 1446.0740
1500.0141 0.000667 1445.1625 1445.2341
1483.5909 0.000674 1444.3211 1444.3942
1459.1205 0.000685 1443.4797 1443.5543
1504.6537 0.000665 1442.6383 1442.7145
1476.5852 0.000677 1441.7969 1441.8747
1478.7607 0.000676 1440.9555 1441.0350
1492.7035 0.000670 1440.1141 1440.1954
1459.9886 0.000685 1439.2727 1439.3558
1449.0782 0.000690 1438.4312 1438.5163
1467.7755 0.000681 1437.5898 1437.6768
1445.9340 0.000692 1436.7225 1436.8115
1405.3358 0.000712 1435.8553 1435.9463
1450.1511 0.000690 1434.9880 1435.0812
1486.3410 0.000673 1434.1207 1434.2161
1459.3811 0.000685 1433.2534 1433.3512
1426.5094 0.000701 1432.3861 1432.4863
1459.5617 0.000685 1431.5188 1431.6215
1512.4714 0.000661 1430.6515 1430.7568
1416.8173 0.000706 1429.7842 1429.8922
1413.6771 0.000707 1428.9170 1429.0277
1440.2826 0.000694 1428.0497 1428.1633
1450.1915 0.000690 1427.1824 1427.2990
1452.3999 0.000689 1426.3151 1426.4349
1518.1186 0.000659 1425.4478 1425.5708
1464.6615 0.000683 1424.5805 1424.7069
1494.3266 0.000669 1423.7132 1423.8432
1467.5106 0.000681 1422.8459 1422.9796
1446.3602 0.000691 1421.9786 1422.1161
1457.3826 0.000686 1421.1114 1421.2529
1424.0185 0.000702 1420.2441 1420.3898
1473.0238 0.000679 1419.3768 1419.5269
1404.5493 0.000712 1418.5095 1418.6641
1449.1134 0.000690 1417.6422 1417.8016
1491.6357 0.000670 1416.7749 1416.9394
1407.6641 0.000710 1415.9076 1416.0773
1400.8162 0.000714 1415.0403 1415.2156
1444.1287 0.000692 1414.1731 1414.3540
1490.1600 0.000671 1413.3058 1413.4928
1394.8856 0.000717 1412.4385 1412.6319
1408.4205 0.000710 1411.5712 1411.7713
1429.1473 0.000700 1410.7039 1410.9111
1462.6146 0.000684 1409.8366 1410.0512
1445.8843 0.000692 1408.9693 1409.1918
1511.2586 0.000662 1408.1020 1408.3327
1473.4192 0.000679 1407.2347 1407.4742
1435.5711 0.000697 1406.3675 1406.6161
1475.3099 0.000678 1405.5002 1405.7586
1436.6944 0.000696 1404.6329 1404.9017
1447.4613 0.000691 1403.7656 1404.0454
1429.8684 0.000699 1402.8983 1403.1898
1385.4865 0.000722 1402.0310 1402.3349
1407.4278 0.000711 1401.1637 1401.4808
1420.6466 0.000704 1401.1573 1401.4884
1371.8856 0.000729 1401.1509 1401.4970
1410.6290 0.000709 1401.1445 1401.5067
1457.4084 0.000686 1401.1380 1401.5174
1429.2466 0.000700 1401.1316 1401.5294
1386.4151 0.000721 1401.1252 1401.5428
1408.6170 0.000710 1401.1188 1401.5576
1488.3039 0.000672 1401.1123 1401.5741
1432.1583 0.000698 1401.1059 1401.5924
1455.4183 0.000687 1401.0995 1401.6127
1456.0313 0.000687 1401.0931 1401.6352
1412.9581 0.000708 1401.0866 1401.6603
1438.7236 0.000695 1401.0802 1401.6881
1467.5478 0.000681 1401.0738 1401.7192
1410.0155 0.000709 1401.0674 1401.7540
1399.7736 0.000714 1401.0609 1401.7930
1436.3755 0.000696 1401.0545 1401.8371
1414.4955 0.000707 1401.0481 1401.8872
1437.7753 0.000696 1401.0417 1401.9448
1449.9430 0.000690 1401.0352 1402.2402
1451.3894 0.000689 1401.0288 1402.3212
1490.6764 0.000671 1401.0224 1402.4169
1447.5593 0.000691 1401.0160 1402.6460
1439.6019 0.000695 1401.0096 1402.7861
1454.7049 0.000687 1401.0031 1402.9571
1513.4675 0.000661 1400.9967 1403.3512
1498.6643 0.000667 1400.9903 1403.6125
1441.1399 0.000694 1400.9839 1403.9342
1470.5501 0.000680 1400.9774 1404.4213
1430.5438 0.000699 1400.9710 1404.9043
1509.7633 0.000662 1400.9646 1405.4880
1431.1497 0.000699 1400.9582 1406.1854
1437.1782 0.000696 1400.9517 1407.0075
1446.7450 0.000691 1400.9453 1407.9617
1531.3068 0.000653 1400.9389 1409.0506
1376.4555 0.000727 1400.9325 1410.2699
1476.1764 0.000677 1400.9260 1411.6063
1406.6073 0.000711 1400.9196 1413.0357
1473.4552 0.000679 1400.9132 1414.5204
1387.0826 0.000721 1400.9068 1416.0062
1410.0481 0.000709 1400.9004 1417.4213
1461.9093 0.000684 1400.8939 1418.6780
1365.4281 0.000732 1400.8563 1419.6491
1464.2917 0.000683 1400.8187 1420.2766
1516.4929 0.000659 1400.7810 1420.4965
1471.5714 0.000680 1400.7434 1420.2850
1425.6941 0.000701 1400.7057 1419.6638
1451.5205 0.000689 1400.6681 1418.6931
1477.4689 0.000677 1400.6305 1417.4574
1482.8845 0.000674 1400.5928 1416.0494
1477.1546 0.000677 1400.5552 1414.5562
1437.1658 0.000696 1400.5176 1413.0511
1369.1462 0.000730 1400.4799 1411.5910
1414.3451 0.000707 1400.4423 1410.2168
1433.3441 0.000698 1400.4047 1408.9551
1415.7431 0.000706 1400.3670 1407.8213
1437.0391 0.000696 1400.3294 1406.8213
1437.0444 0.000696 1400.2918 1405.9539
1402.6962 0.000713 1400.2541 1405.2125
1478.9175 0.000676 1400.2165 1404.5867
1422.3572 0.000703 1400.1789 1404.0640
1428.4488 0.000700 1400.1412 1403.6308
1487.4168 0.000672 1400.1036 1403.2734
1492.8791 0.000670 1400.0659 1402.9789
1412.4293 0.000708 1400.0283 1402.7358
1379.9082 0.000725 1399.9907 1402.5340
1392.9045 0.000718 1399.9530 1402.3649
1447.8740 0.000691 1399.9154 1402.2215
1422.3618 0.000703 1399.8778 1402.0984
1425.5411 0.000701 1399.8401 1401.9913
1420.4749 0.000704 1399.8025 1401.8967
1386.9453 0.000721 1399.7649 1401.8123
1469.1430 0.000681 1399.7272 1401.7361
1432.2705 0.000698 1399.6896 1401.6667
1462.5868 0.000684 1399.6520 1401.6031
1420.6245 0.000704 1399.6143 1401.5443
1445.8597 0.000692 1399.5767 1401.4900
1458.9239 0.000685 1399.5391 1401.4395
1495.9801 0.000668 1399.5014 1401.3924
1327.8080 0.000753 1399.4638 1401.3485
1336.6133 0.000748 1399.4261 1401.3075
1454.1114 0.000688 1399.3885 1401.2691
1420.0034 0.000704 1399.3509 1401.2333
1393.6184 0.000718 1399.3132 1401.1998
1367.1458 0.000731 1399.2411 1401.1341
1473.2216 0.000679 1399.1690 1401.0704
1407.2101 0.000711 1399.0969 1401.0088
1453.7818 0.000688 1399.0248 1400.9491
1454.1447 0.000688 1398.9527 1400.8912
1483.4550 0.000674 1398.8806 1400.8351
1431.6141 0.000699 1398.8084 1400.7808
1459.3218 0.000685 1398.7363 1400.7282
1450.3437 0.000689 1398.6642 1400.6773
1405.0266 0.000712 1398.5921 1400.6280
1421.1336 0.000704 1398.5200 1400.5804
1454.8945 0.000687 1398.4479 1400.5344
1447.2281 0.000691 1398.3758 1400.4901
1386.4334 0.000721 1398.3037 1400.4474
1408.9988 0.000710 1398.2315 1400.4064
1467.2941 0.000682 1398.1594 1400.3670
1492.1341 0.000670 1398.0873 1400.3293
1446.3893 0.000691 1398.0152 1400.2934
1415.2784 0.000707 1397.9431 1400.2591
1454.3044 0.000688 1397.8710 1400.2267
1404.8924 0.000712 1397.7989 1400.1961
1406.2390 0.000711 1397.7267 1400.1674
1429.6193 0.000699 1397.6546 1400.1406
1428.2453 0.000700 1397.5825 1400.1158
1440.9304 0.000694 1397.5104 1400.0931
1433.3821 0.000698 1397.4383 1400.0725
1378.0838 0.000726 1397.3662 1400.0540
1397.6456 0.000715 1397.2941 1400.0379
1418.7489 0.000705 1397.2220 1400.0241
1473.5896 0.000679 1397.1498 1400.0128
1501.2650 0.000666 1397.0777 1400.0040
1493.7895 0.000669 1397.0056 1399.9980
1414.3842 0.000707 1396.9335 1399.9947
1417.2715 0.000706 1396.8614 1399.9943
1398.4250 0.000715 1396.7893 1399.9970
1410.1717 0.000709 1396.7172 1400.0029
1441.7718 0.000694 1396.6450 1400.0121
1364.2485 0.000733 1396.5729 1400.0249
1454.3997 0.000688 1396.5008 1400.0413
1381.5607 0.000724 1396.4287 1400.0617
1366.7578 0.000732 1396.3566 1400.0861
1442.2135 0.000693 1396.2845 1400.1149
1425.9732 0.000701 1396.1754 1400.1112
1430.3744 0.000699 1396.0662 1400.1124
1445.7247 0.000692 1395.9571 1400.1186
1416.9379 0.000706 1395.8480 1400.1302
1491.4394 0.000670 1395.7388 1400.1476
1449.0178 0.000690 1395.6297 1400.1709
1479.8764 0.000676 1395.5206 1400.2008
1466.1390 0.000682 1395.4115 1400.2374
1408.7475 0.000710 1395.3023 1400.2813
1425.1369 0.000702 1395.1932 1400.3330
1392.8073 0.000718 1395.0841 1400.3928
1404.7132 0.000712 1394.9749 1400.4615
1422.1330 0.000703 1394.8658 1400.5396
1411.0028 0.000709 1394.7567 1400.6278
1414.8083 0.000707 1394.6476 1400.7267
1435.5525 0.000697 1394.5384 1400.8371
1421.5968 0.000703 1394.4293 1400.9600
1439.4106 0.000695 1394.3202 1401.0962
1443.2132 0.000693 1394.2110 1401.2467
1443.8827 0.000693 1394.1019 1401.4127
1447.1540 0.000691 1393.9928 1401.5954
1399.3567 0.000715 1393.8837 1401.7961
1422.7604 0.000703 1393.7745 1402.0164
1455.6201 0.000687 1393.6654 1402.2578
1406.1205 0.000711 1393.5563 1402.8829
1440.7826 0.000694 1393.4471 1403.1764
1457.2780 0.000686 1393.3380 1403.4973
1479.8751 0.000676 1393.2289 1403.8481
1433.1773 0.000698 1393.1198 1404.4133
1417.0219 0.000706 1393.0106 1404.8347
1457.6400 0.000686 1392.9015 1405.2956
1396.1823 0.000716 1392.7924 1405.8000
1433.0282 0.000698 1392.6832 1406.3528
1438.6674 0.000695 1392.5741 1406.9595
1420.5548 0.000704 1392.4650 1407.6266
1447.8309 0.000691 1392.3559 1408.3619
1493.0641 0.000670 1392.2467 1409.1752
1453.5163 0.000688 1392.1376 1410.0785
1463.8483 0.000683 1392.0285 1411.0872
1498.0152 0.000668 1391.9193 1412.2210
1462.1343 0.000684 1391.8102 1413.5055
1489.6472 0.000671 1391.7011 1414.9742
1511.7035 0.000662 1391.5559 1416.6344
1475.1989 0.000678 1391.4107 1418.5786
1472.0410 0.000679 1391.2655 1420.8788
1537.3132 0.000650 1391.1203 1423.6264
1521.2996 0.000657 1390.9751 1426.9348
1523.1298 0.000657 1390.8299 1430.9422
1527.0643 0.000655 1390.6847 1435.8131
1560.7178 0.000641 1390.5395 1441.7387
1575.3447 0.000635 1390.3943 1448.9345
1603.3989 0.000624 1390.2491 1457.6356
1592.9003 0.000628 1390.1040 1468.0890
1613.7961 0.000620 1389.9588 1480.5421
1653.5634 0.000605 1389.8136 1495.2279
1665.2492 0.000601 1389.6684 1512.3462
1706.4253 0.000586 1389.5232 1532.0418
1751.4355 0.000571 1389.3780 1554.3781
1780.6479 0.000562 1389.2328 1579.3059
1805.1202 0.000554 1389.0876 1606.6267
1851.2863 0.000540 1388.9424 1635.9511
1949.8556 0.000513 1388.7972 1666.6555
2006.4828 0.000498 1388.6520 1697.8524
1990.2832 0.000502 1388.5068 1728.3955
2013.2357 0.000497 1388.3616 1756.9486
2080.4513 0.000481 1388.2164 1782.1262
2088.1667 0.000479 1388.0712 1802.6750
2069.2595 0.000483 1387.9260 1817.6263
2061.2808 0.000485 1387.7808 1826.3624
2020.4173 0.000495 1387.6356 1828.5956
1957.1726 0.000511 1387.4904 1824.3161
1925.1811 0.000519 1387.3452 1813.7596
1944.7482 0.000514 1387.2001 1797.4105
1918.1819 0.000521 1387.0549 1776.0105
1855.5841 0.000539 1386.9097 1750.5358
1832.4288 0.000546 1386.7645 1722.1300
1774.5767 0.000564 1386.6193 1692.0035
1718.5507 0.000582 1386.4741 1661.3242
1647.0470 0.000607 1386.3289 1631.1208
1616.9373 0.000618 1386.1837 1602.2200
1601.9907 0.000624 1386.0385 1575.2237
1551.2399 0.000645 1385.8933 1550.5198
1536.7355 0.000651 1385.7481 1528.3115
1546.2992 0.000647 1385.6029 1508.6391
1497.5636 0.000668 1385.4234 1491.4450
1469.7022 0.000680 1385.2439 1476.6113
1527.5160 0.000655 1385.0645 1463.9404
1493.2096 0.000670 1384.8850 1453.2270
1444.9495 0.000692 1384.7055 1444.2274
1452.1953 0.000689 1384.5260 1436.7062
1505.8988 0.000664 1384.3465 1430.4386
1509.9624 0.000662 1384.1670 1425.2178
1431.1910 0.000699 1383.9875 1420.8593
1435.1454 0.000697 1383.8080 1417.2032
1492.4227 0.000670 1383.6286 1414.1142
1504.6789 0.000665 1383.4491 1411.4805
1440.8771 0.000694 1383.2696 1409.2110
1431.5374 0.000699 1383.0901 1407.2332
1441.4102 0.000694 1382.9106 1405.4900
1416.0573 0.000706 1382.7311 1403.9368
1428.0719 0.000700 1382.5516 1402.5393
1443.0255 0.000693 1382.3722 1401.2709
1439.0186 0.000695 1382.1927 1400.1111
1438.4262 0.000695 1382.0132 1399.0438
1427.2721 0.000701 1381.8337 1398.0565
1439.8714 0.000695 1381.6542 1397.1392
1459.3918 0.000685 1381.4747 1396.2837
1421.5960 0.000703 1381.2952 1395.4835
1426.5727 0.000701 1381.1157 1394.7329
1421.8475 0.000703 1380.9363 1394.0270
1390.3002 0.000719 1380.7568 1393.3619
1450.1154 0.000690 1380.5773 1392.7338
1471.7855 0.000679 1380.3978 1392.1397
1415.3155 0.000707 1380.2183 1391.5768
1418.7508 0.000705 1380.0388 1391.0426
1443.1801 0.000693 1379.8593 1390.5350
1407.8245 0.000710 1379.6799 1390.0518
1371.1006 0.000729 1379.5004 1389.5915
1408.5612 0.000710 1379.3209 1389.1523
1428.5630 0.000700 1379.1414 1388.7330
1440.8111 0.000694 1378.9619 1388.3321
1445.8872 0.000692 1378.7824 1387.9487
1430.1563 0.000699 1378.6029 1387.5815
1412.6654 0.000708 1378.4234 1387.2299
1371.8448 0.000729 1378.2440 1386.8928
1424.4033 0.000702 1378.0645 1386.5695
1463.5504 0.000683 1377.8519 1386.2263
1435.2703 0.000697 1377.6392 1385.8957
1396.9002 0.000716 1377.4266 1385.5772
1364.8024 0.000733 1377.2140 1385.2703
1390.6686 0.000719 1377.0014 1384.9747
1431.1620 0.000699 1376.7888 1384.6898
1451.5977 0.000689 1376.5762 1384.4156
1400.0091 0.000714 1376.3636 1384.1516
1386.8612 0.000721 1376.1510 1383.8977
1391.0117 0.000719 1375.9384 1383.6537
1374.0571 0.000728 1375.7257 1383.4196
1376.5779 0.000726 1375.5131 1383.1951
1411.9289 0.000708 1375.3005 1382.9803
1436.5996 0.000696 1375.0879 1382.7752
1408.9542 0.000710 1374.8753 1382.5798
1370.7654 0.000730 1374.6627 1382.3941
1393.4425 0.000718 1374.4501 1382.2184
1415.3747 0.000707 1374.2375 1382.0527
1413.5152 0.000707 1374.0249 1381.8973
1415.8528 0.000706 1373.8122 1381.7524
1414.0322 0.000707 1373.5996 1381.6183
1422.1847 0.000703 1373.3870 1381.4954
1409.1843 0.000710 1373.1744 1381.3840
1384.8016 0.000722 1372.9618 1381.2846
1319.0363 0.000758 1372.7492 1381.1977
1353.7367 0.000739 1372.5366 1381.1240
1369.6282 0.000730 1372.3240 1381.0639
1422.2276 0.000703 1372.1113 1381.0184
1463.1530 0.000683 1371.8987 1380.9881
1424.1727 0.000702 1371.6861 1380.9741
1381.3254 0.000724 1371.4735 1380.9773
1424.1217 0.000702 1371.2609 1380.9988
1463.6689 0.000683 1371.0483 1381.0399
1424.6940 0.000702 1370.8357 1381.1020
1410.8485 0.000709 1370.6231 1381.1867
1385.4168 0.000722 1370.4105 1381.2956
1402.1704 0.000713 1370.1978 1381.4307
1436.4628 0.000696 1369.9852 1381.5942
1432.6334 0.000698 1369.7726 1381.7886
1363.0349 0.000734 1369.5600 1382.0164
1343.8065 0.000744 1369.3474 1382.2809
1352.6819 0.000739 1369.1348 1382.5855
1422.5970 0.000703 1368.9222 1382.9342
1449.9610 0.000690 1368.7096 1383.3319
1451.3647 0.000689 1368.4970 1383.7839
1458.1898 0.000686 1368.2843 1384.2968
1455.6989 0.000687 1368.0717 1384.8787
1416.8834 0.000706 1367.8591 1385.5394
1434.6048 0.000697 1367.6465 1386.2915
1448.9561 0.000690 1367.4339 1387.1508
1431.4550 0.000699 1367.2213 1388.1378
1382.5571 0.000723 1367.0087 1389.2795
1413.7779 0.000707 1366.7961 1390.6105
1422.9919 0.000703 1366.5834 1392.1761
1434.7090 0.000697 1366.3708 1394.0349
1442.9374 0.000693 1366.1582 1396.2612
1452.7177 0.000688 1365.9456 1398.9489
1422.0000 0.000703 1365.7330 1402.2136
1440.2193 0.000694 1365.5204 1406.1955
1496.9946 0.000668 1365.3078 1411.0603
1519.1506 0.000658 1365.0952 1416.9984
1490.4843 0.000671 1364.8826 1424.2228
1459.0646 0.000685 1364.6699 1432.9627
1507.7330 0.000663 1364.4573 1443.4553
1509.9071 0.000662 1364.2447 1455.9328
1536.3129 0.000651 1364.0321 1470.6074
1589.0358 0.000629 1363.8195 1487.6522
1610.9644 0.000621 1363.6069 1507.1800
1651.0372 0.000606 1363.3943 1529.2196
1590.9400 0.000629 1363.1817 1553.6896
1580.2402 0.000633 1362.9690 1580.3693
1679.4920 0.000595 1362.7564 1608.8654
1648.2031 0.000607 1362.5438 1638.5742
1677.3571 0.000596 1362.3312 1668.6429
1677.3157 0.000596 1362.1186 1697.9431
1694.6031 0.000590 1361.9060 1725.0800
1656.3356 0.000604 1361.6934 1748.4704
1638.8059 0.000610 1361.4808 1766.5131
1670.8998 0.000598 1361.2682 1777.8331
1698.4002 0.000589 1361.0555 1781.5306
1704.5011 0.000587 1360.8429 1777.3420
1653.5127 0.000605 1360.6303 1765.6612
1692.6460 0.000591 1360.4177 1747.4365
1610.9900 0.000621 1360.2051 1723.9933
1625.3744 0.000615 1359.9594 1696.8016
1623.0072 0.000616 1359.7136 1667.3897
1568.0556 0.000638 1359.4679 1637.1052
1572.3479 0.000636 1359.2222 1607.0676
1563.4061 0.000640 1358.9764 1578.1434
1562.2809 0.000640 1358.7307 1550.9583
1476.4313 0.000677 1358.4849 1525.9268
1504.5378 0.000665 1358.2392 1503.2870
1501.7120 0.000666 1357.9935 1483.1334
1475.6423 0.000678 1357.7477 1465.4476
1520.2630 0.000658 1357.5020 1450.1246
1455.1815 0.000687 1357.2563 1436.9977
1452.0648 0.000689 1357.0105 1425.8598
1436.2907 0.000696 1356.7648 1416.4827
1449.2560 0.000690 1356.5190 1408.6323
1455.0448 0.000687 1356.2733 1402.0812
1434.3640 0.000697 1356.0276 1396.6175
1444.7099 0.000692 1355.7818 1392.0509
1409.2542 0.000710 1355.5361 1388.2151
1393.3640 0.000718 1355.2904 1384.9690
1413.3628 0.000708 1355.0446 1382.1953
1422.1287 0.000703 1354.7989 1379.7988
1406.4786 0.000711 1354.5532 1377.7032
1433.1126 0.000698 1354.3074 1375.8487
1411.4405 0.000708 1354.0617 1374.1887
1407.8004 0.000710 1353.8159 1372.6869
1365.7642 0.000732 1353.5702 1371.3157
1338.5817 0.000747 1353.3245 1370.0537
1374.6256 0.000727 1353.0787 1368.8842
1417.6599 0.000705 1352.8330 1367.5687
1383.5233 0.000723 1352.5873 1366.5507
1385.9747 0.000722 1352.3415 1365.5937
1374.4822 0.000728 1352.0958 1364.5781
1348.7728 0.000741 1351.8501 1363.7250
1384.4728 0.000722 1351.6043 1362.9153
1348.5820 0.000742 1351.3586 1361.9641
1378.5221 0.000725 1351.1128 1361.2317
1348.0374 0.000742 1350.8671 1360.5317
1384.9266 0.000722 1350.6214 1359.7711
1426.4954 0.000701 1350.3756 1359.1291
1435.0426 0.000697 1350.1299 1358.5120
1399.7823 0.000714 1349.8842 1357.9177
1384.5538 0.000722 1349.6065 1357.3125
1347.6532 0.000742 1349.3288 1356.7268
1383.8693 0.000723 1349.0511 1356.1590
1396.7337 0.000716 1348.7734 1355.6077
1343.0306 0.000745 1348.4957 1355.0718
1337.5294 0.000748 1348.2180 1354.5501
1386.3312 0.000721 1347.9403 1354.0417
1388.3174 0.000720 1347.6626 1353.5455
1365.8244 0.000732 1347.3849 1353.0608
1334.0575 0.000750 1347.1072 1352.5867
1408.7115 0.000710 1346.8295 1352.1225
1407.5695 0.000710 1346.5518 1351.6677
1442.1336 0.000693 1346.2741 1351.2215
1440.2818 0.000694 1345.9964 1350.7835
1386.6758 0.000721 1345.7187 1350.3531
1397.0588 0.000716 1345.4411 1349.9298
1393.4558 0.000718 1345.1634 1349.5132
1322.0226 0.000756 1344.8857 1349.1030
1411.0508 0.000709 1344.6080 1348.6987
1408.8258 0.000710 1344.3303 1348.2999
1346.4088 0.000743 1344.0526 1347.9065
1356.6675 0.000737 1343.7749 1347.5180
1394.4009 0.000717 1343.4972 1347.1341
1403.6632 0.000712 1343.2195 1346.7548
1396.5637 0.000716 1342.9418 1346.3796
1438.8451 0.000695 1342.6641 1346.0083
1403.2941 0.000713 1342.3864 1345.6408
1379.5186 0.000725 1342.1087 1345.2769
1361.4223 0.000735 1341.8310 1344.9163
1338.8990 0.000747 1341.5533 1344.5589
1380.0937 0.000725 1341.2756 1344.2046
1385.6748 0.000722 1340.9979 1343.8531
1425.8211 0.000701 1340.7202 1343.5044
1339.9011 0.000746 1340.4425 1343.1583
1423.1531 0.000703 1340.1649 1342.8147
1441.9677 0.000693 1339.8872 1342.4734
1435.7225 0.000697 1339.6095 1342.1344
1334.0030 0.000750 1339.3318 1341.7976
1391.8482 0.000718 1339.0541 1341.4627
1425.8203 0.000701 1338.7764 1341.1299
1372.4296 0.000729 1338.4987 1340.7989
1379.9150 0.000725 1338.2210 1340.4697
1391.8405 0.000718 1337.9119 1340.1108
1411.6808 0.000708 1337.6028 1339.7535
1387.4658 0.000721 1337.2937 1339.3978
1350.7881 0.000740 1336.9846 1339.0436
1309.9827 0.000763 1336.6755 1338.6908
1335.2808 0.000749 1336.3664 1338.3394
1354.4432 0.000738 1336.0573 1337.9893
1394.6890 0.000717 1335.7482 1337.6405
1382.4850 0.000723 1335.4392 1337.2929
1340.6045 0.000746 1335.1301 1336.9464
1353.4003 0.000739 1334.8210 1336.6011
1395.1660 0.000717 1334.5119 1336.2568
1423.7310 0.000702 1334.2028 1335.9136
1403.1038 0.000713 1333.8937 1335.5713
1365.9250 0.000732 1333.5846 1335.2300
1327.0798 0.000754 1333.2755 1334.8896
1386.3602 0.000721 1332.9664 1334.5501
1396.5893 0.000716 1332.6573 1334.2115
1351.9441 0.000740 1332.3482 1333.8736
1413.5837 0.000707 1332.0391 1333.5366
1360.1337 0.000735 1331.7300 1333.2003
1436.9673 0.000696 1331.4209 1332.8648
1383.6087 0.000723 1331.1118 1332.5299
1353.0910 0.000739 1330.8028 1332.1957
1364.8398 0.000733 1330.4937 1331.8622
1428.5588 0.000700 1330.1846 1331.5294
1297.3203 0.000771 1329.8755 1331.1971
1365.4887 0.000732 1329.5664 1330.8654
1356.5844 0.000737 1329.2573 1330.5343
1339.5418 0.000747 1328.9482 1330.2038
1382.4252 0.000723 1328.6391 1329.8738
1360.7849 0.000735 1328.3300 1329.5443
1382.3351 0.000723 1328.0209 1329.2153
1392.1890 0.000718 1327.7118 1328.8868
1350.8898 0.000740 1327.4027 1328.5588
1388.8780 0.000720 1327.0936 1328.2312
1384.2031 0.000722 1326.7845 1327.9041
1418.5182 0.000705 1326.4754 1327.5773
1408.8354 0.000710 1326.1664 1327.2510
1318.7384 0.000758 1325.8573 1326.9251
1346.5976 0.000743 1325.5482 1326.5996
1319.5407 0.000758 1325.2391 1326.2745
1321.9969 0.000756 1325.4108 1326.4305
1329.1036 0.000752 1325.5825 1326.5868
1362.1630 0.000734 1325.7541 1327.8422
1374.7994 0.000727 1325.9258 1328.0103
1342.3066 0.000745 1326.0975 1328.1789
1363.6992 0.000733 1326.2692 1328.3479
1377.4445 0.000726 1326.4409 1329.0661
1428.6437 0.000700 1326.6126 1329.2417
1387.5111 0.000721 1326.7843 1329.4178
1396.8624 0.000716 1326.9560 1329.5944
1416.9584 0.000706 1327.1277 1329.7716
1462.2625 0.000684 1327.2993 1329.9494
1382.3715 0.000723 1327.4710 1330.1277
1417.2347 0.000706 1327.6427 1330.3065
1395.1848 0.000717 1327.8144 1330.4859
1408.1952 0.000710 1327.9861 1330.6658
1431.1338 0.000699 1328.1578 1330.8463
1342.1255 0.000745 1328.3295 1331.0273
1375.9003 0.000727 1328.5012 1336.1207
1368.0503 0.000731 1328.6729 1336.3520
1400.9553 0.000714 1328.8446 1336.5846
1419.6413 0.000704 1329.0162 1336.8185
1376.3101 0.000727 1329.1879 1339.5055
1354.6149 0.000738 1329.3596 1339.7666
1391.7171 0.000719 1329.5313 1340.0294
1394.5369 0.000717 1329.7030 1340.2940
1380.1166 0.000725 1329.8747 1341.6527
1352.1211 0.000740 1330.0464 1341.9318
1348.3996 0.000742 1330.2181 1342.2129
1365.7414 0.000732 1330.3898 1342.4961
1400.9870 0.000714 1330.5615 1343.3265
1431.1724 0.000699 1330.7331 1343.6193
1451.2056 0.000689 1330.9048 1343.9144
1363.7622 0.000733 1331.0765 1344.2117
1349.1902 0.000741 1331.2482 1344.5114
1359.0308 0.000736 1331.4199 1344.8134
1381.2417 0.000724 1331.5916 1345.1179
1355.9657 0.000737 1331.7633 1345.4248
1363.2369 0.000734 1331.9350 1345.7342
1411.1490 0.000709 1332.1067 1346.0462
1394.8217 0.000717 1332.2784 1346.3608
1415.8420 0.000706 1332.4500 1346.6781
1425.7625 0.000701 1332.5904 1346.9668
1426.7598 0.000701 1332.7307 1347.2582
1378.5409 0.000725 1332.8711 1347.5525
1399.9707 0.000714 1333.0114 1347.8497
1441.3216 0.000694 1333.1517 1348.1498
1354.3575 0.000738 1333.2921 1348.4530
1428.7492 0.000700 1333.4324 1348.7593
1479.1327 0.000676 1333.5727 1348.7124
1464.7299 0.000683 1333.7131 1349.0290
1460.9540 0.000684 1333.8534 1349.3488
1410.4925 0.000709 1333.9938 1349.4933
1441.1212 0.000694 1334.1341 1349.8218
1452.4256 0.000689 1334.2744 1350.1537
1430.3490 0.000699 1334.4148 1350.4892
1391.8187 0.000718 1334.5551 1350.8283
1411.7890 0.000708 1334.6955 1351.1711
1370.0144 0.000730 1334.8358 1351.5178
1397.0483 0.000716 1334.9761 1351.8683
1467.4418 0.000681 1335.1165 1352.2229
1394.7541 0.000717 1335.2568 1352.5815
1416.5671 0.000706 1335.3971 1352.9444
1407.0898 0.000711 1335.5375 1353.3116
1403.5569 0.000712 1335.6778 1353.6832
1417.1146 0.000706 1335.8182 1354.0594
1361.6313 0.000734 1335.9585 1354.4402
1368.7020 0.000731 1336.0988 1354.8259
1354.5822 0.000738 1336.2392 1355.2164
1384.8078 0.000722 1336.3795 1355.6121
1337.9731 0.000747 1336.5198 1356.0129
1361.4386 0.000735 1336.6602 1356.4190
1425.5816 0.000701 1336.8005 1356.8307
1357.6689 0.000737 1336.9409 1357.2479
1378.6164 0.000725 1337.0812 1357.6710
1341.2310 0.000746 1337.2215 1358.1000
1316.3894 0.000760 1337.3619 1358.5352
1385.5715 0.000722 1337.5022 1358.9767
1401.3393 0.000714 1337.6425 1359.4246
1386.3624 0.000721 1337.7829 1359.8792
1392.2553 0.000718 1337.9232 1360.3407
1414.7774 0.000707 1338.0636 1360.8092
1411.5407 0.000708 1338.2039 1361.2850
1387.3668 0.000721 1338.3442 1361.7683
1427.4315 0.000701 1338.4498 1362.2246
1422.9082 0.000703 1338.5553 1362.6888
1371.8110 0.000729 1338.6609 1363.1611
1421.0951 0.000704 1338.7664 1363.6420
1403.3428 0.000713 1338.8720 1364.1315
1408.3129 0.000710 1338.9775 1364.6300
1441.0536 0.000694 1339.0831 1365.1378
1381.6683 0.000724 1339.1886 1365.6551
1348.6616 0.000741 1339.2941 1366.1823
1401.4850 0.000714 1339.3997 1366.7197
1429.1288 0.000700 1339.5052 1367.2676
1428.0000 0.000700 1339.6108 1367.8264
1410.6852 0.000709 1339.7163 1368.3964
1375.3713 0.000727 1339.8219 1368.9780
1375.9392 0.000727 1339.9274 1369.5715
1401.2595 0.000714 1340.0330 1370.4045
1400.6689 0.000714 1340.1385 1371.0255
1372.2185 0.000729 1340.2441 1371.6597
1364.6261 0.000733 1340.3496 1372.3078
1351.6086 0.000740 1340.4551 1373.0831
1391.9420 0.000718 1340.5607 1373.7612
1422.8394 0.000703 1340.6662 1374.4546
1382.7232 0.000723 1340.7718 1375.1638
1365.2464 0.000732 1340.8773 1375.8894
1382.7272 0.000723 1340.9829 1376.6321
1410.2617 0.000709 1341.0884 1377.3924
1407.1504 0.000711 1341.1940 1378.1710
1395.0000 0.000717 1341.2995 1378.9686
1417.4516 0.000705 1341.4051 1379.7860
1431.7079 0.000698 1341.5106 1380.6238
1423.7262 0.000702 1341.6161 1381.4829
1396.8607 0.000716 1341.7217 1382.3642
1394.1252 0.000717 1341.8272 1383.2684
1389.8169 0.000720 1341.9328 1384.1966
1373.5227 0.000728 1342.0383 1385.1497
1382.8110 0.000723 1342.1439 1386.1287
1375.8158 0.000727 1342.2494 1387.1347
1355.3801 0.000738 1342.3550 1388.1688
1422.4670 0.000703 1342.4605 1389.2323
1417.5339 0.000705 1342.5660 1390.3263
1373.7858 0.000728 1342.6716 1391.4522
1384.7049 0.000722 1342.7771 1392.6114
1382.6935 0.000723 1342.8463 1393.7689
1373.6435 0.000728 1342.9154 1394.9628
1403.1106 0.000713 1342.9845 1396.1946
1414.4392 0.000707 1343.0536 1397.4661
1376.8944 0.000726 1343.1228 1398.7792
1384.7735 0.000722 1343.1919 1400.1358
1392.8086 0.000718 1343.2610 1401.5380
1393.5890 0.000718 1343.3302 1402.9879
1388.3554 0.000720 1343.3993 1404.4879
1371.5429 0.000729 1343.4684 1406.0405
1385.2790 0.000722 1343.5375 1407.6482
1382.2402 0.000723 1343.6067 1409.3140
1402.4276 0.000713 1343.6758 1411.0407
1491.9017 0.000670 1343.7449 1412.8315
1460.8366 0.000685 1343.8140 1414.6899
1369.5189 0.000730 1343.8832 1416.6193
1387.7894 0.000721 1343.9523 1418.6238
1456.3649 0.000687 1344.0214 1420.7073
1450.5212 0.000689 1344.0905 1422.8743
1453.0746 0.000688 1344.1597 1425.1296
1501.8163 0.000666 1344.2288 1427.4782
1476.0497 0.000677 1344.2979 1429.9256
1477.7451 0.000677 1344.3671 1432.4775
1502.2462 0.000666 1344.4362 1435.1404
1479.0701 0.000676 1344.5053 1437.9209
1436.1534 0.000696 1344.5744 1440.8264
1471.3612 0.000680 1344.6436 1443.8648
1481.1722 0.000675 1344.7127 1447.0447
1438.4173 0.000695 1344.7818 1450.3752
1429.9461 0.000699 1344.8509 1453.8663
1445.7432 0.000692 1344.9201 1457.5291
1500.3006 0.000667 1344.9892 1461.3753
1504.1302 0.000665 1345.0583 1465.4178
1486.0474 0.000673 1345.1274 1469.6709
1511.7775 0.000661 1345.1966 1474.1501
1550.1102 0.000645 1345.2657 1478.8725
1523.7928 0.000656 1345.3348 1483.8570
1511.3408 0.000662 1345.4040 1489.1249
1577.9419 0.000634 1345.4731 1494.7000
1572.5111 0.000636 1345.5422 1500.6092
1513.1254 0.000661 1345.6113 1506.8835
1545.5777 0.000647 1345.6805 1513.5588
1584.2780 0.000631 1345.7496 1520.6772
1581.6099 0.000632 1345.8187 1528.2888
1581.0309 0.000632 1345.8878 1536.4536
1655.2546 0.000604 1345.9570 1545.2446
1624.5877 0.000616 1346.0261 1554.7505
1607.4883 0.000622 1346.0952 1565.0805
1647.1796 0.000607 1346.1644 1576.3681
1667.1918 0.000600 1346.2335 1588.7772
1706.9071 0.000586 1346.3026 1602.5070
1752.5780 0.000571 1346.3717 1617.7988
1793.4090 0.000558 1346.4409 1634.9408
1777.2377 0.000563 1346.5100 1654.2741
1794.8340 0.000557 1346.5791 1676.1954
1800.8952 0.000555 1346.6482 1701.1598
1790.2741 0.000559 1346.7174 1729.6788
1842.3454 0.000543 1346.7865 1762.3168
1876.4734 0.000533 1346.8556 1799.6823
1952.5724 0.000512 1346.9247 1842.4165
1974.2287 0.000507 1346.9939 1891.1774
2065.1874 0.000484 1347.0630 1946.6204
2148.7111 0.000465 1347.1321 2009.3772
2187.0224 0.000457 1347.2013 2080.0327
2240.3500 0.000446 1347.2704 2159.1005
2328.8850 0.000429 1347.3395 2247.0079
2434.9243 0.000411 1347.4086 2344.0307
2415.6025 0.000414 1347.4778 2450.3178
2470.8501 0.000405 1347.5469 2565.8158
2551.9354 0.000392 1347.6160 2690.2328
2726.0200 0.000367 1347.6851 2822.9973
2834.5574 0.000353 1347.7543 2963.2108
2934.1527 0.000341 1347.8234 3109.7004
3081.7783 0.000324 1347.8925 3261.1203
3153.0724 0.000317 1347.9616 3416.2049
3344.6283 0.000299 1348.0308 3574.1259
3540.4043 0.000282 1348.0999 3734.8668
3703.2740 0.000270 1348.1690 3899.4798
3847.6584 0.000260 1348.2382 4070.1177
4038.1199 0.000248 1348.3073 4249.8326
4223.7719 0.000237 1348.3764 4442.2121
4478.2770 0.000223 1348.4455 4650.9406
4749.6992 0.000211 1348.5147 4879.3003
5021.9841 0.000199 1348.5838 5129.6988
5318.1525 0.000188 1348.6165 5403.1093
5824.9453 0.000172 1348.6492 5698.7021
6104.7340 0.000164 1348.6819 6013.3038
6495.6088 0.000154 1348.7146 6341.0649
6914.0466 0.000145 1348.7473 6673.2539
7274.9721 0.000137 1348.7800 6998.2952
7474.4461 0.000134 1348.8127 7302.2702
7871.6545 0.000127 1348.8455 7570.0260
8049.3616 0.000124 1348.8782 7786.8611
8028.5050 0.000125 1348.9109 7940.4561
8057.1017 0.000124 1348.9436 8022.4764
8065.0590 0.000124 1348.9763 8029.3519
8071.0173 0.000124 1349.0090 7962.1162
7905.3226 0.000126 1349.0417 7825.5940
7703.1059 0.000130 1349.0744 7627.3426
7260.8274 0.000138 1349.1071 7376.6106
7032.0609 0.000142 1349.1398 7083.4267
6712.6882 0.000149 1349.1725 6757.8764
6370.7879 0.000157 1349.2052 6409.6105
5946.8458 0.000168 1349.2380 6047.5680
5551.7007 0.000180 1349.2707 5679.8393
5197.9011 0.000192 1349.3034 5313.6015
4890.0550 0.000204 1349.3361 4955.0902
4532.2795 0.000221 1349.3688 4609.5896
4182.9782 0.000239 1349.4015 4281.4227
3845.1536 0.000260 1349.4342 3973.9288
3532.3626 0.000283 1349.4669 3689.4476
3334.2707 0.000300 1349.4996 3429.3392
3165.3616 0.000316 1349.5323 3194.0602
2991.0382 0.000334 1349.5650 2983.2923
2855.4446 0.000350 1349.5977 2796.1016
2650.9920 0.000377 1349.6305 2631.1043
2599.6030 0.000385 1349.6632 2486.6189
2434.9091 0.000411 1349.6959 2360.7968
2357.9350 0.000424 1349.7286 2251.7262
2345.5209 0.000426 1349.7613 2157.5119
2202.6838 0.000454 1349.7940 2076.3336
2212.1407 0.000452 1349.8267 2006.4854
2080.1999 0.000481 1349.8594 1946.4018
2002.0030 0.000499 1349.8921 1894.6710
2027.7082 0.000493 1349.9248 1850.0395
1849.1771 0.000541 1349.9575 1811.4100
1916.2925 0.000522 1349.9522 1777.7960
1809.5528 0.000553 1349.9469 1748.4255
1844.2011 0.000542 1349.9415 1722.6134
1738.8513 0.000575 1349.9362 1699.7866
1699.6423 0.000588 1349.9309 1679.4689
1673.6038 0.000598 1349.9255 1661.2679
1649.8856 0.000606 1349.9202 1644.8619
1612.5668 0.000620 1349.9149 1629.9882
1608.1009 0.000622 1349.9095 1616.4328
1553.2662 0.000644 1349.9042 1604.0215
1630.0193 0.000613 1349.8988 1592.6118
1598.0429 0.000626 1349.8935 1582.0873
1519.8198 0.000658 1349.8882 1572.3521
1551.3070 0.000645 1349.8828 1563.3265
1536.1123 0.000651 1349.8775 1554.9441
1628.3240 0.000614 1349.8722 1547.1491
1630.3186 0.000613 1349.8668 1539.8943
1623.5409 0.000616 1349.8615 1533.1397
1555.8267 0.000643 1349.8562 1526.8514
1441.5656 0.000694 1349.8508 1521.0012
1492.7699 0.000670 1349.8455 1515.5657
1531.1761 0.000653 1349.8402 1510.5266
1466.5858 0.000682 1349.8348 1505.8704
1489.7809 0.000671 1349.8295 1501.5888
1462.7583 0.000684 1349.8241 1497.6792
1462.8473 0.000684 1349.8188 1494.1450
1505.4401 0.000664 1349.8135 1491.0291
1467.8264 0.000681 1349.8081 1488.2847
1539.6171 0.000650 1349.8028 1485.9703
1479.4041 0.000676 1349.7975 1484.1214
1424.9270 0.000702 1349.7921 1482.7829
1518.8350 0.000658 1349.7868 1482.0261
1527.0991 0.000655 1349.7815 1481.8829
1539.0119 0.000650 1349.7761 1482.4430
1503.7715 0.000665 1349.7708 1483.7873
1472.3894 0.000679 1349.7655 1486.0018
1499.6276 0.000667 1349.7601 1489.1747
1555.8416 0.000643 1349.7548 1493.3919
1494.3559 0.000669 1349.7494 1498.7329
1574.7682 0.000635 1349.7441 1505.2643
1545.3811 0.000647 1349.7388 1513.0338
1551.5000 0.000645 1349.7334 1522.0633
1576.1799 0.000634 1349.6903 1532.3771
1571.0195 0.000637 1349.6471 1543.8819
1505.6974 0.000664 1349.6039 1556.4052
1582.1189 0.000632 1349.5607 1569.8488
1508.6455 0.000663 1349.5175 1583.9706
1552.5316 0.000644 1349.4743 1598.4793
1572.5521 0.000636 1349.4311 1612.9132
1589.7915 0.000629 1349.3879 1626.7191
1561.7543 0.000640 1349.3447 1639.3314
1573.9771 0.000635 1349.3015 1650.1059
1600.1662 0.000625 1349.2584 1658.4170
1575.6044 0.000635 1349.2152 1663.7331
1614.7842 0.000619 1349.1720 1665.6883
1593.2327 0.000628 1349.1288 1664.1247
1562.8949 0.000640 1349.0856 1659.0998
1562.6963 0.000640 1349.0424 1650.8614
1594.3389 0.000627 1348.9992 1639.8079
1579.7971 0.000633 1348.9560 1626.4424
1554.5864 0.000643 1348.9128 1611.3273
1566.0393 0.000639 1348.8696 1595.0382
1520.5582 0.000658 1348.8265 1578.1226
1584.1381 0.000631 1348.7833 1561.0687
1476.6214 0.000677 1348.7401 1544.2856
1555.8882 0.000643 1348.6969 1528.0981
1483.6378 0.000674 1348.6537 1512.7489
1469.9072 0.000680 1348.6105 1498.4073
1464.5217 0.000683 1348.5673 1485.1790
1395.0182 0.000717 1348.5241 1473.1167
1450.9088 0.000689 1348.4809 1462.2297
1445.5511 0.000692 1348.4377 1452.4928
1488.9310 0.000672 1348.3946 1443.8539
1481.5904 0.000675 1348.3514 1436.2418
1424.8916 0.000702 1348.3082 1429.5723
1400.9445 0.000714 1348.2650 1423.7536
1371.0246 0.000729 1348.2218 1418.6917
1384.9511 0.000722 1348.1786 1414.2934
1343.2587 0.000744 1348.1354 1410.4703
1334.0794 0.000750 1348.0922 1407.1400
1429.8848 0.000699 1348.0490 1404.2282
1411.2833 0.000709 1348.0059 1401.6689
1368.7239 0.000731 1347.9627 1399.4047
1379.7660 0.000725 1347.9195 1397.3868
1351.6430 0.000740 1347.8426 1395.5401
1425.1121 0.000702 1347.7656 1393.8643
1392.9629 0.000718 1347.6887 1392.3313
1382.3018 0.000723 1347.6118 1390.9181
1407.1459 0.000711 1347.5349 1389.6065
1457.1886 0.000686 1347.4580 1388.3815
1370.5131 0.000730 1347.3810 1387.2313
1410.1615 0.000709 1347.3041 1386.1464
1412.9565 0.000708 1347.2272 1385.1190
1369.1249 0.000730 1347.1503 1384.1428
1405.9966 0.000711 1347.0734 1383.2129
1315.9985 0.000760 1346.9964 1382.3248
1364.9106 0.000733 1346.9195 1381.4751
1374.6019 0.000727 1346.8426 1380.6606
1399.4520 0.000715 1346.7657 1379.8787
1327.8522 0.000753 1346.6888 1379.1272
1340.7674 0.000746 1346.6119 1378.4039
1397.0148 0.000716 1346.5349 1377.7072
1387.9830 0.000720 1346.4580 1377.0354
1399.0525 0.000715 1346.3811 1376.3870
1394.4533 0.000717 1346.3042 1375.7607
1405.9831 0.000711 1346.2273 1375.1553
1364.7210 0.000733 1346.1503 1374.5697
1328.9246 0.000752 1346.0734 1374.0029
1333.3102 0.000750 1345.9965 1373.4541
1382.2884 0.000723 1345.9196 1373.2180
1333.4024 0.000750 1345.8427 1372.7052
1377.8171 0.000726 1345.7657 1372.2082
1365.8412 0.000732 1345.6888 1371.7261
1407.2205 0.000711 1345.6119 1371.2586
1438.0350 0.000695 1345.5350 1370.9528
1416.8326 0.000706 1345.4581 1370.5142
1344.3913 0.000744 1345.3811 1370.0889
1366.2515 0.000732 1345.3042 1369.6766
1367.3388 0.000731 1345.2273 1369.2771
1352.8494 0.000739 1345.1504 1368.8903
1328.0747 0.000753 1345.0735 1368.5161
1440.1588 0.000694 1344.9966 1368.1547
1370.1122 0.000730 1344.9196 1367.8064
1360.6212 0.000735 1344.8427 1367.4716
1361.0000 0.000735 1344.7658 1367.1509
1335.8164 0.000749 1344.6889 1366.8452
1352.7775 0.000739 1344.8603 1366.8040
1329.2451 0.000752 1345.0318 1366.7804
1304.3506 0.000767 1345.2032 1366.7760
1384.1991 0.000722 1345.3747 1367.1303
1367.2181 0.000731 1345.5461 1367.1742
1374.7858 0.000727 1345.7176 1367.2447
1426.2835 0.000701 1345.8890 1367.3448
1430.7648 0.000699 1346.0605 1367.4779
1399.6024 0.000714 1346.2319 1367.8158
1351.9146 0.000740 1346.4034 1368.0268
1348.1952 0.000742 1346.5748 1368.2813
1359.8728 0.000735 1346.7463 1368.5823
1354.4967 0.000738 1346.9177 1368.9327
1361.3103 0.000735 1347.0892 1369.3344
1398.6197 0.000715 1347.2607 1369.7886
1391.9632 0.000718 1347.4321 1370.2953
1384.0618 0.000723 1347.6036 1370.8530
1437.9639 0.000695 1347.7750 1371.4585
1382.1319 0.000724 1347.9465 1372.1065
1351.5146 0.000740 1348.1179 1372.7891
1343.9382 0.000744 1348.2894 1373.4956
1342.1903 0.000745 1348.4608 1374.2118
1406.5610 0.000711 1348.6323 1374.9203
1404.3045 0.000712 1348.8037 1375.6010
1414.4301 0.000707 1348.9752 1375.1433
1438.7741 0.000695 1349.1466 1375.7126
1369.9407 0.000730 1349.3181 1376.1904
1401.7947 0.000713 1349.4895 1376.5627
1422.9100 0.000703 1349.6610 1376.2777
1423.4233 0.000703 1349.8324 1376.4310
1424.5713 0.000702 1350.0039 1376.4798
1417.1701 0.000706 1350.1753 1376.4371
1466.5013 0.000682 1350.3468 1376.3198
1388.4593 0.000720 1350.5182 1376.1469
1369.7498 0.000730 1350.6897 1375.9384
1394.3971 0.000717 1350.8611 1375.7127
1395.6125 0.000717 1351.0326 1375.4859
1341.0786 0.000746 1351.2040 1375.2701
1390.7305 0.000719 1351.3755 1375.0728
1342.4525 0.000745 1351.5469 1374.8968
1363.5023 0.000733 1351.7184 1374.7401
1360.3614 0.000735 1351.8898 1374.5970
1389.6671 0.000720 1352.0613 1369.5760
1379.2221 0.000725 1352.2327 1369.4809
1376.4898 0.000726 1352.4042 1369.3710
1335.4994 0.000749 1352.5756 1369.2389
1381.1795 0.000724 1352.7471 1369.0803
1468.6259 0.000681 1352.9185 1366.4726
1396.8472 0.000716 1353.0900 1366.2840
1340.9515 0.000746 1353.2615 1366.0732
1385.7242 0.000722 1353.4329 1365.8461
1359.0345 0.000736 1353.6044 1365.6098
1402.3362 0.000713 1353.7758 1364.2936
1354.7455 0.000738 1353.9473 1364.0724
1346.7617 0.000743 1354.1187 1363.8640
1355.4379 0.000738 1354.2902 1363.6742
1350.9861 0.000740 1354.4616 1362.9675
1363.9855 0.000733 1354.6331 1362.8331
1365.0235 0.000733 1354.8045 1362.7276
1368.6661 0.000731 1354.9760 1362.6524
1402.0460 0.000713 1355.1474 1362.6080
1384.7744 0.000722 1355.3189 1362.5941
1379.0025 0.000725 1355.4903 1362.6100
1378.5121 0.000725 1355.6618 1362.6546
1361.0170 0.000735 1355.8332 1362.7264
1369.2294 0.000730 1356.0047 1362.8237
1353.9336 0.000739 1356.1761 1362.9448
1361.8596 0.000734 1356.3476 1363.0878
1378.2109 0.000726 1356.5190 1363.2510
1392.9051 0.000718 1356.6905 1363.4326
1366.7706 0.000732 1356.8619 1363.6311
1374.9919 0.000727 1357.0334 1363.8450
1345.5863 0.000743 1357.2048 1364.0732
1323.3164 0.000756 1357.3763 1364.3146
1333.3598 0.000750 1357.5477 1364.5684
1384.2578 0.000722 1357.7192 1364.8340
1359.2722 0.000736 1357.8906 1365.2119
1365.3700 0.000732 1358.0621 1365.5007
1329.7112 0.000752 1358.2335 1365.8004
1286.6280 0.000777 1358.4050 1366.1111
1365.3962 0.000732 1358.5764 1366.4330
1341.8495 0.000745 1358.7479 1366.8168
1368.6872 0.000731 1358.9193 1367.1628
1367.9246 0.000731 1359.0908 1367.5216
1329.3955 0.000752 1359.2257 1367.8575
1380.9700 0.000724 1359.3607 1368.2083
1397.5503 0.000716 1359.4956 1368.5751
1396.5029 0.000716 1359.6306 1368.9598
1375.5039 0.000727 1359.7655 1369.3643
1380.1021 0.000725 1359.9005 1369.7912
1430.1568 0.000699 1360.0354 1370.2433
1344.0010 0.000744 1360.1704 1370.7244
1326.9944 0.000754 1360.3053 1371.2389
1406.4011 0.000711 1360.4403 1371.7918
1381.0491 0.000724 1360.5752 1372.3894
1330.0834 0.000752 1360.7102 1373.0388
1345.5993 0.000743 1360.8451 1373.7484
1382.0256 0.000724 1360.9801 1374.5276
1355.1249 0.000738 1361.1150 1375.3872
1351.8570 0.000740 1361.2500 1376.3390
1395.1450 0.000717 1361.3849 1377.3961
1397.3075 0.000716 1361.5198 1378.5725
1366.4147 0.000732 1361.6548 1379.8829
1344.1376 0.000744 1361.7897 1381.3427
1360.9380 0.000735 1361.9247 1382.9674
1353.5806 0.000739 1362.0596 1384.7727
1368.4721 0.000731 1362.1946 1386.7736
1349.2294 0.000741 1362.3295 1388.9845
1400.4245 0.000714 1362.4645 1391.4184
1434.1336 0.000697 1362.5994 1394.0869
1386.9651 0.000721 1362.7344 1396.9992
1407.5714 0.000710 1362.8693 1400.1617
1402.7246 0.000713 1363.0043 1403.5774
1342.2802 0.000745 1363.1392 1407.2444
1402.3426 0.000713 1363.2742 1411.1553
1416.4732 0.000706 1363.4091 1415.2960
1362.2091 0.000734 1363.5441 1419.6459
1397.3835 0.000716 1363.6790 1424.1790
1424.0858 0.000702 1363.8139 1428.8670
1395.7196 0.000716 1363.9489 1433.6847
1378.4545 0.000725 1364.0838 1438.6164
1380.7139 0.000724 1364.2188 1443.6614
1397.5830 0.000716 1364.3537 1448.8367
1412.1498 0.000708 1364.4887 1454.1758
1409.7218 0.000709 1364.6236 1459.7239
1404.9358 0.000712 1364.7586 1465.5309
1478.1211 0.000677 1364.8636 1471.6137
1464.9848 0.000683 1364.9686 1478.0378
1412.3435 0.000708 1365.0736 1484.8194
1447.2500 0.000691 1365.1786 1491.9455
1443.7683 0.000693 1365.2836 1499.3655
1451.8368 0.000689 1365.3886 1506.9825
1486.2416 0.000673 1365.4936 1514.6474
1508.2796 0.000663 1365.5986 1522.1565
1526.5889 0.000655 1365.7036 1529.2569
1507.2346 0.000663 1365.8086 1535.4356
1518.6950 0.000658 1365.9137 1540.8364
1522.4951 0.000657 1366.0187 1544.9459
1496.9689 0.000668 1366.1237 1547.5239
1519.8212 0.000658 1366.2287 1548.2932
1506.9837 0.000664 1366.3337 1547.4048
1484.8092 0.000673 1366.4387 1544.7796
1471.6103 0.000680 1366.5437 1540.4910
1448.4841 0.000690 1366.6487 1534.7259
1482.2162 0.000675 1366.7537 1527.7079
1508.4255 0.000663 1366.8587 1519.6941
1438.4929 0.000695 1366.9637 1510.9575
1415.1315 0.000707 1367.0687 1501.7771
1442.7005 0.000693 1367.1737 1492.3928
1451.8913 0.000689 1367.2787 1483.0385
1435.3427 0.000697 1367.3838 1473.9052
1402.3746 0.000713 1367.4888 1465.1460
1454.1620 0.000688 1367.5938 1456.8770
1448.3559 0.000690 1367.6988 1449.1810
1427.9147 0.000700 1367.8038 1442.1109
1432.9869 0.000698 1367.9088 1435.7006
1395.7785 0.000716 1368.0138 1429.9458
1395.5684 0.000717 1368.1188 1424.8428
1416.6754 0.000706 1368.2238 1420.3687
1389.1110 0.000720 1368.3288 1416.4910
1387.4250 0.000721 1368.4338 1413.1700
1400.0994 0.000714 1368.5388 1410.3647
1358.2654 0.000736 1368.6438 1408.0232
1362.4843 0.000734 1368.7488 1406.1019
1401.0195 0.000714 1368.8539 1404.5560
1360.1580 0.000735 1368.9589 1403.3431
1367.5049 0.000731 1369.0639 1402.4243
1420.2001 0.000704 1369.1689 1401.7648
1448.1190 0.000691 1369.2406 1401.3008
1430.0689 0.000699 1369.3123 1401.0399
1396.4321 0.000716 1369.3841 1400.9608
1443.7253 0.000693 1369.4558 1401.0468
1420.7002 0.000704 1369.5276 1401.2857
1404.0999 0.000712 1369.5993 1401.6695
1400.1377 0.000714 1369.6710 1402.1946
1406.2844 0.000711 1369.7428 1402.8613
1423.1531 0.000703 1369.8145 1403.6747
1374.3265 0.000728 1369.8863 1404.6441
1391.9382 0.000718 1369.9580 1405.7839
1424.5192 0.000702 1370.0297 1407.1139
1433.2022 0.000698 1370.1015 1408.6597
1380.0671 0.000725 1370.1732 1410.4533
1394.2758 0.000717 1370.2449 1412.5341
1467.9844 0.000681 1370.3167 1414.9488
1444.2361 0.000692 1370.3884 1417.7526
1452.0055 0.000689 1370.4602 1421.0086
1433.1245 0.000698 1370.5319 1424.7887
1442.6005 0.000693 1370.6036 1429.1724
1438.2756 0.000695 1370.6754 1434.2464
1457.3677 0.000686 1370.7471 1440.1028
1457.6896 0.000686 1370.8189 1446.8376
1453.7309 0.000688 1370.8906 1454.5474
1506.8088 0.000664 1370.9623 1463.3266
1505.6467 0.000664 1371.0341 1473.2634
1518.8137 0.000658 1371.1058 1484.4355
1472.7524 0.000679 1371.1775 1496.9051
1503.7218 0.000665 1371.2493 1510.7138
1522.4130 0.000657 1371.3210 1525.8770
1583.1720 0.000632 1371.3928 1542.3776
1560.3498 0.000641 1371.4645 1560.1594
1587.9201 0.000630 1371.5362 1579.1195
1617.1099 0.000618 1371.6080 1599.0997
1599.0000 0.000625 1371.6797 1619.8777
1622.9704 0.000616 1371.7515 1641.1582
1686.1715 0.000593 1371.8232 1662.5676
1732.1594 0.000577 1371.8949 1683.6556
1745.0948 0.000573 1371.9667 1703.9084
1719.0718 0.000582 1372.0384 1722.7802
1776.6144 0.000563 1372.1101 1739.7408
1738.9096 0.000575 1372.1819 1754.3364
1740.2600 0.000575 1372.2203 1766.2145
1815.2813 0.000551 1372.2586 1775.2651
1777.2931 0.000563 1372.2970 1781.5344
1813.9217 0.000551 1372.3354 1785.2439
1792.1315 0.000558 1372.3738 1786.7586
1822.1731 0.000549 1372.4122 1786.5497
1835.3478 0.000545 1372.4505 1785.1571
1835.9069 0.000545 1372.4889 1783.1520
1876.8644 0.000533 1372.5273 1781.0990
1885.8113 0.000530 1372.5657 1779.5167
1896.2228 0.000527 1372.6041 1778.8414
1846.9312 0.000541 1372.6424 1779.3976
1852.0000 0.000540 1372.6808 1781.3765
1880.1366 0.000532 1372.7192 1784.8224
1948.2316 0.000513 1372.7576 1789.6246
1919.3090 0.000521 1372.7960 1795.5156
1909.8142 0.000524 1372.8343 1802.0758
1959.8915 0.000510 1372.8727 1808.7491
2001.0556 0.000500 1372.9111 1814.8751
2001.1079 0.000500 1372.9495 1819.7407
2053.7035 0.000487 1372.9879 1822.6483
2013.0711 0.000497 1373.0262 1822.9906
1953.6561 0.000512 1373.0646 1820.3150
1956.4425 0.000511 1373.1030 1814.3621
1902.9647 0.000525 1373.1414 1805.0731
1901.7067 0.000526 1373.1798 1792.5703
1864.4152 0.000536 1373.2181 1777.1267
1794.2958 0.000557 1373.2565 1759.1320
1797.4813 0.000556 1373.2949 1739.0604
1749.2528 0.000572 1373.3333 1717.4380
1756.9794 0.000569 1373.3717 1694.8078
1664.4450 0.000601 1373.4100 1671.6871
1674.5735 0.000597 1373.4484 1648.5756
1685.8895 0.000593 1373.4868 1625.8809
1606.9187 0.000622 1373.5252 1603.9452
1569.3645 0.000637 1373.5635 1583.0357
1561.5619 0.000640 1373.6019 1563.3438
1548.2271 0.000646 1373.6403 1545.0113
1547.4653 0.000646 1373.6787 1528.1115
1437.4081 0.000696 1373.7171 1512.6756
1439.0304 0.000695 1373.7554 1498.6967
1422.4126 0.000703 1373.7938 1486.1369
1414.7851 0.000707 1373.8000 1474.9018
1400.0476 0.000714 1373.8062 1464.9431
1433.1927 0.000698 1373.8124 1456.1679
1443.4824 0.000693 1373.8186 1448.4755
1413.7675 0.000707 1373.8248 1441.7617
1352.6970 0.000739 1373.8310 1435.9225
1378.1076 0.000726 1373.8372 1430.8569
1436.7320 0.000696 1373.8434 1426.4693
1418.7847 0.000705 1373.8496 1422.6662
1383.8309 0.000723 1373.8558 1419.3766
1381.8348 0.000724 1373.8620 1416.5234
1369.4486 0.000730 1373.8682 1414.0431
1353.2394 0.000739 1373.8743 1411.8780
1439.0388 0.000695 1373.8805 1409.9857
1416.2864 0.000706 1373.8867 1408.3239
1405.1627 0.000712 1373.8929 1406.8590
1392.7434 0.000718 1373.8991 1405.5635
1374.5325 0.000728 1373.9053 1404.4148
1357.8004 0.000736 1373.9115 1403.3947
1431.0416 0.000699 1373.9177 1402.4889
1367.2658 0.000731 1373.9239 1401.6859
1483.2259 0.000674 1373.9301 1400.9773
1421.4131 0.000704 1373.9363 1400.3572
1382.0304 0.000724 1373.9425 1399.8214
1399.8055 0.000714 1373.9487 1399.3683
1384.8736 0.000722 1373.9549 1398.9977
1384.2475 0.000722 1373.9611 1398.7116
1390.7222 0.000719 1373.9673 1398.5140
1416.2375 0.000706 1373.9734 1398.4107
1363.8475 0.000733 1373.9796 1398.4099
1453.1802 0.000688 1373.9858 1398.5220
1389.5202 0.000720 1373.9920 1398.7598
1432.3840 0.000698 1373.9982 1399.1389
1411.3301 0.000709 1374.0044 1399.6770
1342.2113 0.000745 1374.0106 1400.3946
1325.8542 0.000754 1374.0168 1401.3147
1472.1764 0.000679 1374.0230 1402.4620
1420.9261 0.000704 1374.0292 1403.8631
1445.6980 0.000692 1374.0354 1405.5455
1415.1373 0.000707 1374.0416 1408.6220
1436.6545 0.000696 1374.0478 1410.9580
1432.7489 0.000698 1374.0540 1413.6550
1429.9190 0.000699 1374.0602 1416.7348
1431.1162 0.000699 1374.0664 1420.2144
1452.5174 0.000688 1374.0725 1424.1045
1414.8206 0.000707 1374.0787 1428.9495
1472.8334 0.000679 1374.0849 1433.6629
1430.7969 0.000699 1374.0911 1438.7627
1425.6588 0.000701 1374.0973 1444.2154
1398.8599 0.000715 1374.1035 1449.9702
1500.2689 0.000667 1374.1097 1455.9570
1474.0265 0.000678 1374.1159 1462.6493
1487.1407 0.000672 1374.1221 1468.8005
1423.6698 0.000702 1374.1283 1474.8291
1489.7255 0.000671 1374.1345 1480.5672
1467.3175 0.000682 1374.1407 1485.8289
1516.7035 0.000659 1374.1469 1490.4213
1553.7949 0.000644 1374.1531 1494.4432
1547.3896 0.000646 1374.1593 1497.1735
1506.9287 0.000664 1374.1655 1498.7786
1505.9901 0.000664 1374.1716 1499.1975
1533.2406 0.000652 1374.1778 1498.4246
1477.3873 0.000677 1374.1840 1496.5049
1490.7000 0.000671 1374.1902 1493.5258
1480.4737 0.000675 1374.1964 1489.6074
1542.8965 0.000648 1374.2026 1484.8940
1437.8471 0.000695 1374.2088 1479.5455
1428.6706 0.000700 1374.2150 1473.7287
1406.7457 0.000711 1374.2212 1467.6084
1469.9281 0.000680 1374.2274 1461.3392
1462.1010 0.000684 1374.2336 1455.0588
1477.8724 0.000677 1374.2398 1448.8843
1443.0000 0.000693 1374.2460 1442.9113
1443.0000 0.000693 1374.2522 1437.2133
1441.0087 0.000694 1374.2584 1431.8447
1423.1266 0.000703 1374.2646 1426.8420
1380.4171 0.000724 1374.2707 1422.2270
1399.7526 0.000714 1374.2769 1418.0087
1355.6767 0.000738 1374.2831 1414.1857
1460.1054 0.000685 1374.2893 1410.7482
1360.1191 0.000735 1374.2955 1407.6798
1372.6543 0.000729 1374.3017 1404.9592
1399.3057 0.000715 1374.3079 1402.5617
1434.9782 0.000697 1374.3141 1400.4603
1373.0184 0.000728 1374.2881 1398.5951
1383.5616 0.000723 1374.2621 1396.9703
1410.9811 0.000709 1374.2361 1395.5589
1427.3751 0.000701 1374.2101 1394.3352
1368.5871 0.000731 1374.1841 1393.2753
1396.5793 0.000716 1374.1582 1392.3249
1356.0709 0.000737 1374.1322 1391.5297
1394.8614 0.000717 1374.1062 1390.8398
1369.5197 0.000730 1374.0802 1390.2401
1415.2464 0.000707 1374.0542 1389.7181
1358.6377 0.000736 1374.0282 1389.2467
1444.2610 0.000692 1374.0022 1388.8496
1400.3432 0.000714 1373.9762 1388.5035
1373.6437 0.000728 1373.9502 1388.2026
1368.2737 0.000731 1373.9242 1387.9426
1377.2891 0.000726 1373.8982 1387.7206
1378.0000 0.000726 1373.8722 1387.5345
1429.7202 0.000699 1373.8462 1387.3832
1416.5028 0.000706 1373.8203 1387.2667
1380.1070 0.000725 1373.7943 1387.1854
1353.1952 0.000739 1373.7683 1387.1406
1372.9096 0.000728 1373.7423 1387.1342
1344.0522 0.000744 1373.7163 1387.1687
1366.4117 0.000732 1373.6903 1387.2858
1398.8615 0.000715 1373.6643 1387.4123
1408.3156 0.000710 1373.6383 1387.5188
1413.4978 0.000707 1373.6123 1387.9357
1331.4865 0.000751 1373.5863 1388.2259
1377.4414 0.000726 1373.5603 1388.5400
1411.6380 0.000708 1373.5343 1389.0110
1358.1118 0.000736 1373.5083 1389.4573
1393.5381 0.000718 1373.4824 1390.0067
1373.3773 0.000728 1373.4564 1390.7169
1348.8591 0.000741 1373.4304 1391.4029
1371.4679 0.000729 1373.4044 1392.1542
1403.8926 0.000712 1373.3784 1392.9669
1380.9412 0.000724 1373.3524 1393.8347
1341.3220 0.000746 1373.3264 1394.7486
1395.8593 0.000716 1373.3004 1395.6969
1362.6220 0.000734 1373.2744 1396.6644
1374.9681 0.000727 1373.2484 1397.6323
1425.2736 0.000702 1373.2224 1398.5790
1350.7423 0.000740 1373.1654 1399.4489
1392.5218 0.000718 1373.1084 1400.2476
1428.3969 0.000700 1373.0514 1400.9504
1352.3599 0.000739 1372.9944 1401.5360
1399.7707 0.000714 1372.9374 1401.9883
1476.7934 0.000677 1372.8804 1402.2979
1383.0546 0.000723 1372.8234 1402.4624
1389.8214 0.000720 1372.7664 1402.4856
1354.0606 0.000739 1372.7094 1402.3767
1395.9698 0.000716 1372.6524 1402.1484
1466.6017 0.000682 1372.5954 1401.8160
1441.7629 0.000694 1372.5384 1401.3961
1427.4014 0.000701 1372.4814 1400.9052
1421.0671 0.000704 1372.4244 1400.3588
1380.6647 0.000724 1372.3674 1399.7702
1368.7327 0.000731 1372.3104 1399.1496
1394.8668 0.000717 1372.2534 1398.5044
1378.2786 0.000726 1372.1963 1397.8393
1338.2212 0.000747 1372.1393 1397.1574
1375.1438 0.000727 1372.0823 1396.4610
1336.9883 0.000748 1372.0253 1395.7523
1401.8770 0.000713 1371.9683 1395.0346
1421.7981 0.000703 1371.9113 1394.3116
1399.7270 0.000714 1371.8543 1393.5878
1378.9369 0.000725 1371.7973 1392.8683
1336.2838 0.000748 1371.7403 1392.1584
1398.4460 0.000715 1371.6833 1391.4637
1407.0130 0.000711 1371.6263 1390.7898
1389.1397 0.000720 1371.5693 1390.1418
1371.7494 0.000729 1371.5123 1389.5245
1358.6786 0.000736 1371.4553 1388.9418
1407.8655 0.000710 1371.3983 1388.3968
1332.7412 0.000750 1371.3413 1387.8916
1362.1205 0.000734 1371.2843 1387.4273
1386.6610 0.000721 1371.2273 1387.0042
1356.9357 0.000737 1371.1703 1386.6219
1410.9044 0.000709 1371.1133 1386.2796
1416.5961 0.000706 1371.0562 1385.9759
1392.3589 0.000718 1370.9992 1385.7091
1367.9338 0.000731 1370.9422 1385.4772
1379.2521 0.000725 1370.8852 1385.2783
1378.2732 0.000726 1370.8282 1385.1101
1390.1503 0.000719 1370.7426 1384.9420
1346.7645 0.000743 1370.6571 1384.8003
1298.9446 0.000770 1370.5715 1384.6829
1366.0951 0.000732 1370.4859 1384.5879
1335.2739 0.000749 1370.4003 1384.5132
1420.7856 0.000704 1370.3147 1384.4572
1390.7698 0.000719 1370.2292 1384.4181
1384.6039 0.000722 1370.1436 1384.3946
1404.2978 0.000712 1370.0580 1384.3854
1354.9451 0.000738 1369.9724 1384.3892
1371.3393 0.000729 1369.8868 1384.4051
1337.3532 0.000748 1369.8012 1384.4323
1326.5527 0.000754 1369.7157 1384.4699
1386.8045 0.000721 1369.6301 1384.5176
1366.8494 0.000732 1369.5445 1384.5747
1333.4962 0.000750 1369.4589 1384.6409
1356.4861 0.000737 1369.3733 1384.7159
1367.6012 0.000731 1369.2877 1384.5064
1367.0000 0.000732 1369.2022 1384.6011
1405.1723 0.000712 1369.1166 1384.7042
1372.2211 0.000729 1369.0310 1384.8156
1365.1515 0.000733 1368.9454 1384.9354
1398.7554 0.000715 1368.8598 1384.9168
1381.6153 0.000724 1368.7743 1385.0549
1391.1437 0.000719 1368.6887 1385.2016
1317.9245 0.000759 1368.6031 1385.3571
1309.7419 0.000764 1368.5175 1385.5215
1324.3273 0.000755 1368.4319 1385.6952
1305.2394 0.000766 1368.3463 1385.8783
1369.4087 0.000730 1368.2608 1386.0710
1416.6349 0.000706 1368.1752 1386.2737
1374.9970 0.000727 1368.0896 1386.4867
1344.4065 0.000744 1368.0040 1386.7101
1364.6403 0.000733 1367.9184 1386.9445
1310.2913 0.000763 1367.8329 1387.1902
1363.5820 0.000733 1367.7473 1387.4475
1374.0259 0.000728 1367.6617 1387.7169
1429.5820 0.000700 1367.5761 1387.9988
1447.8401 0.000691 1367.4905 1388.2937
1381.1844 0.000724 1367.4049 1388.6020
1352.9140 0.000739 1367.3194 1388.5899
1365.4358 0.000732 1367.2338 1388.9297
1393.5103 0.000718 1367.1852 1389.3217
1359.3810 0.000736 1367.1367 1389.7295
1362.1112 0.000734 1367.0881 1390.1536
1434.9690 0.000697 1367.0396 1390.5950
1455.5604 0.000687 1366.9911 1390.8880
1420.7504 0.000704 1366.9425 1391.3673
1376.8678 0.000726 1366.8940 1391.8662
1370.4375 0.000730 1366.8454 1392.3855
1345.8235 0.000743 1366.7969 1392.9262
1374.0821 0.000728 1366.7483 1393.4894
1334.7080 0.000749 1366.6998 1394.0760
1338.4703 0.000747 1366.6512 1394.6873
1391.4213 0.000719 1366.6027 1395.3245
1367.3286 0.000731 1366.5542 1395.9889
1342.5953 0.000745 1366.5056 1396.6818
1396.3358 0.000716 1366.4571 1397.4049
1421.7909 0.000703 1366.4085 1398.1597
1403.4289 0.000713 1366.3600 1398.9479
1433.4152 0.000698 1366.3114 1399.7713
1423.9195 0.000702 1366.2629 1400.6319
1365.5606 0.000732 1366.2143 1401.5318
1380.6326 0.000724 1366.1658 1402.4731
1394.6516 0.000717 1366.1172 1403.4584
1421.1324 0.000704 1366.0687 1404.4901
1446.1570 0.000691 1366.0202 1405.5711
1419.6650 0.000704 1365.9716 1406.7044
1386.3552 0.000721 1365.9231 1407.8932
1383.4089 0.000723 1365.8745 1409.1410
1398.9268 0.000715 1365.8260 1410.4516
1435.4285 0.000697 1365.7774 1411.8291
1430.2656 0.000699 1365.7289 1413.2781
1423.4975 0.000702 1365.6803 1414.8034
1429.8858 0.000699 1365.6318 1416.4104
1383.1566 0.000723 1365.5833 1418.1052
1367.4249 0.000731 1365.5347 1419.9091
1412.1190 0.000708 1365.4862 1421.8003
1399.9766 0.000714 1365.4376 1423.8019
1406.9749 0.000711 1365.3891 1425.9233
1415.5008 0.000706 1365.3405 1428.1758
1445.3279 0.000692 1365.2920 1430.5720
1464.6534 0.000683 1365.2434 1433.1270
1452.5574 0.000688 1365.1949 1435.8655
1459.8355 0.000685 1365.1084 1438.7560
1418.7120 0.000705 1365.0219 1441.8685
1445.3111 0.000692 1364.9354 1445.2326
1505.5628 0.000664 1364.8489 1448.8838
1494.2332 0.000669 1364.7624 1452.8826
1465.7836 0.000682 1364.6759 1457.2444
1475.2181 0.000678 1364.5894 1462.0476
1481.4344 0.000675 1364.5029 1467.3645
1451.0207 0.000689 1364.4164 1473.2804
1462.3303 0.000684 1364.3299 1479.8957
1495.8896 0.000668 1364.2434 1487.3271
1478.4753 0.000676 1364.1569 1495.7217
1471.0297 0.000680 1364.0704 1505.2096
1530.3830 0.000653 1363.9839 1515.9776
1562.7857 0.000640 1363.8974 1528.2213
1566.0131 0.000639 1363.8109 1542.1567
1596.2027 0.000626 1363.7244 1558.0194
1624.5037 0.000616 1363.6379 1576.0625
1609.0116 0.000621 1363.5514 1596.5554
1623.6957 0.000616 1363.4649 1619.7728
1655.2473 0.000604 1363.3784 1645.9993
1651.7223 0.000605 1363.2919 1675.5160
1683.9315 0.000594 1363.2054 1708.5952
1731.6011 0.000578 1363.1189 1745.4902
1795.5641 0.000557 1363.0323 1786.4265
1864.1219 0.000536 1362.9458 1831.5898
1902.7814 0.000526 1362.8593 1881.1140
1896.2425 0.000527 1362.7728 1935.0674
1932.4369 0.000517 1362.6863 1993.4376
2017.8725 0.000496 1362.5998 2056.1138
2056.7020 0.000486 1362.5133 2122.8673
2101.2350 0.000476 1362.4268 2193.3293
2220.2471 0.000450 1362.3403 2266.9669
2282.0018 0.000438 1362.2538 2343.0598
2348.9898 0.000426 1362.1673 2420.6807
2439.0457 0.000410 1362.0808 2498.6874
2515.3537 0.000398 1361.9943 2575.7342
2593.8391 0.000386 1361.9078 2650.3126
2675.1710 0.000374 1361.8213 2720.8267
2789.5571 0.000358 1361.7348 2785.7002
2862.6896 0.000349 1361.6483 2843.5002
2888.8347 0.000346 1361.5618 2893.0536
2986.9167 0.000335 1361.4374 2933.3857
3049.9857 0.000328 1361.3129 2964.2635
3027.1938 0.000330 1361.1884 2985.4482
3032.8077 0.000330 1361.0640 2997.0697
3047.3756 0.000328 1360.9395 2999.4486
3078.8922 0.000325 1360.8151 2992.9775
3143.2939 0.000318 1360.6906 2978.2691
3114.2300 0.000321 1360.5662 2955.8175
2955.4502 0.000338 1360.4417 2926.1783
2877.3844 0.000348 1360.3173 2889.9067
2895.1796 0.000345 1360.1928 2847.5616
2874.8542 0.000348 1360.0683 2799.7208
2791.1064 0.000358 1359.9439 2746.9997
2703.3885 0.000370 1359.8194 2690.0631
2564.8047 0.000390 1359.6950 2629.6240
2533.1577 0.000395 1359.5705 2566.4299
2460.7162 0.000406 1359.4461 2501.2437
2363.7866 0.000423 1359.3216 2434.8265
2284.1875 0.000438 1359.1971 2367.9376
2208.4757 0.000453 1359.0727 2301.2748
2143.2181 0.000467 1358.9482 2235.5377
2189.2650 0.000457 1358.8238 2171.3632
2118.0258 0.000472 1358.6993 2109.3193
2032.8698 0.000492 1358.5749 2049.8891
1973.9914 0.000507 1358.4504 1993.4587
1915.8880 0.000522 1358.3260 1940.3573
1888.1204 0.000530 1358.2015 1890.6843
1903.6820 0.000525 1358.0770 1844.5811
1875.6296 0.000533 1357.9526 1802.0677
1807.0409 0.000553 1357.8281 1763.1000
1743.4428 0.000574 1357.7037 1727.5823
1650.0517 0.000606 1357.5792 1695.4132
1692.4448 0.000591 1357.4548 1666.3614
1696.9617 0.000589 1357.3303 1640.2954
1641.0731 0.000609 1357.2058 1616.9809
1644.6318 0.000608 1357.0814 1596.2346
1617.5539 0.000618 1356.9569 1577.8541
1668.4068 0.000599 1356.8325 1561.6411
1643.4540 0.000608 1356.7080 1547.4220
1574.5655 0.000635 1356.5836 1534.9840
1607.3258 0.000622 1356.4591 1524.1779
1624.0134 0.000616 1356.3347 1514.8535
1530.1455 0.000654 1356.2102 1506.8767
1537.5369 0.000650 1356.0857 1500.1316
1590.6963 0.000629 1355.9613 1494.5199
1527.2828 0.000655 1355.8368 1489.9612
1563.5716 0.000640 1355.7124 1486.3928
1565.6603 0.000639 1355.5879 1483.7688
1542.1530 0.000648 1355.4635 1482.0590
1468.8804 0.000681 1355.3390 1481.2476
1556.0259 0.000643 1355.2145 1481.3319
1597.4893 0.000626 1355.0901 1482.3198
1533.8877 0.000652 1354.9656 1484.2281
1537.9320 0.000650 1354.8412 1487.0802
1513.8533 0.000661 1354.7167 1490.9034
1497.6514 0.000668 1354.5923 1495.7261
1624.9929 0.000615 1354.4678 1501.5752
1628.8514 0.000614 1354.3434 1508.4724
1575.1512 0.000635 1354.2189 1516.4317
1580.6009 0.000633 1354.0944 1525.4556
1641.6042 0.000609 1353.9700 1535.5316
1593.2804 0.000628 1353.8455 1546.6283
1606.4666 0.000622 1353.7211 1558.6918
1651.5037 0.000606 1353.5966 1571.6407
1622.6940 0.000616 1353.4722 1585.5946
1652.5355 0.000605 1353.3477 1599.9406
1626.8493 0.000615 1353.2233 1614.7194
1606.9932 0.000622 1353.0988 1629.6971
1685.3350 0.000593 1352.9743 1644.5943
1738.9346 0.000575 1352.8499 1659.0897
1673.4433 0.000598 1352.7254 1672.8266
1669.9639 0.000599 1352.6010 1685.5426
1662.1657 0.000602 1352.4765 1696.6249
1707.1177 0.000586 1352.3521 1705.8274
1734.6795 0.000576 1352.2276 1712.8332
1730.5823 0.000578 1352.1031 1717.3923
1730.1114 0.000578 1351.9787 1719.3239
1662.8265 0.000601 1351.8542 1718.5851
1675.2072 0.000597 1351.7298 1715.1812
1705.6829 0.000586 1351.6053 1709.2183
1729.4048 0.000578 1351.4809 1700.8761
1655.7710 0.000604 1351.3564 1690.3927
1614.3456 0.000619 1351.2320 1678.0424
1603.9347 0.000623 1351.1075 1664.1520
1611.3168 0.000621 1350.9451 1649.0043
1632.3558 0.000613 1350.7827 1632.9696
1656.3479 0.000604 1350.6203 1616.3713
1635.7050 0.000611 1350.4579 1599.5134
1622.8563 0.000616 1350.2954 1582.6701
1546.6837 0.000647 1350.1330 1566.0804
1549.4952 0.000645 1349.9706 1549.9444
1533.5879 0.000652 1349.8082 1534.4233
1478.8701 0.000676 1349.6458 1519.6406
1540.9939 0.000649 1349.4834 1505.6804
1520.4727 0.000658 1349.3210 1492.6134
1510.2978 0.000662 1349.1586 1480.5016
1457.8982 0.000686 1348.9962 1469.2863
1541.0816 0.000649 1348.8337 1458.9940
1486.3449 0.000673 1348.6713 1449.6015
1522.6539 0.000657 1348.5089 1441.0707
1481.0363 0.000675 1348.3465 1433.3627
1457.1389 0.000686 1348.1841 1426.4234
1461.2693 0.000684 1348.0217 1420.2146
1475.8565 0.000678 1347.8593 1414.6435
1433.9058 0.000697 1347.6969 1409.6686
1424.2311 0.000702 1347.5345 1405.2318
1453.3766 0.000688 1347.3721 1401.2769
1455.0170 0.000687 1347.2096 1397.7505
1451.6063 0.000689 1347.0472 1394.6027
1478.0000 0.000677 1346.8848 1391.7872
1467.4319 0.000681 1346.7224 1389.2623
1384.0926 0.000722 1346.5600 1386.9901
1369.0000 0.000730 1346.3976 1384.9370
1382.6785 0.000723 1346.2352 1383.0735
1488.2477 0.000672 1346.0728 1381.3737
1413.8122 0.000707 1345.9104 1379.8153
1421.2966 0.000704 1345.7480 1378.3790
1424.4809 0.000702 1345.5855 1377.0485
1425.9139 0.000701 1345.4231 1375.8097
1395.3641 0.000717 1345.2607 1374.6509
1386.4428 0.000721 1345.0983 1373.5622
1358.5463 0.000736 1344.9359 1372.5352
1343.9941 0.000744 1344.7735 1371.5629
1354.8397 0.000738 1344.6111 1370.6394
1355.5577 0.000738 1344.4487 1369.7596
1383.0814 0.000723 1344.2863 1368.9194
1350.6083 0.000740 1344.0859 1368.0772
1399.2239 0.000715 1343.8855 1367.2679
1426.9951 0.000701 1343.6852 1366.4888
1400.0907 0.000714 1343.4848 1365.7376
1416.3689 0.000706 1343.2845 1365.0124
1423.3529 0.000703 1343.0841 1364.3112
1442.4731 0.000693 1342.8837 1363.6327
1395.0795 0.000717 1342.6834 1362.9752
1310.8456 0.000763 1342.4830 1362.3377
1365.0592 0.000733 1342.2826 1361.7188
1385.5907 0.000722 1342.0823 1361.1175
1380.0393 0.000725 1341.8819 1360.5329
1443.0228 0.000693 1341.6816 1359.9641
1325.9859 0.000754 1341.4812 1359.4102
1373.1719 0.000728 1341.2808 1358.8705
1268.2531 0.000788 1341.0805 1358.3443
1309.0347 0.000764 1340.8801 1357.8310
1408.7321 0.000710 1340.6797 1357.3299
1398.4210 0.000715 1340.4794 1356.8404
1373.9916 0.000728 1340.2790 1356.3621
1328.2254 0.000753 1340.0787 1355.8945
1341.7568 0.000745 1339.8783 1355.4370
1448.5024 0.000690 1339.6779 1354.9893
1411.5796 0.000708 1339.4776 1354.5510
1372.5134 0.000729 1339.2772 1354.1217
1313.0816 0.000762 1339.0769 1353.7011
1328.1026 0.000753 1338.8765 1353.2887
1365.0017 0.000733 1338.6761 1352.8844
1380.9590 0.000724 1338.4758 1352.4879
1380.0052 0.000725 1338.2754 1352.0989
1308.5690 0.000764 1338.0750 1351.7171
1417.8265 0.000705 1337.8747 1351.3423
1329.2049 0.000752 1337.6743 1350.9743
1397.8704 0.000715 1337.4740 1350.6129
1323.4306 0.000756 1337.2736 1350.2580
1433.5777 0.000698 1337.0732 1349.9094
1317.8940 0.000759 1336.8729 1349.5669
1387.0326 0.000721 1336.6725 1349.2304
1289.0133 0.000776 1336.4722 1348.8997
1280.1915 0.000781 1336.2718 1348.5748
1324.4087 0.000755 1336.0714 1348.2556
1386.6525 0.000721 1335.8711 1347.9419
1326.5955 0.000754 1336.1646 1348.1277
1314.4260 0.000761 1336.4581 1348.3189
1374.1480 0.000728 1336.7517 1348.5155
1320.8283 0.000757 1337.0452 1348.7176
1315.1518 0.000760 1337.3387 1348.9250
1296.0655 0.000772 1337.6322 1349.1378
1359.1957 0.000736 1337.9258 1349.3560
1405.3624 0.000712 1338.2193 1349.5797
1379.8385 0.000725 1338.5128 1349.8090
1398.5931 0.000715 1338.8064 1350.0439
1330.9300 0.000751 1339.0999 1350.2847
1402.3182 0.000713 1339.3934 1350.5314
1363.4540 0.000733 1339.6869 1350.7844
1366.4776 0.000732 1339.9805 1351.0439
1321.7876 0.000757 1340.2740 1351.3103
1341.0009 0.000746 1340.5675 1351.5839
1365.0168 0.000733 1340.8611 1351.8655
1330.4122 0.000752 1341.1546 1352.1555
1383.5457 0.000723 1341.4481 1352.4547
1282.6051 0.000780 1341.7416 1352.7640
1370.8291 0.000729 1342.0352 1353.0845
1368.3437 0.000731 1342.3287 1353.4173
1387.7311 0.000721 1342.6222 1353.7640
1354.0527 0.000739 1342.9158 1354.1260
1342.8319 0.000745 1343.2093 1354.5053
1389.3472 0.000720 1343.5028 1354.9040
1323.7460 0.000755 1343.7964 1355.3242
1388.7045 0.000720 1344.0899 1355.7687
1354.6185 0.000738 1344.3834 1356.2402
1353.4133 0.000739 1344.6769 1356.7419
1338.1600 0.000747 1344.9705 1357.2768
1350.0373 0.000741 1345.2640 1357.8486
1361.6213 0.000734 1345.5575 1358.4608
1392.6477 0.000718 1345.8511 1359.1172
1357.8805 0.000736 1346.1446 1359.8215
1280.0677 0.000781 1346.4381 1360.5775
1351.0786 0.000740 1346.7316 1361.3888
1301.9852 0.000768 1347.0252 1362.2590
1333.2151 0.000750 1347.3187 1363.1913
1310.0408 0.000763 1347.6122 1364.1884
1433.8497 0.000697 1347.9058 1365.2527
1380.2930 0.000724 1348.1993 1366.3858
1332.2332 0.000751 1348.4550 1367.5506
1342.9060 0.000745 1348.7108 1368.7846
1389.8169 0.000720 1348.9665 1370.0862
1360.2016 0.000735 1349.2223 1371.4524
1403.2377 0.000713 1349.4780 1372.8781
1374.6072 0.000727 1349.7338 1374.3563
1415.2535 0.000707 1349.9895 1375.8779
1371.0963 0.000729 1350.2453 1377.4313
1353.3870 0.000739 1350.5011 1379.0029
1396.4933 0.000716 1350.7568 1380.5774
1402.7149 0.000713 1351.0126 1382.1385
1343.0599 0.000745 1351.2683 1383.6702
1431.1770 0.000699 1351.5241 1385.1572
1426.3487 0.000701 1351.7798 1386.5865
1338.9395 0.000747 1352.0356 1387.9474
1439.5746 0.000695 1352.2913 1389.2321
1350.4310 0.000741 1352.5471 1390.4347
1393.4313 0.000718 1352.8028 1391.5508
1370.2036 0.000730 1353.0586 1392.5764
1362.3918 0.000734 1353.3143 1393.5075
1329.6272 0.000752 1353.5701 1394.3391
1355.8446 0.000738 1353.8258 1395.0651
1412.3552 0.000708 1354.0816 1395.6786
1369.9391 0.000730 1354.3373 1396.1724
1423.2006 0.000703 1354.5931 1396.5391
1403.7189 0.000712 1354.8488 1396.7725
1381.3213 0.000724 1355.1046 1396.8683
1389.6386 0.000720 1355.3603 1396.8249
1428.5690 0.000700 1355.6161 1396.6436
1416.6535 0.000706 1355.8718 1396.3288
1361.6222 0.000734 1356.1276 1395.8875
1392.1487 0.000718 1356.3833 1395.3290
1364.8216 0.000733 1356.6391 1394.6645
1427.9894 0.000700 1356.8948 1393.9071
1352.8035 0.000739 1357.1506 1393.0710
1391.9283 0.000718 1357.4063 1392.1723
1350.3377 0.000741 1357.6621 1391.2277
1352.9750 0.000739 1357.9179 1390.2547
1342.3363 0.000745 1358.1736 1389.2703
1382.1206 0.000724 1358.4294 1388.2910
1383.1758 0.000723 1358.6851 1387.3317
1371.3531 0.000729 1358.9409 1386.8056
1366.0565 0.000732 1359.1588 1385.8896
1388.4625 0.000720 1359.3767 1383.9495
1405.0359 0.000712 1359.5946 1383.1597
1370.8788 0.000729 1359.8125 1382.4392
1338.8701 0.000747 1360.0305 1381.7931
1364.5138 0.000733 1360.2484 1381.2250
1356.1241 0.000737 1360.4663 1380.7372
1361.6266 0.000734 1360.6842 1379.9912
1424.1617 0.000702 1360.9021 1379.6729
1370.8318 0.000729 1361.1201 1379.4367
1388.2245 0.000720 1361.3380 1379.2818
1425.6629 0.000701 1361.5559 1379.2073
1399.2154 0.000715 1361.7738 1379.2120
1370.9765 0.000729 1361.9917 1379.6154
1368.4925 0.000731 1362.2097 1379.7775
1438.1922 0.000695 1362.4276 1379.4572
1428.4893 0.000700 1362.6455 1379.7762
1412.3810 0.000708 1362.8634 1380.1715
1395.1164 0.000717 1363.0813 1380.6439
1437.0169 0.000696 1363.2993 1381.1950
1419.7329 0.000704 1363.5172 1381.8268
1395.5614 0.000717 1363.7351 1382.4231
1418.7319 0.000705 1363.9530 1383.2297
1428.9765 0.000700 1364.1709 1384.1289
1395.0809 0.000717 1364.3889 1385.1263
1435.8776 0.000696 1364.6068 1386.2287
1482.6614 0.000674 1364.8247 1387.4436
1450.1799 0.000690 1365.0426 1388.7797
1412.4715 0.000708 1365.2605 1391.2743
1444.8253 0.000692 1365.4785 1392.8868
1398.4522 0.000715 1365.6964 1394.6488
1398.9224 0.000715 1365.9143 1396.5699
1391.9814 0.000718 1366.1322 1398.6593
1422.6980 0.000703 1366.3501 1400.9254
1488.2882 0.000672 1366.5681 1403.3754
1452.5363 0.000688 1366.7860 1406.0146
1485.2586 0.000673 1367.0039 1409.3605
1465.2963 0.000682 1367.2218 1412.3883
1458.3781 0.000686 1367.4398 1415.6060
1462.2597 0.000684 1367.6577 1419.0070
1434.6101 0.000697 1367.8756 1422.5802
1437.6611 0.000696 1368.0935 1426.3107
1511.8727 0.000661 1368.3114 1430.1788
1498.8270 0.000667 1368.5294 1434.1608
1463.9078 0.000683 1368.7473 1438.2290
1497.7146 0.000668 1368.9652 1442.3521
1503.4463 0.000665 1369.1831 1446.4952
1510.7025 0.000662 1369.4010 1450.6198
1545.7027 0.000647 1369.6190 1454.6840
1554.3440 0.000643 1369.8369 1458.6422
1553.6145 0.000644 1370.0548 1462.4459
1541.6059 0.000649 1370.2727 1466.0451
1511.1020 0.000662 1370.4906 1469.3899
1549.9031 0.000645 1370.7086 1472.4329
1543.3942 0.000648 1370.9265 1475.1321
1550.5229 0.000645 1371.1444 1477.4527
1547.8523 0.000646 1371.3623 1479.3690
1543.7610 0.000648 1371.5802 1480.8656
1579.9861 0.000633 1371.7982 1481.9383
1632.7042 0.000612 1372.0161 1482.5949
1587.1847 0.000630 1372.2340 1482.8559
1555.0573 0.000643 1372.4519 1482.7552
1534.6355 0.000652 1372.6698 1482.3397
1509.7032 0.000662 1372.8878 1481.6684
1514.3903 0.000660 1373.1057 1480.8106
1499.5659 0.000667 1373.3236 1479.8438
1484.8806 0.000673 1373.5415 1478.8509
1518.5372 0.000659 1373.7594 1477.9184
1546.0000 0.000647 1373.9774 1477.1345
1523.9315 0.000656 1374.1953 1476.5873
1506.5490 0.000664 1374.4132 1476.3637
1511.9174 0.000661 1374.6311 1476.5475
1482.8339 0.000674 1374.8490 1477.2181
1483.1339 0.000674 1375.0670 1478.4492
1512.9220 0.000661 1375.2849 1480.3074
1533.5353 0.000652 1375.5028 1482.8508
1569.9203 0.000637 1375.7207 1486.1772
1550.7533 0.000645 1375.9386 1490.2279
1519.6938 0.000658 1376.1566 1495.0792
1511.4495 0.000662 1376.3745 1500.7468
1496.8212 0.000668 1376.5924 1507.2337
1476.8898 0.000677 1376.8103 1514.4169
1483.1977 0.000674 1377.0282 1522.4947
1537.9756 0.000650 1377.2462 1531.3116
1547.9745 0.000646 1377.4263 1540.7928
1539.2342 0.000650 1377.6063 1550.6621
1589.4692 0.000629 1377.7864 1561.2083
1635.5698 0.000611 1377.9665 1572.1173
1575.3607 0.000635 1378.1466 1583.1782
1553.3416 0.000644 1378.3267 1594.3200
1606.9480 0.000622 1378.5068 1605.2778
1616.9440 0.000618 1378.6869 1615.7276
1604.3289 0.000623 1378.8670 1625.6068
1562.6171 0.000640 1379.0471 1634.5698
1561.7344 0.000640 1379.2271 1642.3733
1593.7878 0.000627 1379.4072 1648.7987
1660.4359 0.000602 1379.5873 1653.6676
1650.1600 0.000606 1379.7674 1656.8536
1567.0000 0.000638 1379.9475 1658.2884
1558.9821 0.000641 1380.1276 1657.9611
1586.1110 0.000630 1380.3077 1655.9137
1605.5500 0.000623 1380.4878 1652.2323
1607.4273 0.000622 1380.6678 1647.0392
1620.4832 0.000617 1380.8479 1640.4850
1611.9158 0.000620 1381.0280 1632.7432
1602.3073 0.000624 1381.2081 1624.0046
1572.1882 0.000636 1381.3882 1614.4718
1582.1579 0.000632 1381.5683 1604.3529
1595.6571 0.000627 1381.7484 1593.8543
1561.0735 0.000641 1381.9285 1583.1733
1533.7108 0.000652 1382.1086 1572.4924
1534.7342 0.000652 1382.2886 1561.9741
1509.1936 0.000663 1382.4687 1551.7586
1525.5824 0.000655 1382.6488 1541.9625
1527.8087 0.000655 1382.8289 1532.6789
1485.5659 0.000673 1383.0090 1523.9786
1491.9195 0.000670 1383.1891 1515.9118
1512.4236 0.000661 1383.3692 1508.5097
1507.9488 0.000663 1383.5493 1501.7865
1485.5243 0.000673 1383.7294 1495.7409
1464.4156 0.000683 1383.9094 1490.3592
1434.0306 0.000697 1384.0895 1485.6116
1376.0513 0.000727 1384.2696 1481.4607
1384.5311 0.000722 1384.4497 1477.8583
1447.4607 0.000691 1384.6298 1474.7478
1480.6090 0.000675 1384.8099 1472.0658
1491.7908 0.000670 1384.9521 1469.7062
1497.8556 0.000668 1385.0943 1467.6361
1466.1052 0.000682 1385.2365 1465.7856
1437.9157 0.000695 1385.3787 1464.0862
1468.1121 0.000681 1385.5209 1462.4771
1465.4453 0.000682 1385.6631 1460.9052
1426.3154 0.000701 1385.8053 1459.3273
1444.5271 0.000692 1385.9475 1457.7103
1404.2177 0.000712 1386.0897 1456.0313
1408.1401 0.000710 1386.2319 1454.2764
1425.3729 0.000702 1386.3741 1452.4392
1430.0724 0.000699 1386.5163 1450.5203
1444.3510 0.000692 1386.6585 1448.5293
1430.7284 0.000699 1386.8007 1446.4700
1410.7172 0.000709 1386.9429 1444.3607
1466.4268 0.000682 1387.0851 1442.2191
1443.9592 0.000693 1387.2273 1440.0647
1390.1898 0.000719 1387.3695 1437.9177
1416.8054 0.000706 1387.5117 1435.7978
1385.7896 0.000722 1387.6539 1433.7232
1383.0796 0.000723 1387.7962 1431.7121
1433.7107 0.000697 1387.9384 1429.7747
1462.7721 0.000684 1388.0806 1427.9243
1469.6326 0.000680 1388.2228 1426.1696
1450.5724 0.000689 1388.3650 1424.5171
1404.3587 0.000712 1388.5072 1422.9710
1381.5471 0.000724 1388.6494 1421.5337
1408.6376 0.000710 1388.7916 1420.2056
1402.2545 0.000713 1388.9338 1418.9861
1389.0880 0.000720 1389.0760 1417.8728
1378.7587 0.000725 1389.2182 1416.8627
1338.9410 0.000747 1389.3604 1415.9518
1374.6551 0.000727 1389.5026 1415.1354
1390.4265 0.000719 1389.6448 1414.4084
1401.0883 0.000714 1389.7870 1413.7653
1398.2027 0.000715 1389.9292 1413.2005
1382.0699 0.000724 1390.0714 1412.7083
1394.4959 0.000717 1390.2136 1412.2830
1385.3350 0.000722 1390.3558 1411.9189
1384.1151 0.000722 1390.4980 1411.6109
1404.2154 0.000712 1390.6402 1411.3539
1382.4197 0.000723 1390.7824 1411.1430
1382.4374 0.000723 1390.8864 1410.9356
1405.9370 0.000711 1390.9904 1410.7659
1434.2749 0.000697 1391.0944 1410.6302
1392.6943 0.000718 1391.1983 1410.5251
1420.2494 0.000704 1391.3023 1410.4476
1400.0000 0.000714 1391.4063 1410.3951
1396.4709 0.000716 1391.5103 1410.3653
1395.8704 0.000716 1391.6143 1410.3560
1399.5079 0.000715 1391.7182 1410.3654
1346.6885 0.000743 1391.8222 1410.3921
1358.0432 0.000736 1391.9262 1410.4402
1369.7762 0.000730 1392.0302 1410.4974
1393.9782 0.000717 1392.1342 1410.5683
1383.1636 0.000723 1392.2382 1410.6520
1353.7471 0.000739 1392.3421 1410.7479
1330.0510 0.000752 1392.4461 1410.8553
1328.9524 0.000752 1392.5501 1410.9736
1377.5685 0.000726 1392.6541 1411.1025
1395.0000 0.000717 1392.7581 1411.2416
1396.4206 0.000716 1392.8620 1411.3934
1385.5492 0.000722 1392.9660 1411.5520
1336.6200 0.000748 1393.0700 1411.7200
1365.3340 0.000732 1393.1740 1411.8972
1410.0856 0.000709 1393.2780 1412.0835
1308.2993 0.000764 1393.3820 1412.2787
1356.0132 0.000737 1393.4859 1412.4828
1358.3778 0.000736 1393.5899 1412.6957
1388.3379 0.000720 1393.6939 1412.9174
1367.1282 0.000731 1393.7979 1413.1482
1344.9327 0.000744 1393.9019 1413.3874
1373.9038 0.000728 1394.0058 1413.6353
1383.3620 0.000723 1394.1098 1413.8921
1381.2436 0.000724 1394.2138 1414.1577
1413.9525 0.000707 1394.3178 1414.4322
1460.6872 0.000685 1394.4218 1414.7214
1404.9432 0.000712 1394.5258 1415.0141
1450.7311 0.000689 1394.6297 1415.3161
1387.0957 0.000721 1394.7337 1415.6273
1409.5582 0.000709 1394.8377 1415.9480
1410.7163 0.000709 1394.9417 1416.2819
1398.1325 0.000715 1395.0457 1416.6220
1373.7661 0.000728 1395.1496 1416.9722
1418.8554 0.000705 1395.2248 1417.3038
1456.8836 0.000686 1395.3000 1417.6488
1333.9719 0.000750 1395.3753 1418.0016
1369.3390 0.000730 1395.4505 1418.3653
1381.4354 0.000724 1395.5257 1418.7403
1402.8425 0.000713 1395.6009 1419.1268
1372.2750 0.000729 1395.6761 1419.5270
1376.3361 0.000727 1395.7513 1419.9376
1361.6919 0.000734 1395.8265 1420.3608
1365.9032 0.000732 1395.9017 1420.7970
1401.0817 0.000714 1395.9769 1421.2465
1416.5046 0.000706 1396.0521 1421.7099
1429.4021 0.000700 1396.1273 1422.1875
1393.8482 0.000717 1396.2025 1422.6798
1452.0677 0.000689 1396.2777 1423.1875
1433.9092 0.000697 1396.3529 1423.7110
1399.3785 0.000715 1396.4281 1424.2509
1431.1203 0.000699 1396.5033 1424.8079
1437.9923 0.000695 1396.5785 1425.3826
1349.1064 0.000741 1396.6537 1425.9757
1401.6841 0.000713 1396.7289 1426.5880
1414.1978 0.000707 1396.8041 1427.2201
1359.4500 0.000736 1396.8793 1427.8731
1334.0059 0.000750 1396.9545 1428.5477
1404.4453 0.000712 1397.0297 1429.2449
1409.0866 0.000710 1397.1049 1429.9657
1417.2581 0.000706 1397.1801 1430.7112
1411.1033 0.000709 1397.2553 1431.4825
1405.9608 0.000711 1397.3305 1432.2808
1354.6456 0.000738 1397.4057 1433.1074
1386.4346 0.000721 1397.4809 1433.9638
1447.4574 0.000691 1397.5561 1434.8513
1358.3189 0.000736 1397.6313 1435.7717
1407.6750 0.000710 1397.7065 1436.7266
1465.1379 0.000683 1397.7817 1437.7034
1439.3441 0.000695 1397.8569 1438.7334
1379.9651 0.000725 1397.9321 1439.8041
1423.2412 0.000703 1398.0073 1440.9181
1391.6272 0.000719 1398.0825 1442.0780
1412.4278 0.000708 1398.1577 1443.2868
1419.1666 0.000705 1398.2329 1444.5480
1433.2851 0.000698 1398.3081 1445.8580
1411.5315 0.000708 1398.3509 1447.2034
1447.2421 0.000691 1398.3937 1448.6141
1421.1010 0.000704 1398.4365 1450.0956
1439.8845 0.000695 1398.4794 1451.6542
1451.7907 0.000689 1398.5222 1453.2972
1396.1975 0.000716 1398.5650 1455.0329
1437.7636 0.000696 1398.6078 1456.8709
1435.8101 0.000696 1398.6506 1458.8046
1495.5806 0.000669 1398.6934 1460.8821
1485.7251 0.000673 1398.7362 1463.1002
1478.1217 0.000677 1398.7790 1465.4758
1456.8661 0.000686 1398.8218 1468.0278
1508.8121 0.000663 1398.8646 1470.7782
1472.7433 0.000679 1398.9074 1473.7516
1496.3151 0.000668 1398.9502 1476.9671
1434.7439 0.000697 1398.9930 1480.4704
1509.1321 0.000663 1399.0359 1484.2941
1561.3340 0.000640 1399.0787 1488.4737
1471.0672 0.000680 1399.1215 1493.0515
1539.3963 0.000650 1399.1643 1498.0742
1493.4762 0.000670 1399.2071 1503.5920
1640.2110 0.000610 1399.2499 1509.6587
1532.0274 0.000653 1399.2927 1516.3303
1537.9715 0.000650 1399.3355 1523.6704
1523.0115 0.000657 1399.3783 1531.7404
1595.7491 0.000627 1399.4211 1540.6052
1536.3664 0.000651 1399.4639 1550.3307
1545.9122 0.000647 1399.5067 1560.9832
1597.4049 0.000626 1399.5495 1572.6282
1497.4396 0.000668 1399.5924 1585.3292
1593.3385 0.000628 1399.6352 1599.1466
1613.6304 0.000620 1399.6780 1614.1360
1607.1548 0.000622 1399.7208 1630.3474
1606.0248 0.000623 1399.7636 1647.8227
1720.7599 0.000581 1399.8064 1666.5948
1637.6813 0.000611 1399.8492 1686.6848
1667.8849 0.000600 1399.8920 1708.1005
1744.2337 0.000573 1399.9348 1730.8338
1752.7712 0.000571 1399.9776 1754.9568
1729.0201 0.000578 1400.0204 1780.2227
1813.1310 0.000552 1400.0632 1806.6564
1762.6301 0.000567 1400.1060 1834.1560
1836.0952 0.000545 1400.1146 1862.5548
1847.5882 0.000541 1400.1232 1891.7224
1955.8271 0.000511 1400.1319 1921.4625
1941.2500 0.000515 1400.1405 1951.5511
1857.2348 0.000538 1400.1491 1981.7438
1989.8632 0.000503 1400.1577 2011.8371
1939.1488 0.000516 1400.1663 2041.4860
2004.9380 0.000499 1400.1749 2070.5187
2021.1581 0.000495 1400.1835 2098.7570
2023.8543 0.000494 1400.1921 2126.0789
2041.5655 0.000490 1400.2007 2152.4307
2066.9676 0.000484 1400.2093 2177.8225
2275.8114 0.000439 1400.2179 2202.3250
2196.8518 0.000455 1400.2265 2226.0565
2178.8618 0.000459 1400.2351 2249.1686
2224.4689 0.000450 1400.2437 2271.8309
2140.8769 0.000467 1400.2523 2294.2189
2161.8920 0.000463 1400.2609 2316.5048
2401.6247 0.000416 1400.2695 2338.8470
2456.7158 0.000407 1400.2781 2361.3961
2423.1898 0.000413 1400.2867 2384.2466
2388.5652 0.000419 1400.2953 2407.4983
2428.7311 0.000412 1400.3039 2431.2131
2461.5839 0.000406 1400.3125 2455.4282
2515.5666 0.000398 1400.3211 2480.1668
2550.3029 0.000392 1400.3297 2505.4158
2602.4988 0.000384 1400.3383 2531.1664
2563.2854 0.000390 1400.3469 2557.3854
2516.6829 0.000397 1400.3555 2584.0198
2580.9031 0.000387 1400.3641 2610.9644
2651.1073 0.000377 1400.3727 2638.0798
2654.7893 0.000377 1400.3813 2665.1585
2812.4381 0.000356 1400.3900 2691.9061
2788.6657 0.000359 1400.3986 2717.9872
2778.4187 0.000360 1400.4072 2742.9349
2756.5556 0.000363 1400.4158 2766.2226
2844.4963 0.000352 1400.4244 2787.2502
2941.8339 0.000340 1400.4330 2805.3668
2888.0186 0.000346 1400.4416 2819.9008
2942.0737 0.000340 1400.4502 2830.1923
3022.3988 0.000331 1400.4588 2835.6619
2971.8679 0.000336 1400.4674 2835.7783
2961.6782 0.000338 1400.4418 2830.2341
3002.9847 0.000333 1400.4162 2818.8362
2945.1334 0.000340 1400.3906 2801.5576
2868.8375 0.000349 1400.3650 2778.5225
2831.1475 0.000353 1400.3394 2749.9856
2824.3485 0.000354 1400.3138 2716.3080
2782.0230 0.000359 1400.2882 2677.8834
2726.2367 0.000367 1400.2626 2635.3307
2577.8020 0.000388 1400.2370 2589.1667
2613.0207 0.000383 1400.2114 2540.0046
2580.8807 0.000387 1400.1858 2488.4882
2449.3498 0.000408 1400.1603 2435.2758
2384.6821 0.000419 1400.1347 2381.0215
2330.9539 0.000429 1400.1091 2326.3383
2238.2240 0.000447 1400.0835 2271.8478
2269.9387 0.000441 1400.0579 2218.0651
2185.8407 0.000457 1400.0323 2165.4565
2121.3141 0.000471 1400.0067 2114.4178
2133.9404 0.000469 1399.9811 2065.2745
2084.0249 0.000480 1399.9555 2018.2845
1922.8576 0.000520 1399.9299 1973.6427
1934.6808 0.000517 1399.9043 1931.4872
1915.4439 0.000522 1399.8787 1891.9056
1815.7862 0.000551 1399.8531 1854.9419
1805.5007 0.000554 1399.8275 1820.6017
1843.2118 0.000543 1399.8019 1788.8588
1772.1817 0.000564 1399.7763 1759.6597
1790.1866 0.000559 1399.7507 1732.9288
1812.9367 0.000552 1399.7251 1708.5723
1768.7752 0.000565 1399.6996 1686.4825
1723.6391 0.000580 1399.6740 1666.5412
1687.5276 0.000593 1399.6484 1648.6225
1654.8821 0.000604 1399.6228 1632.5961
1647.7510 0.000607 1399.5972 1618.3294
1615.0728 0.000619 1399.5716 1605.6897
1618.9135 0.000618 1399.5460 1594.5456
1553.4142 0.000644 1399.5204 1584.7688
1612.6583 0.000620 1399.4948 1576.2345
1633.1480 0.000612 1399.4692 1568.8227
1616.7700 0.000619 1399.4436 1562.4183
1607.6060 0.000622 1399.4180 1556.9109
1613.2966 0.000620 1399.3924 1552.1953
1617.4540 0.000618 1399.3336 1548.1374
1624.5189 0.000616 1399.2747 1544.6735
1594.5255 0.000627 1399.2159 1541.7108
1618.6683 0.000618 1399.1571 1538.9282
1562.8008 0.000640 1399.0982 1536.7031
1496.4629 0.000668 1399.0394 1534.7195
1540.7223 0.000649 1398.9805 1532.8981
1590.4992 0.000629 1398.9217 1531.1650
1566.4235 0.000638 1398.8629 1529.4526
1533.0197 0.000652 1398.8040 1527.7015
1604.1344 0.000623 1398.7452 1525.7460
1577.3057 0.000634 1398.6863 1523.7790
1550.3050 0.000645 1398.6275 1521.6556
1563.1536 0.000640 1398.5686 1519.3578
1589.6888 0.000629 1398.5098 1516.8770
1548.8520 0.000646 1398.4510 1514.2130
1508.8927 0.000663 1398.3921 1511.3722
1577.3416 0.000634 1398.3333 1508.3666
1553.2522 0.000644 1398.2744 1505.2127
1556.7853 0.000642 1398.2156 1501.9307
1511.3747 0.000662 1398.1568 1498.5438
1562.5134 0.000640 1398.0979 1495.0774
1553.8841 0.000644 1398.0391 1491.5585
1532.6624 0.000652 1397.9802 1488.0144
1480.9649 0.000675 1397.9214 1484.4722
1467.2054 0.000682 1397.8626 1480.9574
1510.8256 0.000662 1397.8037 1477.4933
1537.8592 0.000650 1397.7449 1474.1008
1531.5638 0.000653 1397.6860 1470.7978
1516.9057 0.000659 1397.6272 1467.5993
1499.7084 0.000667 1397.5684 1464.5172
1451.1234 0.000689 1397.5095 1461.5606
1442.1149 0.000693 1397.4507 1458.7363
1487.0572 0.000672 1397.3918 1456.0486
1472.3701 0.000679 1397.3330 1453.4998
1424.1225 0.000702 1397.2741 1451.0904
1458.4728 0.000686 1397.2153 1448.8194
1462.8703 0.000684 1397.1565 1446.6846
1506.8038 0.000664 1397.0976 1444.6826
1477.8409 0.000677 1397.0388 1442.8091
1427.2155 0.000701 1396.9799 1441.0592
1438.5270 0.000695 1396.9211 1439.3929
1480.7448 0.000675 1396.8303 1437.8416
1507.3467 0.000663 1396.7394 1436.3963
1454.7015 0.000687 1396.6486 1435.0507
1404.6484 0.000712 1396.5577 1433.7985
1436.4828 0.000696 1396.4669 1432.6335
1490.6714 0.000671 1396.3760 1431.5495
1472.4682 0.000679 1396.2852 1430.5231
1431.3060 0.000699 1396.1943 1429.5834
1463.9223 0.000683 1396.1035 1428.7074
1490.4547 0.000671 1396.0126 1427.8898
1448.5902 0.000690 1395.9218 1427.1256
1429.1975 0.000700 1395.8309 1426.4101
1469.9721 0.000680 1395.7401 1425.7389
1443.9424 0.000693 1395.6492 1425.1078
1418.5506 0.000705 1395.5584 1424.5130
1440.7967 0.000694 1395.4675 1423.9510
1455.5775 0.000687 1395.3767 1423.4853
1429.9543 0.000699 1395.2858 1422.9802
1389.2938 0.000720 1395.1950 1422.4995
1348.4833 0.000742 1395.1041 1422.0411
1397.6281 0.000715 1395.0133 1421.6031
1413.4395 0.000707 1394.9224 1421.1840
1421.9325 0.000703 1394.8316 1420.7822
1423.6640 0.000702 1394.7408 1420.3967
1407.1609 0.000711 1394.6499 1420.0260
1442.0531 0.000693 1394.5591 1419.6690
1456.7265 0.000686 1394.4682 1419.3578
1441.4003 0.000694 1394.3774 1419.0245
1413.9336 0.000707 1394.2865 1418.7007
1436.8497 0.000696 1394.1957 1418.3848
1501.9503 0.000666 1394.1048 1418.0751
1480.1058 0.000676 1394.0140 1417.7693
1430.0577 0.000699 1393.9231 1417.4655
1439.3314 0.000695 1393.8323 1417.1612
1426.2200 0.000701 1393.7414 1416.8542
1425.5096 0.000702 1393.6506 1416.5424
1437.6237 0.000696 1393.5597 1416.2238
1447.0973 0.000691 1393.4689 1415.8968
1428.5433 0.000700 1393.3780 1415.5603
1443.5482 0.000693 1393.2872 1415.2136
1479.8210 0.000676 1393.1963 1414.8567
1446.7594 0.000691 1393.1055 1414.4899
1421.9832 0.000703 1393.0146 1414.1141
1430.0029 0.000699 1392.9238 1413.7303
1430.5533 0.000699 1392.8329 1413.3401
1438.3073 0.000695 1392.7421 1412.9450
1439.7757 0.000695 1392.6512 1412.5470
1430.8102 0.000699 1392.5604 1412.1483
1405.9251 0.000711 1392.4696 1411.7509
1398.0787 0.000715 1392.3787 1411.3574
1457.3683 0.000686 1392.2879 1410.9699
1472.7216 0.000679 1392.1970 1410.5911
1445.0017 0.000692 1392.1062 1410.5652
1423.1109 0.000703 1392.0153 1410.2122
1400.6430 0.000714 1391.9245 1409.8743
1413.8094 0.000707 1391.8336 1409.5533
1448.5161 0.000690 1391.7428 1409.2510
1466.6436 0.000682 1391.6519 1408.9689
1439.8919 0.000694 1391.5611 1408.7081
1389.4257 0.000720 1391.4702 1408.4697
1370.3573 0.000730 1391.3794 1408.2546
1394.6879 0.000717 1391.2885 1408.2337
1439.9552 0.000694 1391.1977 1408.0676
1433.2130 0.000698 1391.1068 1407.9259
1447.4310 0.000691 1391.0160 1407.8088
1431.8042 0.000698 1390.9251 1407.7159
1347.8294 0.000742 1390.8343 1407.6470
1352.2010 0.000740 1390.7434 1407.6012
1422.7336 0.000703 1390.6526 1407.5779
1418.5390 0.000705 1390.5617 1407.5757
1383.8879 0.000723 1390.4709 1407.6943
1399.6224 0.000714 1390.3800 1407.7915
1464.1954 0.000683 1390.2892 1407.8443
1448.0784 0.000691 1390.1984 1407.9108
1422.5652 0.000703 1390.1075 1407.9884
1445.7397 0.000692 1390.0167 1408.0741
1465.6237 0.000682 1389.9258 1408.1646
1433.5566 0.000698 1389.8350 1408.2565
1433.2240 0.000698 1389.7441 1408.3461
1421.0104 0.000704 1389.6533 1408.4803
1434.3394 0.000697 1389.5624 1408.5556
1412.7845 0.000708 1389.4716 1408.6499
1420.7921 0.000704 1389.3807 1408.7002
1429.8674 0.000699 1389.2899 1408.7356
1410.3532 0.000709 1389.1670 1408.7235
1395.9229 0.000716 1389.0442 1408.6963
1427.4929 0.000701 1388.9213 1408.6549
1402.6289 0.000713 1388.7985 1408.6010
1413.4994 0.000707 1388.6756 1408.5367
1442.5280 0.000693 1388.5527 1408.4644
1488.2732 0.000672 1388.4299 1408.3867
1407.0303 0.000711 1388.3070 1408.3063
1351.6935 0.000740 1388.1842 1408.2260
1397.6015 0.000716 1388.0613 1408.1486
1428.1428 0.000700 1387.9385 1408.0766
1380.0671 0.000725 1387.8156 1408.0123
1393.3490 0.000718 1387.6928 1407.9576
1382.0723 0.000724 1387.5699 1407.9139
1422.3533 0.000703 1387.4470 1407.8819
1426.8573 0.000701 1387.3242 1407.8618
1435.7400 0.000697 1387.2013 1407.8527
1434.1654 0.000697 1387.0785 1407.8532
1428.4266 0.000700 1386.9556 1407.8607
1415.2806 0.000707 1386.8328 1407.8837
1376.6627 0.000726 1386.7099 1407.8953
1392.7326 0.000718 1386.5871 1407.9025
1410.7288 0.000709 1386.4642 1407.9002
1382.3052 0.000723 1386.3414 1407.8835
1398.4326 0.000715 1386.2185 1407.8471
1418.7602 0.000705 1386.0956 1407.7860
1407.8230 0.000710 1385.9728 1407.6959
1397.4068 0.000716 1385.8499 1407.5729
1412.9582 0.000708 1385.7271 1407.4139
1425.4897 0.000702 1385.6042 1407.2225
1387.5399 0.000721 1385.4814 1406.9860
1433.3771 0.000698 1385.3585 1406.7098
1438.1182 0.000695 1385.2357 1406.3943
1467.2769 0.000682 1385.1128 1406.0410
1411.5995 0.000708 1384.9900 1405.6520
1398.8927 0.000715 1384.8671 1405.2302
1378.7563 0.000725 1384.7442 1404.7789
1431.3153 0.000699 1384.6214 1404.3020
1395.2569 0.000717 1384.4985 1403.8036
1394.4980 0.000717 1384.3757 1403.2882
1348.7774 0.000741 1384.2528 1402.7600
1394.5011 0.000717 1384.1300 1402.2272
1416.4628 0.000706 1383.9763 1401.6563
1399.7283 0.000714 1383.8227 1401.0856
1429.2496 0.000700 1383.6691 1400.5192
1377.1641 0.000726 1383.5155 1399.9604
1365.4759 0.000732 1383.3619 1399.4125
1467.6361 0.000681 1383.2082 1398.8783
1404.2842 0.000712 1383.0546 1398.3601
1377.0000 0.000726 1382.9010 1397.8600
1395.0076 0.000717 1382.7474 1397.3796
1439.8717 0.000695 1382.5937 1396.9217
1408.1677 0.000710 1382.4401 1396.4838
1372.7598 0.000728 1382.2865 1396.0683
1371.1370 0.000729 1382.1329 1395.6754
1384.0486 0.000723 1381.9793 1395.3053
1368.9526 0.000730 1381.8256 1394.9579
1440.1471 0.000694 1381.6720 1394.6330
1431.4306 0.000699 1381.5184 1394.3302
1372.1372 0.000729 1381.3648 1394.0490
1364.6728 0.000733 1381.2111 1393.7890
1420.5917 0.000704 1381.0575 1393.5495
1369.5045 0.000730 1380.9039 1393.3300
1384.5549 0.000722 1380.7503 1393.1299
1384.5392 0.000722 1380.5967 1392.9487
1391.0861 0.000719 1380.4430 1392.7858
1402.2946 0.000713 1380.2894 1392.6409
1424.1268 0.000702 1380.1358 1392.5136
1397.2132 0.000716 1379.9822 1392.4038
1373.7074 0.000728 1379.8285 1392.3112
1401.4180 0.000714 1379.6749 1392.2360
1376.4746 0.000726 1379.5213 1392.1785
1410.1173 0.000709 1379.3677 1392.1389
1353.4429 0.000739 1379.2141 1392.1180
1381.6817 0.000724 1379.0604 1392.1167
1374.4768 0.000728 1378.9068 1392.1359
1394.3929 0.000717 1378.7532 1392.1773
1418.5182 0.000705 1378.5996 1392.2425
1350.5630 0.000740 1378.4460 1392.3336
1396.1791 0.000716 1378.2923 1392.4531
1484.7771 0.000674 1378.1387 1392.6038
1373.9943 0.000728 1377.9851 1392.7891
1435.2796 0.000697 1377.8315 1393.0127
1465.6202 0.000682 1377.6778 1393.2790
1401.3272 0.000714 1377.4950 1393.5634
1430.2148 0.000699 1377.3121 1393.9007
1417.1282 0.000706 1377.1293 1394.2966
1424.1095 0.000702 1376.9464 1394.7577
1427.0392 0.000701 1376.7635 1395.2910
1420.0365 0.000704 1376.5807 1395.9039
1461.2715 0.000684 1376.3978 1396.6062
1411.7044 0.000708 1376.2150 1397.4031
1405.6454 0.000711 1376.0321 1398.3051
1382.5647 0.000723 1375.8492 1399.3214
1407.5075 0.000710 1375.6664 1400.4613
1454.8911 0.000687 1375.4835 1401.7343
1387.8240 0.000721 1375.3007 1403.1499
1402.3094 0.000713 1375.1178 1404.7172
1380.1954 0.000725 1374.9349 1406.4450
1394.8735 0.000717 1374.7521 1408.3414
1399.4473 0.000715 1374.5692 1410.4147
1441.7551 0.000694 1374.3864 1412.6697
1468.8815 0.000681 1374.2035 1415.1121
1464.4104 0.000683 1374.0206 1417.3481
1431.2306 0.000699 1373.8378 1420.1769
1391.4124 0.000719 1373.6549 1423.1982
1436.0779 0.000696 1373.4721 1426.4092
1442.8976 0.000693 1373.2892 1429.8044
1423.8731 0.000702 1373.1063 1433.3752
1425.7741 0.000701 1372.9235 1437.1096
1528.3098 0.000654 1372.7406 1440.9916
1492.3000 0.000670 1372.5577 1444.8022
1478.6614 0.000676 1372.3749 1448.9148
1501.9704 0.000666 1372.1920 1453.0989
1472.0372 0.000679 1372.0092 1457.3186
1478.4766 0.000676 1371.8263 1461.5364
1432.1628 0.000698 1371.6434 1465.6957
1472.0783 0.000679 1371.4606 1469.7481
1513.4847 0.000661 1371.2777 1473.6364
1436.7044 0.000696 1371.0949 1477.3007
1476.3521 0.000677 1370.9120 1480.6803
1543.6801 0.000648 1370.7291 1483.3968
1496.1126 0.000668 1370.5463 1486.0378
1473.2442 0.000679 1370.3634 1488.2352
1532.7580 0.000652 1370.1806 1489.9529
1467.0845 0.000682 1369.9977 1491.1684
1480.1033 0.000676 1369.7868 1491.8444
1401.0535 0.000714 1369.5758 1491.9949
1511.2149 0.000662 1369.3649 1491.6377
1496.2320 0.000668 1369.1540 1490.6320
1497.7638 0.000668 1368.9430 1489.3249
1427.9855 0.000700 1368.7321 1487.5924
1452.0366 0.000689 1368.5212 1485.4625
1478.8574 0.000676 1368.3102 1482.9804
1501.2728 0.000666 1368.0993 1480.1902
1478.8453 0.000676 1367.8883 1477.1381
1441.6397 0.000694 1367.6774 1473.8762
1428.8497 0.000700 1367.4665 1470.4473
1423.4700 0.000703 1367.2555 1466.8947
1445.0841 0.000692 1367.0446 1462.2417
1499.4431 0.000667 1366.8337 1458.5858
1523.5483 0.000656 1366.6227 1454.9340
1425.4396 0.000702 1366.4118 1451.3193
1545.9248 0.000647 1366.2009 1447.7570
1427.8472 0.000700 1365.9899 1444.2736
1404.3032 0.000712 1365.7790 1440.8842
1485.9003 0.000673 1365.5680 1437.6015
1389.1592 0.000720 1365.3571 1433.9139
1418.8707 0.000705 1365.1462 1430.8546
1406.0907 0.000711 1364.9352 1427.9077
1465.4211 0.000682 1364.7243 1425.0711
1456.1232 0.000687 1364.5134 1422.3410
1420.5395 0.000704 1364.3024 1419.7129
1434.7352 0.000697 1364.0915 1417.1850
1399.7317 0.000714 1363.8806 1414.7458
1375.5518 0.000727 1363.6696 1412.3933
1412.0248 0.000708 1363.4587 1410.1228
1349.8415 0.000741 1363.2478 1407.9301
1417.7680 0.000705 1363.0368 1405.8110
1391.0101 0.000719 1362.8259 1403.7625
1412.1642 0.000708 1362.6149 1401.7816
1436.0638 0.000696 1362.4040 1399.8665
1460.9581 0.000684 1362.1931 1398.0153
1382.6806 0.000723 1361.9821 1396.2269
1419.0254 0.000705 1361.7712 1394.5005
1438.1057 0.000695 1361.5603 1392.8361
1316.7534 0.000759 1361.3493 1391.2324
1325.1197 0.000755 1361.1384 1389.6898
1387.2502 0.000721 1361.1425 1388.4230
1419.1892 0.000705 1361.1465 1387.2170
1368.5296 0.000731 1361.1506 1386.0742
1393.0291 0.000718 1361.1546 1384.9889
1334.4438 0.000749 1361.1587 1383.9631
1376.4483 0.000727 1361.1627 1382.9961
1371.6633 0.000729 1361.1668 1382.0867
1353.4511 0.000739 1361.1709 1381.2338
1399.8898 0.000714 1361.1749 1380.4362
1431.5487 0.000699 1361.1790 1379.6917
1349.7629 0.000741 1361.1830 1378.9989
1430.5563 0.000699 1361.1871 1378.3560
1399.8579 0.000714 1361.1912 1377.7621
1372.4021 0.000729 1361.1952 1377.2127
1363.6654 0.000733 1361.1993 1376.7070
1318.7885 0.000758 1361.2033 1376.2429
1357.1811 0.000737 1361.2074 1375.8181
1360.2061 0.000735 1361.2115 1375.4305
1376.0968 0.000727 1361.2155 1375.0781
1345.9024 0.000743 1361.2196 1374.7586
1353.5561 0.000739 1361.2236 1374.4700
1452.4888 0.000688 1361.2277 1374.2224
1386.3603 0.000721 1361.2318 1373.9899
1368.9526 0.000730 1361.2358 1373.8027
1421.5735 0.000703 1361.2399 1373.6189
1365.0823 0.000733 1361.2439 1373.4568
1335.0500 0.000749 1361.2480 1373.3150
1390.3066 0.000719 1361.2521 1373.1920
1357.3562 0.000737 1361.2561 1373.0864
1377.8122 0.000726 1361.2602 1373.0000
1355.2705 0.000738 1361.2642 1372.8775
1358.7361 0.000736 1361.2683 1372.8234
1383.1364 0.000723 1361.2724 1372.7765
1370.7696 0.000730 1361.2764 1372.7517
1365.4453 0.000732 1361.2805 1372.7284
1387.9202 0.000721 1361.2845 1372.7158
1387.7689 0.000721 1361.2886 1372.7134
1381.0951 0.000724 1361.2927 1372.7204
1388.4089 0.000720 1361.2967 1372.7125
1374.9120 0.000727 1361.3008 1372.7376
1390.3821 0.000719 1361.3048 1372.7725
1413.9892 0.000707 1361.3089 1372.8140
1316.7141 0.000759 1361.2796 1372.8300
1362.2035 0.000734 1361.2504 1372.8537
1385.0736 0.000722 1361.2211 1372.8850
1433.0435 0.000698 1361.1918 1372.9236
1397.1060 0.000716 1361.1626 1372.9697
1370.6626 0.000730 1361.1333 1373.0230
1324.6617 0.000755 1361.1040 1373.0837
1387.2261 0.000721 1361.0748 1373.1518
1333.6291 0.000750 1361.0455 1373.2273
1309.7443 0.000764 1361.0163 1373.3103
1313.6247 0.000761 1360.9870 1373.4010
1364.6529 0.000733 1360.9577 1373.4995
1368.2200 0.000731 1360.9285 1373.6573
1375.5462 0.000727 1360.8992 1373.7722
1348.6647 0.000741 1360.8699 1373.8954
1393.1517 0.000718 1360.8407 1374.0274
1319.5865 0.000758 1360.8114 1374.1683
1355.6478 0.000738 1360.7822 1374.3185
1372.0000 0.000729 1360.7529 1374.4784
1417.9906 0.000705 1360.7236 1374.6484
1357.2009 0.000737 1360.6944 1374.8290
1383.9981 0.000723 1360.6651 1375.0208
1286.9048 0.000777 1360.6358 1375.2243
1349.3344 0.000741 1360.6066 1375.4661
1421.6709 0.000703 1360.5773 1375.6955
1392.2447 0.000718 1360.5481 1375.9391
1309.7655 0.000763 1360.5188 1376.1980
1338.0379 0.000747 1360.4895 1376.4731
1384.2192 0.000722 1360.4603 1376.7660
1362.3819 0.000734 1360.4310 1377.0779
1370.0034 0.000730 1360.4017 1377.4107
1432.8080 0.000698 1360.3725 1377.7660
1411.0357 0.000709 1360.3432 1378.1461
1325.0128 0.000755 1360.3139 1378.5532
1375.4256 0.000727 1360.2847 1378.9898
1342.3194 0.000745 1360.2554 1379.4589
1337.8850 0.000747 1360.2262 1379.9634
1377.6472 0.000726 1360.1969 1380.5070
1372.5090 0.000729 1360.1676 1381.0932
1368.1784 0.000731 1360.1384 1381.7261
1354.5309 0.000738 1360.1091 1382.4102
1361.2533 0.000735 1360.0798 1383.1509
1386.8253 0.000721 1360.0143 1383.9139
1341.3416 0.000746 1359.9487 1384.7441
1327.1278 0.000754 1359.8831 1385.6457
1342.7819 0.000745 1359.8175 1386.6244
1380.5422 0.000724 1359.7520 1387.6862
1416.5526 0.000706 1359.6864 1388.8369
1397.9160 0.000715 1359.6208 1390.0827
1389.4972 0.000720 1359.5552 1391.4296
1330.3816 0.000752 1359.4897 1392.8830
1360.9157 0.000735 1359.4241 1394.4497
1385.3086 0.000722 1359.3585 1396.1352
1407.7289 0.000710 1359.2929 1397.9436
1382.3235 0.000723 1359.2273 1399.8801
1376.9347 0.000726 1359.1618 1401.9487
1430.3332 0.000699 1359.0962 1404.1528
1396.0413 0.000716 1359.0306 1406.4948
1375.0787 0.000727 1358.9650 1408.9766
1382.7092 0.000723 1358.8995 1411.5984
1388.3504 0.000720 1358.8339 1414.3598
1421.3680 0.000704 1358.7683 1417.2587
1388.4743 0.000720 1358.7027 1420.2916
1361.3517 0.000735 1358.6372 1423.4532
1361.9782 0.000734 1358.5716 1426.7332
1378.7615 0.000725 1358.5060 1430.1293
1415.7786 0.000706 1358.4404 1433.6269
1373.0263 0.000728 1358.3748 1437.2124
1328.3769 0.000753 1358.3093 1440.8698
1375.9144 0.000727 1358.2437 1444.5809
1399.5662 0.000715 1358.1781 1448.3251
1444.0536 0.000692 1358.1125 1452.0802
1396.3487 0.000716 1358.0470 1455.8209
1402.9240 0.000713 1357.9814 1459.5269
1452.5120 0.000688 1357.9158 1463.1740
1430.3479 0.000699 1357.8502 1466.7418
1397.4526 0.000716 1357.7847 1470.2140
1391.8741 0.000718 1357.7191 1473.5799
1386.7797 0.000721 1357.6535 1476.8356
1444.9362 0.000692 1357.5879 1479.9848
1446.6151 0.000691 1357.5224 1483.0394
1410.4915 0.000709 1357.4568 1486.0195
1414.8385 0.000707 1357.3912 1488.9526
1443.0866 0.000693 1357.3256 1491.8726
1473.5745 0.000679 1357.2271 1494.7863
1458.4527 0.000686 1357.1285 1497.7710
1469.8326 0.000680 1357.0299 1500.8747
1500.9602 0.000666 1356.9314 1504.1483
1498.2839 0.000667 1356.8328 1507.6454
1473.8125 0.000679 1356.7343 1511.4199
1463.7700 0.000683 1356.6357 1515.5278
1474.3973 0.000678 1356.5372 1520.0246
1474.5687 0.000678 1356.4386 1524.9647
1527.6176 0.000655 1356.3400 1530.4000
1551.6202 0.000644 1356.2415 1536.3794
1567.8329 0.000638 1356.1429 1542.9467
1547.0988 0.000646 1356.0444 1550.1403
1596.5561 0.000626 1355.9458 1557.9916
1622.8809 0.000616 1355.8473 1566.5242
1556.8153 0.000642 1355.7487 1575.7534
1561.4887 0.000640 1355.6501 1585.6841
1575.5445 0.000635 1355.5516 1596.3118
1563.8840 0.000639 1355.4530 1607.6202
1620.7518 0.000617 1355.3545 1619.5809
1610.0784 0.000621 1355.2559 1632.1522
1645.3953 0.000608 1355.1573 1645.2783
1669.8580 0.000599 1355.0588 1658.8878
1679.6597 0.000595 1354.9602 1672.8936
1704.5349 0.000587 1354.8617 1687.1914
1656.7888 0.000604 1354.7631 1701.6603
1661.4904 0.000602 1354.6646 1716.1635
1698.8735 0.000589 1354.5660 1730.5495
1765.0978 0.000567 1354.4674 1744.6558
1794.6836 0.000557 1354.3689 1758.3071
1789.8303 0.000559 1354.2703 1771.3437
1815.4656 0.000551 1354.1718 1783.5944
1840.0977 0.000543 1354.0732 1794.9059
1820.3339 0.000549 1353.9746 1805.1438
1815.7941 0.000551 1353.8761 1814.1984
1833.3110 0.000545 1353.7775 1821.9878
1858.1258 0.000538 1353.6790 1828.4595
1836.7518 0.000544 1353.5804 1833.5893
1779.4403 0.000562 1353.4819 1837.3749
1788.0578 0.000559 1353.3833 1839.8436
1835.4517 0.000545 1353.2847 1841.0302
1859.0614 0.000538 1353.1862 1840.9842
1836.6642 0.000544 1353.0876 1839.7634
1814.6487 0.000551 1352.9891 1837.4309
1788.4111 0.000559 1352.8905 1834.0534
1753.9649 0.000570 1352.7920 1829.6994
1758.7460 0.000569 1352.6934 1824.4375
1777.1943 0.000563 1352.5948 1818.3349
1772.9558 0.000564 1352.4963 1811.4560
1756.4163 0.000569 1352.3977 1803.8608
1784.7293 0.000560 1352.2992 1795.6044
1818.7342 0.000550 1352.2006 1786.7364
1786.7210 0.000560 1352.1020 1777.3036
1749.4492 0.000572 1352.0035 1767.3484
1683.0487 0.000594 1351.9049 1756.9128
1680.4116 0.000595 1351.8064 1746.0393
1679.1488 0.000596 1351.7078 1734.7724
1642.3326 0.000609 1351.6093 1723.1592
1694.1705 0.000590 1351.5107 1711.2496
1676.6599 0.000596 1351.4121 1699.0896
1653.0078 0.000605 1351.3136 1686.7437
1676.3964 0.000597 1351.2150 1674.2969
1660.3351 0.000602 1351.1165 1661.7285
1655.8580 0.000604 1351.0179 1649.1277
1620.8608 0.000617 1350.9193 1636.5460
1612.8928 0.000620 1350.8208 1624.0305
1597.3665 0.000626 1350.7222 1611.6385
1550.3490 0.000645 1350.6237 1599.4151
1538.4339 0.000650 1350.5251 1587.4051
1580.7803 0.000633 1350.4266 1575.6595
1592.7174 0.000628 1350.3280 1564.2181
1542.6750 0.000648 1350.2294 1553.1195
1499.2399 0.000667 1350.1309 1542.4164
1505.7926 0.000664 1350.0323 1532.1010
1543.9447 0.000648 1349.9338 1522.2135
1532.8962 0.000652 1349.8352 1512.7751
1482.6477 0.000674 1349.7367 1503.7963
1474.8262 0.000678 1349.6381 1495.2838
1530.6658 0.000653 1349.5395 1487.2395
1544.2900 0.000648 1349.4410 1479.6606
1507.2150 0.000663 1349.3424 1472.5403
1485.7289 0.000673 1349.2439 1465.9928
1436.5778 0.000696 1349.1453 1459.7556
1421.3037 0.000704 1349.0467 1453.9367
1444.4364 0.000692 1348.9152 1448.4844
1459.8580 0.000685 1348.7837 1443.4115
1459.8112 0.000685 1348.6521 1438.6962
1428.8880 0.000700 1348.5206 1434.3157
1432.0209 0.000698 1348.3890 1430.2467
1435.3664 0.000697 1348.2575 1426.4656
1402.8548 0.000713 1348.1260 1422.9492
1400.7993 0.000714 1347.9944 1419.6750
1427.1628 0.000701 1347.8629 1416.6214
1418.4770 0.000705 1347.7314 1413.8306
1404.1680 0.000712 1347.5998 1411.1590
1418.6475 0.000705 1347.4683 1408.6514
1412.0535 0.000708 1347.3367 1406.2921
1417.3149 0.000706 1347.2052 1404.2374
1424.2325 0.000702 1347.0737 1402.1901
1393.6968 0.000718 1346.9421 1400.1969
1400.2965 0.000714 1346.8106 1398.3031
1371.1215 0.000729 1346.6790 1396.4997
1407.6810 0.000710 1346.5475 1394.7784
1416.4178 0.000706 1346.4160 1393.1322
1382.4605 0.000723 1346.2844 1391.5550
1377.0536 0.000726 1346.1529 1390.0416
1391.3376 0.000719 1346.0213 1388.5872
1384.0604 0.000723 1345.8898 1387.1881
1416.6355 0.000706 1345.7583 1385.8406
1415.1641 0.000707 1345.6267 1384.6775
1400.2520 0.000714 1345.4952 1383.4249
1384.4073 0.000722 1345.3636 1382.2727
1400.2914 0.000714 1345.2321 1381.1038
1413.5204 0.000707 1345.1006 1379.9727
1407.6385 0.000710 1344.9690 1378.8770
1417.6165 0.000705 1344.8375 1377.8145
1400.5538 0.000714 1344.7059 1376.7831
1381.1877 0.000724 1344.5744 1375.7809
1362.6197 0.000734 1344.4429 1374.8061
1359.7710 0.000735 1344.3113 1373.8573
1344.4292 0.000744 1344.1798 1372.9334
1356.2063 0.000737 1344.0482 1372.0446
1354.1416 0.000738 1343.9167 1371.1676
1386.0567 0.000721 1343.7852 1370.3417
1368.8252 0.000731 1343.6536 1369.5090
1370.4552 0.000730 1343.5221 1368.6977
1356.3230 0.000737 1343.3609 1367.8779
1324.1364 0.000755 1343.1997 1367.0789
1346.9207 0.000742 1343.0385 1366.3006
1384.3165 0.000722 1342.8773 1365.5428
1331.8723 0.000751 1342.7161 1364.8057
1297.4313 0.000771 1342.5550 1364.0891
1400.9258 0.000714 1342.3938 1363.3932
1389.0125 0.000720 1342.2326 1362.7181
1393.2809 0.000718 1342.0714 1362.0638
1352.4641 0.000739 1341.9102 1361.4304
1285.8251 0.000778 1341.7490 1360.8180
1343.2972 0.000744 1341.5878 1360.2263
1374.0084 0.000728 1341.4266 1359.6555
1358.9401 0.000736 1341.2655 1359.1053
1362.9294 0.000734 1341.1043 1358.5756
1354.9749 0.000738 1340.9431 1358.0661
1331.6212 0.000751 1340.7819 1357.6057
1375.9808 0.000727 1340.6207 1357.1360
1365.4531 0.000732 1340.4595 1356.6855
1350.1528 0.000741 1340.2983 1356.2541
1326.5867 0.000754 1340.1371 1355.8412
1290.3932 0.000775 1339.9759 1355.4466
1349.7154 0.000741 1339.8148 1355.0895
1385.3747 0.000722 1339.6536 1354.7302
1302.1425 0.000768 1339.4924 1354.3879
1247.9608 0.000801 1339.3312 1354.0622
1387.5845 0.000721 1339.1700 1353.7527
1339.9193 0.000746 1339.0088 1353.4736
1311.4795 0.000762 1338.8476 1353.1954
1358.5766 0.000736 1338.6864 1352.9322
1347.2069 0.000742 1338.5252 1352.6836
1391.4629 0.000719 1338.3641 1352.4493
1432.6743 0.000698 1338.2029 1352.2287
1365.2640 0.000732 1338.0417 1352.0216
1381.0482 0.000724 1337.8805 1351.8373
1278.9257 0.000782 1337.7193 1351.6558
1356.7845 0.000737 1337.5581 1351.4866
1333.7319 0.000750 1337.3969 1351.3290
1249.6634 0.000800 1337.2357 1351.1829
1267.5447 0.000789 1337.0746 1351.0477
1366.3259 0.000732 1336.9134 1350.9231
1362.7103 0.000734 1336.7522 1350.8088
1329.9560 0.000752 1336.7359 1350.7504
1316.0164 0.000760 1336.7197 1350.8014
1381.3653 0.000724 1336.7034 1350.8621
1356.1344 0.000737 1336.6871 1350.9328
1385.2689 0.000722 1336.6709 1351.0135
1350.7015 0.000740 1336.6546 1351.1046
1350.9303 0.000740 1336.6384 1351.2069
1391.3581 0.000719 1336.6221 1351.3210
1350.5412 0.000740 1336.6059 1351.4478
1388.2590 0.000720 1336.5896 1351.5388
1354.3107 0.000738 1336.5733 1351.6945
1299.7483 0.000769 1336.5571 1351.8664
1362.8600 0.000734 1336.5408 1352.0554
1348.4987 0.000742 1336.5246 1352.2629
1394.5439 0.000717 1336.5083 1352.4902
1342.1166 0.000745 1336.4921 1352.7385
1364.0909 0.000733 1336.4758 1353.0090
1398.8766 0.000715 1336.4596 1353.3028
1311.5476 0.000762 1336.4433 1353.6208
1374.3712 0.000728 1336.4270 1353.9640
1319.8340 0.000758 1336.4108 1354.3329
1328.5237 0.000753 1336.3945 1354.7279
1346.0552 0.000743 1336.3783 1355.1493
1382.3263 0.000723 1336.3620 1355.5970
1375.7193 0.000727 1336.3458 1356.0702
1372.9091 0.000728 1336.3295 1356.5685
1371.0294 0.000729 1336.3132 1357.0914
1353.9838 0.000739 1336.2970 1357.6362
1290.0250 0.000775 1336.2807 1358.1913
1409.7537 0.000709 1336.2645 1358.7762
1379.1139 0.000725 1336.2482 1359.3781
1325.3435 0.000755 1336.2320 1359.9950
1376.9057 0.000726 1336.2157 1360.6245
1349.0959 0.000741 1336.1994 1361.2642
1334.5923 0.000749 1336.1832 1361.9052
1304.9811 0.000766 1336.1669 1362.5576
1365.0309 0.000733 1336.1507 1363.2121
1397.5896 0.000716 1336.1344 1363.8603
1420.0212 0.000704 1336.1182 1364.5097
1369.3576 0.000730 1336.1019 1365.1506
1356.1688 0.000737 1336.0856 1365.7793
1324.1689 0.000755 1336.0694 1366.3916
1365.3154 0.000732 1336.0168 1366.9491
1333.6002 0.000750 1335.9641 1367.4760
1413.5981 0.000707 1335.9115 1367.9767
1403.5122 0.000712 1335.8589 1368.4438
1390.7560 0.000719 1335.8062 1368.8734
1382.7127 0.000723 1335.7536 1369.2622
1345.1511 0.000743 1335.7010 1369.6071
1379.2416 0.000725 1335.6483 1369.9054
1246.4573 0.000802 1335.5957 1370.1551
1384.3009 0.000722 1335.5431 1370.3543
1307.4333 0.000765 1335.4905 1370.5017
1331.5685 0.000751 1335.4378 1370.5963
1426.6220 0.000701 1335.3852 1370.6385
1398.9025 0.000715 1335.3326 1370.6258
1390.0082 0.000719 1335.2799 1370.5596
1390.8297 0.000719 1335.2273 1370.4402
1360.0113 0.000735 1335.1747 1370.2687
1363.9972 0.000733 1335.1220 1370.0465
1346.0452 0.000743 1335.0694 1369.7753
1334.0622 0.000750 1335.0168 1369.4576
1319.1178 0.000758 1334.9642 1369.0962
1354.6213 0.000738 1334.9115 1368.6943
1366.8417 0.000732 1334.8589 1368.2557
1383.7304 0.000723 1334.8063 1367.7845
1355.5373 0.000738 1334.7536 1367.2855
1370.6609 0.000730 1334.7010 1366.7636
1455.9237 0.000687 1334.6484 1366.2240
1349.9453 0.000741 1334.5958 1365.6721
1367.3867 0.000731 1334.5431 1365.1136
1376.7132 0.000726 1334.4905 1364.5541
1322.9343 0.000756 1334.4379 1363.9992
1384.5441 0.000722 1334.3852 1363.4544
1330.3529 0.000752 1334.3326 1362.9252
1256.1911 0.000796 1334.2800 1362.4168
1322.6991 0.000756 1334.2273 1361.9343
1345.9944 0.000743 1334.1747 1361.4827
1414.4106 0.000707 1334.1221 1361.0666
1383.9161 0.000723 1334.0695 1360.6905
1287.5893 0.000777 1334.0168 1360.3586
1372.3780 0.000729 1333.9642 1360.0747
1365.7960 0.000732 1333.9116 1359.8424
1350.9585 0.000740 1333.8589 1359.6649
1384.5369 0.000722 1333.7699 1359.5085
1364.6617 0.000733 1333.6809 1359.4122
1355.5753 0.000738 1333.5919 1359.3795
1364.2542 0.000733 1333.5029 1359.4134
1389.9144 0.000719 1333.4139 1359.5076
1350.5961 0.000740 1333.3249 1359.6675
1342.4129 0.000745 1333.2358 1359.8938
1341.0853 0.000746 1333.1468 1360.1868
1386.6039 0.000721 1333.0578 1360.5464
1302.7872 0.000768 1332.9688 1360.9732
1322.1090 0.000756 1332.8798 1361.4653
1411.7909 0.000708 1332.7908 1362.0227
1411.0846 0.000709 1332.7018 1362.6447
1354.2785 0.000738 1332.6128 1363.3300
1382.9465 0.000723 1332.5237 1364.0782
1383.4264 0.000723 1332.4347 1364.8882
1373.2020 0.000728 1332.3457 1365.7540
1395.0895 0.000717 1332.2567 1366.6753
1385.6046 0.000722 1332.1677 1367.6492
1362.8147 0.000734 1332.0787 1368.6717
1347.6793 0.000742 1331.9897 1369.7386
1400.3977 0.000714 1331.9006 1370.8449
1383.5080 0.000723 1331.8116 1371.9840
1427.0904 0.000701 1331.7226 1373.1492
1392.2700 0.000718 1331.6336 1374.3329
1421.5349 0.000703 1331.5446 1375.5265
1422.6798 0.000703 1331.4556 1376.7207
1415.9704 0.000706 1331.3666 1377.9055
1328.2714 0.000753 1331.2776 1379.0706
1362.7937 0.000734 1331.1885 1380.2054
1341.9857 0.000745 1331.0995 1381.2997
1431.4268 0.000699 1331.0105 1382.3437
1381.8542 0.000724 1330.9215 1383.3289
1392.8246 0.000718 1330.8325 1384.2478
1362.4499 0.000734 1330.7435 1385.0949
1350.1199 0.000741 1330.6545 1385.8663
1414.3131 0.000707 1330.5655 1386.5651
1385.2661 0.000722 1330.4764 1387.1823
1378.6640 0.000725 1330.3874 1387.7247
1411.3443 0.000709 1330.2984 1388.1962
1411.3866 0.000709 1330.2094 1388.6024
1411.6480 0.000708 1330.1204 1388.9498
1441.5680 0.000694 1330.0314 1389.2462
1383.3255 0.000723 1329.9424 1389.5001
1367.3680 0.000731 1329.8534 1389.7207
1364.5600 0.000733 1329.7643 1389.9278
1347.7869 0.000742 1329.6753 1390.1109
1397.3272 0.000716 1329.5863 1390.2903
1397.1149 0.000716 1329.4973 1390.4825
1426.9087 0.000701 1329.4083 1390.6862
1375.0014 0.000727 1329.3193 1390.9122
1363.9866 0.000733 1329.2303 1391.1711
1408.7054 0.000710 1329.1412 1391.4697
1348.7223 0.000741 1329.0522 1391.8135
1397.0909 0.000716 1328.9632 1392.2064
1427.5862 0.000700 1328.8742 1392.6503
1375.3383 0.000727 1328.7852 1393.1451
1408.4405 0.000710 1328.6962 1393.6935
1417.3282 0.000706 1328.6072 1394.2806
1418.3279 0.000705 1328.5182 1394.9043
1391.1615 0.000719 1328.4291 1395.5551
1335.9920 0.000749 1328.3401 1396.2245
1398.7953 0.000715 1328.2511 1396.8917
1455.6725 0.000687 1328.1621 1397.5440
1424.8188 0.000702 1328.0731 1398.1637
1459.1167 0.000685 1327.9841 1398.7323
1439.1652 0.000695 1327.8951 1399.2306
1402.3433 0.000713 1327.8061 1399.6397
1405.2791 0.000712 1327.7170 1399.9419
1441.9679 0.000693 1327.6280 1400.1210
1396.2583 0.000716 1327.5390 1400.1631
1419.4041 0.000705 1327.4500 1400.0575
1382.1116 0.000724 1327.3610 1399.7961
1439.3366 0.000695 1327.2720 1399.3744
1385.0482 0.000722 1327.1830 1398.8299
1368.4654 0.000731 1327.0939 1398.0856
1398.5706 0.000715 1327.0049 1397.1842
1394.8975 0.000717 1326.9159 1396.1313
1362.4405 0.000734 1326.8269 1394.9745
1368.6194 0.000731 1326.7379 1393.6421
1386.5186 0.000721 1326.6489 1392.1843
1395.3035 0.000717 1326.5599 1390.6122
1396.2854 0.000716 1326.4709 1388.9378
1408.1024 0.000710 1326.3818 1387.1740
1394.5599 0.000717 1326.2564 1385.2980
1414.5561 0.000707 1326.1311 1383.3604
1380.2467 0.000725 1326.0057 1381.3948
1347.6767 0.000742 1325.8803 1379.3769
1357.3683 0.000737 1325.7549 1377.3399
1355.6493 0.000738 1325.6295 1375.2973
1370.7170 0.000730 1325.5041 1373.2616
1379.0000 0.000725 1325.3787 1371.2646
1363.8666 0.000733 1325.2533 1369.2763
1326.1653 0.000754 1325.1279 1367.3262
1372.7466 0.000728 1325.0025 1365.4220
1333.0123 0.000750 1324.8771 1363.5705
1361.9487 0.000734 1324.7517 1361.7772
1364.6930 0.000733 1324.6263 1360.0464
1319.0784 0.000758 1324.5009 1358.3896
1361.2205 0.000735 1324.3755 1356.7268
1351.3412 0.000740 1324.2501 1355.2004
1327.3530 0.000753 1324.1247 1353.7446
1327.6448 0.000753 1323.9993 1352.3596
1348.0972 0.000742 1323.8739 1351.0449
1355.3766 0.000738 1323.7485 1349.7996
1367.7169 0.000731 1323.6231 1348.6225
1321.0070 0.000757 1323.4977 1347.5117
1332.1666 0.000751 1323.3723 1346.4655
1313.3537 0.000761 1323.2469 1345.4484
1294.2126 0.000773 1323.1215 1344.5246
1352.3061 0.000739 1322.9961 1343.6623
1353.4157 0.000739 1322.8707 1342.8508
1297.9298 0.000770 1322.7453 1342.0915
1287.3730 0.000777 1322.6200 1341.3817
1355.0291 0.000738 1322.4946 1340.7188
1363.4341 0.000733 1322.3692 1340.0999
1305.2035 0.000766 1322.2438 1339.5225
1337.7678 0.000748 1322.1184 1338.9842
1360.0117 0.000735 1321.9930 1338.4824
1299.6552 0.000769 1321.8676 1338.0148
1338.7388 0.000747 1321.7422 1337.5792
1329.6670 0.000752 1321.6168 1337.1735
1324.7829 0.000755 1321.4914 1336.7957
1370.0212 0.000730 1321.3660 1336.4440
1339.4044 0.000747 1321.2406 1336.1166
1357.7840 0.000736 1321.1152 1335.8120
1310.3864 0.000763 1320.9534 1335.4922
1286.9124 0.000777 1320.7916 1335.1923
1284.3280 0.000779 1320.6298 1334.9110
1316.3087 0.000760 1320.4680 1334.6472
1321.2634 0.000757 1320.3062 1334.3997
1312.0921 0.000762 1320.1445 1334.1677
1318.8378 0.000758 1319.9827 1333.9502
1309.3232 0.000764 1319.8209 1333.7464
1334.6682 0.000749 1319.6591 1333.5557
1326.4786 0.000754 1319.4973 1333.3774
1311.5567 0.000762 1319.3355 1333.2108
1352.6345 0.000739 1319.1737 1333.0556
1328.1401 0.000753 1319.0119 1332.9111
1317.6845 0.000759 1318.8501 1332.7771
1348.9563 0.000741 1318.6883 1332.6531
1337.0585 0.000748 1318.5266 1332.5387
1341.4052 0.000745 1318.3648 1332.4337
1313.9623 0.000761 1318.2030 1331.9983
1303.1602 0.000767 1318.0412 1331.9132
1334.4750 0.000749 1317.8794 1331.8366
1350.5251 0.000740 1317.7176 1331.7685
1327.8634 0.000753 1317.5558 1331.7086
1345.4583 0.000743 1317.3940 1331.6568
1363.8560 0.000733 1317.2322 1331.6129
1348.4669 0.000742 1317.0704 1331.5769
1311.4015 0.000763 1316.9086 1331.5485
1300.1098 0.000769 1316.7469 1331.5278
1330.0266 0.000752 1316.5851 1331.3452
1334.2535 0.000749 1316.4233 1331.3406
1355.5066 0.000738 1316.2615 1331.3437
1383.1024 0.000723 1316.0997 1331.3544
1378.2840 0.000726 1315.9379 1331.3729
1327.5030 0.000753 1315.7761 1331.3995
1326.7249 0.000754 1315.6143 1331.4343
1309.7905 0.000763 1315.4525 1331.4777
1297.8165 0.000771 1315.2907 1331.5301
1317.9536 0.000759 1315.1290 1331.5920
1311.9483 0.000762 1314.9672 1331.6638
1316.5985 0.000760 1314.8054 1331.7462
1343.4577 0.000744 1314.6436 1331.7397
1344.2601 0.000744 1314.4818 1331.8460
1283.0285 0.000779 1314.3200 1331.9047
1296.8930 0.000771 1314.3950 1332.2747
1338.3766 0.000747 1314.4700 1332.6596
1328.0886 0.000753 1314.5451 1333.0603
1327.3110 0.000753 1314.6201 1333.4783
1334.4614 0.000749 1314.6951 1333.9147
1333.0188 0.000750 1314.7701 1334.3711
1336.3717 0.000748 1314.8452 1334.8490
1337.4617 0.000748 1314.9202 1335.3002
1338.1173 0.000747 1314.9952 1335.8266
1346.5187 0.000743 1315.0702 1336.3500
1368.3751 0.000731 1315.1452 1336.9328
1360.8864 0.000735 1315.2203 1337.5470
1358.6072 0.000736 1315.2953 1338.1950
1359.0925 0.000736 1315.3703 1338.8793
1350.5814 0.000740 1315.4453 1339.6027
1357.2250 0.000737 1315.5204 1340.3679
1366.6350 0.000732 1315.5954 1341.1780
1345.1026 0.000743 1315.6704 1342.0362
1354.6328 0.000738 1315.7454 1342.9459
1380.8193 0.000724 1315.8204 1343.9105
1322.0502 0.000756 1315.8955 1344.9337
1336.7454 0.000748 1315.9705 1346.0193
1384.5422 0.000722 1316.0455 1347.1713
1344.9745 0.000744 1316.1205 1348.3938
1323.9404 0.000755 1316.1956 1349.6911
1388.4381 0.000720 1316.2706 1351.0676
1399.7408 0.000714 1316.3456 1352.5279
1369.8969 0.000730 1316.4206 1354.0765
1351.1834 0.000740 1316.4957 1355.7182
1384.5861 0.000722 1316.5707 1357.4580
1340.8670 0.000746 1316.6457 1359.3007
1348.8739 0.000741 1316.7207 1361.2514
1412.4070 0.000708 1316.7957 1363.3150
1380.3579 0.000724 1316.8708 1365.4968
1377.7835 0.000726 1316.9458 1367.8403
1371.4803 0.000729 1317.0208 1370.2735
1321.3938 0.000757 1317.0958 1372.8397
1347.4582 0.000742 1317.1709 1375.5436
1337.1809 0.000748 1317.2459 1378.3898
1377.5237 0.000726 1317.3209 1381.3826
1383.1647 0.000723 1317.3959 1384.5143
1380.1464 0.000725 1317.4709 1387.8115
1380.3693 0.000724 1317.5190 1391.2387
1359.5515 0.000736 1317.5671 1394.8253
1394.4549 0.000717 1317.6152 1398.5730
1391.4831 0.000719 1317.6633 1402.4831
1392.5172 0.000718 1317.7114 1406.5563
1421.0302 0.000704 1317.7595 1410.8118
1369.7876 0.000730 1317.8076 1415.2110
1398.0089 0.000715 1317.8557 1419.7724
1460.0000 0.000685 1317.9038 1424.4898
1440.4604 0.000694 1317.9519 1429.3746
1427.5452 0.000701 1318.0000 1434.4213
1466.5027 0.000682 1318.0481 1439.6309
1458.3864 0.000686 1318.0962 1445.0058
1473.8239 0.000679 1318.1443 1450.5491
1472.8520 0.000679 1318.1924 1456.2654
1426.3367 0.000701 1318.2405 1462.1600
1434.8700 0.000697 1318.2886 1468.2392
1470.2065 0.000680 1318.3367 1474.5095
1489.5486 0.000671 1318.3848 1480.9774
1494.1665 0.000669 1318.4329 1487.6486
1491.9891 0.000670 1318.4810 1494.5280
1535.6191 0.000651 1318.5291 1501.6184
1563.1487 0.000640 1318.5771 1508.9209
1505.1658 0.000664 1318.6252 1516.4338
1501.5401 0.000666 1318.6733 1524.1525
1484.6409 0.000674 1318.7214 1532.0658
1539.2326 0.000650 1318.7695 1540.1693
1520.8850 0.000658 1318.8176 1548.4447
1530.4712 0.000653 1318.8657 1556.8736
1551.4458 0.000645 1318.9138 1565.4339
1507.6514 0.000663 1318.9619 1574.1006
1592.8947 0.000628 1319.0100 1582.8460
1622.7224 0.000616 1319.0581 1591.6403
1601.3352 0.000624 1319.1062 1600.4529
1648.9584 0.000606 1319.1543 1609.2526
1582.5787 0.000632 1319.2024 1618.0072
1611.6777 0.000620 1319.2505 1626.6907
1613.6934 0.000620 1319.2986 1635.2737
1649.8741 0.000606 1319.3467 1643.7301
1669.1180 0.000599 1319.3948 1652.0981
1663.4676 0.000601 1319.4429 1660.2273
1668.5878 0.000599 1319.4910 1668.1561
1688.0434 0.000592 1319.5391 1675.9143
1697.1962 0.000589 1319.5872 1683.3629
1716.0220 0.000583 1319.6353 1690.5261
1694.4747 0.000590 1319.6834 1697.3692
1639.0115 0.000610 1319.7315 1703.8536
1695.1975 0.000590 1319.7795 1709.9375
1723.4864 0.000580 1319.8276 1715.5761
1751.8292 0.000571 1319.8757 1720.7234
1746.1047 0.000573 1319.9238 1725.3330
1812.1855 0.000552 1319.9719 1729.3600
1781.4155 0.000561 1320.0200 1732.7628
1833.9255 0.000545 1320.0681 1735.5364
1758.5763 0.000569 1320.1162 1737.5874
1766.9894 0.000566 1320.1643 1738.9245
1748.3635 0.000572 1320.2124 1739.5607
1762.8046 0.000567 1320.2605 1739.4340
1757.8163 0.000569 1320.3086 1738.5732
1792.1381 0.000558 1320.3567 1736.9860
1781.7647 0.000561 1320.4048 1734.6858
1749.1163 0.000572 1320.4529 1731.6903
1717.6641 0.000582 1320.5010 1728.0207
1686.7103 0.000593 1320.5491 1723.7003
1708.8404 0.000585 1320.5972 1718.7548
1715.2239 0.000583 1320.6453 1713.2117
1673.5060 0.000598 1320.6934 1707.1009
1648.5530 0.000607 1320.7415 1700.4551
1660.3606 0.000602 1320.7896 1693.3103
1685.8317 0.000593 1320.8377 1685.7062
1674.5498 0.000597 1320.8858 1677.6865
1577.6868 0.000634 1320.9339 1669.2985
1597.5768 0.000626 1320.9819 1660.5926
1573.1781 0.000636 1321.0300 1651.6218
1573.4737 0.000636 1321.0781 1642.4405
1577.5652 0.000634 1321.1262 1633.1035
1624.8192 0.000615 1321.1743 1623.6646
1675.5461 0.000597 1321.2224 1614.1942
1552.2380 0.000644 1321.2705 1604.7063
1585.0849 0.000631 1321.3186 1595.2655
1542.3479 0.000648 1321.3667 1585.9153
1565.4864 0.000639 1321.4148 1576.6956
1586.3712 0.000630 1321.4629 1567.6428
1537.6373 0.000650 1321.5110 1558.7900
1536.0986 0.000651 1321.5322 1550.1399
1569.1010 0.000637 1321.5533 1541.7457
1546.9575 0.000646 1321.5745 1533.6307
1490.1481 0.000671 1321.5957 1525.8133
1546.9665 0.000646 1321.6169 1518.3140
1545.9591 0.000647 1321.6380 1511.1438
1506.5748 0.000664 1321.6592 1504.3133
1530.6439 0.000653 1321.6804 1497.8381
1452.3314 0.000689 1321.7015 1491.7037
1474.2670 0.000678 1321.7227 1485.9188
1429.5204 0.000700 1321.7439 1480.4798
1492.5082 0.000670 1321.7650 1475.3798
1446.5142 0.000691 1321.7862 1470.6089
1416.5191 0.000706 1321.8074 1466.1533
1501.5448 0.000666 1321.8285 1461.9992
1467.6307 0.000681 1321.8497 1458.1279
1483.3329 0.000674 1321.8709 1454.5196
1501.7595 0.000666 1321.8921 1451.1528
1485.4612 0.000673 1321.9132 1448.0051
1439.6273 0.000695 1321.9344 1445.0530
1473.0000 0.000679 1321.9556 1442.2731
1471.5168 0.000680 1321.9767 1439.6422
1455.0194 0.000687 1321.9979 1437.1376
1434.1264 0.000697 1322.0191 1434.7376
1425.4235 0.000702 1322.0402 1432.4220
1425.9809 0.000701 1322.0614 1430.1718
1385.4438 0.000722 1322.0826 1427.9701
1436.5399 0.000696 1322.1038 1425.8016
1433.7386 0.000697 1322.1249 1423.6529
1469.2129 0.000681 1322.1461 1421.5129
1480.1926 0.000676 1322.1673 1419.3719
1417.9704 0.000705 1322.1884 1417.2227
1456.0096 0.000687 1322.2096 1415.0597
1397.8494 0.000715 1322.2308 1412.8790
1411.0580 0.000709 1322.2519 1410.6788
1410.4507 0.000709 1322.2731 1408.4539
1384.8426 0.000722 1322.2943 1406.2144
1399.7000 0.000714 1322.3154 1403.9578
1395.5144 0.000717 1322.3366 1401.6873
1425.2855 0.000702 1322.3578 1399.4071
1410.8817 0.000709 1322.3790 1397.1220
1430.5675 0.000699 1322.4001 1394.8373
1420.1466 0.000704 1322.3880 1392.5256
1426.0048 0.000701 1322.3759 1390.2262
1481.3092 0.000675 1322.3638 1387.9454
1427.8543 0.000700 1322.3517 1385.6870
1388.0130 0.000720 1322.3396 1383.4616
1351.7690 0.000740 1322.3274 1381.2729
1383.3809 0.000723 1322.3153 1379.1265
1353.4790 0.000739 1322.3032 1377.0194
1325.4130 0.000754 1322.2911 1374.9722
1352.0000 0.000740 1322.2790 1372.9810
1352.1593 0.000740 1322.2669 1371.0495
1368.5176 0.000731 1322.2548 1369.1808
1438.8198 0.000695 1322.2427 1367.3772
1399.8048 0.000714 1322.2305 1365.6361
1300.0717 0.000769 1322.2184 1363.9686
1336.8747 0.000748 1322.2063 1362.3699
1382.7215 0.000723 1322.1942 1360.8409
1398.8604 0.000715 1322.1821 1359.3817
1386.1481 0.000721 1322.1700 1357.9879
1413.6063 0.000707 1322.1579 1356.6667
1363.8533 0.000733 1322.1457 1355.4085
1297.2998 0.000771 1322.1336 1354.2210
1365.4331 0.000732 1322.1215 1353.0983
1356.2721 0.000737 1322.1094 1352.0384
1325.8496 0.000754 1322.0973 1351.0372
1365.7368 0.000732 1322.0852 1350.0972
1295.4231 0.000772 1322.0731 1349.2140
1324.8314 0.000755 1322.0610 1348.3852
1290.4091 0.000775 1322.0488 1347.6023
1337.9217 0.000747 1322.0367 1346.8764
1270.1697 0.000787 1322.0246 1346.1946
1327.0964 0.000754 1322.0125 1345.5601
1319.5363 0.000758 1322.0004 1344.9680
1339.8686 0.000746 1321.9883 1344.4156
1379.7820 0.000725 1321.9762 1343.9013
1345.2139 0.000743 1321.9640 1343.4246
1339.2377 0.000747 1321.9519 1342.9822
1316.4905 0.000760 1321.9398 1342.5673
1348.6682 0.000741 1321.9277 1342.1811
1294.1139 0.000773 1321.9156 1341.8184
1305.8081 0.000766 1321.9035 1341.4836
1259.7118 0.000794 1321.8914 1341.1716
1375.2671 0.000727 1322.0089 1341.0102
1429.2504 0.000700 1322.1264 1340.8700
1361.3013 0.000735 1322.2440 1340.7455
1351.3338 0.000740 1322.3615 1340.6374
1361.9665 0.000734 1322.4790 1340.5439
1365.7336 0.000732 1322.5966 1340.4638
1312.3963 0.000762 1322.7141 1340.3956
1314.2469 0.000761 1322.8316 1340.3401
1360.1600 0.000735 1322.9492 1340.2920
1317.2719 0.000759 1323.0667 1340.2539
1342.5273 0.000745 1323.1842 1340.2212
1385.3885 0.000722 1323.3018 1340.1945
1339.1262 0.000747 1323.4193 1340.1729
1338.3391 0.000747 1323.5368 1340.1555
1347.8719 0.000742 1323.6544 1340.1414
1326.0026 0.000754 1323.7719 1340.1301
1383.8475 0.000723 1323.8894 1340.1212
1370.0205 0.000730 1324.0070 1340.1137
1345.9638 0.000743 1324.1245 1340.1078
1412.9073 0.000708 1324.2420 1340.1043
1348.9504 0.000741 1324.3596 1340.1010
1332.7890 0.000750 1324.4771 1340.0971
1370.9625 0.000729 1324.5946 1340.0968
1355.4209 0.000738 1324.7122 1340.0986
1366.6284 0.000732 1324.8297 1340.1026
1300.3739 0.000769 1324.9472 1340.1094
1340.3095 0.000746 1325.0648 1340.1192
1295.2932 0.000772 1325.1823 1340.1331
1337.8390 0.000747 1325.2998 1340.1513
1347.8472 0.000742 1325.4174 1340.1746
1315.9097 0.000760 1325.5349 1340.2036
1350.4070 0.000741 1325.6524 1340.2389
1296.7425 0.000771 1325.7700 1340.2800
1283.3271 0.000779 1325.8875 1340.3307
1295.5071 0.000772 1326.0050 1340.3894
1386.1005 0.000721 1326.1226 1340.4572
1312.0401 0.000762 1326.2401 1340.5350
1317.7740 0.000759 1326.3576 1340.6250
1316.4150 0.000760 1326.4751 1340.7245
1336.3320 0.000748 1326.5927 1340.8358
1310.7417 0.000763 1326.7102 1340.9595
1321.1176 0.000757 1326.8277 1341.0959
1379.4344 0.000725 1326.9145 1341.2623
1334.5053 0.000749 1327.0013 1341.3948
1316.1573 0.000760 1327.0880 1341.5411
1327.0667 0.000754 1327.1748 1341.6895
1305.9467 0.000766 1327.2616 1341.8731
1372.7189 0.000728 1327.3483 1342.0617
1340.0278 0.000746 1327.4351 1342.2441
1322.2374 0.000756 1327.5218 1342.4606
1351.8530 0.000740 1327.6086 1342.6907
1306.3866 0.000765 1327.6954 1342.9349
1341.5031 0.000745 1327.7821 1343.1911
1351.8676 0.000740 1327.8689 1343.4594
1356.4630 0.000737 1327.9557 1343.7394
1284.8908 0.000778 1328.0424 1344.0301
1334.5330 0.000749 1328.1292 1344.3456
1376.6277 0.000726 1328.2159 1344.6552
1365.2958 0.000732 1328.3027 1344.9726
1334.6863 0.000749 1328.3895 1345.2864
1317.8271 0.000759 1328.4762 1345.6154
1339.3758 0.000747 1328.5630 1345.9528
1353.8317 0.000739 1328.6498 1346.2879
1362.8076 0.000734 1328.7365 1346.6237
1395.9032 0.000716 1328.8233 1346.9661
1382.7169 0.000723 1328.9100 1347.2992
1372.7548 0.000728 1328.9968 1347.6291
1348.1367 0.000742 1329.0836 1347.9530
1322.9096 0.000756 1329.1703 1348.2731
1353.2792 0.000739 1329.2571 1348.5873
1323.9498 0.000755 1329.3439 1348.8950
1333.2568 0.000750 1329.4306 1349.1964
1352.2534 0.000740 1329.5174 1349.4916
1318.0548 0.000759 1329.6041 1349.7810
1352.7121 0.000739 1329.6909 1350.0656
1410.8407 0.000709 1329.7777 1350.3462
1382.6975 0.000723 1329.8644 1350.6243
1353.7763 0.000739 1329.9512 1350.9013
1411.3242 0.000709 1330.0379 1351.1823
1405.3109 0.000712 1330.1247 1351.4620
1435.6619 0.000697 1330.2115 1351.7459
1418.9986 0.000705 1330.2982 1352.0360
1385.9463 0.000722 1330.3850 1352.3345
1366.0486 0.000732 1330.4718 1352.6434
1413.5267 0.000707 1330.5277 1352.9344
1359.9521 0.000735 1330.5837 1353.2404
1324.9149 0.000755 1330.6397 1353.5637
1385.6191 0.000722 1330.6957 1353.9067
1355.0669 0.000738 1330.7517 1354.2205
1314.5728 0.000761 1330.8076 1354.6096
1360.0100 0.000735 1330.8636 1355.0248
1431.0354 0.000699 1330.9196 1355.4680
1390.5316 0.000719 1330.9756 1355.9409
1414.4305 0.000707 1331.0315 1356.4452
1431.9160 0.000698 1331.0875 1356.9823
1398.4761 0.000715 1331.1435 1357.5533
1328.5288 0.000753 1331.1995 1358.1592
1378.8821 0.000725 1331.2555 1358.8006
1365.6238 0.000732 1331.3114 1359.4782
1392.4860 0.000718 1331.3674 1360.1704
1410.7929 0.000709 1331.4234 1360.9206
1390.9354 0.000719 1331.4794 1361.7067
1381.6954 0.000724 1331.5354 1362.5284
1325.7802 0.000754 1331.5913 1363.3848
1297.2940 0.000771 1331.6473 1364.2751
1313.4634 0.000761 1331.7033 1365.1983
1337.3993 0.000748 1331.7593 1366.1531
1379.8654 0.000725 1331.8152 1367.1382
1440.3595 0.000694 1331.8712 1368.1523
1418.3785 0.000705 1331.9272 1369.1939
1370.5473 0.000730 1331.9832 1370.2615
1396.3259 0.000716 1332.0392 1371.3558
1395.8519 0.000716 1332.0951 1372.4711
1404.4264 0.000712 1332.1511 1373.6082
1415.5189 0.000706 1332.2071 1374.7704
1368.9139 0.000731 1332.2631 1375.9477
1354.5289 0.000738 1332.3191 1377.1438
1355.6526 0.000738 1332.3750 1378.3583
1370.5075 0.000730 1332.4310 1379.5911
1407.2777 0.000711 1332.4870 1380.8425
1389.1607 0.000720 1332.5430 1382.1133
1391.6657 0.000719 1332.5990 1383.4046
1389.4330 0.000720 1332.6549 1384.7182
1380.5776 0.000724 1332.7109 1386.0560
1441.7660 0.000694 1332.7669 1387.4203
1449.4990 0.000690 1332.8229 1388.8128
1435.8239 0.000696 1332.8788 1390.2390
1431.4594 0.000699 1332.9348 1391.6986
1418.7537 0.000705 1332.9908 1393.1953
1409.1975 0.000710 1333.0468 1394.7325
1429.2585 0.000700 1333.1028 1396.3098
1469.9965 0.000680 1333.1587 1397.9300
1428.0588 0.000700 1333.2147 1399.5942
1432.9835 0.000698 1333.2707 1401.3027
1445.0561 0.000692 1333.3267 1403.0563
1406.2517 0.000711 1333.3827 1404.8513
1443.2259 0.000693 1333.4386 1406.6862
1436.4935 0.000696 1333.4946 1408.5586
1406.7872 0.000711 1333.5506 1410.4636
1420.1963 0.000704 1333.6066 1412.3954
1404.5152 0.000712 1333.6625 1414.3469
1400.7056 0.000714 1333.7185 1416.3093
1442.5511 0.000693 1333.7745 1418.2728
1453.8850 0.000688 1333.8305 1420.2256
1427.9544 0.000700 1333.8865 1422.1549
1434.8142 0.000697 1333.9424 1424.0464
1474.5347 0.000678 1333.9984 1425.8847
1458.8097 0.000685 1334.0544 1427.6538
1414.8206 0.000707 1334.1104 1429.3370
1420.8599 0.000704 1334.1664 1430.9173
1436.5242 0.000696 1334.2223 1432.3790
1435.4354 0.000697 1334.2783 1433.7048
1427.7736 0.000700 1334.3343 1434.8808
1399.8036 0.000714 1334.3903 1435.8935
1429.8391 0.000699 1334.4462 1436.7317
1425.8925 0.000701 1334.5022 1437.3860
1445.1137 0.000692 1334.5582 1437.8495
1464.4812 0.000683 1334.6142 1438.1174
1415.4857 0.000706 1334.6702 1438.1873
1419.5024 0.000704 1334.7261 1438.0591
1437.4428 0.000696 1334.7821 1437.7347
1405.9486 0.000711 1334.8381 1437.2179
1405.8035 0.000711 1334.8941 1436.5141
1431.9093 0.000698 1334.9501 1435.6301
1447.5391 0.000691 1335.0060 1434.5739
1472.8958 0.000679 1335.0620 1433.3547
1446.0365 0.000692 1335.1180 1431.9822
1435.3095 0.000697 1335.1740 1430.4672
1411.9065 0.000708 1335.1992 1428.7901
1382.8940 0.000723 1335.2244 1426.9933
1376.9960 0.000726 1335.2496 1425.0891
1407.3249 0.000711 1335.2748 1423.0896
1391.4870 0.000719 1335.2999 1421.0073
1371.9841 0.000729 1335.3251 1418.8548
1422.1775 0.000703 1335.3503 1416.6442
1417.1173 0.000706 1335.3755 1414.3876
1383.7961 0.000723 1335.4007 1412.0968
1374.6233 0.000727 1335.4259 1409.7827
1395.6275 0.000717 1335.4511 1407.4561
1385.3189 0.000722 1335.4763 1405.1268
1434.2038 0.000697 1335.5015 1402.8041
1425.0609 0.000702 1335.5267 1400.4966
1386.4802 0.000721 1335.5519 1398.2120
1398.0220 0.000715 1335.5771 1395.9748
1375.5628 0.000727 1335.6023 1393.7568
1386.0012 0.000722 1335.6275 1391.5808
1380.1881 0.000725 1335.6527 1389.4514
1347.2506 0.000742 1335.6779 1387.3736
1388.0328 0.000720 1335.7031 1385.3507
1390.1777 0.000719 1335.7283 1383.3857
1357.5453 0.000737 1335.7535 1381.4810
1372.9660 0.000728 1335.7787 1379.6385
1395.4379 0.000717 1335.8039 1377.8598
1324.6697 0.000755 1335.8291 1376.1457
1336.9481 0.000748 1335.8542 1374.4971
1401.9721 0.000713 1335.8794 1372.9141
1408.5343 0.000710 1335.9046 1371.3969
1403.7293 0.000712 1335.9298 1369.9450
1392.8456 0.000718 1335.9550 1368.5670
1350.3593 0.000741 1335.9802 1367.2447
1383.1849 0.000723 1336.0054 1365.9859
1386.9114 0.000721 1336.0306 1364.7896
1389.6459 0.000720 1336.0558 1363.6545
1343.2831 0.000744 1336.0810 1362.5792
1330.5609 0.000752 1336.1062 1361.5622
1304.0333 0.000767 1336.1314 1360.6020
1284.7244 0.000778 1336.1566 1359.7383
1360.8828 0.000735 1336.1818 1358.8863
1363.0971 0.000734 1336.2070 1358.0854
1331.3346 0.000751 1336.2322 1357.3338
1340.3594 0.000746 1336.2266 1356.5987
1360.7432 0.000735 1336.2210 1355.9089
1396.5208 0.000716 1336.2154 1355.2623
1366.3865 0.000732 1336.2098 1354.6570
1348.6466 0.000741 1336.2042 1354.0910
1353.6115 0.000739 1336.1986 1353.5624
1376.1817 0.000727 1336.1930 1353.0693
1372.4057 0.000729 1336.1874 1352.6098
1317.2020 0.000759 1336.1818 1352.1823
1323.3019 0.000756 1336.1762 1351.7850
1374.9293 0.000727 1336.1706 1351.4163
1390.8890 0.000719 1336.1650 1351.1477
1327.0389 0.000754 1336.1594 1350.8320
1327.0913 0.000754 1336.1538 1350.5405
1376.8208 0.000726 1336.1482 1350.2720
1389.1675 0.000720 1336.1426 1350.0252
1357.0757 0.000737 1336.1370 1349.7990
1298.7468 0.000770 1336.1314 1349.5924
1269.6884 0.000788 1336.1258 1349.4043
1293.2807 0.000773 1336.1202 1349.2339
1321.4175 0.000757 1336.1146 1349.0805
1321.9157 0.000756 1336.1090 1348.9432
1308.4428 0.000764 1336.1034 1348.8214
1311.5786 0.000762 1336.0978 1348.7146
1303.8999 0.000767 1336.0922 1348.6222
1326.9498 0.000754 1336.0866 1348.5439
1369.7211 0.000730 1336.0810 1348.4792
1323.3440 0.000756 1336.0754 1348.4542
1353.2333 0.000739 1336.0698 1348.4163
1358.6735 0.000736 1336.0642 1348.3915
1322.0361 0.000756 1336.0586 1348.4450
1310.6572 0.000763 1336.0530 1348.4467
1325.8518 0.000754 1336.0474 1348.4616
1320.8530 0.000757 1336.0418 1348.5802
1293.9651 0.000773 1336.0362 1348.6225
1366.7891 0.000732 1336.0306 1348.6788
1368.6926 0.000731 1336.0250 1348.7496
1341.2244 0.000746 1336.0194 1348.8352
1329.5758 0.000752 1336.0138 1348.9363
1326.9807 0.000754 1336.0082 1349.0535
1308.8011 0.000764 1336.0026 1349.2084
1326.7317 0.000754 1335.9970 1349.4569
1371.0550 0.000729 1336.0315 1349.6675
1371.8070 0.000729 1336.0661 1349.8973
1311.9865 0.000762 1336.1007 1350.1474
1328.4177 0.000753 1336.1353 1350.4188
1388.8206 0.000720 1336.1699 1350.7452
1424.3766 0.000702 1336.2045 1351.0626
1342.8653 0.000745 1336.2390 1351.4046
1323.6998 0.000755 1336.2736 1351.8177
1325.0775 0.000755 1336.3082 1352.1762
1327.6986 0.000753 1336.3428 1352.5998
1345.6483 0.000743 1336.3774 1353.0530
1334.9896 0.000749 1336.4120 1353.5370
1328.2959 0.000753 1336.4466 1354.0530
1363.7912 0.000733 1336.4811 1354.6022
1318.4424 0.000758 1336.5157 1355.1964
1339.4365 0.000747 1336.5503 1355.8640
1310.1354 0.000763 1336.5849 1356.5200
1382.9759 0.000723 1336.6195 1357.2135
1374.5570 0.000728 1336.6541 1357.9455
1432.9122 0.000698 1336.6886 1358.6983
1358.1344 0.000736 1336.7232 1359.5093
1303.5508 0.000767 1336.7578 1360.3607
1383.1106 0.000723 1336.7924 1361.2526
1348.6681 0.000741 1336.8270 1362.1854
1359.4363 0.000736 1336.8616 1363.1588
1354.9624 0.000738 1336.8962 1364.1727
1345.6349 0.000743 1336.9307 1365.2265
1345.0794 0.000743 1336.9653 1366.3260
1342.7334 0.000745 1336.9999 1367.4570
1325.7582 0.000754 1337.0345 1368.6248
1386.6072 0.000721 1337.0691 1369.8275
1296.9846 0.000771 1337.1037 1371.0631
1303.3259 0.000767 1337.1382 1372.3292
1356.8861 0.000737 1337.1728 1373.6228
1328.4249 0.000753 1337.2074 1374.8158
1274.8913 0.000784 1337.2420 1376.1546
1345.6382 0.000743 1337.2766 1377.5094
1382.8633 0.000723 1337.3112 1378.8755
1354.5804 0.000738 1337.3457 1380.2476
1340.5620 0.000746 1337.3803 1381.6200
1424.5288 0.000702 1337.4149 1382.9863
1352.4388 0.000739 1337.4495 1384.3400
1330.8744 0.000751 1337.4559 1385.6461
1363.2956 0.000734 1337.4623 1386.9288
1340.0000 0.000746 1337.4687 1388.1745
1339.2088 0.000747 1337.4751 1389.3796
1340.3304 0.000746 1337.4815 1390.4750
1386.2896 0.000721 1337.4878 1391.5794
1392.7752 0.000718 1337.4942 1392.6248
1298.2378 0.000770 1337.5006 1393.6066
1444.2889 0.000692 1337.5070 1394.5215
1433.4394 0.000698 1337.5134 1395.3672
1392.1318 0.000718 1337.5198 1396.1427
1397.4637 0.000716 1337.5262 1396.8484
1380.7545 0.000724 1337.5326 1397.4860
1464.8537 0.000683 1337.5390 1398.0582
1356.3826 0.000737 1337.5453 1398.3441
1383.7038 0.000723 1337.5517 1398.7998
1363.8745 0.000733 1337.5581 1399.2050
1371.4330 0.000729 1337.5645 1399.5665
1364.4390 0.000733 1337.5709 1399.8914
1358.1831 0.000736 1337.5773 1400.1876
1447.6756 0.000691 1337.5837 1400.4634
1407.4482 0.000711 1337.5901 1400.7275
1456.0448 0.000687 1337.5965 1400.9891
1339.9266 0.000746 1337.6029 1401.2576
1424.0542 0.000702 1337.6092 1401.5426
1325.1668 0.000755 1337.6156 1401.7692
1450.0535 0.000690 1337.6220 1402.0901
1398.7459 0.000715 1337.6284 1402.4853
1406.1340 0.000711 1337.6348 1402.9372
1366.0619 0.000732 1337.6412 1403.4331
1383.1960 0.000723 1337.6476 1404.0280
1400.9146 0.000714 1337.6540 1404.7074
1382.4554 0.000723 1337.6604 1405.4232
1370.8766 0.000729 1337.6668 1406.2976
1333.2280 0.000750 1337.6731 1407.2805
1357.4181 0.000737 1337.6795 1408.3782
1369.8530 0.000730 1337.6859 1409.5961
1453.8355 0.000688 1337.6923 1410.9386
1446.5783 0.000691 1337.6987 1412.4091
1363.7906 0.000733 1337.7051 1414.0100
1437.4439 0.000696 1337.7115 1415.7313
1390.6607 0.000719 1337.7179 1417.5957
1349.3330 0.000741 1337.7243 1419.5907
1396.9287 0.000716 1337.7306 1421.6856
1432.2149 0.000698 1337.7370 1423.9337
1399.2648 0.000715 1337.7434 1426.3016
1460.9060 0.000685 1337.7498 1428.7829
1398.0144 0.000715 1337.7562 1431.3699
1399.8229 0.000714 1337.7626 1434.0528
1468.7637 0.000681 1337.7690 1436.8208
1443.2246 0.000693 1337.7754 1439.6619
1478.1612 0.000677 1337.7818 1442.5611
1520.8758 0.000658 1337.7882 1445.5028
1406.1827 0.000711 1337.7945 1448.4695
1372.1448 0.000729 1337.8009 1451.4422
1372.9931 0.000728 1337.8073 1454.4002
1400.7313 0.000714 1337.8137 1457.3216
1415.8160 0.000706 1337.8201 1460.1834
1440.6267 0.000694 1337.8265 1462.9620
1363.3906 0.000733 1337.8329 1465.6331
1510.9187 0.000662 1337.8393 1468.1726
1543.3118 0.000648 1337.8457 1470.5568
1484.5622 0.000674 1337.8521 1472.7631
1450.9332 0.000689 1337.8584 1474.7703
1390.8878 0.000719 1337.8648 1476.5594
1525.2600 0.000656 1337.8712 1478.1135
1447.1206 0.000691 1337.8776 1479.4187
1381.5321 0.000724 1337.8840 1480.4642
1454.7117 0.000687 1337.8904 1481.2418
1445.5758 0.000692 1337.8968 1481.7469
1419.2680 0.000705 1337.9032 1481.9779
1349.5734 0.000741 1337.9096 1481.9069
1447.4039 0.000691 1337.9160 1481.5959
1476.6258 0.000677 1337.9223 1481.0218
1515.6945 0.000660 1337.9287 1480.1935
1431.5482 0.000699 1337.9351 1479.1194
1495.3398 0.000669 1337.9415 1477.8116
1460.7571 0.000685 1337.9479 1476.2828
1479.4288 0.000676 1337.9543 1474.5475
1453.1295 0.000688 1337.9607 1472.6191
1469.5270 0.000680 1337.9671 1470.4944
1441.4423 0.000694 1337.9735 1468.2291
1383.7394 0.000723 1337.9798 1465.8205
1424.9171 0.000702 1337.9862 1463.2716
1446.3978 0.000691 1337.9644 1460.6013
1415.1319 0.000707 1337.9426 1457.8412
1423.8343 0.000702 1337.9208 1455.0101
1447.6916 0.000691 1337.8990 1452.1238
1442.7600 0.000693 1337.8772 1449.2005
1414.0279 0.000707 1337.8554 1446.2567
1418.1973 0.000705 1337.8336 1443.3085
1450.3946 0.000689 1337.8118 1440.3690
1432.5363 0.000698 1337.7900 1437.4441
1441.5915 0.000694 1337.7682 1434.5620
1412.7746 0.000708 1337.7464 1431.7250
1432.0441 0.000698 1337.7246 1428.9426
1384.6323 0.000722 1337.7028 1426.2216
1370.9522 0.000729 1337.6810 1423.5687
1406.0106 0.000711 1337.6592 1420.9886
1446.9011 0.000691 1337.6374 1418.4847
1449.3811 0.000690 1337.6156 1416.0593
1404.6147 0.000712 1337.5937 1413.7133
1353.7509 0.000739 1337.5719 1411.4467
1417.9268 0.000705 1337.5501 1409.2592
1400.5444 0.000714 1337.5283 1407.1481
1420.9291 0.000704 1337.5065 1405.1115
1375.2966 0.000727 1337.4847 1403.1465
1378.1057 0.000726 1337.4629 1401.2502
1339.9740 0.000746 1337.4411 1399.4187
1361.0153 0.000735 1337.4193 1397.6495
1359.2298 0.000736 1337.3975 1395.9375
1412.8346 0.000708 1337.3757 1394.2800
1354.8838 0.000738 1337.3539 1392.6738
1414.9296 0.000707 1337.3321 1391.1158
1412.2880 0.000708 1337.3103 1389.6029
1423.1599 0.000703 1337.2885 1388.1326
1404.4131 0.000712 1337.2667 1386.7025
1315.5853 0.000760 1337.2449 1385.3101
1376.3680 0.000727 1337.2231 1383.9534
1351.8871 0.000740 1337.2013 1382.6305
1367.5877 0.000731 1337.1795 1381.3397
1366.4646 0.000732 1337.1576 1380.1162
1439.0968 0.000695 1337.1358 1378.8851
1369.1608 0.000730 1337.1140 1377.6819
1336.0574 0.000748 1337.0922 1376.5056
1349.1249 0.000741 1337.0704 1375.3553
1353.0000 0.000739 1337.0138 1374.1957
1339.3846 0.000747 1336.9571 1373.0612
1351.9647 0.000740 1336.9005 1371.9515
1332.1330 0.000751 1336.8438 1370.8666
1369.6094 0.000730 1336.7872 1369.8067
1274.3190 0.000785 1336.7305 1368.7719
1332.6317 0.000750 1336.6739 1367.7625
1310.4763 0.000763 1336.6172 1366.7788
1325.3778 0.000755 1336.5605 1365.8213
1341.5751 0.000745 1336.5039 1364.8904
1383.6211 0.000723 1336.4472 1363.9863
1350.0955 0.000741 1336.3906 1363.1095
1316.9398 0.000759 1336.3339 1362.2601
1395.5765 0.000717 1336.2773 1361.4570
1359.7033 0.000735 1336.2206 1360.6631
1359.3250 0.000736 1336.1640 1359.8965
1353.5869 0.000739 1336.1073 1359.1585
1396.2503 0.000716 1336.0507 1358.4483
1352.0685 0.000740 1335.9940 1357.7660
1342.7872 0.000745 1335.9373 1357.1113
1321.9938 0.000756 1335.8807 1356.4840
1337.9208 0.000747 1335.8240 1355.8838
1346.7449 0.000743 1335.7674 1355.3106
1346.2578 0.000743 1335.7107 1354.7639
1405.1615 0.000712 1335.6541 1354.2433
1327.2621 0.000753 1335.5974 1353.7486
1324.3040 0.000755 1335.5408 1353.2792
1329.4164 0.000752 1335.4841 1352.8343
1337.9326 0.000747 1335.4275 1352.4142
1318.7624 0.000758 1335.3708 1352.0181
1325.9171 0.000754 1335.3142 1351.6454
1378.8543 0.000725 1335.2575 1351.2956
1381.2003 0.000724 1335.2008 1350.9683
1331.3546 0.000751 1335.1442 1350.6629
1294.0408 0.000773 1335.0875 1350.3789
1311.5658 0.000762 1335.0309 1350.1136
1386.3817 0.000721 1334.9742 1349.8862
1343.2226 0.000744 1334.9176 1349.6634
1380.7045 0.000724 1334.8609 1349.4600
1372.6268 0.000729 1334.8043 1349.2754
1340.9733 0.000746 1334.7476 1349.1093
1347.8829 0.000742 1334.6910 1348.9611
1308.3625 0.000764 1334.7345 1348.9305
1305.9090 0.000766 1334.7781 1348.9172
1294.1020 0.000773 1334.8217 1348.9203
1332.1594 0.000751 1334.8653 1348.9395
1302.9399 0.000767 1334.9089 1348.9745
1297.9877 0.000770 1334.9524 1349.0237
1310.3773 0.000763 1334.9960 1349.0891
1348.3309 0.000742 1335.0396 1349.1690
1344.5560 0.000744 1335.0832 1349.2632
1319.3160 0.000758 1335.1268 1349.3713
1311.3352 0.000763 1335.1703 1349.4931
1279.2183 0.000782 1335.2139 1349.6281
1276.1890 0.000784 1335.2575 1349.7838
1326.3475 0.000754 1335.3011 1349.9446
1324.1438 0.000755 1335.3447 1350.1177
1322.7260 0.000756 1335.3883 1350.3031
1341.3267 0.000746 1335.4318 1350.5002
1321.5097 0.000757 1335.4754 1350.7090
1324.3727 0.000755 1335.5190 1350.9292
1321.1847 0.000757 1335.5626 1351.1604
1335.6953 0.000749 1335.6062 1351.4023
1354.3543 0.000738 1335.6497 1351.6592
1371.9207 0.000729 1335.6933 1351.9217
1352.9061 0.000739 1335.7369 1352.1941
1310.6483 0.000763 1335.7805 1352.4758
1361.2237 0.000735 1335.8241 1352.7666
1323.2396 0.000756 1335.8676 1353.0661
1325.5531 0.000754 1335.9112 1353.3737
1356.6167 0.000737 1335.9548 1353.6891
1356.3859 0.000737 1335.9984 1354.0116
1374.3422 0.000728 1336.0420 1354.3407
1357.9981 0.000736 1336.0855 1354.6759
1338.7879 0.000747 1336.1291 1355.0167
1355.4986 0.000738 1336.1727 1355.3623
1363.9963 0.000733 1336.2163 1355.7123
1344.6562 0.000744 1336.2599 1356.0661
1316.3290 0.000760 1336.3035 1356.4233
1296.1091 0.000772 1336.3470 1356.7832
1334.2541 0.000749 1336.3906 1357.1458
1371.4612 0.000729 1336.4342 1357.5128
1367.2292 0.000731 1336.4778 1357.8795
1310.3618 0.000763 1336.5214 1358.2483
1311.6596 0.000762 1336.5341 1358.5884
1353.4178 0.000739 1336.5468 1358.9310
1365.1481 0.000733 1336.5595 1359.2765
1319.1475 0.000758 1336.5723 1359.6254
1338.0268 0.000747 1336.5850 1359.9787
1338.8116 0.000747 1336.5977 1360.3373
1332.2247 0.000751 1336.6105 1360.7023
1362.7746 0.000734 1336.6232 1361.0749
1394.8791 0.000717 1336.6359 1361.4566
1307.4820 0.000765 1336.6486 1361.8489
1293.1915 0.000773 1336.6614 1362.2520
1376.9510 0.000726 1336.6741 1362.6659
1387.5056 0.000721 1336.6868 1363.1004
1363.8383 0.000733 1336.6995 1363.5527
1349.8319 0.000741 1336.7123 1364.0248
1310.7853 0.000763 1336.7250 1364.5188
1250.5562 0.000800 1336.7377 1365.0368
1336.5393 0.000748 1336.7505 1365.5810
1364.4575 0.000733 1336.7632 1366.1541
1323.5607 0.000756 1336.7759 1366.7562
1334.6880 0.000749 1336.7886 1367.3915
1358.3065 0.000736 1336.8014 1368.0613
1367.8182 0.000731 1336.8141 1368.7668
1346.8201 0.000742 1336.8268 1369.5091
1346.6379 0.000743 1336.8396 1370.2937
1352.0253 0.000740 1336.8523 1371.1199
1342.2903 0.000745 1336.8650 1371.9891
1321.3464 0.000757 1336.8777 1372.9023
1326.1394 0.000754 1336.8905 1373.8608
1317.4070 0.000759 1336.9032 1374.8649
1301.4896 0.000768 1336.9159 1375.9151
1318.4362 0.000758 1336.9286 1377.0114
1337.3855 0.000748 1336.9414 1378.1542
1349.4565 0.000741 1336.9541 1379.3427
1344.6705 0.000744 1336.9668 1380.5760
1338.4579 0.000747 1336.9796 1381.8529
1341.9332 0.000745 1336.9923 1383.1720
1328.1393 0.000753 1337.0050 1384.5304
1363.5753 0.000733 1337.0177 1385.9259
1390.1063 0.000719 1337.0305 1387.3553
1377.2679 0.000726 1337.0432 1388.8148
1408.9892 0.000710 1337.0559 1390.3002
1431.5512 0.000699 1337.0352 1391.7732
1444.6769 0.000692 1337.0146 1393.2617
1422.5984 0.000703 1336.9939 1394.7596
1406.8891 0.000711 1336.9732 1396.2600
1419.5661 0.000704 1336.9525 1397.7557
1396.8559 0.000716 1336.9319 1399.2388
1364.8051 0.000733 1336.9112 1400.7009
1377.7664 0.000726 1336.8905 1402.1331
1347.7448 0.000742 1336.8698 1403.5265
1349.4076 0.000741 1336.8492 1404.8716
1418.5594 0.000705 1336.8285 1406.1591
1384.2800 0.000722 1336.8078 1407.3798
1351.8813 0.000740 1336.7871 1408.5248
1360.3764 0.000735 1336.7664 1409.5856
1374.9257 0.000727 1336.7458 1410.5498
1427.0713 0.000701 1336.7251 1411.4198
1403.6541 0.000712 1336.7044 1412.1847
1374.3004 0.000728 1336.6837 1412.8395
1419.9074 0.000704 1336.6631 1413.3802
1377.7549 0.000726 1336.6424 1413.8041
1361.6588 0.000734 1336.6217 1414.1094
1384.2899 0.000722 1336.6010 1414.2955
1389.0000 0.000720 1336.5804 1414.3626
1406.0476 0.000711 1336.5597 1414.3119
1391.0807 0.000719 1336.5390 1414.1455
1352.0278 0.000740 1336.5183 1413.8558
1353.3521 0.000739 1336.4976 1413.4642
1313.9522 0.000761 1336.4770 1412.9690
1352.9742 0.000739 1336.4563 1412.3719
1388.0149 0.000720 1336.4356 1411.6776
1364.9361 0.000733 1336.4149 1410.8843
1363.7700 0.000733 1336.3943 1410.0108
1365.0193 0.000733 1336.3736 1409.0557
1382.1713 0.000723 1336.3529 1408.0248
1400.2961 0.000714 1336.3322 1406.9242
1411.8965 0.000708 1336.3115 1405.7776
1368.0770 0.000731 1336.2909 1404.5563
1327.6356 0.000753 1336.2702 1403.2790
1385.3908 0.000722 1336.2495 1401.9625
1410.1337 0.000709 1336.2288 1400.6082
1340.7080 0.000746 1336.2082 1399.2224
1344.2505 0.000744 1336.1875 1397.8117
1359.2408 0.000736 1336.1668 1396.3788
1339.3380 0.000747 1336.1461 1394.9364
1380.5418 0.000724 1336.1255 1393.4871
1386.1843 0.000721 1336.1048 1392.0363
1370.2404 0.000730 1336.0841 1390.5893
1412.2345 0.000708 1336.0634 1389.1511
1356.7309 0.000737 1336.0427 1387.7263
1365.0095 0.000733 1336.0221 1386.3191
1375.0120 0.000727 1336.0014 1384.9334
1365.1693 0.000733 1335.9807 1383.5729
1313.3285 0.000761 1335.9600 1382.2406
1334.5270 0.000749 1335.9394 1380.9396
1335.6361 0.000749 1335.9187 1379.6810
1282.3306 0.000780 1335.8980 1378.4495
1359.9920 0.000735 1335.8773 1377.2558
1378.4666 0.000725 1335.8566 1376.1016
1383.8126 0.000723 1335.8360 1374.9881
1385.5060 0.000722 1335.8153 1373.9166
1387.7143 0.000721 1335.7946 1372.8880
1350.8658 0.000740 1335.7739 1371.9028
1329.6982 0.000752 1335.7533 1370.9617
1323.0173 0.000756 1335.7326 1370.0259
1319.3763 0.000758 1335.7119 1369.1907
1348.9945 0.000741 1335.6912 1368.3829
1356.6331 0.000737 1335.6706 1367.6192
1346.0000 0.000743 1335.6499 1366.8992
1374.8648 0.000727 1335.6292 1366.2223
1421.8022 0.000703 1335.6085 1365.5477
1353.5128 0.000739 1335.5878 1364.9550
1338.6666 0.000747 1335.5672 1364.4028
1337.1530 0.000748 1335.5465 1363.8898
1329.5728 0.000752 1335.5258 1363.4149
1271.6795 0.000786 1335.5051 1362.9765
1315.0816 0.000760 1335.4845 1362.5907
1331.0091 0.000751 1335.4638 1362.2013
1315.6855 0.000760 1335.4431 1361.8632
1349.9957 0.000741 1335.4224 1361.5549
1362.8199 0.000734 1335.4017 1361.2746
1356.4644 0.000737 1335.3811 1361.0206
1385.6921 0.000722 1335.3604 1360.8184
1351.4653 0.000740 1335.3397 1360.5912
1354.4835 0.000738 1335.3190 1360.4133
1323.2096 0.000756 1335.2650 1360.2122
1343.7004 0.000744 1335.2109 1360.0282
1312.5172 0.000762 1335.1568 1359.8595
1332.4068 0.000751 1335.1027 1359.7044
1358.1344 0.000736 1335.0486 1359.5615
1371.6750 0.000729 1334.9945 1359.4290
1330.1790 0.000752 1334.9405 1359.3057
1351.3225 0.000740 1334.8864 1359.1901
1370.5917 0.000730 1334.8323 1359.0808
1316.7241 0.000759 1334.7782 1358.9767
1333.8951 0.000750 1334.7241 1358.8852
1348.2137 0.000742 1334.6701 1358.7878
1347.7337 0.000742 1334.6160 1358.6841
1361.1298 0.000735 1334.5619 1358.5892
1396.8791 0.000716 1334.5078 1358.4942
1279.7617 0.000781 1334.4537 1358.3984
1324.4046 0.000755 1334.3996 1358.3149
1344.8742 0.000744 1334.3456 1358.2157
1385.8793 0.000722 1334.2915 1358.1140
1352.2235 0.000740 1334.2374 1358.0162
1283.0221 0.000779 1334.1833 1357.9090
1353.2667 0.000739 1334.1292 1357.7989
1336.3527 0.000748 1334.0751 1357.6861
1377.9177 0.000726 1334.0211 1357.5706
1333.1434 0.000750 1333.9670 1357.4553
1386.0074 0.000721 1333.9129 1357.3355
1335.3845 0.000749 1333.8588 1357.2142
1354.1591 0.000738 1333.8047 1357.0918
1330.9329 0.000751 1333.7507 1356.9689
1370.5559 0.000730 1333.6966 1356.8458
1327.7275 0.000753 1333.6425 1356.7233
1347.8310 0.000742 1333.5884 1356.6019
1332.9378 0.000750 1333.5343 1356.4822
1367.5199 0.000731 1333.4802 1356.3647
1350.6485 0.000740 1333.4262 1356.2502
1337.6875 0.000748 1333.3721 1356.1393
1365.8839 0.000732 1333.3180 1356.0326
1349.2167 0.000741 1333.2639 1355.9308
1389.0251 0.000720 1333.2098 1355.8377
1365.8572 0.000732 1333.1557 1355.7479
1338.6351 0.000747 1333.1017 1355.6649
1361.1835 0.000735 1333.0476 1355.5895
1309.7956 0.000763 1332.9575 1355.4866
1272.5222 0.000786 1332.8675 1355.3929
1339.8535 0.000746 1332.7775 1355.3123
1312.8447 0.000762 1332.6874 1355.2393
1327.4437 0.000753 1332.5974 1355.1778
1344.4704 0.000744 1332.5073 1355.1287
1386.4465 0.000721 1332.4173 1355.0928
1340.8291 0.000746 1332.3273 1355.0708
1377.0265 0.000726 1332.2372 1355.0638
1353.8332 0.000739 1332.1472 1355.0724
1287.3249 0.000777 1332.0571 1355.0977
1240.3662 0.000806 1331.9671 1355.1403
1332.4948 0.000750 1331.8771 1355.2013
1341.2368 0.000746 1331.7870 1355.2814
1374.0719 0.000728 1331.6970 1355.3817
1313.7305 0.000761 1331.6070 1355.5028
1379.3226 0.000725 1331.5169 1355.6462
1360.8014 0.000735 1331.4269 1355.8120
1349.5760 0.000741 1331.3368 1356.0015
1361.3806 0.000735 1331.2468 1356.2158
1302.7430 0.000768 1331.1568 1356.4556
1367.7776 0.000731 1331.0667 1356.7218
1327.8555 0.000753 1330.9767 1357.0156
1329.4801 0.000752 1330.8866 1357.3379
1378.0749 0.000726 1330.7966 1357.6896
1402.9514 0.000713 1330.7066 1358.0719
1343.6920 0.000744 1330.6165 1358.4856
1342.0641 0.000745 1330.5265 1358.9318
1385.3181 0.000722 1330.4364 1359.4116
1292.8937 0.000773 1330.3464 1359.9258
1343.7454 0.000744 1330.2564 1360.4756
1342.3775 0.000745 1330.1663 1361.0619
1403.8038 0.000712 1330.0763 1361.6857
1293.7127 0.000773 1329.9862 1362.3480
1270.3120 0.000787 1329.8962 1363.0497
1393.6935 0.000718 1329.8062 1363.7918
1309.9773 0.000763 1329.7161 1364.5752
1336.5487 0.000748 1329.6261 1365.4006
1320.7825 0.000757 1329.5360 1366.2689
1251.6312 0.000799 1329.4460 1367.1810
1381.5947 0.000724 1329.3560 1368.1374
1324.4610 0.000755 1329.2659 1369.1389
1301.1712 0.000769 1329.3178 1370.3278
1362.0000 0.000734 1329.3696 1371.5629
1361.4443 0.000735 1329.4215 1372.8445
1320.8476 0.000757 1329.4733 1374.1729
1307.0082 0.000765 1329.5252 1375.5484
1308.5823 0.000764 1329.5770 1376.9710
1413.0403 0.000708 1329.6289 1378.4408
1426.9848 0.000701 1329.6808 1379.9577
1354.1797 0.000738 1329.7326 1381.5215
1370.9128 0.000729 1329.7845 1383.1320
1389.8518 0.000720 1329.8363 1384.7889
1393.9581 0.000717 1329.8882 1386.4918
1286.4320 0.000777 1329.9400 1388.2404
1382.4352 0.000723 1329.9919 1390.0344
1357.4988 0.000737 1330.0437 1391.8737
1381.4714 0.000724 1330.0956 1393.7579
1439.5950 0.000695 1330.1474 1395.6871
1379.6684 0.000725 1330.1993 1397.6615
1347.9037 0.000742 1330.2511 1399.6813
1416.7089 0.000706 1330.3030 1401.7472
1441.2067 0.000694 1330.3549 1403.8598
1454.5169 0.000688 1330.4067 1406.0243
1397.3896 0.000716 1330.4586 1408.2336
1448.6202 0.000690 1330.5104 1410.4930
1402.3034 0.000713 1330.5623 1412.8039
1415.2347 0.000707 1330.6141 1415.1699
1387.5151 0.000721 1330.6660 1417.5887
1372.7444 0.000728 1330.7178 1420.0636
1418.2638 0.000705 1330.7697 1422.5963
1388.9893 0.000720 1330.8215 1425.1880
1405.7764 0.000711 1330.8734 1427.8400
1353.6393 0.000739 1330.9252 1430.5533
1393.8737 0.000717 1330.9771 1433.3288
1412.8238 0.000708 1331.0289 1436.1672
1413.0719 0.000708 1331.0808 1439.0687
1414.8510 0.000707 1331.1327 1442.0337
1456.5263 0.000687 1331.1845 1445.0639
1453.5590 0.000688 1331.2364 1448.1557
1428.2283 0.000700 1331.2882 1451.3098
1422.3408 0.000703 1331.3401 1454.5261
1427.4728 0.000701 1331.3919 1457.8040
1508.0326 0.000663 1331.4438 1461.1449
1476.1011 0.000677 1331.4667 1464.5148
1428.6021 0.000700 1331.4896 1467.9442
1487.1018 0.000672 1331.5125 1471.4327
1449.9595 0.000690 1331.5354 1474.9806
1498.7670 0.000667 1331.5584 1478.5858
1520.1886 0.000658 1331.5813 1482.2492
1460.5363 0.000685 1331.6042 1485.9708
1443.2308 0.000693 1331.6271 1489.7519
1435.8019 0.000696 1331.6500 1493.5902
1428.8206 0.000700 1331.6730 1497.4872
1519.5307 0.000658 1331.6959 1501.4429
1429.3402 0.000700 1331.7188 1505.4574
1470.1102 0.000680 1331.7417 1509.5305
1490.2093 0.000671 1331.7646 1513.6617
1438.9650 0.000695 1331.7875 1517.8512
1511.6085 0.000662 1331.8105 1522.0963
1485.9801 0.000673 1331.8334 1526.3964
1452.4346 0.000688 1331.8563 1530.7499
1526.1463 0.000655 1331.8792 1535.1550
1554.4095 0.000643 1331.9021 1539.6098
1455.4439 0.000687 1331.9250 1544.1123
1570.7161 0.000637 1331.9480 1548.6602
1506.6483 0.000664 1331.9709 1553.2513
1518.0530 0.000659 1331.9938 1557.8835
1547.4394 0.000646 1332.0167 1562.5543
1493.1952 0.000670 1332.0396 1567.2616
1492.0488 0.000670 1332.0626 1572.0025
1492.3305 0.000670 1332.0855 1576.7370
1489.5038 0.000671 1332.1084 1581.5650
1579.4037 0.000633 1332.1313 1586.3875
1555.8371 0.000643 1332.1542 1591.2283
1578.3141 0.000634 1332.1771 1596.0813
1569.3937 0.000637 1332.2001 1600.9393
1605.2984 0.000623 1332.2230 1605.7936
1550.3483 0.000645 1332.2459 1610.6382
1586.4294 0.000630 1332.2688 1615.4534
1636.9140 0.000611 1332.2917 1620.2299
1617.7186 0.000618 1332.3147 1624.9529
1662.5438 0.000601 1332.3376 1629.6060
1601.9541 0.000624 1332.3605 1634.1714
1631.2020 0.000613 1332.3834 1638.6106
1649.3789 0.000606 1332.4063 1642.9420
1616.0334 0.000619 1332.3978 1647.0937
1572.9429 0.000636 1332.3893 1651.0754
1627.1486 0.000615 1332.3808 1654.8680
1644.7867 0.000608 1332.3723 1658.4426
1623.0475 0.000616 1332.3638 1661.7889
1623.2508 0.000616 1332.3553 1664.8681
1696.6387 0.000589 1332.3468 1667.6680
1678.9754 0.000596 1332.3383 1670.1824
1623.9194 0.000616 1332.3298 1672.3640
1668.8006 0.000599 1332.3213 1674.2096
1716.7202 0.000583 1332.3128 1675.7034
1668.5998 0.000599 1332.3043 1676.8312
1717.3521 0.000582 1332.2958 1677.5808
1668.0802 0.000599 1332.2873 1677.9439
1708.1010 0.000585 1332.2788 1677.9083
1696.3043 0.000590 1332.2703 1677.4699
1682.2400 0.000594 1332.2618 1676.6250
1660.7683 0.000602 1332.2533 1675.3721
1661.4665 0.000602 1332.2448 1673.7121
1635.7286 0.000611 1332.2363 1671.6636
1670.4789 0.000599 1332.2278 1669.2017
1636.5107 0.000611 1332.2193 1666.3495
1639.6074 0.000610 1332.2108 1663.1190
1605.2014 0.000623 1332.2023 1659.5193
1584.1549 0.000631 1332.1938 1655.5706
1637.3257 0.000611 1332.1853 1651.2806
1608.6795 0.000622 1332.1768 1646.6712
1609.5111 0.000621 1332.1683 1641.7618
1587.4815 0.000630 1332.1597 1636.5726
1606.8437 0.000622 1332.1512 1631.1247
1561.8300 0.000640 1332.1427 1625.4401
1583.1413 0.000632 1332.1342 1619.5568
1643.5572 0.000608 1332.1257 1613.4663
1595.9911 0.000627 1332.1172 1607.2069
1461.2957 0.000684 1332.1087 1600.8013
1526.8023 0.000655 1332.1002 1594.2722
1590.0681 0.000629 1332.0917 1587.6418
1619.9661 0.000617 1332.0832 1580.9321
1533.6350 0.000652 1332.0747 1574.1644
1526.2208 0.000655 1332.0662 1567.3595
1555.0708 0.000643 1332.0577 1560.5450
1529.4777 0.000654 1332.0492 1553.7262
1478.8223 0.000676 1332.0407 1546.9266
1512.9946 0.000661 1332.0322 1540.1648
1469.2741 0.000681 1332.0237 1533.4570
1454.5394 0.000688 1332.0152 1526.8185
1468.3754 0.000681 1332.0067 1520.2632
1461.6305 0.000684 1331.9982 1513.8039
1498.9948 0.000667 1331.9897 1507.4525
1489.4599 0.000671 1331.9812 1501.1560
1505.0785 0.000664 1331.9727 1495.0499
1515.7314 0.000660 1331.9642 1489.0792
1461.8392 0.000684 1331.9557 1483.2586
1514.6951 0.000660 1331.9472 1477.5230
1452.9089 0.000688 1331.9387 1471.9960
1435.2261 0.000697 1331.9302 1466.6260
1434.7074 0.000697 1331.9217 1461.4159
1507.1757 0.000663 1331.9132 1456.3680
1512.4069 0.000661 1331.9047 1451.4836
1429.7381 0.000699 1331.8962 1446.7635
1379.5016 0.000725 1331.8877 1442.2077
1384.5334 0.000722 1331.8792 1437.8156
1424.4609 0.000702 1331.8707 1433.5552
1495.6301 0.000669 1331.8622 1429.4868
1444.6479 0.000692 1331.8537 1425.5772
1366.4243 0.000732 1331.8452 1421.8240
1427.5548 0.000700 1331.8367 1418.2242
1480.9270 0.000675 1331.8281 1414.7473
1429.4249 0.000700 1331.8196 1411.4449
1407.8212 0.000710 1331.8111 1408.2860
1412.9607 0.000708 1331.8026 1405.2663
1354.1115 0.000738 1331.7941 1402.3822
1372.4325 0.000729 1331.7856 1399.6293
1397.0028 0.000716 1331.7771 1397.0037
1409.9016 0.000709 1331.7686 1394.5010
1406.1644 0.000711 1331.7601 1392.1169
1367.9585 0.000731 1331.7516 1389.8472
1368.8538 0.000731 1331.7431 1387.6875
1375.5483 0.000727 1331.7346 1385.6337
1374.5031 0.000728 1331.7261 1383.6814
1388.0423 0.000720 1331.7176 1381.8265
1394.2645 0.000717 1331.7091 1380.0648
1380.9074 0.000724 1331.7006 1378.3923
1346.2074 0.000743 1331.6921 1376.8050
1322.4360 0.000756 1331.6522 1375.2676
1340.0097 0.000746 1331.6123 1373.8077
1307.9613 0.000765 1331.5723 1372.4216
1314.8744 0.000761 1331.5324 1371.1057
1392.6663 0.000718 1331.4925 1369.8565
1416.9712 0.000706 1331.4526 1368.6708
1412.8814 0.000708 1331.4126 1367.5451
1352.5411 0.000739 1331.3727 1366.4763
1315.8270 0.000760 1331.3328 1365.4631
1332.9183 0.000750 1331.2929 1364.4994
1346.7886 0.000743 1331.2530 1363.5840
1337.6835 0.000748 1331.2130 1362.7142
1324.6154 0.000755 1331.1731 1361.8876
1341.5383 0.000745 1331.1332 1361.1017
1362.4639 0.000734 1331.0933 1360.3543
1373.7742 0.000728 1331.0533 1359.6432
1361.6383 0.000734 1331.0134 1358.9663
1356.9774 0.000737 1330.9735 1358.3038
1357.6407 0.000737 1330.9336 1357.6898
1338.0449 0.000747 1330.8937 1357.1045
1333.7226 0.000750 1330.8537 1356.5463
1350.8035 0.000740 1330.8138 1356.0137
1341.0405 0.000746 1330.7739 1355.5052
1338.8007 0.000747 1330.7340 1355.0195
1378.8029 0.000725 1330.6940 1354.5554
1356.1565 0.000737 1330.6541 1354.1116
1285.4436 0.000778 1330.6142 1353.6871
1334.7655 0.000749 1330.5743 1353.2810
1398.1016 0.000715 1330.5343 1352.8920
1361.3451 0.000735 1330.4944 1352.5196
1357.0885 0.000737 1330.4545 1352.1636
1319.0054 0.000758 1330.4146 1351.8127
1306.4496 0.000765 1330.3747 1351.4850
1330.5722 0.000752 1330.3347 1351.1704
1306.1963 0.000766 1330.2948 1350.8692
1341.6709 0.000745 1330.2549 1350.5805
1382.4372 0.000723 1330.2150 1350.3036
1376.0736 0.000727 1330.1750 1350.0556
1322.2264 0.000756 1330.1351 1349.8013
1302.1900 0.000768 1330.0952 1349.5575
1335.5210 0.000749 1330.0553 1349.3240
1366.1375 0.000732 1330.0153 1349.1005
1398.2937 0.000715 1329.9415 1348.8527
1353.3875 0.000739 1329.8677 1348.6142
1279.6408 0.000781 1329.7939 1348.3849
1332.0474 0.000751 1329.7200 1348.1645
1402.0295 0.000713 1329.6462 1347.9529
1390.5329 0.000719 1329.5724 1347.7496
1346.9958 0.000742 1329.4986 1347.5550
1328.1135 0.000753 1329.4247 1347.3687
1337.5036 0.000748 1329.3509 1347.1907
1338.6470 0.000747 1329.2771 1347.0209
1350.7488 0.000740 1329.2032 1346.8592
1357.0000 0.000737 1329.1294 1346.7175
1328.8593 0.000753 1329.0556 1346.5722
1305.8297 0.000766 1328.9818 1346.4351
1344.5256 0.000744 1328.9079 1346.3063
1340.2959 0.000746 1328.8341 1346.1857
1317.2907 0.000759 1328.7603 1346.0735
1323.5876 0.000756 1328.6864 1345.9785
1334.1635 0.000750 1328.6126 1345.8833
1342.1155 0.000745 1328.5388 1345.7968
1313.6922 0.000761 1328.4650 1345.7191
1358.3200 0.000736 1328.3911 1345.6502
1349.5908 0.000741 1328.3173 1345.5904
1355.4866 0.000738 1328.2435 1345.5398
1366.7873 0.000732 1328.1697 1345.4986
1375.3574 0.000727 1328.0958 1345.4668
1318.8330 0.000758 1328.0220 1345.4447
1319.3180 0.000758 1327.9482 1345.4325
1333.7428 0.000750 1327.8743 1345.4304
1352.1430 0.000740 1327.8005 1345.4385
1365.3500 0.000732 1327.7267 1345.4570
1367.4708 0.000731 1327.6529 1345.5274
1340.3730 0.000746 1327.5790 1345.5677
1333.5935 0.000750 1327.5052 1345.6250
1344.1623 0.000744 1327.4314 1345.6877
1387.2849 0.000721 1327.3576 1345.7622
1383.5797 0.000723 1327.2837 1345.8486
1361.6053 0.000734 1327.2099 1345.9471
1330.9382 0.000751 1327.1361 1346.0939
1313.5501 0.000761 1327.0622 1346.2668
1346.0770 0.000743 1326.9884 1346.4040
1340.8387 0.000746 1326.9146 1346.5545
1324.7976 0.000755 1326.8025 1346.6806
1319.4872 0.000758 1326.6904 1346.8207
1369.1324 0.000730 1326.5784 1346.9752
1328.7511 0.000753 1326.4663 1347.1443
1355.4389 0.000738 1326.3542 1347.3285
1370.3509 0.000730 1326.2421 1347.5280
1345.2755 0.000743 1326.1301 1347.7432
1379.2954 0.000725 1326.0180 1348.0141
1382.3810 0.000723 1325.9059 1348.2616
1332.8066 0.000750 1325.7938 1348.5256
1391.2977 0.000719 1325.6817 1348.8062
1350.4916 0.000740 1325.5697 1349.1041
1352.6279 0.000739 1325.4576 1349.4400
1395.4562 0.000717 1325.3455 1349.7729
1367.7156 0.000731 1325.2334 1350.1239
1358.8263 0.000736 1325.1214 1350.4926
1385.3552 0.000722 1325.0093 1350.8795
1343.4168 0.000744 1324.8972 1351.2849
1367.9305 0.000731 1324.7851 1351.7087
1377.6732 0.000726 1324.6731 1352.1689
1343.0807 0.000745 1324.5610 1352.6545
1350.4872 0.000740 1324.4489 1353.1338
1324.7779 0.000755 1324.3368 1353.6601
1327.6312 0.000753 1324.2248 1354.1769
1300.5314 0.000769 1324.1127 1354.7119
1373.0324 0.000728 1324.0006 1355.2648
1364.4010 0.000733 1323.8885 1355.8353
1323.9060 0.000755 1323.7765 1356.4228
1363.0127 0.000734 1323.6644 1357.0267
1356.8823 0.000737 1323.5523 1357.6462
1360.4026 0.000735 1323.4402 1358.3003
1367.8605 0.000731 1323.3281 1358.9482
1392.3904 0.000718 1323.2161 1359.6085
1380.3949 0.000724 1323.1040 1360.2799
1381.4996 0.000724 1322.9919 1360.9607
1284.5405 0.000778 1322.8798 1361.6490
1320.0221 0.000758 1322.7678 1362.3432
1382.3749 0.000723 1322.6557 1363.0411
1357.2237 0.000737 1322.5436 1363.7400
1397.5156 0.000716 1322.4315 1364.4375
1388.3346 0.000720 1322.3195 1365.1309
1357.8412 0.000736 1322.2074 1365.8163
1328.3975 0.000753 1322.0581 1366.4550
1302.3254 0.000768 1321.9088 1367.0800
1334.6476 0.000749 1321.7595 1367.6965
1364.0944 0.000733 1321.6103 1368.2895
1313.8825 0.000761 1321.4610 1368.8529
1378.4295 0.000725 1321.3117 1369.3887
1393.1094 0.000718 1321.1624 1369.8934
1402.2841 0.000713 1321.0131 1370.3614
1349.1886 0.000741 1320.8638 1370.7940
1332.1972 0.000751 1320.7146 1371.1825
1366.3203 0.000732 1320.5653 1371.5310
1368.9625 0.000730 1320.4160 1371.8339
1346.7808 0.000743 1320.2667 1372.0891
1395.2436 0.000717 1320.1174 1372.2948
1334.2357 0.000749 1319.9681 1372.4504
1369.7865 0.000730 1319.8189 1372.5548
1334.9994 0.000749 1319.6696 1372.6079
1303.9868 0.000767 1319.5203 1372.6096
1330.4629 0.000752 1319.3710 1372.5603
1325.4593 0.000754 1319.2217 1372.4595
1366.2135 0.000732 1319.0725 1372.3112
1327.8853 0.000753 1318.9232 1372.1143
1293.2341 0.000773 1318.7739 1371.8724
1384.8775 0.000722 1318.6246 1371.5864
1356.8897 0.000737 1318.4753 1371.2565
1404.6406 0.000712 1318.3260 1370.8882
1380.1426 0.000725 1318.1768 1370.4821
1384.6764 0.000722 1318.0275 1370.0395
1352.3189 0.000739 1317.8782 1369.5648
1347.4142 0.000742 1317.7289 1369.0595
1322.3272 0.000756 1317.5796 1368.5263
1367.9428 0.000731 1317.4303 1367.9677
1302.7264 0.000768 1317.2811 1367.3865
1288.9684 0.000776 1317.1318 1366.7847
1323.7384 0.000755 1316.9825 1366.1666
1357.5776 0.000737 1316.8332 1365.5343
1357.3481 0.000737 1316.6839 1364.8905
1370.6455 0.000730 1316.5346 1364.2380
1357.6181 0.000737 1316.3854 1363.5795
1338.4985 0.000747 1316.2361 1362.9176
1394.3532 0.000717 1316.0868 1362.2548
1335.7611 0.000749 1315.9375 1361.5928
1298.7160 0.000770 1315.7527 1360.8994
1335.8921 0.000749 1315.5680 1360.2103
1276.0697 0.000784 1315.3832 1359.5298
1434.3283 0.000697 1315.1984 1358.8579
1361.7627 0.000734 1315.0136 1358.1960
1323.4804 0.000756 1314.8289 1357.5453
1355.3950 0.000738 1314.6441 1356.9064
1381.0006 0.000724 1314.4593 1356.2800
1350.5667 0.000740 1314.2745 1355.6663
1316.5910 0.000760 1314.0898 1355.0654
1361.0344 0.000735 1313.9050 1354.4773
1298.7100 0.000770 1313.7202 1353.9014
1335.6306 0.000749 1313.5354 1353.3372
1343.8357 0.000744 1313.3507 1352.7842
1359.4408 0.000736 1313.1659 1352.2412
1325.5141 0.000754 1312.9811 1351.7073
1376.0794 0.000727 1312.7963 1351.1810
1377.3837 0.000726 1312.6116 1350.6623
1380.5187 0.000724 1312.4268 1350.1516
1359.7153 0.000735 1312.2420 1349.6433
1327.2508 0.000753 1312.0572 1349.1384
1291.6515 0.000774 1311.8725 1348.6360
1317.4089 0.000759 1311.6877 1348.1350
1349.9639 0.000741 1311.5029 1347.6352
1302.8839 0.000768 1311.3181 1347.1343
1303.2154 0.000767 1311.1334 1346.6325
1340.1038 0.000746 1310.9486 1346.1271
1325.1010 0.000755 1310.7638 1345.6212
1345.9052 0.000743 1310.5790 1345.1126
1342.6140 0.000745 1310.3943 1344.6010
1312.8739 0.000762 1310.2095 1344.0862
1310.8661 0.000763 1310.0247 1343.5679
1331.4862 0.000751 1309.8399 1343.0461
1316.0942 0.000760 1309.6552 1342.5208
1263.0036 0.000792 1309.4704 1341.9445
1295.2625 0.000772 1309.2856 1341.4120
1337.6096 0.000748 1309.1008 1340.8766
1324.4247 0.000755 1308.9161 1340.3370
1383.2139 0.000723 1308.7313 1339.7939
1345.6757 0.000743 1308.5465 1339.2474
1328.9823 0.000752 1308.3617 1338.6885
1391.8605 0.000718 1308.1770 1338.1364
1380.0690 0.000725 1307.9565 1337.5463
1288.1909 0.000776 1307.7361 1336.9523
1314.2290 0.000761 1307.5156 1336.3559
1362.9399 0.000734 1307.2952 1335.7574
1333.0199 0.000750 1307.0747 1335.1569
1304.0967 0.000767 1306.8542 1334.5552
1393.4598 0.000718 1306.6338 1333.9281
1285.9452 0.000778 1306.4133 1333.3245
1320.5917 0.000757 1306.1929 1332.7196
1322.9720 0.000756 1305.9724 1332.1145
1280.7172 0.000781 1305.7520 1331.5095
1276.0774 0.000784 1305.5315 1330.9049
1330.7671 0.000751 1305.3111 1330.2964
1332.9753 0.000750 1305.0906 1329.6938
1374.8237 0.000727 1304.8702 1329.0927
1354.6605 0.000738 1304.6497 1328.4935
1307.5692 0.000765 1304.4293 1327.8966
1354.2319 0.000738 1304.2088 1327.3023
1368.5056 0.000731 1303.9884 1326.7113
1314.3199 0.000761 1303.7679 1326.1234
1283.3011 0.000779 1303.5475 1325.5391
1230.4860 0.000813 1303.3270 1324.9588
1262.2466 0.000792 1303.1065 1324.3830
1352.2221 0.000740 1302.8861 1323.8047
1308.7563 0.000764 1302.6656 1323.2404
1297.5104 0.000771 1302.4452 1322.6795
1324.2779 0.000755 1302.2247 1322.1251
1387.9046 0.000721 1302.0043 1321.5754
1324.6599 0.000755 1301.7838 1321.0316
1290.1565 0.000775 1301.5634 1320.4939
1291.7198 0.000774 1301.3429 1319.9627
1292.9273 0.000773 1301.1225 1319.4380
1310.5675 0.000763 1300.9020 1318.9202
1286.1858 0.000777 1300.6816 1318.4091
1329.9633 0.000752 1300.4611 1317.9050
1359.6647 0.000735 1300.2407 1317.4080
1301.6808 0.000768 1300.0202 1316.9184
1299.6450 0.000769 1299.7998 1316.4326
1308.1773 0.000764 1299.5793 1315.9579
1360.6375 0.000735 1299.3588 1315.4908
1375.0325 0.000727 1299.1384 1315.0314
1316.5616 0.000760 1298.9179 1314.5799
1269.5939 0.000788 1298.6606 1314.0994
1321.4004 0.000757 1298.4033 1313.6268
1315.5039 0.000760 1298.1460 1313.1622
1280.1836 0.000781 1297.8888 1312.7308
1317.7002 0.000759 1297.6315 1312.2822
1297.3475 0.000771 1297.3742 1311.8417
1282.5353 0.000780 1297.1169 1311.4325
1285.3962 0.000778 1296.8596 1311.0079
1330.7046 0.000751 1296.6023 1310.5913
1283.6926 0.000779 1296.3450 1310.1830
1264.6741 0.000791 1296.0877 1309.7820
1311.6391 0.000762 1295.8304 1309.3886
1301.6823 0.000768 1295.5731 1309.0044
1323.1701 0.000756 1295.3158 1308.6262
1296.0203 0.000772 1295.0585 1308.2555
1226.6591 0.000815 1294.8012 1307.8922
1269.8782 0.000787 1294.5439 1307.5361
1304.5762 0.000767 1294.2866 1307.1874
1286.9033 0.000777 1294.0293 1306.8458
1316.8881 0.000759 1293.7720 1306.5113
1360.1595 0.000735 1293.5147 1306.1840
1345.9534 0.000743 1293.2574 1305.8637
1341.1608 0.000746 1293.0001 1305.5515
1287.4623 0.000777 1292.7428 1305.2453
1271.9969 0.000786 1292.4855 1304.9462
1315.0530 0.000760 1292.2282 1304.6543
1292.5163 0.000774 1291.9709 1304.3695
1283.5224 0.000779 1291.7136 1304.0920
1307.6955 0.000765 1291.4563 1303.8343
1322.8462 0.000756 1291.1990 1303.5716
1327.4535 0.000753 1290.9417 1303.3154
1297.0234 0.000771 1290.6844 1303.0793
1324.9377 0.000755 1290.4272 1302.8397
1335.4295 0.000749 1290.1699 1302.6081
1267.3907 0.000789 1289.9126 1302.3846
1308.1194 0.000764 1289.6553 1302.1695
1309.1707 0.000764 1289.3980 1301.9630
1225.2848 0.000816 1289.1407 1301.7660
1299.7825 0.000769 1288.8834 1301.5773
1337.4950 0.000748 1288.6261 1301.3978
1272.9608 0.000786 1288.3688 1301.2278
1265.2503 0.000790 1288.1115 1301.0675
1283.7163 0.000779 1288.1029 1301.1660
1316.9764 0.000759 1288.0942 1301.2747
1281.2932 0.000780 1288.0856 1301.3941
1287.6674 0.000777 1288.0770 1301.5243
1250.3673 0.000800 1288.0683 1301.6638
1217.9158 0.000821 1288.0597 1301.8150
1308.2252 0.000764 1288.0511 1301.9797
1340.8357 0.000746 1288.0424 1302.1664
1324.4173 0.000755 1288.0338 1302.3556
1271.0069 0.000787 1288.0252 1302.5574
1269.6643 0.000788 1288.0165 1302.7698
1346.6199 0.000743 1288.0079 1302.9979
1311.2045 0.000763 1287.9993 1303.2397
1301.7645 0.000768 1287.9907 1303.4953
1316.2267 0.000760 1287.9820 1303.7666
1297.6266 0.000771 1287.9734 1304.0508
1337.5592 0.000748 1287.9648 1304.3497
1292.5432 0.000774 1287.9561 1304.6635
1302.7243 0.000768 1287.9475 1304.9924
1307.3841 0.000765 1287.9389 1305.3367
1277.1674 0.000783 1287.9302 1305.6966
1343.6255 0.000744 1287.9216 1306.0711
1296.3818 0.000771 1287.9130 1306.4626
1314.3635 0.000761 1287.9043 1306.8702
1373.8621 0.000728 1287.8957 1307.2939
1254.8109 0.000797 1287.8871 1307.7326
1252.1495 0.000799 1287.8784 1308.1888
1318.3939 0.000758 1287.8698 1308.6614
1277.9800 0.000782 1287.8612 1309.1503
1326.2583 0.000754 1287.8526 1309.6555
1310.1265 0.000763 1287.8439 1310.1769
1319.8262 0.000758 1287.8353 1310.7143
1340.4049 0.000746 1287.8267 1311.2725
1346.0932 0.000743 1287.8180 1311.8415
1311.5514 0.000762 1287.8094 1312.4259
1253.7635 0.000798 1287.8008 1313.0253
1300.5245 0.000769 1287.7921 1313.6394
1363.6661 0.000733 1287.7835 1314.2677
1376.9468 0.000726 1287.7749 1314.9097
1358.9569 0.000736 1287.7662 1315.5635
1323.8378 0.000755 1287.7576 1316.2311
1317.0875 0.000759 1287.7490 1316.9106
1295.0724 0.000772 1287.7033 1317.5641
1301.7894 0.000768 1287.6575 1318.2279
1354.4447 0.000738 1287.6118 1318.9012
1338.0545 0.000747 1287.5660 1319.5832
1318.3370 0.000759 1287.5203 1320.2730
1303.4718 0.000767 1287.4746 1320.9697
1313.1003 0.000762 1287.4288 1321.6726
1306.2792 0.000766 1287.3831 1322.3807
1315.6139 0.000760 1287.3374 1323.0934
1332.7964 0.000750 1287.2916 1323.8100
1290.4140 0.000775 1287.2459 1324.5297
1283.0421 0.000779 1287.2002 1325.2521
1284.6580 0.000778 1287.1544 1325.9762
1316.4242 0.000760 1287.1087 1326.7028
1381.5447 0.000724 1287.0629 1327.4312
1379.7516 0.000725 1287.0172 1328.1614
1368.4171 0.000731 1286.9715 1328.8933
1317.5907 0.000759 1286.9257 1329.6271
1325.4176 0.000754 1286.8800 1330.3631
1371.4283 0.000729 1286.8343 1331.1017
1370.1119 0.000730 1286.7885 1331.8433
1344.3229 0.000744 1286.7428 1332.5884
1346.3000 0.000743 1286.6971 1333.3375
1339.3040 0.000747 1286.6513 1334.0912
1361.0928 0.000735 1286.6056 1334.8501
1377.3580 0.000726 1286.5598 1335.6147
1343.5751 0.000744 1286.5141 1336.3855
1315.7801 0.000760 1286.4684 1337.1630
1302.6142 0.000768 1286.4226 1337.9476
1325.0269 0.000755 1286.3769 1338.7396
1340.4381 0.000746 1286.3312 1339.5393
1353.3655 0.000739 1286.2854 1340.3470
1387.5324 0.000721 1286.2397 1341.1626
1347.1928 0.000742 1286.1940 1341.9862
1305.8341 0.000766 1286.1482 1342.8176
1357.2273 0.000737 1286.1025 1343.6566
1337.2366 0.000748 1286.0567 1344.5029
1318.5736 0.000758 1286.0110 1345.3559
1349.7351 0.000741 1285.9653 1346.2151
1335.5060 0.000749 1285.9195 1347.0796
1327.7722 0.000753 1285.8738 1347.9486
1345.0286 0.000743 1285.8281 1348.8209
1366.0405 0.000732 1285.7523 1349.6654
1386.5022 0.000721 1285.6766 1350.5108
1385.6558 0.000722 1285.6008 1351.3555
1377.8928 0.000726 1285.5250 1352.1979
1363.7773 0.000733 1285.4493 1353.0362
1365.0621 0.000733 1285.3735 1353.8685
1360.2686 0.000735 1285.2978 1354.6927
1344.1994 0.000744 1285.2220 1355.5068
1358.2886 0.000736 1285.1463 1356.3085
1398.8048 0.000715 1285.0705 1357.0954
1410.3014 0.000709 1284.9948 1357.8651
1391.9516 0.000718 1284.9190 1358.6152
1368.1122 0.000731 1284.8432 1359.3430
1362.9577 0.000734 1284.7675 1360.0460
1367.3302 0.000731 1284.6917 1360.7215
1345.7445 0.000743 1284.6160 1361.3669
1332.6324 0.000750 1284.5402 1361.9795
1369.0398 0.000730 1284.4645 1362.5565
1370.7260 0.000730 1284.3887 1363.0953
1341.4673 0.000745 1284.3130 1363.5934
1367.4450 0.000731 1284.2372 1364.0482
1364.1713 0.000733 1284.1614 1364.4572
1348.5784 0.000742 1284.0857 1364.8182
1356.9977 0.000737 1284.0099 1365.1289
1364.9367 0.000733 1283.9342 1365.3875
1382.4541 0.000723 1283.8584 1365.5750
1384.0466 0.000723 1283.7827 1365.7244
1346.7310 0.000743 1283.7069 1365.8171
1350.4380 0.000741 1283.6312 1365.8522
1369.7259 0.000730 1283.5554 1365.8291
1343.5922 0.000744 1283.4796 1365.7474
1326.6336 0.000754 1283.4039 1365.6072
1356.7164 0.000737 1283.3281 1365.4085
1362.9604 0.000734 1283.2524 1365.1521
1321.0631 0.000757 1283.1766 1364.8387
1320.1041 0.000758 1283.1009 1364.4694
1342.5876 0.000745 1283.0251 1364.0455
1367.9654 0.000731 1282.9494 1363.5685
1316.2637 0.000760 1282.8736 1363.0399
1307.6873 0.000765 1282.7978 1362.4616
1384.1146 0.000722 1282.7221 1361.8269
1386.5637 0.000721 1282.6463 1361.1549
1344.0457 0.000744 1282.5706 1360.4392
1330.2321 0.000752 1282.4948 1359.6816
1319.4372 0.000758 1282.4191 1358.8845
1336.7661 0.000748 1282.3433 1358.0498
1353.4819 0.000739 1282.2676 1357.1796
1373.7447 0.000728 1282.1918 1356.2762
1343.4868 0.000744 1282.1161 1355.3415
1327.2812 0.000753 1282.0403 1354.3776
1359.8591 0.000735 1281.9645 1353.3867
1359.5530 0.000736 1281.8888 1352.3707
1360.0402 0.000735 1281.8130 1351.3317
1355.1597 0.000738 1281.7373 1350.2716
1366.9423 0.000732 1281.6615 1349.1925
1377.5331 0.000726 1281.5858 1348.0963
1359.9933 0.000735 1281.5100 1346.9848
1357.7803 0.000736 1281.4343 1345.8185
1380.3909 0.000724 1281.3585 1344.6824
1390.9378 0.000719 1281.2827 1343.5366
1363.5319 0.000733 1281.2070 1342.3828
1342.7798 0.000745 1281.1312 1341.2229
1352.6039 0.000739 1281.0555 1340.0584
1319.3417 0.000758 1280.9797 1338.8910
1303.7816 0.000767 1280.9040 1337.7222
1321.9034 0.000756 1280.8282 1336.5536
1290.8263 0.000775 1280.7525 1335.3866
1317.4537 0.000759 1280.6767 1334.2226
1306.1641 0.000766 1280.6009 1333.0630
1342.2308 0.000745 1280.5252 1331.9089
1364.8773 0.000733 1280.4494 1330.7616
1330.8351 0.000751 1280.3737 1329.6222
1313.8173 0.000761 1280.2979 1328.4918
1371.4360 0.000729 1280.2222 1327.3507
1336.4804 0.000748 1280.1464 1326.2413
1295.5422 0.000772 1280.0707 1325.1437
1377.4351 0.000726 1279.9949 1324.0588
1341.1842 0.000746 1279.9191 1322.9873
1298.9217 0.000770 1279.8434 1321.9298
1347.1938 0.000742 1279.7676 1320.8351
1328.7722 0.000753 1279.6919 1319.8078
1311.2541 0.000763 1279.6161 1318.7965
1316.0882 0.000760 1279.5404 1317.8015
1316.3448 0.000760 1279.4646 1316.8233
1331.1042 0.000751 1279.3588 1315.8324
1287.6396 0.000777 1279.2531 1314.8591
1273.3396 0.000785 1279.1473 1313.9038
1279.2237 0.000782 1279.0415 1312.9668
1281.9893 0.000780 1278.9357 1312.0484
1265.2040 0.000790 1278.8300 1311.1490
1305.1068 0.000766 1278.7242 1310.2687
1323.0999 0.000756 1278.6184 1309.4077
1336.8447 0.000748 1278.5126 1308.5663
1340.8062 0.000746 1278.4069 1307.7446
1327.2994 0.000753 1278.3011 1306.9428
1322.7872 0.000756 1278.1953 1306.1349
1356.6108 0.000737 1278.0896 1305.3731
1331.6627 0.000751 1277.9838 1304.6314
1277.0012 0.000783 1277.8780 1303.9099
1291.5948 0.000774 1277.7722 1303.2084
1300.9575 0.000769 1277.6665 1302.5270
1307.7338 0.000765 1277.5607 1301.8655
1266.1353 0.000790 1277.4549 1301.2240
1240.1539 0.000806 1277.3491 1300.6022
1274.9843 0.000784 1277.2434 1300.0000
1353.1295 0.000739 1277.1376 1299.4173
1361.1627 0.000735 1277.0318 1298.8539
1308.9272 0.000764 1276.9260 1298.2446
1291.0864 0.000775 1276.8203 1297.7193
1294.6624 0.000772 1276.7145 1297.2126
1300.0419 0.000769 1276.6087 1296.7243
1250.4693 0.000800 1276.5029 1296.2541
1251.6269 0.000799 1276.3972 1295.7115
1265.5006 0.000790 1276.2914 1295.2770
1296.8678 0.000771 1276.1856 1294.8598
1335.7828 0.000749 1276.0798 1294.4597
1318.0664 0.000759 1275.9741 1294.0763
1267.2050 0.000789 1275.8683 1293.7094
1306.6660 0.000765 1275.7625 1293.3586
1281.4445 0.000780 1275.6567 1293.0238
1301.8994 0.000768 1275.5510 1292.7047
1263.3778 0.000792 1275.4452 1292.4009
1309.2558 0.000764 1275.3394 1292.0914
1272.9000 0.000786 1275.2336 1291.7853
1284.8480 0.000778 1275.1279 1291.4298
1270.7720 0.000787 1275.0221 1291.1855
1272.4786 0.000786 1275.1902 1291.2292
1281.2227 0.000781 1275.3582 1291.2868
1297.8392 0.000771 1275.5263 1291.3129
1338.3529 0.000747 1275.6943 1291.3978
1293.8058 0.000773 1275.8624 1291.4958
1329.7926 0.000752 1276.0304 1291.6068
1295.8833 0.000772 1276.1985 1291.7306
1271.8930 0.000786 1276.3665 1291.8670
1292.3829 0.000774 1276.5346 1292.0158
1311.4863 0.000762 1276.7026 1292.1768
1247.7605 0.000801 1276.8707 1292.3498
1273.9395 0.000785 1277.0388 1292.5346
1277.6881 0.000783 1277.2068 1292.7206
1248.1470 0.000801 1277.3749 1292.9286
1269.6241 0.000788 1277.5429 1293.0996
1263.7383 0.000791 1277.7110 1293.3301
1260.3404 0.000793 1277.8790 1293.5717
1324.8610 0.000755 1278.0471 1293.8240
1288.9806 0.000776 1278.2151 1294.0869
1229.7317 0.000813 1278.3832 1294.3604
1334.3485 0.000749 1278.5513 1294.6441
1374.7806 0.000727 1278.7193 1294.9380
1305.8330 0.000766 1278.8874 1295.2418
1296.5569 0.000771 1279.0554 1295.5554
1236.7087 0.000809 1279.2235 1295.8787
1284.5376 0.000778 1279.3915 1296.2113
1302.3661 0.000768 1279.5596 1296.5533
1326.1533 0.000754 1279.7276 1296.9042
1327.1506 0.000753 1279.8957 1297.2640
1326.0770 0.000754 1280.0637 1297.6325
1313.2569 0.000761 1280.2318 1298.0094
1310.1294 0.000763 1280.3999 1298.3945
1353.4198 0.000739 1280.5679 1298.7876
1346.8042 0.000742 1280.7360 1299.1885
1284.2896 0.000779 1280.9040 1299.5969
1255.5830 0.000796 1281.0721 1300.0125
1265.8708 0.000790 1281.2401 1300.4352
1261.5825 0.000793 1281.4082 1300.8648
1244.3192 0.000804 1281.5762 1301.2944
1286.9390 0.000777 1281.7443 1301.7369
1276.0313 0.000784 1281.9124 1302.1856
1303.5661 0.000767 1282.0804 1302.6402
1283.9809 0.000779 1282.2117 1303.0638
1279.9802 0.000781 1282.3430 1303.4930
1312.7552 0.000762 1282.4744 1303.9277
1314.3702 0.000761 1282.6057 1304.3677
1280.4353 0.000781 1282.7370 1304.8130
1317.7119 0.000759 1282.8683 1305.2635
1227.0415 0.000815 1282.9997 1305.7193
1251.3892 0.000799 1283.1310 1306.1803
1303.0919 0.000767 1283.2623 1306.6466
1300.8777 0.000769 1283.3936 1307.1184
1272.1154 0.000786 1283.5249 1307.5956
1304.6645 0.000766 1283.6563 1308.0787
1299.0512 0.000770 1283.7876 1308.5644
1276.2147 0.000784 1283.9189 1309.0595
1271.2484 0.000787 1284.0502 1309.5611
1322.5608 0.000756 1284.1815 1310.0694
1315.8011 0.000760 1284.3129 1310.5848
1302.4428 0.000768 1284.4442 1311.1076
1334.8266 0.000749 1284.5755 1311.6381
1316.5621 0.000760 1284.7068 1312.1768
1296.4364 0.000771 1284.8381 1312.7240
1321.1729 0.000757 1284.9695 1313.2800
1358.2538 0.000736 1285.1008 1313.8455
1375.7489 0.000727 1285.2321 1314.4206
1298.7376 0.000770 1285.3634 1315.0060
1314.1626 0.000761 1285.4947 1315.6020
1337.4301 0.000748 1285.6261 1316.2090
1324.5883 0.000755 1285.7574 1316.8275
1314.6920 0.000761 1285.8887 1317.4579
1309.4722 0.000764 1286.0200 1318.1007
1373.6788 0.000728 1286.1513 1318.7562
1304.7804 0.000766 1286.2827 1319.4250
1268.2814 0.000788 1286.4140 1320.1073
1348.8049 0.000741 1286.5453 1320.8035
1378.8308 0.000725 1286.6766 1321.5141
1327.7028 0.000753 1286.8080 1322.2393
1312.0741 0.000762 1286.9393 1322.9793
1259.8107 0.000794 1287.0706 1323.7345
1315.4251 0.000760 1287.2019 1324.5051
1350.3329 0.000741 1287.3332 1325.2911
1278.5176 0.000782 1287.4646 1326.0926
1357.7225 0.000737 1287.5959 1326.9098
1285.0985 0.000778 1287.6975 1327.7128
1371.8663 0.000729 1287.7991 1328.5311
1301.2986 0.000768 1287.9007 1329.3647
1368.5325 0.000731 1288.0023 1330.2133
1283.8208 0.000779 1288.1039 1331.0764
1318.5603 0.000758 1288.2055 1331.9536
1263.8334 0.000791 1288.3071 1332.8443
1350.4380 0.000741 1288.4087 1333.7479
1341.2224 0.000746 1288.5103 1334.6636
1298.0071 0.000770 1288.6119 1335.5905
1311.6166 0.000762 1288.7135 1336.5277
1333.3790 0.000750 1288.8151 1337.4740
1350.4748 0.000740 1288.9167 1338.4281
1321.0405 0.000757 1289.0183 1339.3889
1336.3840 0.000748 1289.1199 1340.3548
1367.7551 0.000731 1289.2215 1341.3243
1329.7045 0.000752 1289.3231 1342.2958
1365.2746 0.000732 1289.4247 1343.2675
1323.1579 0.000756 1289.5263 1344.2379
1253.5201 0.000798 1289.6279 1345.2049
1294.5443 0.000772 1289.7295 1346.1667
1365.0460 0.000733 1289.8311 1347.1210
1363.3455 0.000733 1289.9327 1348.0669
1314.1333 0.000761 1290.0343 1349.0021
1320.3708 0.000757 1290.1359 1349.9248
1310.7215 0.000763 1290.2375 1350.8331
1325.8395 0.000754 1290.3391 1351.7253
1353.9430 0.000739 1290.4407 1352.6001
1398.6144 0.000715 1290.5423 1353.4557
1290.2285 0.000775 1290.6439 1354.2909
1310.4740 0.000763 1290.7454 1355.1044
1325.8575 0.000754 1290.8470 1355.8951
1380.1120 0.000725 1290.9486 1356.6620
1313.7817 0.000761 1291.0502 1357.4042
1386.2036 0.000721 1291.1518 1358.1211
1338.6293 0.000747 1291.2534 1358.8120
1340.2404 0.000746 1291.3550 1359.4763
1283.2477 0.000779 1291.4566 1360.1134
1341.7791 0.000745 1291.5582 1360.7235
1330.1621 0.000752 1291.6598 1361.3061
1391.5004 0.000719 1291.7614 1361.8608
1359.7651 0.000735 1291.8630 1362.3878
1327.4399 0.000753 1291.9646 1362.8868
1324.8864 0.000755 1292.0662 1363.3578
1378.9055 0.000725 1292.1678 1363.8008
1332.2573 0.000751 1292.2694 1364.2159
1382.0933 0.000724 1292.3710 1364.6032
1268.2792 0.000788 1292.4726 1364.9628
1271.0795 0.000787 1292.5742 1365.2950
1296.6291 0.000771 1292.6758 1365.5998
1316.4860 0.000760 1292.7774 1365.8773
1376.9559 0.000726 1292.8790 1366.1286
1301.4903 0.000768 1292.9806 1366.3537
1347.3176 0.000742 1293.0822 1366.5529
1324.4338 0.000755 1293.1838 1366.7267
1319.8543 0.000758 1293.2854 1366.8757
1338.7367 0.000747 1293.3870 1367.0001
1330.1140 0.000752 1293.4886 1367.1008
1379.6261 0.000725 1293.5902 1367.1782
1343.4423 0.000744 1293.6918 1367.2327
1346.7739 0.000743 1293.7934 1367.2650
1353.1916 0.000739 1293.8950 1367.2754
1303.8607 0.000767 1293.9966 1367.2643
1299.8309 0.000769 1294.0982 1367.2323
1339.1946 0.000747 1294.1998 1367.1796
1375.1400 0.000727 1294.3014 1367.1065
1366.9754 0.000732 1294.4030 1367.0133
1323.7068 0.000755 1294.5046 1366.9001
1373.1945 0.000728 1294.6062 1366.7673
1332.8969 0.000750 1294.7078 1366.6149
1370.6724 0.000730 1294.8094 1366.4430
1304.0832 0.000767 1294.9110 1366.2518
1303.7972 0.000767 1295.0126 1366.0411
1364.4407 0.000733 1295.1142 1365.8112
1328.9788 0.000752 1295.2158 1365.5620
1317.8010 0.000759 1295.3174 1365.2936
1283.6736 0.000779 1295.4190 1365.0061
1313.9854 0.000761 1295.5206 1364.6995
1325.5859 0.000754 1295.6222 1364.3739
1275.4220 0.000784 1295.7238 1364.0295
1337.6108 0.000748 1295.8254 1363.6662
1337.5915 0.000748 1295.9270 1363.2844
1363.2910 0.000734 1296.0286 1362.8842
1338.4770 0.000747 1296.1302 1362.4659
1301.0303 0.000769 1296.2021 1361.9998
1339.4560 0.000747 1296.2740 1361.5155
1362.2592 0.000734 1296.3458 1361.0146
1336.5496 0.000748 1296.4177 1360.4969
1324.1687 0.000755 1296.4896 1359.9626
1345.1442 0.000743 1296.5615 1359.4125
1278.1905 0.000782 1296.6333 1358.8469
1305.0447 0.000766 1296.7052 1358.2666
1348.2010 0.000742 1296.7771 1357.6715
1353.9883 0.000739 1296.8490 1357.0636
1328.9921 0.000752 1296.9209 1356.4431
1311.2815 0.000763 1296.9927 1355.8107
1246.9175 0.000802 1297.0646 1355.1674
1300.2240 0.000769 1297.1365 1354.5139
1387.3844 0.000721 1297.2084 1353.8514
1338.9943 0.000747 1297.2802 1353.1807
1345.5720 0.000743 1297.3521 1352.5028
1301.4012 0.000768 1297.4240 1351.8189
1289.0178 0.000776 1297.4959 1351.1295
1295.6311 0.000772 1297.5678 1350.4364
1274.5697 0.000785 1297.6396 1349.7403
1286.1849 0.000777 1297.7115 1349.0414
1294.7182 0.000772 1297.7834 1348.3425
1262.8003 0.000792 1297.8553 1347.6439
1289.2084 0.000776 1297.9271 1346.9465
1293.6366 0.000773 1297.9990 1346.2507
1296.7830 0.000771 1298.0709 1345.5590
1369.0776 0.000730 1298.1428 1344.8716
1311.6288 0.000762 1298.2147 1344.1895
1251.2158 0.000799 1298.2865 1343.5123
1314.8679 0.000761 1298.3584 1342.8440
1328.9509 0.000752 1298.4303 1342.1841
1293.3389 0.000773 1298.5022 1341.5335
1323.0204 0.000756 1298.5740 1340.8930
1327.5900 0.000753 1298.6459 1340.2637
1328.5187 0.000753 1298.7178 1339.6464
1303.4042 0.000767 1298.7897 1339.0419
1239.8144 0.000807 1298.8616 1338.4506
1305.1679 0.000766 1298.9334 1337.8742
1291.4810 0.000774 1299.0053 1337.3129
1293.4878 0.000773 1299.0772 1336.7676
1308.0000 0.000765 1299.1491 1336.2388
1305.3406 0.000766 1299.2738 1335.7799
1276.8510 0.000783 1299.3985 1335.3390
1321.0361 0.000757 1299.5231 1334.9164
1326.6972 0.000754 1299.6478 1334.5127
1308.7667 0.000764 1299.7725 1334.1275
1277.9858 0.000782 1299.8972 1333.7629
1272.0835 0.000786 1300.0219 1333.4185
1316.4155 0.000760 1300.1466 1333.0946
1287.8080 0.000777 1300.2713 1332.7916
1318.3144 0.000759 1300.3960 1332.5099
1312.7111 0.000762 1300.5207 1332.2496
1311.9708 0.000762 1300.6454 1332.0110
1303.1172 0.000767 1300.7701 1331.7944
1277.7670 0.000783 1300.8948 1331.5999
1298.2363 0.000770 1301.0194 1331.4276
1299.3799 0.000770 1301.1441 1331.2778
1286.2672 0.000777 1301.2688 1331.1506
1278.4248 0.000782 1301.3935 1331.0461
1272.5328 0.000786 1301.5182 1330.9643
1321.3585 0.000757 1301.6429 1330.9054
1323.0385 0.000756 1301.7676 1330.8693
1271.1253 0.000787 1301.8923 1330.8562
1301.5203 0.000768 1302.0170 1330.8661
1335.0000 0.000749 1302.1417 1330.8990
1339.8063 0.000746 1302.2664 1330.9549
1300.5339 0.000769 1302.3911 1331.0339
1297.0087 0.000771 1302.5158 1331.1359
1285.5468 0.000778 1302.6404 1331.2610
1291.9647 0.000774 1302.7651 1331.4091
1298.8387 0.000770 1302.8898 1331.5803
1316.7298 0.000759 1303.0145 1331.7745
1329.1790 0.000752 1303.1392 1331.9548
1304.1405 0.000767 1303.2639 1332.1952
1316.1078 0.000760 1303.3886 1332.4587
1332.5554 0.000750 1303.5133 1332.7452
1319.7144 0.000758 1303.6380 1333.0548
1272.7559 0.000786 1303.7627 1333.3875
1291.6834 0.000774 1303.8874 1333.7434
1312.6609 0.000762 1304.0121 1334.1223
1332.5234 0.000750 1304.1368 1334.5245
1309.4471 0.000764 1304.2614 1334.9500
1283.7744 0.000779 1304.3861 1335.3989
1321.0843 0.000757 1304.5108 1335.8711
1312.7460 0.000762 1304.6355 1336.3670
1318.1072 0.000759 1304.7602 1336.8865
1314.1291 0.000761 1304.8849 1337.4299
1314.9350 0.000760 1305.0096 1337.9972
1282.0604 0.000780 1305.1343 1338.5887
1275.7178 0.000784 1305.2590 1339.1861
1285.4333 0.000778 1305.3837 1339.8266
1293.2264 0.000773 1305.5084 1340.4919
1291.5066 0.000774 1305.6331 1341.1823
1325.3917 0.000754 1305.7578 1341.8980
1331.4190 0.000751 1305.8824 1342.6393
1273.8993 0.000785 1306.0071 1343.4064
1277.0955 0.000783 1306.1318 1344.1998
1323.9225 0.000755 1306.2565 1345.0195
1359.1525 0.000736 1306.3812 1345.8661
1374.1807 0.000728 1306.5059 1346.7397
1347.4842 0.000742 1306.6306 1347.6406
1313.5047 0.000761 1306.7553 1348.5693
1296.9310 0.000771 1306.8800 1349.5259
1277.0038 0.000783 1307.0047 1350.5108
1295.8545 0.000772 1307.1294 1351.5242
1297.2510 0.000771 1307.2541 1352.5665
1317.7651 0.000759 1307.3787 1353.6378
1344.3847 0.000744 1307.5034 1354.7385
1356.1610 0.000737 1307.6281 1355.8687
1367.1828 0.000731 1307.7528 1357.0287
1329.1763 0.000752 1307.8775 1358.2186
1289.9676 0.000775 1308.0022 1359.4387
1279.3588 0.000782 1308.1269 1360.6890
1327.5050 0.000753 1308.2516 1361.9698
1373.5200 0.000728 1308.3763 1363.2811
1350.6887 0.000740 1308.5010 1364.6231
1324.7580 0.000755 1308.6257 1365.9959
1323.9881 0.000755 1308.7504 1367.3994
1349.9614 0.000741 1308.8751 1368.8340
1403.3932 0.000713 1308.9997 1370.2995
1357.8834 0.000736 1309.1244 1371.7961
1305.2830 0.000766 1309.2491 1373.3239
1318.1027 0.000759 1309.3738 1374.8829
1339.2991 0.000747 1309.4985 1376.4734
1326.2153 0.000754 1309.6232 1378.0954
1275.8813 0.000784 1310.0638 1380.0650
1297.1468 0.000771 1310.5045 1382.0665
1323.8706 0.000755 1310.9451 1384.1000
1329.3264 0.000752 1311.3858 1386.1658
1331.9902 0.000751 1311.8264 1388.2641
1313.8992 0.000761 1312.2671 1390.3952
1314.9576 0.000760 1312.7077 1392.5594
1333.9828 0.000750 1313.1483 1394.7569
1342.7067 0.000745 1313.5890 1396.9881
1348.7523 0.000741 1314.0296 1399.2532
1314.0326 0.000761 1314.4703 1401.5374
1348.5397 0.000742 1314.9109 1403.8712
1379.3969 0.000725 1315.3516 1406.2398
1357.4854 0.000737 1315.7922 1408.6433
1388.4197 0.000720 1316.2328 1411.0819
1384.3884 0.000722 1316.6735 1413.5557
1359.0721 0.000736 1317.1141 1416.0647
1347.4865 0.000742 1317.5548 1418.6089
1354.9332 0.000738 1317.9954 1421.1883
1359.9872 0.000735 1318.4360 1423.8025
1379.1910 0.000725 1318.8767 1426.4517
1354.2316 0.000738 1319.3173 1429.1353
1349.2421 0.000741 1319.7580 1431.8529
1379.7245 0.000725 1320.1986 1434.6041
1389.5572 0.000720 1320.6393 1437.3883
1416.4870 0.000706 1321.0799 1440.2047
1413.6050 0.000707 1321.5205 1443.0524
1414.7976 0.000707 1321.9612 1445.9231
1424.3135 0.000702 1322.4018 1448.8307
1414.7859 0.000707 1322.8425 1451.7665
1430.9426 0.000699 1323.2831 1454.7290
1388.8322 0.000720 1323.7238 1457.7166
1430.1314 0.000699 1324.1644 1460.7277
1435.4103 0.000697 1324.6050 1463.7603
1427.8530 0.000700 1325.0457 1466.8121
1435.0421 0.000697 1325.4863 1469.8808
1469.8731 0.000680 1325.9270 1472.9638
1442.3162 0.000693 1326.3676 1476.0580
1433.1979 0.000698 1326.8082 1479.1606
1406.8938 0.000711 1327.2489 1482.2679
1403.6975 0.000712 1327.6895 1485.3763
1450.9364 0.000689 1328.1302 1488.4820
1469.3573 0.000681 1328.3134 1491.3232
1456.5496 0.000687 1328.4966 1494.1530
1434.7375 0.000697 1328.6799 1496.9667
1423.5892 0.000702 1328.8631 1499.7595
1419.8540 0.000704 1329.0464 1502.5261
1418.3056 0.000705 1329.2296 1505.2614
1381.5013 0.000724 1329.4128 1507.9599
1423.8734 0.000702 1329.5961 1510.6162
1443.1763 0.000693 1329.7793 1513.2200
1427.5308 0.000701 1329.9625 1515.7749
1440.0590 0.000694 1330.1458 1518.2705
1382.8114 0.000723 1330.3290 1520.7013
1400.2796 0.000714 1330.5123 1523.0617
1470.5831 0.000680 1330.6955 1525.3461
1477.0117 0.000677 1330.8787 1527.5493
1467.7898 0.000681 1331.0620 1529.6660
1490.7159 0.000671 1331.2452 1531.6913
1479.0452 0.000676 1331.4284 1533.6204
1441.7082 0.000694 1331.6117 1535.4489
1461.1624 0.000684 1331.7949 1537.1725
1427.3623 0.000701 1331.9782 1538.7873
1478.0025 0.000677 1332.1614 1540.2898
1474.8569 0.000678 1332.3446 1541.6767
1474.6421 0.000678 1332.5279 1542.9452
1452.2825 0.000689 1332.7111 1544.0925
1489.1200 0.000672 1332.8943 1545.1167
1454.5665 0.000687 1333.0776 1546.0134
1419.7808 0.000704 1333.2608 1546.7858
1501.4508 0.000666 1333.4441 1547.4304
1387.9725 0.000720 1333.6273 1547.9464
1384.4116 0.000722 1333.8105 1548.3332
1425.5419 0.000701 1333.9938 1548.5906
1433.5608 0.000698 1334.1770 1548.7187
1474.3050 0.000678 1334.3602 1548.7180
1460.4632 0.000685 1334.5435 1548.5889
1474.4841 0.000678 1334.7267 1548.3326
1437.9656 0.000695 1334.9099 1547.9503
1514.8210 0.000660 1335.0932 1547.4434
1458.5556 0.000686 1335.2764 1546.8137
1434.0569 0.000697 1335.4597 1546.0630
1510.1521 0.000662 1335.6429 1545.1936
1443.5735 0.000693 1335.8261 1544.2079
1457.9092 0.000686 1336.0094 1543.1086
1417.7315 0.000705 1336.1926 1541.8984
1412.9554 0.000708 1336.3758 1540.5804
1494.3747 0.000669 1336.5591 1539.1578
1459.4880 0.000685 1336.7423 1537.6340
1347.6079 0.000742 1336.9256 1536.0126
1424.2503 0.000702 1337.1088 1534.2972
1485.3576 0.000673 1337.2920 1532.4916
1384.7036 0.000722 1337.4753 1530.5998
1481.2967 0.000675 1337.6585 1528.6259
1408.5181 0.000710 1337.8417 1526.5738
1436.7023 0.000696 1338.0250 1524.4480
1514.4022 0.000660 1338.2082 1522.2527
1442.2723 0.000693 1338.3915 1519.9922
1437.4342 0.000696 1338.5747 1517.6706
1397.6442 0.000715 1338.7579 1515.2930
1438.1737 0.000695 1338.9412 1512.8636
1450.2910 0.000690 1339.1244 1510.3867
1502.9791 0.000665 1339.3076 1507.8669
1483.8845 0.000674 1339.4909 1505.3086
1436.6955 0.000696 1339.6741 1502.7164
1417.1681 0.000706 1339.8574 1500.0945
1352.8391 0.000739 1340.0406 1497.4474
1367.3798 0.000731 1340.2238 1494.7793
1368.5718 0.000731 1340.4071 1492.0945
1385.6155 0.000722 1340.5903 1489.3971
1347.2644 0.000742 1340.7735 1486.6903
1409.8075 0.000709 1340.9568 1483.9797
1453.4970 0.000688 1341.1400 1481.2683
1402.6952 0.000713 1341.3233 1478.5597
1408.9093 0.000710 1341.5065 1475.8575
1418.0584 0.000705 1341.6897 1473.1650
1406.0762 0.000711 1341.8730 1470.4853
1441.9601 0.000694 1342.0562 1467.8219
1368.8855 0.000731 1342.2394 1465.1774
1382.6152 0.000723 1342.4227 1462.5547
1379.1763 0.000725 1342.6059 1459.9563
1327.5317 0.000753 1342.7892 1457.3847
1358.3026 0.000736 1342.9724 1454.8423
1293.9772 0.000773 1343.1556 1452.3312
1425.6893 0.000701 1343.3389 1449.8534
1352.7019 0.000739 1343.5221 1447.4109
1436.7825 0.000696 1343.7053 1445.0053
1386.7126 0.000721 1343.8886 1442.6384
1342.5743 0.000745 1344.0718 1440.3112
1364.4585 0.000733 1344.2551 1438.0259
1354.4964 0.000738 1344.4383 1435.7834
1396.2709 0.000716 1344.6215 1433.5849
1374.2298 0.000728 1344.8048 1431.4313
1328.9407 0.000752 1344.9880 1429.3237
1374.5689 0.000728 1345.1712 1427.2628
1403.5572 0.000712 1345.3545 1425.2493
1287.5724 0.000777 1345.5377 1423.2840
1326.9254 0.000754 1345.7209 1421.3672
1293.1947 0.000773 1345.9042 1419.4995
1345.1890 0.000743 1346.0874 1417.6810
1319.0575 0.000758 1346.2707 1415.9121
1295.2801 0.000772 1346.4539 1414.1929
1346.6371 0.000743 1346.4539 1412.3401
loop_
_pd_peak_id
_pd_peak_2theta_centroid
_pd_peak_d_spacing
_pd_peak_pk_height
_pd_peak_pk_intensity
_pd_peak_width_2theta
PK1 20.0883 4.417 12.8 5.6071 0.3314
PK2 23.0516 3.855 181.2 82.6323 0.3456
PK3 23.1683 3.836 145.0 66.2479 0.3462
PK4 25.8223 3.447 286.4 136.1594 0.3602
PK5 32.4935 2.753 868.3 458.7518 0.4003
PK6 32.8370 2.725 3884.4 2063.7800 0.4026
PK7 33.0100 2.711 864.6 460.6532 0.4037
PK8 34.5642 2.593 178.8 97.7373 0.4141
PK9 36.5511 2.456 7.4 4.1845 0.4279
PK10 36.9013 2.434 3.9 2.1944 0.4303
PK11 38.4291 2.341 25.8 15.0279 0.4413
PK12 38.7648 2.321 58.5 34.2670 0.4438
PK13 38.7991 2.319 56.0 32.8263 0.4440
PK14 40.2134 2.241 233.6 140.1475 0.4545
PK15 40.6438 2.218 266.2 160.8532 0.4578
PK16 42.2281 2.138 79.9 49.5267 0.4700
PK17 43.6507 2.072 11.9 7.5630 0.4812
PK18 43.9530 2.058 4.6 2.9401 0.4836
PK19 46.9158 1.935 861.3 577.2292 0.5078
PK20 47.1651 1.925 447.8 301.3118 0.5099
PK21 48.3951 1.879 89.1 61.1891 0.5203
PK22 48.4596 1.877 146.9 101.0112 0.5209
PK23 51.3956 1.776 11.6 8.3684 0.5466
PK24 51.6626 1.768 14.1 10.2147 0.5490
PK25 51.8128 1.763 2.6 1.9233 0.5503
PK26 52.4788 1.742 0.6 0.4503 0.5563
PK27 52.8867 1.730 10.0 7.3553 0.5601
PK28 53.0580 1.725 30.0 22.2489 0.5616
PK29 53.1785 1.721 26.7 19.8396 0.5627
PK30 53.9039 1.700 184.2 138.4152 0.5694
PK31 54.5908 1.680 27.6 20.9604 0.5758
PK32 58.0342 1.588 316.2 254.1012 0.6088
PK33 58.3589 1.580 254.7 205.6823 0.6120
PK34 58.6857 1.572 269.6 218.9364 0.6153
PK35 58.6887 1.572 546.4 443.6460 0.6153
PK36 59.7449 1.547 38.6 31.8747 0.6259
PK37 60.7267 1.524 0.9 0.7793 0.6358
PK38 61.0151 1.517 0.0 0.0065 0.6388
PK39 61.1252 1.515 2.8 2.3269 0.6399
PK40 61.2537 1.512 0.0 0.0109 0.6412
PK41 62.0258 1.495 4.5 3.8518 0.6492
PK42 62.4193 1.487 0.3 0.2808 0.6533
PK43 62.5705 1.483 4.6 3.9431 0.6549
PK44 62.6789 1.481 2.8 2.4649 0.6560
PK45 64.5383 1.443 79.0 70.4142 0.6758
PK46 65.0475 1.433 8.5 7.6039 0.6813
PK47 65.1536 1.431 5.1 4.5622 0.6824
PK48 65.8340 1.417 0.0 0.0361 0.6899
PK49 66.2150 1.410 0.0 0.0317 0.6941
PK50 67.8230 1.381 53.0 49.7673 0.7120
PK51 68.6188 1.367 271.1 257.9811 0.7211
PK52 69.0207 1.360 79.8 76.4439 0.7257
PK53 69.0485 1.359 48.2 46.1788 0.7260
PK54 69.7864 1.347 9.2 8.9005 0.7346
PK55 70.2767 1.338 2.7 2.6679 0.7403
PK56 71.3820 1.320 1.3 1.2983 0.7534
PK57 71.4828 1.319 0.0 0.0051 0.7546
PK58 71.9452 1.311 3.6 3.6152 0.7601
PK59 72.2097 1.307 6.2 6.2883 0.7633
PK60 72.3108 1.306 3.6 3.6532 0.7645
PK61 72.4289 1.304 3.6 3.6793 0.7659
PK62 72.5803 1.301 5.1 5.1235 0.7678
PK63 72.6678 1.300 0.4 0.3670 0.7688
PK64 73.1019 1.293 0.4 0.4090 0.7741
PK65 73.2025 1.292 2.0 2.0731 0.7754
PK66 73.6300 1.285 9.5 9.8072 0.7806
PK67 73.6829 1.285 16.0 16.4740 0.7813
PK68 73.8306 1.282 2.3 2.4152 0.7831
PK69 74.3890 1.274 40.7 42.4577 0.7901
PK70 75.0526 1.265 0.7 0.7620 0.7984
PK71 76.1303 1.249 0.3 0.3354 0.8121
PK72 77.4356 1.232 29.2 31.9566 0.8290
PK73 77.9095 1.225 99.2 109.3566 0.8352
PK74 78.2816 1.220 135.5 150.2225 0.8402
PK75 78.2896 1.220 44.3 49.0719 0.8403
PK76 78.5510 1.217 17.9 19.9366 0.8438
PK77 78.6001 1.216 45.5 50.7489 0.8444
PK78 79.3036 1.207 23.1 26.0113 0.8539
PK79 79.4505 1.205 15.7 17.6978 0.8558
PK80 80.1687 1.196 0.2 0.2177 0.8656
PK81 80.5216 1.192 0.5 0.6279 0.8705
PK82 80.8785 1.188 1.8 2.0372 0.8754
PK83 81.9069 1.175 1.3 1.5642 0.8898
PK84 81.9338 1.175 3.7 4.3664 0.8902
PK85 82.0666 1.173 0.6 0.7145 0.8920
PK86 82.7146 1.166 3.7 4.4386 0.9013
PK87 82.9085 1.164 8.1 9.7012 0.9040
PK88 82.9950 1.163 5.4 6.3953 0.9053
PK89 83.5840 1.156 31.0 37.3742 0.9138
PK90 83.6808 1.155 32.0 38.6666 0.9152
PK91 84.1436 1.150 6.4 7.7808 0.9219
PK92 85.0174 1.140 0.0 0.0036 0.9348
PK93 85.2268 1.138 0.0 0.0041 0.9380
PK94 86.5967 1.123 30.7 38.7914 0.9587
PK95 87.7107 1.112 50.2 64.6763 0.9759
PK96 87.7848 1.111 44.0 56.7812 0.9771
PK97 88.6196 1.103 14.2 18.6010 0.9902
PK98 88.8877 1.100 0.4 0.4610 0.9945
PK99 88.9839 1.099 0.0 0.0465 0.9960
PK100 89.4707 1.094 0.0 0.0289 1.0038
PK101 89.9307 1.090 0.2 0.2567 1.0113
PK102 90.1223 1.088 0.4 0.5342 1.0144
PK103 90.4648 1.085 0.5 0.7194 1.0200
PK104 90.6091 1.084 1.7 2.3353 1.0224
PK105 90.6470 1.083 2.7 3.6852 1.0230
PK106 90.8124 1.082 1.2 1.6034 1.0258
PK107 90.9463 1.080 0.7 0.9827 1.0280
PK108 91.2349 1.078 0.9 1.1696 1.0328
PK109 91.6635 1.074 1.4 1.8605 1.0399
PK110 91.7856 1.073 37.8 51.9303 1.0420
PK111 91.8910 1.072 7.4 10.1550 1.0438
PK112 92.3162 1.068 5.7 7.8694 1.0510
PK113 93.1669 1.060 3.1 4.4195 1.0656
PK114 93.4559 1.058 1.7 2.4211 1.0706
PK115 93.5395 1.057 2.0 2.8519 1.0721
PK116 94.0272 1.053 1.0 1.4841 1.0806
PK117 95.2071 1.043 13.7 19.9537 1.1017
PK118 95.7631 1.038 33.1 48.5112 1.1117
PK119 96.1315 1.035 41.4 61.1537 1.1185
PK120 96.6022 1.032 51.7 76.9233 1.1272
PK121 96.6911 1.031 71.8 106.9752 1.1288
PK122 96.8598 1.030 16.6 24.8582 1.1320
PK123 96.8848 1.029 77.0 115.0906 1.1324
PK124 97.5338 1.024 0.0 0.0205 1.1446
PK125 97.5551 1.024 5.1 7.7776 1.1450
PK126 98.6833 1.015 0.5 0.7273 1.1666
PK127 99.0088 1.013 0.0 0.0465 1.1730
PK128 99.1705 1.012 0.3 0.5166 1.1761
PK129 99.2679 1.011 0.1 0.1666 1.1780
PK130 99.7612 1.007 0.5 0.8360 1.1878
PK131 99.8699 1.007 0.5 0.7439 1.1899
PK132 100.0816 1.005 0.7 1.1683 1.1942
PK133 100.1628 1.004 0.2 0.3943 1.1958
PK134 100.2281 1.004 1.2 1.9656 1.1971
PK135 100.3965 1.003 0.1 0.0865 1.2005
PK136 100.9565 0.999 29.5 47.2020 1.2118
PK137 101.9930 0.991 12.1 19.7126 1.2332
PK138 102.1546 0.990 0.2 0.2640 1.2365
PK139 102.6604 0.987 3.6 5.9282 1.2472
PK140 103.0970 0.984 0.1 0.1519 1.2565
PK141 103.4540 0.981 0.2 0.4063 1.2641
PK142 103.6518 0.980 0.6 1.0451 1.2684
PK143 105.1774 0.970 14.0 23.9988 1.3020
PK144 105.9323 0.965 13.6 23.6017 1.3191
PK145 106.2093 0.963 14.0 24.4383 1.3254
PK146 106.3595 0.962 21.9 38.3572 1.3289
PK147 106.9287 0.959 5.2 9.1547 1.3421
PK148 107.0795 0.958 5.1 9.0791 1.3457
PK149 107.4605 0.955 0.2 0.3162 1.3546
PK150 107.9711 0.952 0.1 0.2691 1.3668
PK151 108.0488 0.952 0.1 0.1992 1.3687
PK152 109.2112 0.945 3.3 6.0650 1.3970
PK153 109.3130 0.944 1.5 2.7602 1.3996
PK154 109.5902 0.943 1.5 2.7436 1.4065
PK155 109.6301 0.942 0.3 0.5683 1.4075
PK156 109.7469 0.942 0.1 0.2493 1.4104
PK157 109.9513 0.941 1.0 1.8702 1.4155
PK158 110.4951 0.938 0.4 0.7756 1.4294
PK159 110.5228 0.937 22.8 43.0197 1.4301
PK160 110.6782 0.936 3.2 6.1397 1.4340
PK161 110.9324 0.935 2.7 5.0402 1.4406
PK162 110.9866 0.935 6.8 12.8464 1.4420
PK163 111.4043 0.932 12.1 23.2674 1.4529
PK164 111.7143 0.931 12.4 23.9089 1.4610
PK165 112.0024 0.929 1.0 1.9214 1.4687
PK166 112.1961 0.928 0.2 0.3916 1.4738
PK167 113.3260 0.922 0.1 0.2298 1.5045
PK168 113.4040 0.922 1.3 2.6355 1.5067
PK169 114.2128 0.917 13.9 28.0103 1.5293
PK170 114.6491 0.915 9.3 18.9769 1.5417
PK171 115.2247 0.912 32.8 67.3647 1.5583
PK172 115.4228 0.911 28.4 58.6862 1.5641
PK173 115.4373 0.911 38.9 80.3125 1.5645
PK174 115.7308 0.910 31.7 65.7138 1.5731
PK175 115.9200 0.909 0.2 0.4153 1.5787
PK176 116.1335 0.908 13.6 28.3855 1.5850
PK177 116.1582 0.908 8.7 18.1830 1.5858
PK178 116.6650 0.905 0.0 0.1040 1.6010
loop_
_refln_index_h
_refln_index_k
_refln_index_l
_pd_refln_peak_id
0 1 1 PK1
1 0 1 PK2
0 2 0 PK3
1 1 1 PK4
2 0 0 PK5
1 2 1 PK6
0 0 2 PK7
2 1 0 PK8
2 0 1 PK9
1 0 2 PK10
2 1 1 PK11
1 1 2 PK12
0 3 1 PK13
2 2 0 PK14
0 2 2 PK15
1 3 1 PK16
2 2 1 PK17
1 2 2 PK18
2 0 2 PK19
0 4 0 PK20
2 3 0 PK21
2 1 2 PK22
2 3 1 PK23
1 3 2 PK24
0 1 3 PK25
3 0 1 PK26
2 2 2 PK27
1 4 1 PK28
1 0 3 PK29
3 1 1 PK30
1 1 3 PK31
3 2 1 PK32
2 4 0 PK33
0 4 2 PK34
1 2 3 PK35
2 3 2 PK36
3 0 2 PK37
2 4 1 PK38
2 0 3 PK39
1 4 2 PK40
3 1 2 PK41
2 1 3 PK42
0 5 1 PK43
0 3 3 PK44
3 3 1 PK45
1 5 1 PK46
1 3 3 PK47
3 2 2 PK48
2 2 3 PK49
4 0 0 PK50
2 4 2 PK51
0 0 4 PK52
4 1 0 PK53
2 5 0 PK54
4 0 1 PK55
1 0 4 PK56
4 1 1 PK57
3 3 2 PK58
2 5 1 PK59
2 3 3 PK60
1 5 2 PK61
1 1 4 PK62
4 2 0 PK63
3 4 1 PK64
3 0 3 PK65
0 6 0 PK66
1 4 3 PK67
0 2 4 PK68
3 1 3 PK69
4 2 1 PK70
1 2 4 PK71
4 0 2 PK72
3 2 3 PK73
1 6 1 PK74
2 0 4 PK75
4 3 0 PK76
4 1 2 PK77
2 5 2 PK78
2 1 4 PK79
3 4 2 PK80
2 4 3 PK81
4 3 1 PK82
0 5 3 PK83
1 3 4 PK84
4 2 2 PK85
2 6 0 PK86
2 2 4 PK87
0 6 2 PK88
3 5 1 PK89
3 3 3 PK90
1 5 3 PK91
2 6 1 PK92
1 6 2 PK93
4 4 0 PK94
0 4 4 PK95
4 3 2 PK96
2 3 4 PK97
4 4 1 PK98
4 0 3 PK99
3 0 4 PK100
1 4 4 PK101
4 1 3 PK102
3 5 2 PK103
3 1 4 PK104
5 0 1 PK105
2 5 3 PK106
0 7 1 PK107
0 1 5 PK108
3 4 3 PK109
5 1 1 PK110
2 6 2 PK111
1 0 5 PK112
1 7 1 PK113
1 1 5 PK114
4 2 3 PK115
3 2 4 PK116
5 2 1 PK117
4 4 2 PK118
3 6 1 PK119
2 4 4 PK120
1 6 3 PK121
4 5 0 PK122
1 2 5 PK123
5 0 2 PK124
2 7 0 PK125
5 1 2 PK126
2 0 5 PK127
4 5 1 PK128
4 3 3 PK129
3 3 4 PK130
2 7 1 PK131
1 7 2 PK132
2 1 5 PK133
1 5 4 PK134
0 3 5 PK135
5 3 1 PK136
3 5 3 PK137
5 2 2 PK138
1 3 5 PK139
3 6 2 PK140
2 6 3 PK141
2 2 5 PK142
4 0 4 PK143
0 8 0 PK144
4 5 2 PK145
4 1 4 PK146
2 7 2 PK147
2 5 4 PK148
4 4 3 PK149
3 4 4 PK150
5 3 2 PK151
5 4 1 PK152
5 0 3 PK153
2 3 5 PK154
0 7 3 PK155
4 6 0 PK156
4 2 4 PK157
3 0 5 PK158
5 1 3 PK159
1 8 1 PK160
0 6 4 PK161
1 4 5 PK162
3 7 1 PK163
3 1 5 PK164
1 7 3 PK165
4 6 1 PK166
1 6 4 PK167
6 0 0 PK168
5 2 3 PK169
6 1 0 PK170
3 6 3 PK171
2 8 0 PK172
3 2 5 PK173
0 8 2 PK174
6 0 1 PK175
4 3 4 PK176
0 0 6 PK177
5 4 2 PK178
