#------------------------------------------------------------------------------
#$Date: 2019-08-01 07:03:08 +0300 (Thu, 01 Aug 2019) $
#$Revision: 217345 $
#$URL: file:///home/coder/svn-repositories/cod/cif/2/10/84/2108455.cif $
#------------------------------------------------------------------------------
#
# This file is available in the Crystallography Open Database (COD),
# http://www.crystallography.net/. The original data for this entry
# were provided by IUCr Journals, http://journals.iucr.org/.
#
# The file may be used within the scientific community so long as
# proper attribution is given to the journal article from which the
# data were obtained.
#
data_2108455
loop_
_publ_author_name
'Fukui, Hiroshi'
'Fujimoto, Manato'
'Akahama, Yuichi'
'Sano-Furukawa, Asami'
'Hattori, Takanori'
_publ_section_title
;
 Structure change of monoclinic ZrO~2~ baddeleyite involving softenings of
 bulk modulus and atom vibrations
;
_journal_issue                   4
_journal_name_full               'Acta Crystallographica Section B'
_journal_page_first
;
;
_journal_paper_doi               10.1107/S2052520619007923
_journal_volume                  75
_journal_year                    2019
_chemical_formula_sum            'O2 Zr'
_chemical_formula_weight         123.22
_space_group_IT_number           14
_space_group_name_Hall           '-P 2ybc'
_space_group_name_H-M_alt        'P 1 21/c 1'
_symmetry_cell_setting           monoclinic
_symmetry_space_group_name_Hall  '-P 2ybc'
_symmetry_space_group_name_H-M   'P 1 21/c 1'
_audit_creation_date             2019-05-07T13:22
_audit_creation_method           'from EXP file using GSAS2CIF'
_audit_update_record
' 2019-05-07T13:22  Initial CIF as created by GSAS2CIF'
_cell_angle_alpha                90.0
_cell_angle_beta                 98.441(6)
_cell_angle_gamma                90.0
_cell_formula_units_Z            4
_cell_length_a                   5.07006(32)
_cell_length_b                   5.2095(4)
_cell_length_c                   5.1975(4)
_cell_volume                     135.792(17)
_computing_structure_refinement  GSAS
_diffrn_radiation_probe          neutron
_exptl_absorpt_correction_T_max  1.00000
_exptl_absorpt_correction_T_min  1.00000
_exptl_absorpt_process_details
;   GSAS Absorption/surface roughness correction: function number 0
 No correction is applied.
;
_pd_block_id                     2019-05-07T13:22|34883|FUKUI,_Hiroshi|PLANET
_pd_calc_method                  'Rietveld Refinement'
_pd_instr_location               ' ?'
_pd_meas_2theta_fixed            90.00
_pd_meas_number_of_points        3712
_pd_phase_name
'from Z:/2017A/Fukui/52p0ton/gsas34855/34855.EXP'
_pd_proc_info_datetime           2019-05-07T13:22:51
_pd_proc_info_excluded_regions   ' ?'
_pd_proc_ls_background_function
;   GSAS Background function number 1 with 16 terms.
 Shifted Chebyshev function of 1st kind
      1:   0.231857     2:   4.529640E-02 3:  -1.051210E-02 4:  -2.065130E-02
      5:  -1.576760E-02 6:  -3.858070E-04 7:  -7.106330E-03 8:   6.184440E-03
      9:   5.817850E-0310:   1.984060E-0311:  -1.385880E-0412:   5.862530E-04
     13:   8.259240E-0414:  -1.749620E-0315:  -4.510430E-0416:   2.472780E-03
;
_pd_proc_ls_peak_cutoff          0.00100
_pd_proc_ls_profile_function
;
 TOF Profile function number 3 with  21 terms
 Profile coefficients for exponential pseudovoigt
  convolution Von Dreele, 1990 (unpublished)
 #1 (alp  ) = ******** #2 (bet-0) = 0.015258 #3 (bet-1) = 0.731691
 #4 (sig-0) =      2.8 #5 (sig-1) =    437.2 #6 (sig-2) =    125.7
 #7 (gam-0) =     0.00 #8 (gam-1) =    38.58 #9 (gam-2) =     0.93
 #10(gsf  ) =     0.00 #11(g1ec ) =     0.00 #12(g2ec ) =     0.00
 #13(rstr ) =    0.000 #14(rsta ) =    0.000 #15(rsca ) =    0.000
 #16(L11)   =    0.000 #17(L22)   =    0.000 #18(L33)   =    0.000
 #19(L12)   =    0.000 #20(L13)   =    0.000 #21(L23)   =    0.000
 Peak tails are ignored  where the intensity is below 0.0010 times the peak
   Aniso. broadening axis   0.0   0.0   1.0
;
_pd_proc_ls_prof_R_factor        0.0214
_pd_proc_ls_prof_wR_expected     0.0164
_pd_proc_ls_prof_wR_factor       0.0233
_pd_proc_number_of_points        3712
_pd_spec_mounting                ' ?'
_refine_ls_goodness_of_fit_all   1.43
_refine_ls_matrix_type           full
_refine_ls_number_parameters     33
_refine_ls_number_restraints     0
_refine_ls_R_Fsqd_factor         0.07915
_refine_ls_shift/su_max          0.02
_refine_ls_shift/su_mean         0.00
_reflns_d_resolution_high        0.701
_reflns_d_resolution_low         3.115
_reflns_limit_h_max              7
_reflns_limit_h_min              0
_reflns_limit_k_max              8
_reflns_limit_k_min              0
_reflns_limit_l_max              7
_reflns_limit_l_min              -8
_reflns_number_total             416
_cod_data_source_file            xk5055sup1.cif
_cod_data_source_block           34883
_cod_depositor_comments
;
The following automatic conversions were performed:

'_geom_bond_publ_flag' value 'N' changed to 'n' according to
/home/data/users/saulius/crontab/automatic-downloads/rss-feeds/IUCr/lib/dictionaries/cif_core.dic
dictionary named 'cif_core.dic' version 2.4.2 from 2011-04-26 (21
time).

'_geom_angle_publ_flag' value 'N' changed to 'n' according to
/home/data/users/saulius/crontab/automatic-downloads/rss-feeds/IUCr/lib/dictionaries/cif_core.dic
dictionary named 'cif_core.dic' version 2.4.2 from 2011-04-26 (30
times).

Automatic conversion script
Id: cif_fix_values 4973 2017-02-22 13:04:09Z antanas 
;
_cod_original_cell_volume        135.792(11)
_cod_database_code               2108455
_gsas_exptl_extinct_corr_t_min   1.00000
_gsas_exptl_extinct_corr_t_max   1.00000
loop_
_symmetry_equiv_pos_site_id
_symmetry_equiv_pos_as_xyz
1 +x,+y,+z
2 -x,+y+1/2,-z+1/2
-1 -x,-y,-z
-2 +x,-y+1/2,+z+1/2
loop_
_atom_site_type_symbol
_atom_site_label
_atom_site_fract_x
_atom_site_fract_y
_atom_site_fract_z
_atom_site_occupancy
_atom_site_thermal_displace_type
_atom_site_U_iso_or_equiv
_atom_site_symmetry_multiplicity
Zr Zr 0.2752(6) 0.0372(5) 0.2091(5) 1.0 Uiso 0.00204 4
O O1 0.0819(7) 0.3562(6) 0.3208(7) 1.0 Uiso 0.00363 4
O O2 0.4441(7) 0.7584(6) 0.4893(7) 1.0 Uiso 0.00101 4
loop_
_atom_type_symbol
_atom_type_number_in_cell
_atom_type_scat_length_neutron
_atom_type_scat_source
Zr 4.0 0.7160 International_Tables_Vol_C
O 8.0 0.5803 International_Tables_Vol_C
loop_
_geom_angle_atom_site_label_1
_geom_angle_atom_site_label_2
_geom_angle_atom_site_label_3
_geom_angle
_geom_angle_site_symmetry_1
_geom_angle_site_symmetry_3
_geom_angle_publ_flag
O1 Zr O1 86.56(13) 1_555 2_545 n
O1 Zr O1 83.54(16) 1_555 -2_565 n
O1 Zr O2 121.01(20) 1_555 1_545 n
O1 Zr O2 94.41(20) 1_555 2_645 n
O1 Zr O2 72.33(17) 1_555 -1_666 n
O1 Zr O2 164.77(21) 1_555 -2_565 n
O1 Zr O1 76.85(17) 2_545 -2_565 n
O1 Zr O2 90.00(16) 2_545 1_545 n
O1 Zr O2 147.05(17) 2_545 2_645 n
O1 Zr O2 138.36(18) 2_545 -1_666 n
O1 Zr O2 92.68(18) 2_545 -2_565 n
O1 Zr O2 151.75(16) -2_565 1_545 n
O1 Zr O2 70.56(15) -2_565 2_645 n
O1 Zr O2 133.10(15) -2_565 -1_666 n
O1 Zr O2 81.47(15) -2_565 -2_565 n
O2 Zr O2 116.84(17) 1_545 2_645 n
O2 Zr O2 72.28(17) 1_545 -1_666 n
O2 Zr O2 74.18(12) 1_545 -2_565 n
O2 Zr O2 71.90(10) 2_645 -1_666 n
O2 Zr O2 78.03(13) 2_645 -2_565 n
O2 Zr O2 116.73(15) -1_666 -2_565 n
Zr O1 Zr 144.27(20) 1_555 2_555 n
Zr O1 Zr 107.39(19) 1_555 -2_555 n
Zr O1 Zr 103.15(17) 2_555 -2_555 n
Zr O2 Zr 104.93(20) 1_565 2_655 n
Zr O2 Zr 107.72(17) 1_565 -1_666 n
Zr O2 Zr 133.64(24) 1_565 -2_555 n
Zr O2 Zr 100.94(15) 2_655 -1_666 n
Zr O2 Zr 101.97(13) 2_655 -2_555 n
Zr O2 Zr 103.27(15) -1_666 -2_555 n
loop_
_geom_bond_atom_site_label_1
_geom_bond_atom_site_label_2
_geom_bond_distance
_geom_bond_site_symmetry_2
_geom_bond_publ_flag
Zr Zr 3.446(4) 2_645 n
Zr Zr 3.446(4) 2_655 n
Zr Zr 3.299(6) -1_555 n
Zr Zr 3.394(5) -1_655 n
Zr Zr 3.531(6) -1_656 n
Zr Zr 3.4159(32) -2_554 n
Zr Zr 3.4159(32) -2_555 n
Zr O1 2.056(5) 1_555 n
Zr O1 2.027(4) 2_545 n
Zr O1 2.182(5) -2_554 n
Zr O2 2.144(4) 1_545 n
Zr O2 2.201(4) 2_645 n
Zr O2 2.228(4) -1_666 n
Zr O2 2.167(5) -2_554 n
O1 Zr 2.056(5) 1_555 n
O1 Zr 2.027(4) 2_555 n
O1 Zr 2.182(5) -2_555 n
O2 Zr 2.144(4) 1_565 n
O2 Zr 2.201(4) 2_655 n
O2 Zr 2.228(4) -1_666 n
O2 Zr 2.167(5) -2_555 n
loop_
_pd_meas_time_of_flight
_pd_proc_d_spacing
_pd_meas_intensity_total
_pd_proc_ls_weight
_pd_proc_intensity_bkg_calc
_pd_calc_intensity_total
2855.00 . 0.1961(27) . . .
2865.00 . 0.1946(27) . . .
2875.00 . 0.2012(27) . . .
2885.00 . 0.1979(27) . . .
2895.00 . 0.1945(26) . . .
2905.00 . 0.1920(26) . . .
2915.00 . 0.1908(26) . . .
2925.00 . 0.1910(26) . . .
2935.00 . 0.1871(26) . . .
2945.00 . 0.1907(26) . . .
2955.00 . 0.1920(26) . . .
2965.00 . 0.1861(25) . . .
2975.00 . 0.1851(25) . . .
2985.00 . 0.1865(25) . . .
2995.00 . 0.1878(25) . . .
3005.00 . 0.1883(25) . . .
3015.00 . 0.1860(25) . . .
3025.00 . 0.1843(25) . . .
3035.00 . 0.1821(24) . . .
3045.00 . 0.1836(24) . . .
3055.00 . 0.1874(24) . . .
3065.00 . 0.1849(24) . . .
3075.00 . 0.1851(24) . . .
3085.00 . 0.1849(24) . . .
3095.00 . 0.1803(24) . . .
3105.00 . 0.1760(24) . . .
3115.00 . 0.1796(24) . . .
3125.00 . 0.1910(24) . . .
3135.00 . 0.1874(24) . . .
3145.00 . 0.1839(24) . . .
3155.00 . 0.1906(24) . . .
3165.00 . 0.1859(23) . . .
3175.00 . 0.1834(23) . . .
3185.00 . 0.1802(23) . . .
3195.00 . 0.1792(23) . . .
3205.00 . 0.1827(23) . . .
3215.00 . 0.1785(23) . . .
3225.00 . 0.1787(23) . . .
3235.00 . 0.1794(23) . . .
3245.00 . 0.1777(23) . . .
3255.00 . 0.1789(23) . . .
3265.00 . 0.1768(23) . . .
3275.00 . 0.1748(22) . . .
3285.00 . 0.1773(22) . . .
3295.00 . 0.1826(23) . . .
3305.00 . 0.1838(22) . . .
3315.00 . 0.1800(22) . . .
3325.00 . 0.1815(22) . . .
3335.00 . 0.1778(22) . . .
3345.00 . 0.1774(22) . . .
3355.00 . 0.1830(22) . . .
3365.00 . 0.1807(22) . . .
3375.00 . 0.1775(22) . . .
3385.00 . 0.1747(22) . . .
3395.00 . 0.1721(21) . . .
3405.00 . 0.1732(21) . . .
3415.00 . 0.1691(21) . . .
3425.00 . 0.1699(21) . . .
3435.00 . 0.1687(21) . . .
3445.00 . 0.1671(21) . . .
3455.00 . 0.1626(21) . . .
3465.00 . 0.1611(21) . . .
3475.00 . 0.1597(20) . . .
3485.00 . 0.1657(21) . . .
3495.00 . 0.1624(20) . . .
3505.00 . 0.1651(20) . . .
3515.0 . 0.1674(20) . . .
3525.0 . 0.1666(20) . . .
3535.0 . 0.1649(20) . . .
3545.0 . 0.1590(20) . . .
3555.0 . 0.1676(20) . . .
3565.0 . 0.1722(20) . . .
3575.0 . 0.1703(20) . . .
3585.0 . 0.1666(20) . . .
3595.0 . 0.1676(20) . . .
3605.0 . 0.1643(20) . . .
3615.0 . 0.1659(20) . . .
3625.0 . 0.1650(20) . . .
3635.0 . 0.1624(20) . . .
3645.0 . 0.1675(20) . . .
3655.0 . 0.1658(20) . . .
3665.0 . 0.1720(20) . . .
3675.0 . 0.1710(20) . . .
3685.0 . 0.1685(20) . . .
3695.0 . 0.1670(20) . . .
3705.0 . 0.1690(20) . . .
3715.0 . 0.1703(20) . . .
3725.0 . 0.1683(20) . . .
3735.0 . 0.1709(20) . . .
3745.0 . 0.1752(20) . . .
3755.0 . 0.1688(19) . . .
3765.0 . 0.1755(20) . . .
3775.0 . 0.1745(20) . . .
3785.0 . 0.1718(19) . . .
3795.0 . 0.1718(19) . . .
3805.0 . 0.1688(19) . . .
3815.0 . 0.1718(19) . . .
3825.0 . 0.1745(19) . . .
3835.0 . 0.1741(19) . . .
3845.0 . 0.1770(19) . . .
3855.0 . 0.1730(19) . . .
3865.0 . 0.1730(19) . . .
3875.0 . 0.1737(19) . . .
3885.0 . 0.1713(19) . . .
3895.0 . 0.1696(19) . . .
3905.0 . 0.1712(19) . . .
3915.0 . 0.1719(19) . . .
3925.0 . 0.1711(19) . . .
3935.0 . 0.1732(19) . . .
3945.0 . 0.1735(19) . . .
3955.0 . 0.1693(19) . . .
3965.0 . 0.1740(19) . . .
3975.0 . 0.1701(19) . . .
3985.0 . 0.1694(18) . . .
3995.0 . 0.1710(19) . . .
4005.0 . 0.1704(19) . . .
4015.0 . 0.1688(18) . . .
4025.0 . 0.1649(18) . . .
4035.0 . 0.1687(18) . . .
4045.0 . 0.1674(18) . . .
4055.0 . 0.1715(18) . . .
4065.0 . 0.1702(18) . . .
4075.0 . 0.1719(18) . . .
4085.0 . 0.1690(18) . . .
4095.0 . 0.1700(18) . . .
4105.0 . 0.1669(18) . . .
4115.0 . 0.1673(18) . . .
4125.0 . 0.1696(18) . . .
4135.0 . 0.1698(18) . . .
4145.0 . 0.1710(18) . . .
4155.0 . 0.1707(18) . . .
4165.0 . 0.1671(18) . . .
4175.0 . 0.1702(18) . . .
4185.0 . 0.1699(18) . . .
4195.0 . 0.1718(18) . . .
4205.0 . 0.1735(18) . . .
4215.0 . 0.1755(18) . . .
4225.0 . 0.1692(18) . . .
4235.0 . 0.1691(18) . . .
4245.0 . 0.1687(18) . . .
4255.0 . 0.1688(18) . . .
4265.0 . 0.1703(18) . . .
4275.0 . 0.1712(18) . . .
4285.0 . 0.1742(18) . . .
4295.0 . 0.1756(18) . . .
4305.0 . 0.1752(18) . . .
4315.0 . 0.1704(18) . . .
4325.0 . 0.1742(18) . . .
4335.0 . 0.1697(18) . . .
4345.0 . 0.1754(18) . . .
4355.0 . 0.1720(18) . . .
4365.0 . 0.1720(18) . . .
4375.0 . 0.1765(18) . . .
4385.0 . 0.1742(18) . . .
4395.0 . 0.1748(18) . . .
4405.0 . 0.1739(18) . . .
4415.0 . 0.1802(19) . . .
4425.0 . 0.1794(19) . . .
4435.0 . 0.1790(19) . . .
4445.0 . 0.1814(19) . . .
4455.0 . 0.1838(19) . . .
4465.0 . 0.1819(19) . . .
4475.0 . 0.1817(19) . . .
4485.0 . 0.1765(18) . . .
4495.0 . 0.1812(19) . . .
4505.0 . 0.1789(19) . . .
4515.0 . 0.1826(19) . . .
4525.0 . 0.1819(19) . . .
4535.0 . 0.1878(19) . . .
4545.0 . 0.1884(19) . . .
4555.0 . 0.1903(19) . . .
4565.0 . 0.1852(19) . . .
4575.0 . 0.1828(19) . . .
4585.0 . 0.1863(19) . . .
4595.0 . 0.1816(19) . . .
4605.0 . 0.1779(19) . . .
4615.0 . 0.1755(18) . . .
4625.0 . 0.1813(19) . . .
4635.0 . 0.1772(19) . . .
4645.0 . 0.1823(19) . . .
4655.0 . 0.1821(19) . . .
4665.0 . 0.1805(19) . . .
4675.0 . 0.1761(19) . . .
4685.0 . 0.1798(19) . . .
4695.0 . 0.1828(19) . . .
4705.0 . 0.1848(19) . . .
4715.0 . 0.1793(19) . . .
4725.0 . 0.1766(19) . . .
4735.0 . 0.1758(19) . . .
4745.0 . 0.1736(19) . . .
4755.0 . 0.1754(19) . . .
4765.0 . 0.1797(19) . . .
4775.0 . 0.1757(19) . . .
4785.0 . 0.1793(19) . . .
4795.0 . 0.1821(19) . . .
4805.0 . 0.1876(19) . . .
4815.0 . 0.1869(19) . . .
4825.0 . 0.1814(19) . . .
4835.0 . 0.1836(19) . . .
4845.0 . 0.1785(19) . . .
4855.0 . 0.1789(19) . . .
4865.0 . 0.1785(19) . . .
4875.0 . 0.1805(19) . . .
4885.0 . 0.1820(19) . . .
4895.0 . 0.1837(19) . . .
4905.0 . 0.1819(19) . . .
4915.0 . 0.1844(19) . . .
4925.0 . 0.1821(19) . . .
4935.0 . 0.1835(19) . . .
4945.0 . 0.1818(19) . . .
4955.0 . 0.1839(20) . . .
4965.0 . 0.1862(20) . . .
4975.0 . 0.1860(20) . . .
4985.0 . 0.1803(19) . . .
4995.0 . 0.1766(19) . . .
5005.0 . 0.1790(19) . . .
5015.0 . 0.1764(19) . . .
5025.0 . 0.1778(19) . . .
5035.0 . 0.1743(19) . . .
5045.0 . 0.1744(19) . . .
5055.0 . 0.1719(19) . . .
5065.0 . 0.1773(20) . . .
5075.0 . 0.1783(20) . . .
5085.0 . 0.1772(20) . . .
5095.0 . 0.1767(20) . . .
5105.0 . 0.1742(20) . . .
5115.0 . 0.1760(20) . . .
5125.0 . 0.1777(20) . . .
5135.0 . 0.1782(20) . . .
5145.0 . 0.1753(20) . . .
5155.0 . 0.1807(20) . . .
5165.0 . 0.1812(20) . . .
5175.0 . 0.1797(20) . . .
5185.0 . 0.1782(20) . . .
5195.0 . 0.1761(20) . . .
5205.0 . 0.1770(20) . . .
5215.0 . 0.1741(20) . . .
5225.0 . 0.1709(20) . . .
5235.0 . 0.1722(20) . . .
5245.0 . 0.1743(20) . . .
5255.0 . 0.1763(20) . . .
5265.0 . 0.1765(20) . . .
5275.0 . 0.1767(20) . . .
5285.0 . 0.1783(20) . . .
5295.0 . 0.1784(20) . . .
5305.0 . 0.1789(20) . . .
5315.0 . 0.1737(20) . . .
5325.0 . 0.1801(21) . . .
5335.0 . 0.1781(21) . . .
5345.0 . 0.1694(20) . . .
5355.0 . 0.1720(20) . . .
5365.0 . 0.1699(20) . . .
5375.0 . 0.1723(20) . . .
5385.0 . 0.1695(20) . . .
5395.0 . 0.1796(21) . . .
5405.0 . 0.1747(21) . . .
5415.0 . 0.1724(21) . . .
5425.0 . 0.1723(21) . . .
5435.0 . 0.1761(21) . . .
5445.0 . 0.1725(21) . . .
5455.0 . 0.1715(21) . . .
5465.0 . 0.1703(21) . . .
5475.0 . 0.1714(21) . . .
5485.0 . 0.1688(21) . . .
5495.0 . 0.1666(21) . . .
5505.0 . 0.1683(21) . . .
5515.0 . 0.1695(21) . . .
5525.0 . 0.1669(21) . . .
5535.0 . 0.1680(21) . . .
5545.0 . 0.1710(21) . . .
5555.0 . 0.1762(21) . . .
5565.0 . 0.1814(21) . . .
5575.0 . 0.1843(22) . . .
5585.0 . 0.1895(22) . . .
5595.0 . 0.1881(22) . . .
5605.0 . 0.1840(22) . . .
5615.0 . 0.1878(22) . . .
5625.0 . 0.1840(22) . . .
5635.0 . 0.1859(22) . . .
5645.0 . 0.1866(22) . . .
5655.0 . 0.1869(22) . . .
5665.0 . 0.1864(22) . . .
5675.0 . 0.1845(22) . . .
5685.0 . 0.1822(22) . . .
5695.0 . 0.1779(22) . . .
5705.0 . 0.1797(22) . . .
5715.0 . 0.1808(22) . . .
5725.0 . 0.1842(22) . . .
5735.0 . 0.1829(22) . . .
5745.0 . 0.1881(22) . . .
5755.0 . 0.1835(22) . . .
5765.0 . 0.1855(22) . . .
5775.0 . 0.1818(22) . . .
5785.0 . 0.1790(22) . . .
5795.0 . 0.1821(22) . . .
5805.0 . 0.1853(23) . . .
5815.0 . 0.1799(22) . . .
5825.0 . 0.1759(22) . . .
5835.0 . 0.1746(22) . . .
5845.0 . 0.1758(22) . . .
5855.0 . 0.1748(22) . . .
5865.0 . 0.1822(23) . . .
5875.0 . 0.1851(23) . . .
5885.0 . 0.1902(23) . . .
5895.0 . 0.1937(23) . . .
5905.0 . 0.1930(23) . . .
5915.0 . 0.1970(23) . . .
5925.0 . 0.1998(24) . . .
5935.0 . 0.1985(24) . . .
5945.0 . 0.2024(24) . . .
5955.0 . 0.1968(24) . . .
5965.0 . 0.1975(24) . . .
5975.0 . 0.1953(24) . . .
5985.0 . 0.1913(23) . . .
5995.0 . 0.1856(23) . . .
6005.0 . 0.1885(23) . . .
6015.0 . 0.1873(23) . . .
6025.0 . 0.1816(23) . . .
6035.0 . 0.1839(23) . . .
6045.0 . 0.1856(23) . . .
6055.0 . 0.1865(23) . . .
6065.0 . 0.1918(24) . . .
6075.0 . 0.1930(24) . . .
6085.0 . 0.2007(24) . . .
6095.0 . 0.1998(24) . . .
6105.0 . 0.2067(25) . . .
6115.0 . 0.2086(25) . . .
6125.0 . 0.2050(25) . . .
6135.0 . 0.2117(25) . . .
6145.0 . 0.2079(25) . . .
6155.0 . 0.1964(24) . . .
6165.0 . 0.1965(24) . . .
6175.0 . 0.1926(24) . . .
6185.0 . 0.1926(24) . . .
6195.0 . 0.1967(25) . . .
6205.0 . 0.2017(25) . . .
6215.0 . 0.2054(25) . . .
6225.0 . 0.2083(25) . . .
6235.0 . 0.2102(25) . . .
6245.0 . 0.2053(25) . . .
6255.0 . 0.2041(25) . . .
6265.0 . 0.1971(25) . . .
6275.0 . 0.2015(25) . . .
6285.0 . 0.2053(25) . . .
6295.0 . 0.1993(25) . . .
6305.0 . 0.1962(25) . . .
6315.0 . 0.1929(25) . . .
6325.0 . 0.1912(25) . . .
6335.0 . 0.1911(25) . . .
6345.0 . 0.1959(25) . . .
6355.0 . 0.1958(25) . . .
6365.0 . 0.1930(25) . . .
6375.0 . 0.2018(25) . . .
6385.0 . 0.2001(25) . . .
6395.0 . 0.2067(26) . . .
6405.0 . 0.2025(26) . . .
6415.0 . 0.2039(26) . . .
6425.0 . 0.2030(26) . . .
6435.0 . 0.2025(26) . . .
6445.0 . 0.1995(26) . . .
6455.0 . 0.2009(26) . . .
6465.0 . 0.1962(26) . . .
6475.0 . 0.1913(25) . . .
6485.0 . 0.1963(26) . . .
6495.0 . 0.1918(25) . . .
6505.0 . 0.1930(26) . . .
6515.0 . 0.1958(26) . . .
6525.0 . 0.1954(26) . . .
6535.0 . 0.1958(26) . . .
6545.0 . 0.1963(26) . . .
6555.0 . 0.2048(26) . . .
6565.0 . 0.2090(27) . . .
6575.0 . 0.2061(26) . . .
6585.0 . 0.2001(26) . . .
6595.0 0.69726 0.2050(26) 0.0 0.16948 .
6605.0 0.69832 0.1960(26) 0.0 0.17014 .
6615.0 0.69938 0.1995(26) 146116. 0.17079 0.19562
6625.0 0.70044 0.1972(26) 146959. 0.17141 0.19531
6635.0 0.70150 0.1948(26) 148331. 0.17201 0.19740
6645.0 0.70256 0.2043(27) 142280. 0.17260 0.20035
6655.0 0.70362 0.2029(26) 142432. 0.17316 0.20233
6665.0 0.70467 0.2023(26) 142684. 0.17371 0.20282
6675.0 0.70573 0.1995(26) 144013. 0.17424 0.20269
6685.0 0.70679 0.2026(27) 141694. 0.17475 0.20313
6695.0 0.70785 0.2073(27) 138762. 0.17525 0.20461
6705.0 0.70891 0.2069(27) 138750. 0.17573 0.20641
6715.0 0.70997 0.2086(27) 137416. 0.17620 0.20722
6725.0 0.71102 0.2107(27) 136107. 0.17665 0.20652
6735.0 0.71208 0.2096(27) 136451. 0.17709 0.20498
6745.0 0.71314 0.2005(27) 141263. 0.17752 0.20336
6755.0 0.71420 0.2023(27) 139970. 0.17793 0.20161
6765.0 0.71526 0.2008(27) 140163. 0.17833 0.19982
6775.0 0.71632 0.2024(27) 138778. 0.17872 0.19884
6785.0 0.71738 0.2011(27) 139157. 0.17909 0.19960
6795.0 0.71843 0.2054(27) 136272. 0.17946 0.20222
6805.0 0.71949 0.2096(27) 133497. 0.17982 0.20571
6815.0 0.72055 0.2071(27) 134489. 0.18016 0.20802
6825.0 0.72161 0.2159(28) 129951. 0.18050 0.20781
6835.0 0.72267 0.2070(27) 134417. 0.18083 0.20592
6845.0 0.72373 0.2062(27) 134600. 0.18114 0.20393
6855.0 0.72479 0.2051(27) 134857. 0.18145 0.20266
6865.0 0.72584 0.2027(27) 135712. 0.18175 0.20199
6875.0 0.72690 0.1985(27) 138149. 0.18205 0.20128
6885.0 0.72796 0.1959(27) 139429. 0.18233 0.20056
6895.0 0.72902 0.2037(27) 134608. 0.18261 0.20068
6905.0 0.73008 0.1991(27) 136972. 0.18288 0.20187
6915.0 0.73114 0.2025(27) 134832. 0.18315 0.20330
6925.0 0.73220 0.2019(27) 134855. 0.18341 0.20374
6935.0 0.73325 0.1987(27) 136455. 0.18366 0.20322
6945.0 0.73431 0.1967(27) 137366. 0.18391 0.20257
6955.0 0.73537 0.1968(27) 137041. 0.18415 0.20177
6965.0 0.73643 0.2008(27) 134549. 0.18439 0.20023
6975.0 0.73749 0.1974(27) 136191. 0.18463 0.19824
6985.0 0.73855 0.1945(27) 137545. 0.18485 0.19683
6995.0 0.73960 0.1946(27) 137195. 0.18508 0.19682
7005.0 0.74066 0.1947(27) 137049. 0.18530 0.19863
7015.0 0.74172 0.1976(27) 135575. 0.18551 0.20214
7025.0 0.74278 0.2011(27) 133139. 0.18573 0.20646
7035.0 0.74384 0.2016(27) 132810. 0.18593 0.20990
7045.0 0.74490 0.2037(28) 131340. 0.18614 0.21064
7055.0 0.74596 0.2005(27) 132987. 0.18634 0.20881
7065.0 0.74701 0.2029(28) 131427. 0.18654 0.20645
7075.0 0.74807 0.1979(27) 133960. 0.18674 0.20543
7085.0 0.74913 0.2054(28) 129689. 0.18693 0.20645
7095.0 0.75019 0.2094(28) 127226. 0.18712 0.20923
7105.0 0.75125 0.2141(28) 124870. 0.18731 0.21324
7115.0 0.75231 0.2172(28) 123155. 0.18750 0.21744
7125.0 0.75337 0.2206(29) 121339. 0.18769 0.21991
7135.0 0.75442 0.2189(29) 121888. 0.18787 0.21910
7145.0 0.75548 0.2163(29) 122897. 0.18805 0.21522
7155.0 0.75654 0.2046(28) 128754. 0.18823 0.21039
7165.0 0.75760 0.2101(28) 125686. 0.18841 0.20662
7175.0 0.75866 0.1996(28) 130919. 0.18859 0.20481
7185.0 0.75972 0.2035(28) 128445. 0.18876 0.20482
7195.0 0.76078 0.2027(28) 128781. 0.18894 0.20584
7205.0 0.76183 0.2037(28) 127862. 0.18911 0.20669
7215.0 0.76289 0.2095(28) 124613. 0.18929 0.20679
7225.0 0.76395 0.2057(28) 126126. 0.18946 0.20656
7235.0 0.76501 0.2021(28) 127822. 0.18963 0.20675
7245.0 0.76607 0.2076(28) 124604. 0.18980 0.20749
7255.0 0.76713 0.2036(28) 126406. 0.18997 0.20852
7265.0 0.76819 0.2096(28) 123173. 0.19014 0.20949
7275.0 0.76924 0.2104(29) 122495. 0.19031 0.20992
7285.0 0.77030 0.2148(29) 120038. 0.19048 0.20968
7295.0 0.77136 0.2104(29) 121905. 0.19064 0.20897
7305.0 0.77242 0.2041(28) 124923. 0.19081 0.20809
7315.0 0.77348 0.2072(28) 123355. 0.19098 0.20732
7325.0 0.77454 0.2063(28) 123632. 0.19115 0.20659
7335.0 0.77560 0.2068(28) 123184. 0.19131 0.20569
7345.0 0.77665 0.2033(28) 124927. 0.19148 0.20445
7355.0 0.77771 0.1984(28) 127484. 0.19165 0.20291
7365.0 0.77877 0.2005(28) 125939. 0.19181 0.20143
7375.0 0.77983 0.1953(28) 128616. 0.19198 0.20039
7385.0 0.78089 0.2046(28) 123262. 0.19214 0.20005
7395.0 0.78195 0.1998(28) 125661. 0.19231 0.20051
7405.0 0.78300 0.2082(29) 120838. 0.19248 0.20174
7415.0 0.78406 0.2065(29) 121465. 0.19264 0.20364
7425.0 0.78512 0.2084(29) 120106. 0.19281 0.20589
7435.0 0.78618 0.2073(29) 120540. 0.19297 0.20819
7445.0 0.78724 0.2065(29) 121034. 0.19314 0.21040
7455.0 0.78830 0.2124(29) 117909. 0.19331 0.21235
7465.0 0.78936 0.2094(29) 119056. 0.19347 0.21345
7475.0 0.79041 0.2169(29) 115328. 0.19364 0.21341
7485.0 0.79147 0.2128(29) 117165. 0.19381 0.21270
7495.0 0.79253 0.2137(29) 116393. 0.19397 0.21171
7505.0 0.79359 0.2138(29) 116113. 0.19414 0.21075
7515.0 0.79465 0.2094(29) 118020. 0.19431 0.21037
7525.0 0.79571 0.2091(29) 118082. 0.19447 0.21088
7535.0 0.79677 0.2151(30) 114862. 0.19464 0.21202
7545.0 0.79782 0.2188(30) 113016. 0.19481 0.21329
7555.0 0.79888 0.2202(30) 112134. 0.19498 0.21459
7565.0 0.79994 0.2213(30) 111193. 0.19514 0.21634
7575.0 0.80100 0.2236(30) 109696. 0.19531 0.21892
7585.0 0.80206 0.2238(30) 109259. 0.19548 0.22237
7595.0 0.80312 0.2293(31) 106833. 0.19564 0.22616
7605.0 0.80418 0.2376(31) 103536. 0.19581 0.22941
7615.0 0.80523 0.2347(31) 104449. 0.19598 0.23166
7625.0 0.80629 0.2441(32) 100764. 0.19614 0.23351
7635.0 0.80735 0.2480(32) 99148. 0.19631 0.23585
7645.0 0.80841 0.2418(31) 101095. 0.19648 0.23862
7655.0 0.80947 0.2479(32) 98694. 0.19664 0.24119
7665.0 0.81053 0.2477(32) 98641. 0.19681 0.24274
7675.0 0.81159 0.2412(32) 100765. 0.19698 0.24243
7685.0 0.81264 0.2418(32) 100462. 0.19714 0.24011
7695.0 0.81370 0.2386(31) 101556. 0.19731 0.23661
7705.0 0.81476 0.2323(31) 103576. 0.19748 0.23306
7715.0 0.81582 0.2350(31) 102351. 0.19764 0.23040
7725.0 0.81688 0.2311(31) 103670. 0.19781 0.22911
7735.0 0.81794 0.2414(32) 99610. 0.19797 0.22951
7745.0 0.81900 0.2346(31) 101911. 0.19813 0.23171
7755.0 0.82005 0.2356(31) 101441. 0.19830 0.23512
7765.0 0.82111 0.2417(32) 99237. 0.19846 0.23810
7775.0 0.82217 0.2347(31) 101853. 0.19863 0.23886
7785.0 0.82323 0.2375(32) 100723. 0.19879 0.23714
7795.0 0.82429 0.2365(31) 100840. 0.19895 0.23374
7805.0 0.82535 0.2277(31) 104146. 0.19911 0.22926
7815.0 0.82641 0.2290(31) 103439. 0.19927 0.22443
7825.0 0.82746 0.2200(31) 106800. 0.19943 0.22039
7835.0 0.82852 0.2176(30) 107573. 0.19959 0.21799
7845.0 0.82958 0.2203(31) 106318. 0.19975 0.21755
7855.0 0.83064 0.2256(31) 104107. 0.19991 0.21890
7865.0 0.83170 0.2242(31) 104287. 0.20007 0.22154
7875.0 0.83276 0.2323(31) 100985. 0.20022 0.22477
7885.0 0.83382 0.2279(31) 102910. 0.20038 0.22783
7895.0 0.83488 0.2289(31) 102244. 0.20054 0.22997
7905.0 0.83593 0.2284(31) 102232. 0.20069 0.23081
7915.0 0.83699 0.2344(32) 99803. 0.20084 0.23047
7925.0 0.83805 0.2293(31) 101435. 0.20100 0.22924
7935.0 0.83911 0.2299(31) 101014. 0.20115 0.22704
7945.0 0.84017 0.2290(31) 101291. 0.20130 0.22405
7955.0 0.84123 0.2232(31) 103607. 0.20145 0.22092
7965.0 0.84229 0.2214(31) 104300. 0.20160 0.21834
7975.0 0.84334 0.2232(31) 103195. 0.20175 0.21672
7985.0 0.84440 0.2242(31) 102656. 0.20189 0.21622
7995.0 0.84546 0.2200(31) 104713. 0.20204 0.21668
8005.0 0.84652 0.2195(31) 104962. 0.20218 0.21775
8015.0 0.84758 0.2217(31) 103937. 0.20233 0.21890
8025.0 0.84864 0.2198(31) 104393. 0.20247 0.22005
8035.0 0.84970 0.2238(31) 102929. 0.20261 0.22175
8045.0 0.85075 0.2285(31) 100932. 0.20275 0.22466
8055.0 0.85181 0.2340(32) 98733. 0.20289 0.22905
8065.0 0.85287 0.2382(32) 97090. 0.20302 0.23445
8075.0 0.85393 0.2373(32) 97254. 0.20316 0.23965
8085.0 0.85499 0.2466(33) 94034. 0.20329 0.24293
8095.0 0.85605 0.2436(32) 94915. 0.20343 0.24255
8105.0 0.85711 0.2399(32) 96060. 0.20356 0.23850
8115.0 0.85816 0.2351(32) 97782. 0.20369 0.23263
8125.0 0.85922 0.2354(32) 97797. 0.20382 0.22700
8135.0 0.86028 0.2261(31) 101101. 0.20394 0.22281
8145.0 0.86134 0.2237(31) 102202. 0.20407 0.22056
8155.0 0.86240 0.2208(31) 103426. 0.20419 0.22040
8165.0 0.86346 0.2210(31) 103509. 0.20432 0.22216
8175.0 0.86452 0.2275(31) 100848. 0.20444 0.22548
8185.0 0.86557 0.2327(32) 99210. 0.20456 0.22975
8195.0 0.86663 0.2316(32) 99364. 0.20467 0.23426
8205.0 0.86769 0.2340(32) 98595. 0.20479 0.23792
8215.0 0.86875 0.2407(32) 96189. 0.20490 0.23947
8225.0 0.86981 0.2378(32) 97320. 0.20502 0.23857
8235.0 0.87087 0.2348(32) 98301. 0.20513 0.23640
8245.0 0.87193 0.2278(31) 100865. 0.20524 0.23426
8255.0 0.87298 0.2331(32) 98888. 0.20534 0.23266
8265.0 0.87404 0.2286(32) 100621. 0.20545 0.23136
8275.0 0.87510 0.2258(31) 101634. 0.20555 0.23018
8285.0 0.87616 0.2279(31) 100826. 0.20565 0.22943
8295.0 0.87722 0.2271(31) 101092. 0.20575 0.22974
8305.0 0.87828 0.2294(32) 100206. 0.20585 0.23158
8315.0 0.87934 0.2329(32) 98925. 0.20595 0.23535
8325.0 0.88040 0.2429(32) 95401. 0.20604 0.24131
8335.0 0.88145 0.2455(33) 94519. 0.20614 0.24900
8345.0 0.88251 0.2544(33) 91550. 0.20623 0.25685
8355.0 0.88357 0.2586(33) 90002. 0.20632 0.26205
8365.0 0.88463 0.2606(33) 89304. 0.20640 0.26237
8375.0 0.88569 0.2599(33) 89241. 0.20649 0.25858
8385.0 0.88675 0.2532(33) 91235. 0.20657 0.25370
8395.0 0.88781 0.2526(33) 91213. 0.20665 0.25001
8405.0 0.88886 0.2466(33) 93250. 0.20673 0.24799
8415.0 0.88992 0.2407(32) 95067. 0.20681 0.24651
8425.0 0.89098 0.2405(32) 95031. 0.20689 0.24393
8435.0 0.89204 0.2355(32) 96724. 0.20696 0.23963
8445.0 0.89310 0.2287(32) 98972. 0.20703 0.23434
8455.0 0.89416 0.2249(32) 100640. 0.20710 0.22923
8465.0 0.89522 0.2197(31) 102742. 0.20717 0.22514
8475.0 0.89627 0.2166(31) 103968. 0.20724 0.22244
8485.0 0.89733 0.2215(31) 101897. 0.20730 0.22112
8495.0 0.89839 0.2171(31) 103741. 0.20736 0.22086
8505.0 0.89945 0.2263(32) 99965. 0.20742 0.22128
8515.0 0.90051 0.2208(31) 102326. 0.20748 0.22205
8525.0 0.90157 0.2199(31) 102616. 0.20753 0.22303
8535.0 0.90263 0.2180(31) 103490. 0.20759 0.22391
8545.0 0.90369 0.2189(31) 102854. 0.20764 0.22459
8555.0 0.90474 0.2190(31) 102713. 0.20769 0.22524
8565.0 0.90580 0.2179(31) 103044. 0.20774 0.22628
8575.0 0.90686 0.2217(31) 101436. 0.20778 0.22791
8585.0 0.90792 0.2263(32) 99349. 0.20782 0.23016
8595.0 0.90898 0.2251(32) 99679. 0.20787 0.23286
8605.0 0.91004 0.2283(32) 98272. 0.20791 0.23618
8615.0 0.91110 0.2403(33) 94208. 0.20794 0.24068
8625.0 0.91215 0.2451(33) 92383. 0.20798 0.24688
8635.0 0.91321 0.2448(33) 92477. 0.20801 0.25470
8645.0 0.91427 0.2564(34) 88683. 0.20804 0.26316
8655.0 0.91533 0.2754(35) 83169. 0.20807 0.27057
8665.0 0.91639 0.2676(34) 85206. 0.20810 0.27497
8675.0 0.91745 0.2657(34) 85710. 0.20813 0.27494
8685.0 0.91851 0.2667(34) 85333. 0.20815 0.27076
8695.0 0.91956 0.2620(34) 86600. 0.20817 0.26444
8705.0 0.92062 0.2544(34) 88910. 0.20819 0.25807
8715.0 0.92168 0.2448(33) 91855. 0.20821 0.25290
8725.0 0.92274 0.2408(33) 93027. 0.20822 0.24909
8735.0 0.92380 0.2400(33) 93151. 0.20824 0.24613
8745.0 0.92486 0.2344(32) 94957. 0.20825 0.24336
8755.0 0.92592 0.2336(32) 95307. 0.20826 0.24069
8765.0 0.92698 0.2355(33) 94579. 0.20827 0.23830
8775.0 0.92803 0.2289(32) 96938. 0.20827 0.23626
8785.0 0.92909 0.2364(33) 94122. 0.20828 0.23419
8795.0 0.93015 0.2241(32) 98547. 0.20828 0.23194
8805.0 0.93121 0.2236(32) 98626. 0.20828 0.22994
8815.0 0.93227 0.2267(32) 97185. 0.20828 0.22879
8825.0 0.93333 0.2245(32) 97798. 0.20827 0.22884
8835.0 0.93439 0.2277(32) 96439. 0.20827 0.23003
8845.0 0.93544 0.2289(32) 96018. 0.20826 0.23189
8855.0 0.93650 0.2330(33) 94273. 0.20825 0.23362
8865.0 0.93756 0.2397(33) 91815. 0.20824 0.23445
8875.0 0.93862 0.2237(32) 97551. 0.20823 0.23390
8885.0 0.93968 0.2334(33) 94019. 0.20821 0.23218
8895.0 0.94074 0.2268(32) 96260. 0.20820 0.22986
8905.0 0.94180 0.2266(32) 96268. 0.20818 0.22731
8915.0 0.94286 0.2240(32) 97070. 0.20816 0.22477
8925.0 0.94391 0.2221(32) 97614. 0.20814 0.22246
8935.0 0.94497 0.2178(32) 99177. 0.20812 0.22071
8945.0 0.94603 0.2189(32) 98679. 0.20809 0.21981
8955.0 0.94709 0.2258(32) 95919. 0.20807 0.21996
8965.0 0.94815 0.2178(32) 98892. 0.20804 0.22127
8975.0 0.94921 0.2320(33) 93426. 0.20801 0.22385
8985.0 0.95027 0.2270(32) 95243. 0.20798 0.22768
8995.0 0.95132 0.2284(33) 94628. 0.20794 0.23248
9005.0 0.95238 0.2384(33) 91050. 0.20791 0.23764
9015.0 0.95344 0.2347(33) 92345. 0.20787 0.24216
9025.0 0.95450 0.2426(33) 89646. 0.20784 0.24508
9035.0 0.95556 0.2423(33) 89577. 0.20780 0.24607
9045.0 0.95662 0.2398(33) 90361. 0.20776 0.24526
9055.0 0.95768 0.2435(33) 89121. 0.20772 0.24316
9065.0 0.95874 0.2338(33) 92302. 0.20767 0.24052
9075.0 0.95979 0.2397(33) 90014. 0.20763 0.23831
9085.0 0.96085 0.2446(34) 88582. 0.20758 0.23744
9095.0 0.96191 0.2424(33) 89216. 0.20753 0.23831
9105.0 0.96297 0.2468(34) 87717. 0.20748 0.24074
9115.0 0.96403 0.2492(34) 86760. 0.20743 0.24405
9125.0 0.96509 0.2461(34) 87780. 0.20738 0.24713
9135.0 0.96615 0.2496(34) 86737. 0.20733 0.24868
9145.0 0.96720 0.2496(34) 86867. 0.20727 0.24792
9155.0 0.96826 0.2421(33) 89339. 0.20722 0.24492
9165.0 0.96932 0.2385(33) 90517. 0.20716 0.24071
9175.0 0.97038 0.2394(33) 90060. 0.20710 0.23634
9185.0 0.97144 0.2321(33) 92552. 0.20704 0.23244
9195.0 0.97250 0.2314(33) 92828. 0.20698 0.22921
9205.0 0.97356 0.2234(32) 95664. 0.20692 0.22673
9215.0 0.97462 0.2337(33) 91905. 0.20686 0.22494
9225.0 0.97567 0.2281(33) 93632. 0.20679 0.22372
9235.0 0.97673 0.2194(32) 96702. 0.20673 0.22316
9245.0 0.97779 0.2269(33) 94003. 0.20666 0.22363
9255.0 0.97885 0.2296(33) 93138. 0.20659 0.22552
9265.0 0.97991 0.2286(33) 93613. 0.20652 0.22924
9275.0 0.98097 0.2362(33) 91008. 0.20645 0.23502
9285.0 0.98203 0.2468(34) 87547. 0.20638 0.24277
9295.0 0.98309 0.2620(35) 82958. 0.20631 0.25185
9305.0 0.98414 0.269(4) 81215. 0.2062 0.2609
9315.0 0.98520 0.2678(35) 81556. 0.20617 0.26799
9325.0 0.98626 0.272(4) 80610. 0.2061 0.2710
9335.0 0.98732 0.281(4) 78278. 0.2060 0.2694
9345.0 0.98838 0.2679(35) 81693. 0.20594 0.26398
9355.0 0.98944 0.2554(34) 85378. 0.20586 0.25658
9365.0 0.99050 0.2542(34) 86035. 0.20578 0.24908
9375.0 0.99155 0.2501(34) 87296. 0.20571 0.24308
9385.0 0.99261 0.2422(33) 89910. 0.20563 0.23945
9395.0 0.99367 0.2381(33) 91390. 0.20555 0.23831
9405.0 0.99473 0.2313(33) 93899. 0.20547 0.23927
9415.0 0.99579 0.2426(33) 89831. 0.20538 0.24143
9425.0 0.99685 0.2383(33) 91361. 0.20530 0.24343
9435.0 0.99791 0.2372(33) 91795. 0.20522 0.24413
9445.0 0.99897 0.2426(33) 90026. 0.20513 0.24327
9455.0 1.00002 0.2395(33) 91006. 0.20505 0.24153
9465.0 1.00108 0.2418(33) 90300. 0.20496 0.23985
9475.0 1.00214 0.2434(33) 89796. 0.20488 0.23882
9485.0 1.00320 0.2419(33) 90247. 0.20479 0.23861
9495.0 1.00426 0.2394(33) 91275. 0.20471 0.23920
9505.0 1.00532 0.2445(33) 89462. 0.20462 0.24050
9515.0 1.00638 0.2487(34) 88173. 0.20453 0.24215
9525.0 1.00744 0.2538(34) 86414. 0.20444 0.24366
9535.0 1.00849 0.2549(34) 86145. 0.20435 0.24449
9545.0 1.00955 0.2468(34) 88801. 0.20426 0.24451
9555.0 1.01061 0.2418(33) 90517. 0.20418 0.24407
9565.0 1.01167 0.2463(33) 89125. 0.20409 0.24345
9575.0 1.01273 0.2390(33) 91645. 0.20400 0.24258
9585.0 1.01379 0.2388(33) 91839. 0.20390 0.24134
9595.0 1.01485 0.2375(33) 92253. 0.20381 0.24005
9605.0 1.01591 0.2400(33) 91353. 0.20372 0.23930
9615.0 1.01696 0.2428(33) 90509. 0.20363 0.23932
9625.0 1.01802 0.2424(33) 90707. 0.20354 0.23993
9635.0 1.01908 0.2472(33) 89155. 0.20345 0.24062
9645.0 1.02014 0.2404(33) 91380. 0.20335 0.24072
9655.0 1.02120 0.2504(34) 88211. 0.20326 0.23987
9665.0 1.02226 0.2439(33) 90294. 0.20317 0.23836
9675.0 1.02332 0.2422(33) 91022. 0.20308 0.23679
9685.0 1.02437 0.2362(33) 92957. 0.20298 0.23541
9695.0 1.02543 0.2385(33) 92185. 0.20289 0.23409
9705.0 1.02649 0.2374(33) 92795. 0.20280 0.23256
9715.0 1.02755 0.2314(32) 94857. 0.20270 0.23065
9725.0 1.02861 0.2254(32) 97070. 0.20261 0.22834
9735.0 1.02967 0.2268(32) 96386. 0.20252 0.22584
9745.0 1.03073 0.2217(32) 98266. 0.20242 0.22349
9755.0 1.03179 0.2225(32) 97897. 0.20233 0.22154
9765.0 1.03284 0.2251(32) 96788. 0.20224 0.22000
9775.0 1.03390 0.2188(32) 99222. 0.20214 0.21874
9785.0 1.03496 0.2193(32) 98987. 0.20205 0.21763
9795.0 1.03602 0.2169(32) 100084. 0.20196 0.21664
9805.0 1.03708 0.2180(32) 99473. 0.20186 0.21570
9815.0 1.03814 0.2161(32) 100353. 0.20177 0.21489
9825.0 1.03920 0.2139(31) 101456. 0.20168 0.21442
9835.0 1.04026 0.2141(31) 101293. 0.20158 0.21452
9845.0 1.04131 0.2139(31) 101138. 0.20149 0.21536
9855.0 1.04237 0.2130(31) 101620. 0.20140 0.21690
9865.0 1.04343 0.2208(32) 98398. 0.20131 0.21909
9875.0 1.04449 0.2217(32) 97979. 0.20121 0.22165
9885.0 1.04555 0.2253(32) 96475. 0.20112 0.22428
9895.0 1.04661 0.2269(32) 95815. 0.20103 0.22666
9905.0 1.04767 0.2311(33) 94367. 0.20094 0.22842
9915.0 1.04873 0.2353(33) 93057. 0.20085 0.22921
9925.0 1.04978 0.2352(33) 92869. 0.20076 0.22907
9935.0 1.05084 0.2324(33) 93926. 0.20067 0.22846
9945.0 1.05190 0.2258(32) 96463. 0.20058 0.22791
9955.0 1.05296 0.2320(33) 94499. 0.20049 0.22762
9965.0 1.05402 0.2319(33) 94611. 0.20040 0.22747
9975.0 1.05508 0.2315(32) 94893. 0.20031 0.22718
9985.0 1.05614 0.2272(32) 96238. 0.20022 0.22668
9995.0 1.05720 0.2205(32) 98699. 0.20013 0.22585
10005.0 1.05825 0.2286(32) 95502. 0.20004 0.22448
10015.0 1.05931 0.2176(32) 99456. 0.19996 0.22244
10025.0 1.06037 0.2230(32) 97256. 0.19987 0.22002
10035.0 1.06143 0.2195(32) 98601. 0.19978 0.21770
10045.0 1.06249 0.2134(31) 101054. 0.19970 0.21587
10055.0 1.06355 0.2121(31) 101714. 0.19961 0.21476
10065.0 1.06461 0.2196(32) 98632. 0.19952 0.21440
10075.0 1.06567 0.2196(32) 98531. 0.19944 0.21473
10085.0 1.06672 0.2164(32) 99943. 0.19935 0.21559
10095.0 1.06778 0.2185(32) 99209. 0.19927 0.21681
10105.0 1.06884 0.2209(32) 98222. 0.19919 0.21835
10115.0 1.06990 0.2252(32) 96367. 0.19911 0.22031
10125.0 1.07096 0.2273(32) 95549. 0.19902 0.22283
10135.0 1.07202 0.2228(32) 97178. 0.19894 0.22590
10145.0 1.07308 0.2335(33) 93376. 0.19886 0.22933
10155.0 1.07414 0.2300(32) 94772. 0.19878 0.23283
10165.0 1.07519 0.2374(33) 92185. 0.19870 0.23646
10175.0 1.07625 0.2363(33) 92627. 0.19862 0.24036
10185.0 1.07731 0.2433(33) 90353. 0.19854 0.24472
10195.0 1.07837 0.2530(34) 87093. 0.19846 0.24953
10205.0 1.07943 0.2591(34) 85414. 0.19839 0.25428
10215.0 1.08049 0.2678(35) 82834. 0.19831 0.25777
10225.0 1.08155 0.2642(35) 83828. 0.19823 0.25865
10235.0 1.08261 0.2614(34) 84630. 0.19816 0.25650
10245.0 1.08366 0.2580(34) 85741. 0.19808 0.25235
10255.0 1.08472 0.2472(34) 88913. 0.19801 0.24793
10265.0 1.08578 0.2493(34) 88045. 0.19794 0.24470
10275.0 1.08684 0.2404(33) 90881. 0.19786 0.24343
10285.0 1.08790 0.2440(33) 89564. 0.19779 0.24428
10295.0 1.08896 0.2520(34) 86854. 0.19772 0.24681
10305.0 1.09002 0.2435(33) 89576. 0.19765 0.25008
10315.0 1.09108 0.2509(34) 87074. 0.19758 0.25276
10325.0 1.09213 0.2496(34) 87348. 0.19751 0.25333
10335.0 1.09319 0.2478(34) 87804. 0.19744 0.25115
10345.0 1.09425 0.2487(34) 87504. 0.19737 0.24684
10355.0 1.09531 0.2433(33) 89141. 0.19731 0.24176
10365.0 1.09637 0.2395(33) 90230. 0.19724 0.23713
10375.0 1.09743 0.2329(33) 92572. 0.19718 0.23363
10385.0 1.09849 0.2327(33) 92571. 0.19711 0.23136
10395.0 1.09955 0.2278(33) 94358. 0.19705 0.23003
10405.0 1.10060 0.2192(32) 97526. 0.19698 0.22922
10415.0 1.10166 0.2236(32) 95662. 0.19692 0.22851
10425.0 1.10272 0.2233(32) 95603. 0.19686 0.22757
10435.0 1.10378 0.2225(32) 96045. 0.19680 0.22595
10445.0 1.10484 0.2232(32) 95803. 0.19674 0.22369
10455.0 1.10590 0.2192(32) 97434. 0.19668 0.22112
10465.0 1.10696 0.2189(32) 97491. 0.19662 0.21873
10475.0 1.10802 0.2144(32) 99150. 0.19656 0.21690
10485.0 1.10907 0.2139(32) 99575. 0.19651 0.21576
10495.0 1.11013 0.2107(31) 100871. 0.19645 0.21523
10505.0 1.11119 0.2196(32) 97338. 0.19640 0.21506
10515.0 1.11225 0.2183(32) 97925. 0.19634 0.21497
10525.0 1.11331 0.2197(32) 97390. 0.19629 0.21476
10535.0 1.11437 0.2179(32) 98228. 0.19624 0.21425
10545.0 1.11543 0.2104(31) 101361. 0.19618 0.21332
10555.0 1.11649 0.2122(32) 100694. 0.19613 0.21181
10565.0 1.11755 0.2121(32) 100637. 0.19608 0.20995
10575.0 1.11860 0.2116(31) 100819. 0.19603 0.20805
10585.0 1.11966 0.2011(31) 105388. 0.19598 0.20636
10595.0 1.12072 0.1988(31) 106527. 0.19594 0.20504
10605.0 1.12178 0.2022(31) 104883. 0.19589 0.20418
10615.0 1.12284 0.2051(31) 103254. 0.19584 0.20380
10625.0 1.12390 0.1988(31) 106088. 0.19580 0.20388
10635.0 1.12496 0.2012(31) 105115. 0.19575 0.20439
10645.0 1.12602 0.2070(31) 102623. 0.19571 0.20523
10655.0 1.12707 0.2008(31) 105343. 0.19567 0.20630
10665.0 1.12813 0.2039(31) 103810. 0.19562 0.20743
10675.0 1.12919 0.2065(31) 102660. 0.19558 0.20845
10685.0 1.13025 0.2083(31) 101824. 0.19554 0.20929
10695.0 1.13131 0.1996(31) 105780. 0.19550 0.21002
10705.0 1.13237 0.2062(31) 102873. 0.19546 0.21076
10715.0 1.13343 0.2112(31) 100842. 0.19542 0.21172
10725.0 1.13449 0.2094(31) 101395. 0.19539 0.21287
10735.0 1.13554 0.2199(32) 97205. 0.19535 0.21412
10745.0 1.13660 0.2092(31) 101600. 0.19532 0.21533
10755.0 1.13766 0.2116(31) 100837. 0.19528 0.21634
10765.0 1.13872 0.2231(32) 96177. 0.19525 0.21719
10775.0 1.13978 0.2182(32) 98062. 0.19521 0.21804
10785.0 1.14084 0.2212(32) 96762. 0.19518 0.21906
10795.0 1.14190 0.2253(32) 95006. 0.19515 0.22021
10805.0 1.14296 0.2235(32) 95537. 0.19512 0.22128
10815.0 1.14402 0.2309(33) 92629. 0.19509 0.22179
10825.0 1.14507 0.2242(32) 95076. 0.19506 0.22137
10835.0 1.14613 0.2230(32) 95558. 0.19503 0.22005
10845.0 1.14719 0.2215(32) 95974. 0.19500 0.21826
10855.0 1.14825 0.2243(32) 94942. 0.19497 0.21654
10865.0 1.14931 0.2211(32) 95997. 0.19495 0.21540
10875.0 1.15037 0.2196(32) 96697. 0.19492 0.21507
10885.0 1.15143 0.2206(32) 96177. 0.19490 0.21578
10895.0 1.15249 0.2200(32) 96471. 0.19487 0.21748
10905.0 1.15354 0.2198(32) 96463. 0.19485 0.22002
10915.0 1.15460 0.2281(33) 93428. 0.19483 0.22309
10925.0 1.15566 0.2284(33) 93232. 0.19481 0.22615
10935.0 1.15672 0.2283(33) 93174. 0.19478 0.22848
10945.0 1.15778 0.2284(33) 93259. 0.19476 0.22945
10955.0 1.15884 0.2312(33) 92165. 0.19474 0.22880
10965.0 1.15990 0.2273(33) 93520. 0.19473 0.22674
10975.0 1.16096 0.2200(32) 96367. 0.19471 0.22368
10985.0 1.16201 0.2163(32) 97703. 0.19469 0.22000
10995.0 1.16307 0.2151(32) 98022. 0.19467 0.21606
11005.0 1.16413 0.2095(32) 100398. 0.19466 0.21224
11015.0 1.16519 0.2067(31) 101616. 0.19464 0.20886
11025.0 1.16625 0.2031(31) 103124. 0.19463 0.20604
11035.0 1.16731 0.2031(31) 103279. 0.19461 0.20383
11045.0 1.16837 0.2013(31) 104030. 0.19460 0.20219
11055.0 1.16943 0.1932(30) 107799. 0.19458 0.20103
11065.0 1.17049 0.1976(31) 105743. 0.19457 0.20023
11075.0 1.17154 0.1984(31) 105445. 0.19456 0.19970
11085.0 1.17260 0.1947(31) 107142. 0.19455 0.19930
11095.0 1.17366 0.1971(31) 106092. 0.19454 0.19905
11105.0 1.17472 0.1997(31) 105067. 0.19453 0.19888
11115.0 1.17578 0.1974(31) 105966. 0.19452 0.19873
11125.0 1.17684 0.1958(31) 106669. 0.19451 0.19864
11135.0 1.17790 0.2033(31) 103284. 0.19450 0.19860
11145.0 1.17896 0.1973(31) 105913. 0.19450 0.19863
11155.0 1.18001 0.1939(30) 107744. 0.19449 0.19872
11165.0 1.18107 0.1944(30) 107638. 0.19448 0.19890
11175.0 1.18213 0.1996(31) 105180. 0.19448 0.19907
11185.0 1.18319 0.2025(31) 103769. 0.19447 0.19919
11195.0 1.18425 0.1977(31) 106009. 0.19447 0.19934
11205.0 1.18531 0.1978(31) 105529. 0.19446 0.19945
11215.0 1.18637 0.2025(31) 103439. 0.19446 0.19950
11225.0 1.18743 0.1956(31) 106519. 0.19446 0.19950
11235.0 1.18849 0.1998(31) 104637. 0.19446 0.19947
11245.0 1.18954 0.1965(31) 106403. 0.19445 0.19947
11255.0 1.19060 0.1931(30) 108197. 0.19445 0.19956
11265.0 1.19166 0.1986(31) 105582. 0.19445 0.19981
11275.0 1.19272 0.2011(31) 104544. 0.19445 0.20025
11285.0 1.19378 0.1988(31) 105492. 0.19445 0.20093
11295.0 1.19484 0.2000(31) 105002. 0.19445 0.20188
11305.0 1.19590 0.1977(31) 106269. 0.19445 0.20322
11315.0 1.19696 0.2060(31) 102426. 0.19445 0.20489
11325.0 1.19802 0.2017(31) 104275. 0.19446 0.20696
11335.0 1.19907 0.2033(31) 103551. 0.19446 0.20941
11345.0 1.20013 0.2100(31) 100823. 0.19446 0.21224
11355.0 1.20119 0.2130(32) 99690. 0.19446 0.21535
11365.0 1.20225 0.2181(32) 97554. 0.19447 0.21855
11375.0 1.20331 0.2186(32) 97385. 0.19447 0.22150
11385.0 1.20437 0.2250(32) 94848. 0.19448 0.22377
11395.0 1.20543 0.2285(33) 93712. 0.19448 0.22497
11405.0 1.20649 0.2308(33) 92810. 0.19449 0.22499
11415.0 1.20754 0.2259(33) 94629. 0.19449 0.22418
11425.0 1.20860 0.2271(33) 94347. 0.19450 0.22314
11435.0 1.20966 0.2260(32) 94717. 0.19450 0.22259
11445.0 1.21072 0.2301(33) 93309. 0.19451 0.22309
11455.0 1.21178 0.2241(32) 95431. 0.19452 0.22498
11465.0 1.21284 0.2297(33) 93366. 0.19452 0.22840
11475.0 1.21390 0.2339(33) 91676. 0.19453 0.23319
11485.0 1.21496 0.2366(33) 90926. 0.19454 0.23896
11495.0 1.21602 0.2485(34) 87191. 0.19455 0.24498
11505.0 1.21707 0.2533(34) 85713. 0.19455 0.25013
11515.0 1.21813 0.2464(34) 87841. 0.19456 0.25314
11525.0 1.21919 0.2524(34) 86104. 0.19457 0.25303
11535.0 1.22025 0.2471(34) 87681. 0.19458 0.24969
11545.0 1.22131 0.2498(34) 86759. 0.19459 0.24398
11555.0 1.22237 0.2407(33) 89823. 0.19460 0.23707
11565.0 1.22343 0.2281(33) 94461. 0.19461 0.23000
11575.0 1.22449 0.2261(32) 95344. 0.19462 0.22343
11585.0 1.22555 0.2202(32) 97816. 0.19463 0.21774
11595.0 1.22660 0.2191(32) 98325. 0.19464 0.21306
11605.0 1.22766 0.2117(31) 101224. 0.19465 0.20940
11615.0 1.22872 0.2138(32) 100190. 0.19466 0.20666
11625.0 1.22978 0.2098(31) 102176. 0.19467 0.20466
11635.0 1.23084 0.2035(31) 105006. 0.19468 0.20327
11645.0 1.23190 0.2047(31) 104655. 0.19470 0.20233
11655.0 1.23296 0.2025(31) 105949. 0.19471 0.20172
11665.0 1.23402 0.1990(30) 107615. 0.19472 0.20135
11675.0 1.23508 0.1971(30) 108493. 0.19473 0.20119
11685.0 1.23613 0.2000(31) 107029. 0.19474 0.20120
11695.0 1.23719 0.2010(31) 106578. 0.19475 0.20138
11705.0 1.23825 0.2009(31) 106901. 0.19477 0.20174
11715.0 1.23931 0.2018(31) 106602. 0.19478 0.20232
11725.0 1.24037 0.2012(31) 107076. 0.19479 0.20314
11735.0 1.24143 0.2030(31) 106651. 0.19480 0.20422
11745.0 1.24249 0.2002(30) 108025. 0.19481 0.20559
11755.0 1.24355 0.2046(31) 106095. 0.19483 0.20727
11765.0 1.24460 0.2074(31) 104754. 0.19484 0.20923
11775.0 1.24566 0.2132(31) 102340. 0.19485 0.21141
11785.0 1.24672 0.2122(31) 102814. 0.19486 0.21373
11795.0 1.24778 0.2102(31) 103785. 0.19488 0.21614
11805.0 1.24884 0.2190(32) 100150. 0.19489 0.21868
11815.0 1.24990 0.2215(32) 99256. 0.19490 0.22152
11825.0 1.25096 0.2297(32) 96374. 0.19491 0.22488
11835.0 1.25202 0.2369(33) 94000. 0.19493 0.22890
11845.0 1.25308 0.2401(33) 92983. 0.19494 0.23366
11855.0 1.25413 0.2468(33) 90845. 0.19495 0.23916
11865.0 1.25519 0.2487(33) 89948. 0.19497 0.24532
11875.0 1.25625 0.2533(34) 88546. 0.19498 0.25207
11885.0 1.25731 0.2605(34) 86485. 0.19499 0.25900
11895.0 1.25837 0.2632(34) 85903. 0.19500 0.26542
11905.0 1.25943 0.2698(34) 84142. 0.19501 0.27029
11915.0 1.26049 0.2735(35) 83218. 0.19503 0.27259
11925.0 1.26155 0.2719(35) 83636. 0.19504 0.27159
11935.0 1.26261 0.2698(34) 84218. 0.19505 0.26736
11945.0 1.26366 0.2687(34) 84555. 0.19506 0.26068
11955.0 1.26472 0.2454(33) 92069. 0.19508 0.25270
11965.0 1.26578 0.2516(33) 90087. 0.19509 0.24458
11975.0 1.26684 0.2409(33) 93506. 0.19510 0.23720
11985.0 1.26790 0.2329(32) 96283. 0.19511 0.23113
11995.0 1.26896 0.2246(32) 99538. 0.19512 0.22664
12005.0 1.27002 0.2242(32) 99947. 0.19513 0.22376
12015.0 1.27108 0.2230(32) 100463. 0.19514 0.22234
12025.0 1.27214 0.2210(31) 101339. 0.19516 0.22208
12035.0 1.27319 0.2189(31) 102206. 0.19517 0.22257
12045.0 1.27425 0.2242(32) 100266. 0.19518 0.22335
12055.0 1.27531 0.2183(31) 102666. 0.19519 0.22394
12065.0 1.27637 0.2211(31) 101571. 0.19520 0.22405
12075.0 1.27743 0.2226(31) 101060. 0.19521 0.22368
12085.0 1.27849 0.2187(31) 102758. 0.19522 0.22310
12095.0 1.27955 0.2175(31) 103235. 0.19523 0.22266
12105.0 1.28061 0.2129(31) 105389. 0.19524 0.22264
12115.0 1.28167 0.2240(31) 101230. 0.19525 0.22315
12125.0 1.28272 0.2184(31) 103620. 0.19526 0.22422
12135.0 1.28378 0.2210(31) 102691. 0.19527 0.22568
12145.0 1.28484 0.2197(31) 103196. 0.19528 0.22728
12155.0 1.28590 0.2188(31) 103632. 0.19528 0.22881
12165.0 1.28696 0.2252(31) 101028. 0.19529 0.23015
12175.0 1.28802 0.2246(31) 101231. 0.19530 0.23124
12185.0 1.28908 0.2247(31) 101366. 0.19531 0.23196
12195.0 1.29014 0.2239(31) 101653. 0.19532 0.23207
12205.0 1.29120 0.2209(31) 102904. 0.19532 0.23125
12215.0 1.29226 0.2202(31) 103096. 0.19533 0.22939
12225.0 1.29331 0.2213(31) 102779. 0.19534 0.22666
12235.0 1.29437 0.2250(31) 101405. 0.19534 0.22345
12245.0 1.29543 0.2182(31) 104109. 0.19535 0.22021
12255.0 1.29649 0.2161(31) 104941. 0.19536 0.21724
12265.0 1.29755 0.2126(31) 106723. 0.19536 0.21479
12275.0 1.29861 0.2140(31) 106465. 0.19537 0.21286
12285.0 1.29967 0.2141(31) 106456. 0.19537 0.21148
12295.0 1.30073 0.2049(30) 110795. 0.19538 0.21055
12305.0 1.30179 0.2134(31) 106770. 0.19538 0.20996
12315.0 1.30284 0.2072(30) 109557. 0.19539 0.20963
12325.0 1.30390 0.2052(30) 110649. 0.19539 0.20953
12335.0 1.30496 0.2129(31) 107087. 0.19540 0.20978
12345.0 1.30602 0.2106(30) 108143. 0.19540 0.21046
12355.0 1.30708 0.2080(30) 109353. 0.19540 0.21167
12365.0 1.30814 0.2164(31) 105591. 0.19541 0.21346
12375.0 1.30920 0.2182(31) 104799. 0.19541 0.21580
12385.0 1.31026 0.2231(31) 102757. 0.19541 0.21856
12395.0 1.31132 0.2231(31) 102728. 0.19541 0.22151
12405.0 1.31237 0.2226(31) 102991. 0.19542 0.22429
12415.0 1.31343 0.2277(31) 100850. 0.19542 0.22642
12425.0 1.31449 0.2300(32) 99972. 0.19542 0.22741
12435.0 1.31555 0.2300(32) 100234. 0.19542 0.22700
12445.0 1.31661 0.2158(31) 106343. 0.19542 0.22523
12455.0 1.31767 0.2245(31) 102719. 0.19542 0.22244
12465.0 1.31873 0.2190(31) 104950. 0.19542 0.21908
12475.0 1.31979 0.2165(31) 106172. 0.19542 0.21558
12485.0 1.32085 0.2150(31) 106867. 0.19542 0.21229
12495.0 1.32190 0.2085(30) 109748. 0.19542 0.20936
12505.0 1.32296 0.2105(30) 108944. 0.19542 0.20692
12515.0 1.32402 0.2134(30) 107554. 0.19541 0.20502
12525.0 1.32508 0.2022(30) 113018. 0.19541 0.20364
12535.0 1.32614 0.2017(30) 113032. 0.19541 0.20273
12545.0 1.32720 0.2029(30) 112544. 0.19541 0.20221
12555.0 1.32826 0.1993(30) 114426. 0.19540 0.20202
12565.0 1.32932 0.1999(30) 114170. 0.19540 0.20207
12575.0 1.33038 0.2013(30) 113408. 0.19540 0.20229
12585.0 1.33144 0.2005(30) 113743. 0.19539 0.20252
12595.0 1.33249 0.2019(30) 113291. 0.19539 0.20281
12605.0 1.33355 0.2011(30) 113505. 0.19538 0.20302
12615.0 1.33461 0.2020(30) 113102. 0.19538 0.20309
12625.0 1.33567 0.2032(30) 112450. 0.19537 0.20308
12635.0 1.33673 0.2014(30) 113550. 0.19536 0.20301
12645.0 1.33779 0.2050(30) 111306. 0.19536 0.20306
12655.0 1.33885 0.2025(30) 112372. 0.19535 0.20315
12665.0 1.33991 0.2051(30) 110921. 0.19534 0.20344
12675.0 1.34097 0.2036(30) 111655. 0.19534 0.20394
12685.0 1.34202 0.2033(30) 111930. 0.19533 0.20465
12695.0 1.34308 0.2109(30) 108255. 0.19532 0.20554
12705.0 1.34414 0.2046(30) 110946. 0.19531 0.20653
12715.0 1.34520 0.2112(30) 108021. 0.19530 0.20749
12725.0 1.34626 0.2130(31) 106757. 0.19529 0.20831
12735.0 1.34732 0.2160(31) 105439. 0.19529 0.20888
12745.0 1.34838 0.2088(30) 108871. 0.19528 0.20918
12755.0 1.34944 0.2158(31) 105602. 0.19527 0.20925
12765.0 1.35050 0.2154(31) 105870. 0.19525 0.20916
12775.0 1.35156 0.2142(31) 106333. 0.19524 0.20892
12785.0 1.35261 0.2179(31) 104773. 0.19523 0.20849
12795.0 1.35367 0.2194(31) 104083. 0.19522 0.20785
12805.0 1.35473 0.2104(30) 108289. 0.19521 0.20694
12815.0 1.35579 0.2076(30) 109412. 0.19520 0.20582
12825.0 1.35685 0.2040(30) 111550. 0.19518 0.20457
12835.0 1.35791 0.2094(30) 109263. 0.19517 0.20330
12845.0 1.35897 0.2054(30) 111433. 0.19516 0.20208
12855.0 1.36003 0.2034(30) 112222. 0.19515 0.20099
12865.0 1.36109 0.2017(30) 113180. 0.19513 0.20005
12875.0 1.36214 0.1982(30) 114742. 0.19512 0.19925
12885.0 1.36320 0.2044(30) 111840. 0.19510 0.19861
12895.0 1.36426 0.2030(30) 112636. 0.19509 0.19811
12905.0 1.36532 0.1997(30) 114424. 0.19507 0.19766
12915.0 1.36638 0.1985(29) 115088. 0.19506 0.19737
12925.0 1.36744 0.1975(29) 115995. 0.19504 0.19712
12935.0 1.36850 0.2016(30) 114185. 0.19503 0.19696
12945.0 1.36956 0.1975(29) 116598. 0.19501 0.19684
12955.0 1.37062 0.1989(29) 116148. 0.19499 0.19675
12965.0 1.37168 0.1985(29) 116357. 0.19498 0.19675
12975.0 1.37273 0.1976(29) 116856. 0.19496 0.19670
12985.0 1.37379 0.1951(29) 118204. 0.19494 0.19666
12995.0 1.37485 0.1878(29) 122325. 0.19492 0.19663
13005.0 1.37591 0.1987(29) 116430. 0.19491 0.19661
13015.0 1.37697 0.1973(29) 117267. 0.19489 0.19660
13025.0 1.37803 0.2020(29) 115121. 0.19487 0.19659
13035.0 1.37909 0.1945(29) 119117. 0.19485 0.19660
13045.0 1.38015 0.1924(29) 120221. 0.19483 0.19661
13055.0 1.38121 0.1969(29) 117626. 0.19481 0.19660
13065.0 1.38226 0.2021(30) 114876. 0.19479 0.19663
13075.0 1.38332 0.2014(29) 115126. 0.19477 0.19667
13085.0 1.38438 0.1971(29) 117603. 0.19475 0.19672
13095.0 1.38544 0.1955(29) 118660. 0.19473 0.19678
13105.0 1.38650 0.1970(29) 117811. 0.19471 0.19686
13115.0 1.38756 0.1962(29) 118292. 0.19469 0.19695
13125.0 1.38862 0.1966(29) 117985. 0.19467 0.19708
13135.0 1.38968 0.1962(29) 118200. 0.19465 0.19724
13145.0 1.39074 0.1979(29) 117527. 0.19463 0.19743
13155.0 1.39180 0.1965(29) 118412. 0.19461 0.19772
13165.0 1.39285 0.2008(29) 116329. 0.19459 0.19809
13175.0 1.39391 0.1967(29) 118650. 0.19456 0.19860
13185.0 1.39497 0.2024(29) 115841. 0.19454 0.19927
13195.0 1.39603 0.2008(29) 116842. 0.19452 0.20015
13205.0 1.39709 0.1988(29) 118137. 0.19450 0.20124
13215.0 1.39815 0.2042(29) 115374. 0.19447 0.20263
13225.0 1.39921 0.2073(30) 113971. 0.19445 0.20432
13235.0 1.40027 0.2055(30) 114746. 0.19443 0.20628
13245.0 1.40133 0.2122(30) 111641. 0.19441 0.20848
13255.0 1.40239 0.2115(30) 112184. 0.19438 0.21081
13265.0 1.40344 0.2139(30) 111378. 0.19436 0.21316
13275.0 1.40450 0.2115(30) 112494. 0.19433 0.21531
13285.0 1.40556 0.2199(30) 108858. 0.19431 0.21704
13295.0 1.40662 0.2169(30) 110290. 0.19429 0.21811
13305.0 1.40768 0.2213(30) 108356. 0.19426 0.21851
13315.0 1.40874 0.2243(31) 107085. 0.19424 0.21808
13325.0 1.40980 0.2202(30) 109199. 0.19421 0.21712
13335.0 1.41086 0.2240(31) 107449. 0.19419 0.21589
13345.0 1.41192 0.2136(30) 111809. 0.19417 0.21467
13355.0 1.41298 0.2153(30) 111227. 0.19414 0.21368
13365.0 1.41403 0.2187(30) 109702. 0.19412 0.21309
13375.0 1.41509 0.2142(30) 111984. 0.19409 0.21302
13385.0 1.41615 0.2182(30) 110242. 0.19407 0.21352
13395.0 1.41721 0.2197(30) 109790. 0.19404 0.21460
13405.0 1.41827 0.2152(30) 112029. 0.19402 0.21621
13415.0 1.41933 0.2180(30) 110648. 0.19399 0.21821
13425.0 1.42039 0.2187(30) 110307. 0.19397 0.22038
13435.0 1.42145 0.2158(30) 111644. 0.19394 0.22244
13445.0 1.42251 0.2213(30) 109338. 0.19392 0.22404
13455.0 1.42357 0.2233(30) 108480. 0.19389 0.22491
13465.0 1.42462 0.2204(30) 109723. 0.19387 0.22487
13475.0 1.42568 0.2228(30) 108814. 0.19384 0.22396
13485.0 1.42674 0.2240(30) 108454. 0.19382 0.22233
13495.0 1.42780 0.2189(30) 110580. 0.19379 0.22018
13505.0 1.42886 0.2122(30) 113690. 0.19377 0.21777
13515.0 1.42992 0.2130(30) 113342. 0.19374 0.21531
13525.0 1.43098 0.2080(29) 115868. 0.19372 0.21298
13535.0 1.43204 0.2106(30) 114560. 0.19369 0.21091
13545.0 1.43310 0.2037(29) 118110. 0.19367 0.20927
13555.0 1.43416 0.2132(30) 113689. 0.19364 0.20810
13565.0 1.43521 0.2087(29) 115956. 0.19362 0.20747
13575.0 1.43627 0.2046(29) 118344. 0.19360 0.20742
13585.0 1.43733 0.2048(29) 118315. 0.19357 0.20794
13595.0 1.43839 0.2062(29) 117667. 0.19355 0.20902
13605.0 1.43945 0.2106(29) 115603. 0.19352 0.21064
13615.0 1.44051 0.2123(29) 114930. 0.19350 0.21271
13625.0 1.44157 0.2133(30) 114406. 0.19347 0.21521
13635.0 1.44263 0.2215(30) 110719. 0.19345 0.21788
13645.0 1.44369 0.2169(30) 112894. 0.19343 0.22054
13655.0 1.44475 0.2137(30) 114351. 0.19340 0.22297
13665.0 1.44580 0.2143(30) 114149. 0.19338 0.22488
13675.0 1.44686 0.2212(30) 110974. 0.19335 0.22606
13685.0 1.44792 0.2206(30) 111389. 0.19333 0.22650
13695.0 1.44898 0.2233(30) 110126. 0.19331 0.22637
13705.0 1.45004 0.2153(30) 113652. 0.19328 0.22601
13715.0 1.45110 0.2231(30) 110136. 0.19326 0.22583
13725.0 1.45216 0.2213(30) 111233. 0.19324 0.22624
13735.0 1.45322 0.2226(30) 110440. 0.19322 0.22751
13745.0 1.45428 0.2356(31) 104991. 0.19319 0.22996
13755.0 1.45534 0.2308(31) 106831. 0.19317 0.23364
13765.0 1.45639 0.2384(31) 103622. 0.19315 0.23856
13775.0 1.45745 0.2413(31) 102468. 0.19313 0.24455
13785.0 1.45851 0.2559(32) 97247. 0.19311 0.25128
13795.0 1.45957 0.2598(32) 95982. 0.19309 0.25824
13805.0 1.46063 0.2607(32) 95907. 0.19306 0.26476
13815.0 1.46169 0.2658(33) 94269. 0.19304 0.27000
13825.0 1.46275 0.2646(33) 94509. 0.19302 0.27315
13835.0 1.46381 0.2672(33) 93831. 0.19300 0.27361
13845.0 1.46487 0.2671(33) 94085. 0.19298 0.27121
13855.0 1.46593 0.2623(32) 95666. 0.19296 0.26629
13865.0 1.46698 0.2542(32) 98423. 0.19294 0.25952
13875.0 1.46804 0.2519(32) 99420. 0.19293 0.25177
13885.0 1.46910 0.2343(31) 106359. 0.19291 0.24362
13895.0 1.47016 0.2319(30) 107564. 0.19289 0.23587
13905.0 1.47122 0.2223(30) 111704. 0.19287 0.22879
13915.0 1.47228 0.2226(30) 111653. 0.19285 0.22257
13925.0 1.47334 0.2186(30) 113663. 0.19284 0.21738
13935.0 1.47440 0.2091(29) 118529. 0.19282 0.21312
13945.0 1.47546 0.2105(29) 117976. 0.19280 0.20978
13955.0 1.47652 0.2059(29) 120558. 0.19279 0.20726
13965.0 1.47758 0.2038(29) 121712. 0.19277 0.20542
13975.0 1.47863 0.2038(29) 121477. 0.19275 0.20416
13985.0 1.47969 0.2027(29) 122014. 0.19274 0.20336
13995.0 1.48075 0.2075(29) 119672. 0.19272 0.20292
14005.0 1.48181 0.1984(28) 124930. 0.19271 0.20277
14015.0 1.48287 0.1985(28) 124739. 0.19270 0.20283
14025.0 1.48393 0.1943(28) 127197. 0.19268 0.20305
14035.0 1.48499 0.2027(29) 122609. 0.19267 0.20346
14045.0 1.48605 0.1980(28) 125310. 0.19266 0.20387
14055.0 1.48711 0.2040(29) 122000. 0.19264 0.20432
14065.0 1.48817 0.2021(29) 123051. 0.19263 0.20478
14075.0 1.48922 0.2022(29) 122721. 0.19262 0.20532
14085.0 1.49028 0.2029(29) 122385. 0.19261 0.20588
14095.0 1.49134 0.2102(29) 118589. 0.19260 0.20660
14105.0 1.49240 0.2103(29) 118684. 0.19259 0.20763
14115.0 1.49346 0.2102(29) 118809. 0.19258 0.20910
14125.0 1.49452 0.2098(29) 119117. 0.19257 0.21115
14135.0 1.49558 0.2149(29) 116618. 0.19256 0.21390
14145.0 1.49664 0.2202(30) 114185. 0.19256 0.21744
14155.0 1.49770 0.2209(30) 113902. 0.19255 0.22182
14165.0 1.49876 0.2310(30) 109280. 0.19254 0.22702
14175.0 1.49981 0.2344(30) 107635. 0.19253 0.23291
14185.0 1.50087 0.2406(31) 105051. 0.19253 0.23928
14195.0 1.50193 0.2433(31) 103833. 0.19252 0.24580
14205.0 1.50299 0.2385(31) 106114. 0.19252 0.25197
14215.0 1.50405 0.2469(31) 102847. 0.19251 0.25717
14225.0 1.50511 0.2497(31) 101674. 0.19251 0.26073
14235.0 1.50617 0.2475(31) 102493. 0.19251 0.26210
14245.0 1.50723 0.2466(31) 102817. 0.19251 0.26104
14255.0 1.50829 0.2480(31) 102353. 0.19250 0.25757
14265.0 1.50935 0.2426(31) 104275. 0.19250 0.25255
14275.0 1.51041 0.2400(31) 105326. 0.19250 0.24647
14285.0 1.51146 0.2341(30) 107541. 0.19250 0.23994
14295.0 1.51252 0.2362(31) 106842. 0.19250 0.23347
14305.0 1.51358 0.2294(30) 110149. 0.19250 0.22739
14315.0 1.51464 0.2270(30) 111060. 0.19251 0.22194
14325.0 1.51570 0.2237(30) 112499. 0.19251 0.21724
14335.0 1.51676 0.2199(30) 114173. 0.19251 0.21334
14345.0 1.51782 0.2191(30) 114469. 0.19252 0.21022
14355.0 1.51888 0.2209(30) 113741. 0.19252 0.20781
14365.0 1.51994 0.2127(29) 118074. 0.19253 0.20603
14375.0 1.52100 0.2143(29) 117147. 0.19253 0.20480
14385.0 1.52206 0.2075(29) 120676. 0.19254 0.20403
14395.0 1.52311 0.2098(29) 119521. 0.19254 0.20367
14405.0 1.52417 0.2119(29) 118500. 0.19255 0.20369
14415.0 1.52523 0.2127(29) 117961. 0.19256 0.20417
14425.0 1.52629 0.2137(29) 117496. 0.19257 0.20496
14435.0 1.52735 0.2162(29) 116283. 0.19258 0.20619
14445.0 1.52841 0.2210(30) 114183. 0.19259 0.20798
14455.0 1.52947 0.2151(29) 116961. 0.19260 0.21041
14465.0 1.53053 0.2176(29) 115682. 0.19261 0.21357
14475.0 1.53159 0.2202(30) 114584. 0.19263 0.21757
14485.0 1.53265 0.2257(30) 112131. 0.19264 0.22245
14495.0 1.53370 0.2319(30) 109246. 0.19265 0.22822
14505.0 1.53476 0.2394(31) 106003. 0.19267 0.23483
14515.0 1.53582 0.2429(31) 104477. 0.19269 0.24210
14525.0 1.53688 0.2568(32) 99243. 0.19270 0.24978
14535.0 1.53794 0.2586(32) 98658. 0.19272 0.25743
14545.0 1.53900 0.2653(32) 96343. 0.19274 0.26450
14555.0 1.54006 0.2665(32) 95864. 0.19276 0.27029
14565.0 1.54112 0.2749(33) 93161. 0.19278 0.27386
14575.0 1.54218 0.2833(33) 90630. 0.19280 0.27507
14585.0 1.54324 0.2773(33) 92482. 0.19282 0.27355
14595.0 1.54430 0.2717(33) 94320. 0.19284 0.26952
14605.0 1.54535 0.2706(32) 94719. 0.19286 0.26362
14615.0 1.54641 0.2613(32) 97778. 0.19289 0.25654
14625.0 1.54747 0.2557(32) 99906. 0.19291 0.24895
14635.0 1.54853 0.2476(31) 102964. 0.19293 0.24138
14645.0 1.54959 0.2444(31) 104300. 0.19296 0.23424
14655.0 1.55065 0.2352(30) 108070. 0.19299 0.22778
14665.0 1.55171 0.2275(30) 111477. 0.19301 0.22215
14675.0 1.55277 0.2253(30) 112452. 0.19304 0.21740
14685.0 1.55383 0.2148(29) 117405. 0.19307 0.21352
14695.0 1.55489 0.2147(29) 117627. 0.19310 0.21042
14705.0 1.55595 0.2167(29) 116808. 0.19313 0.20802
14715.0 1.55700 0.2069(29) 121765. 0.19317 0.20621
14725.0 1.55806 0.2139(29) 118094. 0.19320 0.20486
14735.0 1.55912 0.2055(29) 122402. 0.19323 0.20389
14745.0 1.56018 0.1994(28) 125829. 0.19327 0.20321
14755.0 1.56124 0.2069(29) 121853. 0.19330 0.20276
14765.0 1.56230 0.2032(28) 123884. 0.19334 0.20249
14775.0 1.56336 0.2018(28) 124794. 0.19337 0.20239
14785.0 1.56442 0.2098(29) 120445. 0.19341 0.20244
14795.0 1.56548 0.2042(28) 123593. 0.19345 0.20265
14805.0 1.56654 0.2089(29) 121244. 0.19349 0.20305
14815.0 1.56760 0.2072(29) 122297. 0.19353 0.20363
14825.0 1.56865 0.2100(29) 120959. 0.19357 0.20451
14835.0 1.56971 0.2124(29) 119650. 0.19361 0.20573
14845.0 1.57077 0.2130(29) 119482. 0.19366 0.20737
14855.0 1.57183 0.2160(29) 118003. 0.19370 0.20950
14865.0 1.57289 0.2132(29) 119333. 0.19374 0.21221
14875.0 1.57395 0.2194(29) 116575. 0.19379 0.21558
14885.0 1.57501 0.2242(30) 114642. 0.19384 0.21964
14895.0 1.57607 0.2278(30) 112970. 0.19388 0.22441
14905.0 1.57713 0.2296(30) 112349. 0.19393 0.22986
14915.0 1.57819 0.2389(30) 108314. 0.19398 0.23586
14925.0 1.57925 0.2457(31) 105668. 0.19403 0.24224
14935.0 1.58030 0.2510(31) 103503. 0.19408 0.24860
14945.0 1.58136 0.2537(31) 102563. 0.19414 0.25470
14955.0 1.58242 0.2574(31) 101076. 0.19419 0.25999
14965.0 1.58348 0.2567(31) 101415. 0.19424 0.26395
14975.0 1.58454 0.2571(31) 101261. 0.19430 0.26600
14985.0 1.58560 0.2608(32) 99976. 0.19435 0.26607
14995.0 1.58666 0.2627(32) 99639. 0.19441 0.26412
15005.0 1.58772 0.2563(31) 102175. 0.19447 0.26047
15015.0 1.58878 0.2473(31) 105937. 0.19452 0.25561
15025.0 1.58984 0.2487(31) 105542. 0.19458 0.25002
15035.0 1.59090 0.2463(31) 106359. 0.19464 0.24415
15045.0 1.59196 0.2390(30) 109756. 0.19470 0.23834
15055.0 1.59301 0.2319(30) 113402. 0.19477 0.23285
15065.0 1.59407 0.2262(29) 115953. 0.19483 0.22785
15075.0 1.59513 0.2256(29) 116159. 0.19489 0.22347
15085.0 1.59619 0.2241(29) 117039. 0.19496 0.21978
15095.0 1.59725 0.2154(29) 121380. 0.19502 0.21678
15105.0 1.59831 0.2170(29) 120657. 0.19509 0.21448
15115.0 1.59937 0.2089(28) 124921. 0.19516 0.21283
15125.0 1.60043 0.2114(28) 123719. 0.19523 0.21181
15135.0 1.60149 0.2110(28) 124110. 0.19530 0.21137
15145.0 1.60255 0.2085(28) 125443. 0.19537 0.21148
15155.0 1.60361 0.2150(29) 121885. 0.19544 0.21220
15165.0 1.60466 0.2145(29) 122026. 0.19551 0.21338
15175.0 1.60572 0.2149(29) 121958. 0.19558 0.21508
15185.0 1.60678 0.2170(29) 120957. 0.19566 0.21729
15195.0 1.60784 0.2188(29) 120153. 0.19573 0.22000
15205.0 1.60890 0.2261(29) 116543. 0.19581 0.22316
15215.0 1.60996 0.2202(29) 119538. 0.19588 0.22668
15225.0 1.61102 0.2254(29) 117096. 0.19596 0.23057
15235.0 1.61208 0.2395(30) 110573. 0.19604 0.23468
15245.0 1.61314 0.2373(30) 111932. 0.19612 0.23885
15255.0 1.61420 0.2367(30) 112214. 0.19620 0.24289
15265.0 1.61526 0.2352(30) 112599. 0.19628 0.24662
15275.0 1.61631 0.2454(30) 108544. 0.19636 0.24994
15285.0 1.61737 0.2418(30) 110107. 0.19645 0.25283
15295.0 1.61843 0.2509(31) 106439. 0.19653 0.25540
15305.0 1.61949 0.2495(31) 107122. 0.19662 0.25801
15315.0 1.62055 0.2567(31) 104087. 0.19670 0.26049
15325.0 1.62161 0.2611(31) 102479. 0.19679 0.26327
15335.0 1.62267 0.2616(31) 102381. 0.19688 0.26634
15345.0 1.62373 0.2733(32) 98386. 0.19697 0.26962
15355.0 1.62479 0.2717(32) 98975. 0.19706 0.27292
15365.0 1.62585 0.2780(32) 96887. 0.19715 0.27593
15375.0 1.62691 0.2738(32) 98288. 0.19724 0.27828
15385.0 1.62797 0.2831(32) 95217. 0.19733 0.27968
15395.0 1.62902 0.2772(32) 97204. 0.19742 0.27999
15405.0 1.63008 0.2769(32) 97475. 0.19752 0.27930
15415.0 1.63114 0.2751(32) 97874. 0.19761 0.27791
15425.0 1.63220 0.2675(32) 100616. 0.19771 0.27613
15435.0 1.63326 0.2750(32) 97989. 0.19780 0.27444
15445.0 1.63432 0.2775(32) 97177. 0.19790 0.27309
15455.0 1.63538 0.2769(32) 97499. 0.19800 0.27214
15465.0 1.63644 0.2797(32) 96624. 0.19810 0.27179
15475.0 1.63750 0.2742(32) 98534. 0.19820 0.27200
15485.0 1.63856 0.2733(32) 98754. 0.19830 0.27220
15495.0 1.63962 0.2775(32) 97442. 0.19840 0.27223
15505.0 1.64068 0.2792(32) 96882. 0.19851 0.27175
15515.0 1.64173 0.2746(32) 98356. 0.19861 0.27052
15525.0 1.64279 0.2697(32) 99920. 0.19871 0.26848
15535.0 1.64385 0.2758(32) 97584. 0.19882 0.26573
15545.0 1.64491 0.2696(32) 99822. 0.19893 0.26245
15555.0 1.64597 0.2674(32) 100557. 0.19903 0.25889
15565.0 1.64703 0.2646(31) 101534. 0.19914 0.25525
15575.0 1.64809 0.2650(31) 101426. 0.19925 0.25167
15585.0 1.64915 0.2502(31) 107144. 0.19936 0.24821
15595.0 1.65021 0.2496(31) 107313. 0.19947 0.24491
15605.0 1.65127 0.2441(30) 109390. 0.19958 0.24179
15615.0 1.65233 0.2365(30) 112597. 0.19969 0.23885
15625.0 1.65338 0.2370(30) 112447. 0.19981 0.23616
15635.0 1.65444 0.2386(30) 111260. 0.19992 0.23379
15645.0 1.65550 0.2286(29) 115900. 0.20003 0.23183
15655.0 1.65656 0.2299(29) 115397. 0.20015 0.23032
15665.0 1.65762 0.2294(29) 115606. 0.20027 0.22932
15675.0 1.65868 0.2283(29) 115939. 0.20038 0.22885
15685.0 1.65974 0.2265(29) 116894. 0.20050 0.22894
15695.0 1.66080 0.2250(29) 117808. 0.20062 0.22972
15705.0 1.66186 0.2215(29) 119539. 0.20074 0.23091
15715.0 1.66292 0.2256(29) 117543. 0.20086 0.23265
15725.0 1.66398 0.2309(29) 114948. 0.20098 0.23494
15735.0 1.66504 0.2323(30) 114351. 0.20110 0.23774
15745.0 1.66609 0.2381(30) 112168. 0.20122 0.24114
15755.0 1.66715 0.2460(30) 108884. 0.20135 0.24515
15765.0 1.66821 0.2510(31) 106915. 0.20147 0.24973
15775.0 1.66927 0.2504(31) 106925. 0.20159 0.25483
15785.0 1.67033 0.2637(31) 101787. 0.20172 0.26031
15795.0 1.67139 0.2700(32) 99715. 0.20185 0.26585
15805.0 1.67245 0.2785(32) 96939. 0.20197 0.27133
15815.0 1.67351 0.2773(32) 97186. 0.20210 0.27624
15825.0 1.67457 0.2749(32) 97996. 0.20223 0.28009
15835.0 1.67563 0.2870(33) 94026. 0.20236 0.28243
15845.0 1.67669 0.2832(32) 95384. 0.20249 0.28291
15855.0 1.67775 0.2853(32) 94675. 0.20262 0.28143
15865.0 1.67880 0.2755(32) 97802. 0.20275 0.27812
15875.0 1.67986 0.2814(32) 95791. 0.20288 0.27333
15885.0 1.68092 0.2675(32) 100455. 0.20301 0.26752
15895.0 1.68198 0.2616(31) 102467. 0.20315 0.26114
15905.0 1.68304 0.2562(31) 104663. 0.20328 0.25459
15915.0 1.68410 0.2475(30) 108179. 0.20341 0.24819
15925.0 1.68516 0.2453(30) 108959. 0.20355 0.24216
15935.0 1.68622 0.2374(30) 112306. 0.20368 0.23668
15945.0 1.68728 0.2331(30) 114223. 0.20382 0.23183
15955.0 1.68834 0.2250(29) 118283. 0.20396 0.22765
15965.0 1.68940 0.2258(29) 118075. 0.20410 0.22413
15975.0 1.69046 0.2188(29) 121583. 0.20423 0.22123
15985.0 1.69151 0.2153(28) 123328. 0.20437 0.21889
15995.0 1.69257 0.2173(29) 122197. 0.20451 0.21704
16005.0 1.69363 0.2125(28) 124754. 0.20465 0.21560
16015.0 1.69469 0.2159(29) 122871. 0.20479 0.21449
16025.0 1.69575 0.2164(29) 122659. 0.20493 0.21366
16035.0 1.69681 0.2156(29) 122841. 0.20508 0.21303
16045.0 1.69787 0.2081(28) 126565. 0.20522 0.21257
16055.0 1.69893 0.2152(29) 122594. 0.20536 0.21223
16065.0 1.69999 0.2117(28) 124315. 0.20550 0.21198
16075.0 1.70105 0.2090(28) 125770. 0.20565 0.21181
16085.0 1.70211 0.2133(28) 123410. 0.20579 0.21168
16095.0 1.70317 0.2081(28) 126581. 0.20594 0.21161
16105.0 1.70423 0.2104(28) 125001. 0.20608 0.21156
16115.0 1.70528 0.2102(28) 125154. 0.20623 0.21154
16125.0 1.70634 0.2101(28) 125297. 0.20638 0.21155
16135.0 1.70740 0.2083(28) 125970. 0.20652 0.21158
16145.0 1.70846 0.2101(28) 125042. 0.20667 0.21162
16155.0 1.70952 0.2109(28) 124382. 0.20682 0.21168
16165.0 1.71058 0.2082(28) 125900. 0.20697 0.21176
16175.0 1.71164 0.2112(28) 124016. 0.20712 0.21185
16185.0 1.71270 0.2101(28) 124667. 0.20727 0.21195
16195.0 1.71376 0.2112(28) 124210. 0.20742 0.21206
16205.0 1.71482 0.2052(28) 127693. 0.20757 0.21219
16215.0 1.71588 0.2145(29) 122772. 0.20772 0.21232
16225.0 1.71694 0.2139(29) 123050. 0.20787 0.21247
16235.0 1.71799 0.2106(28) 124731. 0.20802 0.21262
16245.0 1.71905 0.2078(28) 126391. 0.20817 0.21279
16255.0 1.72011 0.2100(28) 124921. 0.20833 0.21296
16265.0 1.72117 0.2089(28) 125577. 0.20848 0.21315
16275.0 1.72223 0.2080(28) 125827. 0.20863 0.21328
16285.0 1.72329 0.2169(29) 120726. 0.20879 0.21347
16295.0 1.72435 0.2089(28) 125037. 0.20894 0.21368
16305.0 1.72541 0.2103(28) 124121. 0.20910 0.21391
16315.0 1.72647 0.2154(29) 121455. 0.20925 0.21415
16325.0 1.72753 0.2113(28) 123725. 0.20941 0.21439
16335.0 1.72859 0.2120(28) 123380. 0.20956 0.21465
16345.0 1.72965 0.2109(28) 123935. 0.20972 0.21492
16355.0 1.73071 0.2197(29) 119232. 0.20988 0.21521
16365.0 1.73176 0.2133(29) 122493. 0.21003 0.21551
16375.0 1.73282 0.2138(29) 122112. 0.21019 0.21583
16385.0 1.73388 0.2156(29) 121117. 0.21035 0.21616
16395.0 1.73494 0.2120(29) 123014. 0.21050 0.21652
16405.0 1.73600 0.2120(29) 122610. 0.21066 0.21690
16415.0 1.73706 0.2100(28) 123889. 0.21082 0.21730
16425.0 1.73812 0.2119(29) 122816. 0.21098 0.21774
16435.0 1.73918 0.2154(29) 120969. 0.21114 0.21822
16445.0 1.74024 0.2112(28) 123206. 0.21130 0.21874
16455.0 1.74130 0.2112(29) 123052. 0.21145 0.21933
16465.0 1.74236 0.2214(29) 117965. 0.21161 0.21999
16475.0 1.74342 0.2184(29) 119326. 0.21177 0.22076
16485.0 1.74448 0.2220(29) 117590. 0.21193 0.22165
16495.0 1.74553 0.2139(29) 121563. 0.21209 0.22270
16505.0 1.74659 0.2143(29) 121129. 0.21225 0.22394
16515.0 1.74765 0.2254(29) 115947. 0.21241 0.22541
16525.0 1.74871 0.2204(29) 118307. 0.21258 0.22717
16535.0 1.74977 0.2285(30) 114293. 0.21274 0.22926
16545.0 1.75083 0.2300(30) 113933. 0.21290 0.23172
16555.0 1.75189 0.2267(29) 115454. 0.21306 0.23459
16565.0 1.75295 0.2321(30) 112868. 0.21322 0.23789
16575.0 1.75401 0.2395(30) 109479. 0.21338 0.24161
16585.0 1.75507 0.2409(30) 108828. 0.21354 0.24581
16595.0 1.75613 0.2433(30) 107731. 0.21370 0.25043
16605.0 1.75719 0.2519(31) 104432. 0.21387 0.25541
16615.0 1.75824 0.2588(31) 101808. 0.21403 0.26066
16625.0 1.75930 0.2638(32) 99788. 0.21419 0.26607
16635.0 1.76036 0.2708(32) 97214. 0.21435 0.27146
16645.0 1.76142 0.2780(32) 95069. 0.21451 0.27667
16655.0 1.76248 0.2757(32) 95589. 0.21468 0.28149
16665.0 1.76354 0.2863(33) 91921. 0.21484 0.28581
16675.0 1.76460 0.2905(33) 90584. 0.21500 0.28961
16685.0 1.76566 0.2866(33) 91727. 0.21516 0.29285
16695.0 1.76672 0.3020(34) 87291. 0.21533 0.29591
16705.0 1.76778 0.2892(33) 90984. 0.21549 0.29901
16715.0 1.76884 0.3029(34) 87241. 0.21565 0.30244
16725.0 1.76990 0.3037(34) 86829. 0.21581 0.30645
16735.0 1.77096 0.3123(34) 84362. 0.21598 0.31122
16745.0 1.77201 0.3211(35) 82205. 0.21614 0.31683
16755.0 1.77307 0.3207(35) 82371. 0.21630 0.32322
16765.0 1.77413 0.328(4) 80445. 0.2165 0.3302
16775.0 1.77519 0.333(4) 79136. 0.2166 0.3374
16785.0 1.77625 0.345(4) 76596. 0.2168 0.3445
16795.0 1.77731 0.349(4) 75741. 0.2170 0.3507
16805.0 1.77837 0.353(4) 75045. 0.2171 0.3555
16815.0 1.77943 0.358(4) 74001. 0.2173 0.3583
16825.0 1.78049 0.352(4) 75095. 0.2174 0.3587
16835.0 1.78155 0.350(4) 75407. 0.2176 0.3565
16845.0 1.78261 0.355(4) 74484. 0.2178 0.3519
16855.0 1.78367 0.343(4) 76794. 0.2179 0.3454
16865.0 1.78473 0.329(4) 80083. 0.2181 0.3376
16875.0 1.78579 0.326(4) 80796. 0.2182 0.3290
16885.0 1.78684 0.3169(35) 82886. 0.21841 0.32037
16895.0 1.78790 0.3055(34) 85760. 0.21857 0.31207
16905.0 1.78896 0.3004(34) 87200. 0.21873 0.30470
16915.0 1.79002 0.2986(34) 87482. 0.21889 0.29856
16925.0 1.79108 0.2968(34) 87952. 0.21905 0.29391
16935.0 1.79214 0.2880(33) 90336. 0.21921 0.29096
16945.0 1.79320 0.2893(33) 89817. 0.21937 0.28986
16955.0 1.79426 0.2919(33) 89196. 0.21953 0.29065
16965.0 1.79532 0.2886(33) 90113. 0.21969 0.29336
16975.0 1.79638 0.2967(34) 87461. 0.21985 0.29792
16985.0 1.79744 0.3054(34) 84986. 0.22001 0.30415
16995.0 1.79850 0.3171(35) 81888. 0.22017 0.31189
17005.0 1.79956 0.328(4) 79287. 0.2203 0.3208
17015.0 1.80061 0.335(4) 77580. 0.2205 0.3306
17025.0 1.80167 0.352(4) 73894. 0.2206 0.3408
17035.0 1.80273 0.358(4) 72428. 0.2208 0.3508
17045.0 1.80379 0.373(4) 69724. 0.2210 0.3600
17055.0 1.80485 0.383(4) 67740. 0.2211 0.3678
17065.0 1.80591 0.392(4) 66260. 0.2213 0.3734
17075.0 1.80697 0.392(4) 66148. 0.2214 0.3765
17085.0 1.80803 0.389(4) 66476. 0.2216 0.3769
17095.0 1.80909 0.389(4) 66444. 0.2218 0.3748
17105.0 1.81015 0.387(4) 66733. 0.2219 0.3705
17115.0 1.81121 0.386(4) 66667. 0.2221 0.3647
17125.0 1.81227 0.362(4) 70869. 0.2222 0.3580
17135.0 1.81333 0.352(4) 72524. 0.2224 0.3513
17145.0 1.81439 0.347(4) 73577. 0.2225 0.3449
17155.0 1.81544 0.343(4) 74233. 0.2227 0.3396
17165.0 1.81650 0.332(4) 76431. 0.2228 0.3354
17175.0 1.81756 0.331(4) 76424. 0.2230 0.3328
17185.0 1.81862 0.321(4) 78474. 0.2231 0.3318
17195.0 1.81968 0.326(4) 77244. 0.2233 0.3324
17205.0 1.82074 0.328(4) 76650. 0.2235 0.3345
17215.0 1.82180 0.338(4) 74359. 0.2236 0.3380
17225.0 1.82286 0.340(4) 73731. 0.2238 0.3424
17235.0 1.82392 0.349(4) 71879. 0.2239 0.3477
17245.0 1.82498 0.352(4) 71102. 0.2241 0.3533
17255.0 1.82604 0.367(4) 68145. 0.2242 0.3588
17265.0 1.82710 0.370(4) 67527. 0.2244 0.3636
17275.0 1.82816 0.381(4) 65706. 0.2245 0.3672
17285.0 1.82921 0.380(4) 65753. 0.2247 0.3688
17295.0 1.83027 0.379(4) 65929. 0.2248 0.3682
17305.0 1.83133 0.376(4) 66458. 0.2250 0.3653
17315.0 1.83239 0.367(4) 67815. 0.2251 0.3600
17325.0 1.83345 0.366(4) 67752. 0.2253 0.3527
17335.0 1.83451 0.346(4) 71574. 0.2254 0.3439
17345.0 1.83557 0.341(4) 72433. 0.2256 0.3342
17355.0 1.83663 0.333(4) 73896. 0.2257 0.3239
17365.0 1.83769 0.316(4) 77645. 0.2258 0.3136
17375.0 1.83875 0.303(4) 80577. 0.2260 0.3035
17385.0 1.83981 0.2964(35) 82225. 0.22613 0.29399
17395.0 1.84087 0.2791(34) 87002. 0.22628 0.28521
17405.0 1.84193 0.2775(34) 87444. 0.22642 0.27727
17415.0 1.84299 0.2613(33) 92625. 0.22657 0.27024
17425.0 1.84404 0.2609(33) 92415. 0.22671 0.26413
17435.0 1.84510 0.2575(33) 93322. 0.22685 0.25890
17445.0 1.84616 0.2545(33) 94119. 0.22699 0.25450
17455.0 1.84722 0.2476(32) 96625. 0.22713 0.25085
17465.0 1.84828 0.2489(32) 95970. 0.22727 0.24784
17475.0 1.84934 0.2444(32) 97391. 0.22741 0.24540
17485.0 1.85040 0.2378(32) 99921. 0.22755 0.24344
17495.0 1.85146 0.2363(32) 100235. 0.22769 0.24186
17505.0 1.85252 0.2354(32) 100474. 0.22783 0.24059
17515.0 1.85358 0.2404(32) 98418. 0.22797 0.23958
17525.0 1.85464 0.2393(32) 98800. 0.22811 0.23876
17535.0 1.85570 0.2352(32) 100436. 0.22824 0.23810
17545.0 1.85676 0.2385(32) 98955. 0.22838 0.23756
17555.0 1.85782 0.2405(32) 97948. 0.22851 0.23712
17565.0 1.85887 0.2418(32) 97178. 0.22865 0.23675
17575.0 1.85993 0.2397(32) 97833. 0.22878 0.23643
17585.0 1.86099 0.2301(31) 101469. 0.22891 0.23617
17595.0 1.86205 0.2317(32) 100549. 0.22905 0.23594
17605.0 1.86311 0.2413(32) 96845. 0.22918 0.23575
17615.0 1.86417 0.2431(32) 95978. 0.22931 0.23559
17625.0 1.86523 0.2370(32) 98193. 0.22944 0.23545
17635.0 1.86629 0.2399(32) 97238. 0.22957 0.23532
17645.0 1.86735 0.2399(32) 97119. 0.22970 0.23522
17655.0 1.86841 0.2353(32) 98726. 0.22983 0.23515
17665.0 1.86947 0.2499(33) 93196. 0.22996 0.23508
17675.0 1.87053 0.2409(32) 96303. 0.23009 0.23502
17685.0 1.87159 0.2472(33) 94017. 0.23021 0.23497
17695.0 1.87265 0.2461(33) 94258. 0.23034 0.23494
17705.0 1.87371 0.2494(33) 92957. 0.23046 0.23491
17715.0 1.87476 0.2435(32) 94830. 0.23059 0.23490
17725.0 1.87582 0.2543(33) 91216. 0.23071 0.23489
17735.0 1.87688 0.2467(33) 93792. 0.23084 0.23489
17745.0 1.87794 0.2496(33) 92398. 0.23096 0.23490
17755.0 1.87900 0.2530(33) 91166. 0.23108 0.23491
17765.0 1.88006 0.2524(33) 91444. 0.23120 0.23493
17775.0 1.88112 0.2439(33) 94360. 0.23132 0.23496
17785.0 1.88218 0.2465(33) 93207. 0.23144 0.23499
17795.0 1.88324 0.2457(33) 93265. 0.23156 0.23502
17805.0 1.88430 0.2404(32) 95138. 0.23168 0.23506
17815.0 1.88536 0.2440(33) 93533. 0.23180 0.23510
17825.0 1.88642 0.2412(33) 94380. 0.23191 0.23515
17835.0 1.88748 0.2459(33) 92423. 0.23203 0.23520
17845.0 1.88854 0.2404(33) 94249. 0.23215 0.23526
17855.0 1.88959 0.2318(32) 97204. 0.23226 0.23532
17865.0 1.89065 0.2382(33) 94646. 0.23238 0.23538
17875.0 1.89171 0.2322(32) 96741. 0.23249 0.23544
17885.0 1.89277 0.2327(32) 96555. 0.23260 0.23551
17895.0 1.89383 0.2328(32) 96619. 0.23271 0.23558
17905.0 1.89489 0.2310(32) 97055. 0.23282 0.23565
17915.0 1.89595 0.2278(32) 98146. 0.23293 0.23573
17925.0 1.89701 0.2326(32) 95917. 0.23304 0.23580
17935.0 1.89807 0.2294(32) 96819. 0.23315 0.23588
17945.0 1.89913 0.2336(32) 95091. 0.23326 0.23596
17955.0 1.90019 0.2329(32) 95101. 0.23337 0.23605
17965.0 1.90125 0.2301(32) 96080. 0.23347 0.23613
17975.0 1.90231 0.2210(32) 99892. 0.23358 0.23622
17985.0 1.90337 0.2268(32) 97162. 0.23368 0.23631
17995.0 1.90443 0.2300(32) 95933. 0.23379 0.23640
18005.0 1.90548 0.2260(32) 97351. 0.23389 0.23650
18015.0 1.90654 0.2294(32) 95791. 0.23399 0.23660
18025.0 1.90760 0.2344(33) 93547. 0.23410 0.23670
18035.0 1.90866 0.2260(32) 96465. 0.23420 0.23680
18045.0 1.90972 0.2305(33) 94331. 0.23430 0.23690
18055.0 1.91078 0.2301(33) 94493. 0.23440 0.23701
18065.0 1.91184 0.2300(33) 94411. 0.23449 0.23712
18075.0 1.91290 0.2298(33) 94402. 0.23459 0.23724
18085.0 1.91396 0.2270(32) 95055. 0.23469 0.23736
18095.0 1.91502 0.2278(33) 94469. 0.23479 0.23748
18105.0 1.91608 0.2384(33) 90119. 0.23488 0.23762
18115.0 1.91714 0.2328(33) 92030. 0.23498 0.23776
18125.0 1.91820 0.2351(33) 90770. 0.23507 0.23791
18135.0 1.91926 0.2347(33) 90759. 0.23516 0.23800
18145.0 1.92032 0.2296(33) 92540. 0.23525 0.23818
18155.0 1.92137 0.2283(33) 92947. 0.23535 0.23838
18165.0 1.92243 0.2319(33) 91536. 0.23544 0.23861
18175.0 1.92349 0.2390(34) 88732. 0.23553 0.23886
18185.0 1.92455 0.2333(33) 90515. 0.23561 0.23915
18195.0 1.92561 0.2320(33) 90736. 0.23570 0.23947
18205.0 1.92667 0.2339(33) 89817. 0.23579 0.23985
18215.0 1.92773 0.2295(33) 91053. 0.23588 0.24028
18225.0 1.92879 0.2355(34) 88604. 0.23596 0.24077
18235.0 1.92985 0.2356(34) 88284. 0.23605 0.24132
18245.0 1.93091 0.2388(34) 86958. 0.23613 0.24194
18255.0 1.93197 0.2386(34) 86892. 0.23622 0.24262
18265.0 1.93303 0.2380(34) 87000. 0.23630 0.24337
18275.0 1.93409 0.2411(34) 85666. 0.23638 0.24418
18285.0 1.93515 0.2374(34) 86685. 0.23646 0.24504
18295.0 1.93621 0.2380(34) 86352. 0.23654 0.24578
18305.0 1.93726 0.2415(34) 85082. 0.23662 0.24670
18315.0 1.93832 0.2414(34) 84877. 0.23670 0.24761
18325.0 1.93938 0.2444(35) 83733. 0.23678 0.24848
18335.0 1.94044 0.2424(34) 84153. 0.23685 0.24928
18345.0 1.94150 0.2483(35) 82190. 0.23693 0.24996
18355.0 1.94256 0.2466(35) 82683. 0.23701 0.25050
18365.0 1.94362 0.2452(35) 83088. 0.23708 0.25087
18375.0 1.94468 0.2468(35) 82261. 0.23715 0.25105
18385.0 1.94574 0.2403(34) 84152. 0.23723 0.25105
18395.0 1.94680 0.2469(35) 81835. 0.23730 0.25089
18405.0 1.94786 0.2411(35) 83397. 0.23737 0.25058
18415.0 1.94892 0.248(4) 81097. 0.2374 0.2502
18425.0 1.94998 0.2429(35) 82687. 0.23751 0.24973
18435.0 1.95104 0.250(4) 80325. 0.2376 0.2493
18445.0 1.95210 0.2413(35) 82905. 0.23765 0.24880
18455.0 1.95316 0.247(4) 81005. 0.2377 0.2484
18465.0 1.95421 0.247(4) 80961. 0.2378 0.2481
18475.0 1.95527 0.2415(35) 82482. 0.23785 0.24803
18485.0 1.95633 0.2425(35) 81843. 0.23791 0.24794
18495.0 1.95739 0.2404(35) 82262. 0.23798 0.24800
18505.0 1.95845 0.249(4) 79437. 0.2380 0.2482
18515.0 1.95951 0.247(4) 79956. 0.2381 0.2486
18525.0 1.96057 0.2362(35) 83155. 0.23816 0.24916
18535.0 1.96163 0.248(4) 79458. 0.2382 0.2499
18545.0 1.96269 0.253(4) 77726. 0.2383 0.2508
18555.0 1.96375 0.247(4) 79271. 0.2383 0.2519
18565.0 1.96481 0.255(4) 76882. 0.2384 0.2532
18575.0 1.96587 0.256(4) 76321. 0.2385 0.2546
18585.0 1.96693 0.257(4) 76188. 0.2385 0.2561
18595.0 1.96799 0.262(4) 74663. 0.2386 0.2578
18605.0 1.96905 0.259(4) 75089. 0.2386 0.2595
18615.0 1.97011 0.258(4) 75246. 0.2387 0.2613
18625.0 1.97116 0.267(4) 72844. 0.2387 0.2630
18635.0 1.97222 0.265(4) 72810. 0.2388 0.2646
18645.0 1.97328 0.267(4) 72295. 0.2388 0.2662
18655.0 1.97434 0.269(4) 71685. 0.2389 0.2677
18665.0 1.97540 0.266(4) 72251. 0.2390 0.2691
18675.0 1.97646 0.268(4) 71618. 0.2390 0.2704
18685.0 1.97752 0.274(4) 70028. 0.2391 0.2716
18695.0 1.97858 0.272(4) 70391. 0.2391 0.2730
18705.0 1.97964 0.272(4) 70339. 0.2391 0.2745
18715.0 1.98070 0.275(4) 69544. 0.2392 0.2763
18725.0 1.98176 0.278(4) 68889. 0.2392 0.2784
18735.0 1.98282 0.279(4) 68442. 0.2393 0.2811
18745.0 1.98388 0.283(4) 67418. 0.2393 0.2843
18755.0 1.98494 0.291(4) 65593. 0.2394 0.2882
18765.0 1.98600 0.295(4) 64603. 0.2394 0.2927
18775.0 1.98706 0.303(4) 62795. 0.2395 0.2979
18785.0 1.98811 0.305(4) 62322. 0.2395 0.3036
18795.0 1.98917 0.319(4) 59544. 0.2396 0.3099
18805.0 1.99023 0.317(4) 59875. 0.2396 0.3165
18815.0 1.99129 0.321(4) 59051. 0.2396 0.3234
18825.0 1.99235 0.342(4) 55562. 0.2397 0.3301
18835.0 1.99341 0.350(4) 54171. 0.2397 0.3365
18845.0 1.99447 0.348(4) 54509. 0.2398 0.3423
18855.0 1.99553 0.348(4) 54294. 0.2398 0.3468
18865.0 1.99659 0.354(4) 53360. 0.2398 0.3501
18875.0 1.99765 0.360(4) 52426. 0.2399 0.3518
18885.0 1.99871 0.358(4) 52612. 0.2399 0.3518
18895.0 1.99977 0.355(4) 53112. 0.2399 0.3500
18905.0 2.00083 0.347(4) 54131. 0.2400 0.3466
18915.0 2.00189 0.346(4) 54047. 0.2400 0.3417
18925.0 2.00295 0.337(4) 55398. 0.2400 0.3358
18935.0 2.00401 0.329(4) 56675. 0.2401 0.3291
18945.0 2.00506 0.321(4) 57928. 0.2401 0.3218
18955.0 2.00612 0.322(4) 57489. 0.2401 0.3144
18965.0 2.00718 0.305(4) 60231. 0.2402 0.3069
18975.0 2.00824 0.304(4) 60342. 0.2402 0.2997
18985.0 2.00930 0.292(4) 62623. 0.2402 0.2928
18995.0 2.01036 0.283(4) 64369. 0.2403 0.2864
19005.0 2.01142 0.287(4) 63441. 0.2403 0.2805
19015.0 2.01248 0.280(4) 64691. 0.2403 0.2752
19025.0 2.01354 0.270(4) 67142. 0.2403 0.2705
19035.0 2.01460 0.274(4) 66019. 0.2404 0.2664
19045.0 2.01566 0.267(4) 67686. 0.2404 0.2629
19055.0 2.01672 0.267(4) 67346. 0.2404 0.2599
19065.0 2.01778 0.263(4) 68223. 0.2404 0.2573
19075.0 2.01884 0.259(4) 69131. 0.2405 0.2552
19085.0 2.01990 0.260(4) 68974. 0.2405 0.2534
19095.0 2.02096 0.252(4) 70804. 0.2405 0.2519
19105.0 2.02202 0.254(4) 70167. 0.2405 0.2508
19115.0 2.02307 0.255(4) 69459. 0.2406 0.2498
19125.0 2.02413 0.255(4) 69273. 0.2406 0.2490
19135.0 2.02519 0.250(4) 70879. 0.2406 0.2483
19145.0 2.02625 0.247(4) 71492. 0.2406 0.2478
19155.0 2.02731 0.253(4) 70035. 0.2406 0.2474
19165.0 2.02837 0.245(4) 72210. 0.2407 0.2470
19175.0 2.02943 0.247(4) 71376. 0.2407 0.2467
19185.0 2.03049 0.257(4) 68520. 0.2407 0.2465
19195.0 2.03155 0.248(4) 70890. 0.2407 0.2463
19205.0 2.03261 0.251(4) 69831. 0.2407 0.2461
19215.0 2.03367 0.246(4) 70887. 0.2408 0.2460
19225.0 2.03473 0.248(4) 70289. 0.2408 0.2460
19235.0 2.03579 0.255(4) 68329. 0.2408 0.2460
19245.0 2.03685 0.251(4) 69030. 0.2408 0.2460
19255.0 2.03791 0.259(4) 67044. 0.2408 0.2461
19265.0 2.03897 0.252(4) 68675. 0.2408 0.2462
19275.0 2.04003 0.260(4) 66687. 0.2408 0.2464
19285.0 2.04109 0.254(4) 67895. 0.2409 0.2467
19295.0 2.04214 0.256(4) 67386. 0.2409 0.2470
19305.0 2.04320 0.253(4) 68093. 0.2409 0.2474
19315.0 2.04426 0.260(4) 66284. 0.2409 0.2478
19325.0 2.04532 0.257(4) 66934. 0.2409 0.2483
19335.0 2.04638 0.255(4) 67190. 0.2409 0.2488
19345.0 2.04744 0.259(4) 66306. 0.2409 0.2494
19355.0 2.04850 0.256(4) 67090. 0.2409 0.2500
19365.0 2.04956 0.259(4) 66144. 0.2410 0.2507
19375.0 2.05062 0.266(4) 64483. 0.2410 0.2513
19385.0 2.05168 0.256(4) 66575. 0.2410 0.2520
19395.0 2.05274 0.268(4) 63448. 0.2410 0.2527
19405.0 2.05380 0.262(4) 64613. 0.2410 0.2532
19415.0 2.05486 0.260(4) 65097. 0.2410 0.2537
19425.0 2.05592 0.261(4) 64754. 0.2410 0.2541
19435.0 2.05698 0.262(4) 64477. 0.2410 0.2543
19445.0 2.05804 0.259(4) 65062. 0.2410 0.2544
19455.0 2.05910 0.256(4) 65841. 0.2410 0.2543
19465.0 2.06015 0.259(4) 64982. 0.2410 0.2541
19475.0 2.06121 0.260(4) 64779. 0.2410 0.2537
19485.0 2.06227 0.258(4) 64930. 0.2410 0.2532
19495.0 2.06333 0.255(4) 65661. 0.2411 0.2526
19505.0 2.06439 0.250(4) 66884. 0.2411 0.2519
19515.0 2.06545 0.255(4) 65628. 0.2411 0.2512
19525.0 2.06651 0.248(4) 67083. 0.2411 0.2505
19535.0 2.06757 0.249(4) 66700. 0.2411 0.2498
19545.0 2.06863 0.255(4) 65093. 0.2411 0.2491
19555.0 2.06969 0.252(4) 65759. 0.2411 0.2485
19565.0 2.07075 0.252(4) 65676. 0.2411 0.2479
19575.0 2.07181 0.250(4) 66170. 0.2411 0.2473
19585.0 2.07287 0.242(4) 67893. 0.2411 0.2468
19595.0 2.07393 0.251(4) 65329. 0.2411 0.2464
19605.0 2.07499 0.248(4) 66148. 0.2411 0.2460
19615.0 2.07605 0.249(4) 65663. 0.2411 0.2456
19625.0 2.07711 0.243(4) 67052. 0.2411 0.2453
19635.0 2.07817 0.247(4) 65908. 0.2411 0.2451
19645.0 2.07922 0.240(4) 67414. 0.2411 0.2449
19655.0 2.08028 0.243(4) 66431. 0.2411 0.2447
19665.0 2.08134 0.245(4) 65755. 0.2411 0.2446
19675.0 2.08240 0.252(4) 64078. 0.2411 0.2445
19685.0 2.08346 0.244(4) 65754. 0.2411 0.2444
19695.0 2.08452 0.244(4) 65626. 0.2411 0.2443
19705.0 2.08558 0.244(4) 65411. 0.2411 0.2443
19715.0 2.08664 0.240(4) 66277. 0.2411 0.2443
19725.0 2.08770 0.239(4) 66657. 0.2411 0.2443
19735.0 2.08876 0.237(4) 66825. 0.2411 0.2443
19745.0 2.08982 0.249(4) 63734. 0.2411 0.2443
19755.0 2.09088 0.238(4) 66368. 0.2411 0.2443
19765.0 2.09194 0.246(4) 64266. 0.2411 0.2443
19775.0 2.09300 0.236(4) 66735. 0.2411 0.2443
19785.0 2.09406 0.245(4) 64110. 0.2411 0.2443
19795.0 2.09512 0.249(4) 63100. 0.2411 0.2444
19805.0 2.09618 0.246(4) 63605. 0.2411 0.2444
19815.0 2.09724 0.242(4) 64237. 0.2411 0.2444
19825.0 2.09829 0.250(4) 62229. 0.2411 0.2445
19835.0 2.09935 0.248(4) 62599. 0.2411 0.2445
19845.0 2.10041 0.241(4) 64208. 0.2411 0.2446
19855.0 2.10147 0.246(4) 62871. 0.2411 0.2446
19865.0 2.10253 0.248(4) 62588. 0.2411 0.2447
19875.0 2.10359 0.246(4) 62887. 0.2411 0.2448
19885.0 2.10465 0.243(4) 63504. 0.2411 0.2448
19895.0 2.10571 0.243(4) 63286. 0.2411 0.2449
19905.0 2.10677 0.257(4) 60033. 0.2411 0.2450
19915.0 2.10783 0.247(4) 62193. 0.2411 0.2451
19925.0 2.10889 0.246(4) 62254. 0.2411 0.2452
19935.0 2.10995 0.247(4) 62212. 0.2411 0.2453
19945.0 2.11101 0.244(4) 62668. 0.2411 0.2454
19955.0 2.11207 0.250(4) 61300. 0.2411 0.2455
19965.0 2.11313 0.244(4) 62584. 0.2411 0.2456
19975.0 2.11419 0.251(4) 60836. 0.2411 0.2458
19985.0 2.11525 0.240(4) 63487. 0.2411 0.2459
19995.0 2.11631 0.246(4) 62266. 0.2411 0.2461
20005.0 2.11737 0.245(4) 62205. 0.2411 0.2462
20015.0 2.11842 0.245(4) 62228. 0.2411 0.2464
20025.0 2.11948 0.246(4) 62010. 0.2411 0.2466
20035.0 2.12054 0.242(4) 62690. 0.2411 0.2468
20045.0 2.12160 0.243(4) 62279. 0.2411 0.2470
20055.0 2.12266 0.239(4) 63331. 0.2411 0.2472
20065.0 2.12372 0.246(4) 61569. 0.2411 0.2474
20075.0 2.12478 0.238(4) 63199. 0.2411 0.2477
20085.0 2.12584 0.245(4) 61705. 0.2411 0.2480
20095.0 2.12690 0.246(4) 61237. 0.2411 0.2483
20105.0 2.12796 0.251(4) 60086. 0.2411 0.2487
20115.0 2.12902 0.249(4) 60402. 0.2411 0.2491
20125.0 2.13008 0.242(4) 61858. 0.2411 0.2495
20135.0 2.13114 0.250(4) 59919. 0.2411 0.2500
20145.0 2.13220 0.243(4) 61656. 0.2411 0.2505
20155.0 2.13326 0.237(4) 62968. 0.2411 0.2512
20165.0 2.13432 0.252(4) 59188. 0.2411 0.2519
20175.0 2.13538 0.249(4) 59754. 0.2411 0.2528
20185.0 2.13644 0.261(4) 57196. 0.2411 0.2538
20195.0 2.13750 0.255(4) 58459. 0.2411 0.2550
20205.0 2.13856 0.260(4) 57553. 0.2411 0.2565
20215.0 2.13961 0.255(4) 58456. 0.2411 0.2582
20225.0 2.14067 0.259(4) 57330. 0.2411 0.2602
20235.0 2.14173 0.257(4) 57509. 0.2411 0.2626
20245.0 2.14279 0.269(4) 55055. 0.2411 0.2654
20255.0 2.14385 0.264(4) 55744. 0.2411 0.2687
20265.0 2.14491 0.265(4) 55493. 0.2411 0.2725
20275.0 2.14597 0.275(4) 53375. 0.2411 0.2770
20285.0 2.14703 0.275(4) 53431. 0.2411 0.2821
20295.0 2.14809 0.286(4) 51311. 0.2411 0.2879
20305.0 2.14915 0.288(4) 51011. 0.2411 0.2944
20315.0 2.15021 0.293(4) 49863. 0.2411 0.3016
20325.0 2.15127 0.321(5) 45692. 0.2411 0.3096
20335.0 2.15233 0.319(5) 45855. 0.2411 0.3183
20345.0 2.15339 0.322(5) 45377. 0.2411 0.3276
20355.0 2.15445 0.344(5) 42581. 0.2411 0.3374
20365.0 2.15551 0.349(5) 41750. 0.2411 0.3477
20375.0 2.15657 0.362(5) 40131. 0.2411 0.3583
20385.0 2.15763 0.370(5) 39242. 0.2411 0.3688
20395.0 2.15869 0.386(5) 37700. 0.2412 0.3792
20405.0 2.15974 0.406(5) 35792. 0.2412 0.3891
20415.0 2.16080 0.398(5) 36489. 0.2412 0.3982
20425.0 2.16186 0.410(5) 35326. 0.2412 0.4062
20435.0 2.16292 0.412(5) 35008. 0.2412 0.4129
20445.0 2.16398 0.417(5) 34552. 0.2412 0.4180
20455.0 2.16504 0.418(5) 34305. 0.2412 0.4214
20465.0 2.16610 0.431(5) 33219. 0.2412 0.4230
20475.0 2.16716 0.424(5) 33657. 0.2412 0.4231
20485.0 2.16822 0.425(5) 33574. 0.2412 0.4217
20495.0 2.16928 0.415(5) 34259. 0.2412 0.4190
20505.0 2.17034 0.417(5) 34112. 0.2412 0.4153
20515.0 2.17140 0.413(5) 34346. 0.2412 0.4108
20525.0 2.17246 0.398(5) 35559. 0.2412 0.4057
20535.0 2.17352 0.392(5) 35949. 0.2412 0.4000
20545.0 2.17458 0.391(5) 35925. 0.2413 0.3939
20555.0 2.17564 0.384(5) 36461. 0.2413 0.3876
20565.0 2.17670 0.371(5) 37598. 0.2413 0.3809
20575.0 2.17776 0.362(5) 38415. 0.2413 0.3739
20585.0 2.17882 0.360(5) 38468. 0.2413 0.3667
20595.0 2.17988 0.348(5) 39748. 0.2413 0.3592
20605.0 2.18094 0.344(5) 40052. 0.2413 0.3516
20615.0 2.18199 0.337(5) 40807. 0.2413 0.3438
20625.0 2.18305 0.325(5) 42167. 0.2413 0.3362
20635.0 2.18411 0.319(5) 42709. 0.2414 0.3287
20645.0 2.18517 0.314(5) 43335. 0.2414 0.3214
20655.0 2.18623 0.317(5) 42839. 0.2414 0.3144
20665.0 2.18729 0.301(5) 44977. 0.2414 0.3077
20675.0 2.18835 0.294(5) 45872. 0.2414 0.3014
20685.0 2.18941 0.302(5) 44679. 0.2414 0.2955
20695.0 2.19047 0.294(5) 45732. 0.2414 0.2901
20705.0 2.19153 0.291(5) 46006. 0.2414 0.2852
20715.0 2.19259 0.281(5) 47599. 0.2415 0.2807
20725.0 2.19365 0.280(5) 47639. 0.2415 0.2767
20735.0 2.19471 0.282(5) 47449. 0.2415 0.2731
20745.0 2.19577 0.274(5) 48594. 0.2415 0.2699
20755.0 2.19683 0.265(4) 50127. 0.2415 0.2671
20765.0 2.19789 0.269(4) 49402. 0.2415 0.2647
20775.0 2.19895 0.265(4) 49910. 0.2416 0.2626
20785.0 2.20001 0.259(4) 50837. 0.2416 0.2608
20795.0 2.20107 0.264(4) 49970. 0.2416 0.2593
20805.0 2.20213 0.254(4) 51615. 0.2416 0.2580
20815.0 2.20319 0.255(4) 51320. 0.2416 0.2569
20825.0 2.20424 0.264(4) 49523. 0.2417 0.2559
20835.0 2.20530 0.263(4) 49617. 0.2417 0.2552
20845.0 2.20636 0.263(4) 49524. 0.2417 0.2545
20855.0 2.20742 0.249(4) 52150. 0.2417 0.2539
20865.0 2.20848 0.256(4) 50529. 0.2417 0.2534
20875.0 2.20954 0.252(4) 51136. 0.2418 0.2530
20885.0 2.21060 0.246(4) 52189. 0.2418 0.2527
20895.0 2.21166 0.251(4) 51078. 0.2418 0.2523
20905.0 2.21272 0.253(4) 50523. 0.2418 0.2520
20915.0 2.21378 0.251(4) 50919. 0.2418 0.2518
20925.0 2.21484 0.250(4) 51019. 0.2419 0.2516
20935.0 2.21590 0.249(4) 51198. 0.2419 0.2514
20945.0 2.21696 0.251(4) 50708. 0.2419 0.2512
20955.0 2.21802 0.248(4) 51369. 0.2419 0.2510
20965.0 2.21908 0.249(4) 50996. 0.2420 0.2509
20975.0 2.22014 0.242(4) 52241. 0.2420 0.2508
20985.0 2.22120 0.250(4) 50409. 0.2420 0.2508
20995.0 2.22226 0.243(4) 51600. 0.2421 0.2507
21005.0 2.22332 0.247(4) 50635. 0.2421 0.2507
21015.0 2.22438 0.257(5) 48878. 0.2421 0.2508
21025.0 2.22544 0.250(4) 50217. 0.2421 0.2509
21035.0 2.22650 0.253(4) 49632. 0.2422 0.2510
21045.0 2.22755 0.249(4) 50107. 0.2422 0.2512
21055.0 2.22861 0.244(4) 50970. 0.2422 0.2515
21065.0 2.22967 0.245(4) 50599. 0.2423 0.2518
21075.0 2.23073 0.237(4) 52013. 0.2423 0.2523
21085.0 2.23179 0.251(5) 49320. 0.2423 0.2528
21095.0 2.23285 0.245(4) 50257. 0.2423 0.2535
21105.0 2.23391 0.254(5) 48415. 0.2424 0.2543
21115.0 2.23497 0.250(5) 48921. 0.2424 0.2553
21125.0 2.23603 0.249(5) 48975. 0.2424 0.2565
21135.0 2.23709 0.247(5) 49309. 0.2425 0.2579
21145.0 2.23815 0.249(5) 48843. 0.2425 0.2596
21155.0 2.23921 0.254(5) 47930. 0.2425 0.2615
21165.0 2.24027 0.263(5) 46275. 0.2426 0.2638
21175.0 2.24133 0.255(5) 47571. 0.2426 0.2664
21185.0 2.24239 0.259(5) 46822. 0.2427 0.2694
21195.0 2.24345 0.267(5) 45400. 0.2427 0.2727
21205.0 2.24451 0.261(5) 46308. 0.2427 0.2765
21215.0 2.24557 0.269(5) 44878. 0.2428 0.2806
21225.0 2.24663 0.285(5) 42405. 0.2428 0.2852
21235.0 2.24769 0.283(5) 42403. 0.2428 0.2901
21245.0 2.24875 0.297(5) 40466. 0.2429 0.2953
21255.0 2.24981 0.300(5) 39814. 0.2429 0.3008
21265.0 2.25086 0.302(5) 39379. 0.2430 0.3065
21275.0 2.25192 0.314(5) 37931. 0.2430 0.3123
21285.0 2.25298 0.320(5) 37091. 0.2430 0.3182
21295.0 2.25404 0.329(5) 36006. 0.2431 0.3239
21305.0 2.25510 0.331(5) 35607. 0.2431 0.3293
21315.0 2.25616 0.342(5) 34427. 0.2432 0.3342
21325.0 2.25722 0.356(5) 33115. 0.2432 0.3385
21335.0 2.25828 0.339(5) 34484. 0.2432 0.3420
21345.0 2.25934 0.355(6) 32930. 0.2433 0.3445
21355.0 2.26040 0.350(5) 33354. 0.2433 0.3460
21365.0 2.26146 0.350(5) 33334. 0.2434 0.3463
21375.0 2.26252 0.356(6) 32644. 0.2434 0.3455
21385.0 2.26358 0.352(6) 32843. 0.2435 0.3436
21395.0 2.26464 0.339(5) 34025. 0.2435 0.3408
21405.0 2.26570 0.332(5) 34628. 0.2436 0.3370
21415.0 2.26676 0.332(5) 34422. 0.2436 0.3326
21425.0 2.26782 0.326(5) 34858. 0.2437 0.3277
21435.0 2.26888 0.324(5) 34961. 0.2437 0.3224
21445.0 2.26994 0.329(5) 34349. 0.2438 0.3168
21455.0 2.27100 0.309(5) 36396. 0.2438 0.3112
21465.0 2.27206 0.306(5) 36648. 0.2438 0.3057
21475.0 2.27312 0.300(5) 37224. 0.2439 0.3002
21485.0 2.27418 0.292(5) 38142. 0.2439 0.2950
21495.0 2.27524 0.286(5) 38678. 0.2440 0.2901
21505.0 2.27629 0.287(5) 38524. 0.2441 0.2855
21515.0 2.27735 0.264(5) 41582. 0.2441 0.2813
21525.0 2.27841 0.275(5) 39824. 0.2442 0.2775
21535.0 2.27947 0.270(5) 40306. 0.2442 0.2741
21545.0 2.28053 0.276(5) 39329. 0.2443 0.2711
21555.0 2.28159 0.271(5) 39867. 0.2443 0.2685
21565.0 2.28265 0.272(5) 39587. 0.2444 0.2662
21575.0 2.28371 0.273(5) 39467. 0.2444 0.2643
21585.0 2.28477 0.265(5) 40407. 0.2445 0.2628
21595.0 2.28583 0.268(5) 39988. 0.2445 0.2616
21605.0 2.28689 0.262(5) 40766. 0.2446 0.2607
21615.0 2.28795 0.264(5) 40160. 0.2446 0.2601
21625.0 2.28901 0.262(5) 40319. 0.2447 0.2597
21635.0 2.29007 0.262(5) 40212. 0.2448 0.2595
21645.0 2.29113 0.258(5) 40544. 0.2448 0.2596
21655.0 2.29219 0.266(5) 39194. 0.2449 0.2599
21665.0 2.29325 0.265(5) 39404. 0.2449 0.2604
21675.0 2.29431 0.251(5) 41428. 0.2450 0.2611
21685.0 2.29537 0.254(5) 40944. 0.2450 0.2620
21695.0 2.29643 0.273(5) 38362. 0.2451 0.2630
21705.0 2.29749 0.270(5) 38830. 0.2452 0.2642
21715.0 2.29855 0.275(5) 38090. 0.2452 0.2655
21725.0 2.29961 0.271(5) 38438. 0.2453 0.2669
21735.0 2.30067 0.261(5) 39760. 0.2453 0.2684
21745.0 2.30173 0.270(5) 38395. 0.2454 0.2699
21755.0 2.30278 0.271(5) 38154. 0.2455 0.2715
21765.0 2.30384 0.271(5) 38115. 0.2455 0.2731
21775.0 2.30490 0.272(5) 37925. 0.2456 0.2747
21785.0 2.30596 0.280(5) 36806. 0.2457 0.2762
21795.0 2.30702 0.287(5) 35969. 0.2457 0.2776
21805.0 2.30808 0.273(5) 37674. 0.2458 0.2789
21815.0 2.30914 0.276(5) 37331. 0.2458 0.2800
21825.0 2.31020 0.268(5) 38302. 0.2459 0.2809
21835.0 2.31126 0.283(5) 36423. 0.2460 0.2816
21845.0 2.31232 0.282(5) 36396. 0.2460 0.2820
21855.0 2.31338 0.279(5) 36706. 0.2461 0.2822
21865.0 2.31444 0.280(5) 36429. 0.2462 0.2822
21875.0 2.31550 0.283(5) 36029. 0.2462 0.2819
21885.0 2.31656 0.276(5) 36706. 0.2463 0.2814
21895.0 2.31762 0.281(5) 36079. 0.2464 0.2807
21905.0 2.31868 0.279(5) 36394. 0.2464 0.2798
21915.0 2.31974 0.274(5) 36924. 0.2465 0.2788
21925.0 2.32080 0.273(5) 37005. 0.2466 0.2777
21935.0 2.32186 0.267(5) 37773. 0.2466 0.2765
21945.0 2.32292 0.275(5) 36532. 0.2467 0.2752
21955.0 2.32398 0.283(5) 35533. 0.2468 0.2738
21965.0 2.32504 0.274(5) 36392. 0.2469 0.2724
21975.0 2.32610 0.268(5) 37140. 0.2469 0.2710
21985.0 2.32716 0.259(5) 38277. 0.2470 0.2696
21995.0 2.32822 0.262(5) 37734. 0.2471 0.2682
22005.0 2.32928 0.257(5) 38260. 0.2471 0.2668
22015.0 2.33033 0.270(5) 36365. 0.2472 0.2654
22025.0 2.33139 0.268(5) 36571. 0.2473 0.2641
22035.0 2.33245 0.252(5) 38565. 0.2474 0.2628
22045.0 2.33351 0.263(5) 36979. 0.2474 0.2617
22055.0 2.33457 0.253(5) 38144. 0.2475 0.2605
22065.0 2.33563 0.252(5) 38247. 0.2476 0.2595
22075.0 2.33669 0.254(5) 38071. 0.2476 0.2586
22085.0 2.33775 0.259(5) 37304. 0.2477 0.2577
22095.0 2.33881 0.253(5) 37930. 0.2478 0.2569
22105.0 2.33987 0.252(5) 38066. 0.2479 0.2562
22115.0 2.34093 0.233(5) 40683. 0.2479 0.2556
22125.0 2.34199 0.253(5) 37673. 0.2480 0.2550
22135.0 2.34305 0.256(5) 37118. 0.2481 0.2545
22145.0 2.34411 0.252(5) 37734. 0.2482 0.2541
22155.0 2.34517 0.253(5) 37443. 0.2482 0.2537
22165.0 2.34623 0.240(5) 39176. 0.2483 0.2534
22175.0 2.34729 0.253(5) 37126. 0.2484 0.2531
22185.0 2.34835 0.257(5) 36427. 0.2485 0.2529
22195.0 2.34941 0.249(5) 37465. 0.2485 0.2527
22205.0 2.35047 0.250(5) 37148. 0.2486 0.2525
22215.0 2.35153 0.249(5) 37301. 0.2487 0.2524
22225.0 2.35259 0.241(5) 38326. 0.2488 0.2523
22235.0 2.35365 0.252(5) 36446. 0.2489 0.2522
22245.0 2.35471 0.260(5) 35419. 0.2489 0.2521
22255.0 2.35577 0.252(5) 36257. 0.2490 0.2521
22265.0 2.35683 0.257(5) 35480. 0.2491 0.2521
22275.0 2.35789 0.255(5) 35641. 0.2492 0.2520
22285.0 2.35894 0.251(5) 36281. 0.2492 0.2520
22295.0 2.36000 0.255(5) 35570. 0.2493 0.2520
22305.0 2.36106 0.246(5) 36660. 0.2494 0.2521
22315.0 2.36212 0.261(5) 34510. 0.2495 0.2521
22325.0 2.36318 0.238(5) 37617. 0.2496 0.2521
22335.0 2.36424 0.246(5) 36423. 0.2496 0.2521
22345.0 2.36530 0.247(5) 36358. 0.2497 0.2522
22355.0 2.36636 0.249(5) 36015. 0.2498 0.2522
22365.0 2.36742 0.252(5) 35627. 0.2499 0.2523
22375.0 2.36848 0.257(5) 34843. 0.2500 0.2523
22385.0 2.36954 0.249(5) 35584. 0.2500 0.2522
22395.0 2.37060 0.250(5) 35340. 0.2501 0.2523
22405.0 2.37166 0.262(5) 33796. 0.2502 0.2523
22415.0 2.37272 0.255(5) 34574. 0.2503 0.2524
22425.0 2.37378 0.260(5) 33748. 0.2504 0.2525
22435.0 2.37484 0.251(5) 34668. 0.2505 0.2525
22445.0 2.37590 0.249(5) 34808. 0.2505 0.2526
22455.0 2.37696 0.259(5) 33369. 0.2506 0.2527
22465.0 2.37802 0.242(5) 35568. 0.2507 0.2528
22475.0 2.37908 0.257(5) 33527. 0.2508 0.2529
22485.0 2.38014 0.256(5) 33606. 0.2509 0.2530
22495.0 2.38120 0.249(5) 34469. 0.2509 0.2531
22505.0 2.38226 0.261(6) 32931. 0.2510 0.2531
22515.0 2.38332 0.259(5) 33064. 0.2511 0.2532
22525.0 2.38438 0.255(5) 33441. 0.2512 0.2533
22535.0 2.38544 0.255(5) 33363. 0.2513 0.2534
22545.0 2.38650 0.257(5) 33090. 0.2514 0.2535
22555.0 2.38756 0.247(5) 34291. 0.2514 0.2536
22565.0 2.38862 0.251(5) 33766. 0.2515 0.2537
22575.0 2.38967 0.260(6) 32498. 0.2516 0.2538
22585.0 2.39073 0.261(6) 32269. 0.2517 0.2540
22595.0 2.39179 0.251(5) 33367. 0.2518 0.2541
22605.0 2.39285 0.257(6) 32591. 0.2519 0.2542
22615.0 2.39391 0.264(6) 31678. 0.2519 0.2544
22625.0 2.39497 0.251(5) 33074. 0.2520 0.2545
22635.0 2.39603 0.258(6) 32079. 0.2521 0.2547
22645.0 2.39709 0.252(6) 32826. 0.2522 0.2548
22655.0 2.39815 0.260(6) 31771. 0.2523 0.2550
22665.0 2.39921 0.262(6) 31569. 0.2524 0.2552
22675.0 2.40027 0.264(6) 31201. 0.2525 0.2554
22685.0 2.40133 0.268(6) 30711. 0.2525 0.2556
22695.0 2.40239 0.251(6) 32520. 0.2526 0.2559
22705.0 2.40345 0.260(6) 31430. 0.2527 0.2561
22715.0 2.40451 0.251(6) 32417. 0.2528 0.2564
22725.0 2.40557 0.257(6) 31681. 0.2529 0.2567
22735.0 2.40663 0.249(6) 32399. 0.2530 0.2571
22745.0 2.40769 0.261(6) 30967. 0.2530 0.2575
22755.0 2.40875 0.265(6) 30498. 0.2531 0.2580
22765.0 2.40981 0.270(6) 29865. 0.2532 0.2585
22775.0 2.41087 0.264(6) 30518. 0.2533 0.2592
22785.0 2.41193 0.263(6) 30627. 0.2534 0.2599
22795.0 2.41299 0.266(6) 30338. 0.2535 0.2607
22805.0 2.41405 0.260(6) 31061. 0.2536 0.2616
22815.0 2.41511 0.270(6) 29842. 0.2536 0.2626
22825.0 2.41617 0.273(6) 29416. 0.2537 0.2638
22835.0 2.41723 0.267(6) 30048. 0.2538 0.2651
22845.0 2.41829 0.274(6) 29175. 0.2539 0.2665
22855.0 2.41935 0.287(6) 27922. 0.2540 0.2681
22865.0 2.42041 0.284(6) 28081. 0.2541 0.2699
22875.0 2.42147 0.281(6) 28482. 0.2542 0.2718
22885.0 2.42252 0.272(6) 29319. 0.2542 0.2739
22895.0 2.42358 0.281(6) 28415. 0.2543 0.2762
22905.0 2.42464 0.286(6) 27936. 0.2544 0.2786
22915.0 2.42570 0.286(6) 27868. 0.2545 0.2811
22925.0 2.42676 0.289(6) 27610. 0.2546 0.2838
22935.0 2.42782 0.292(6) 27212. 0.2547 0.2865
22945.0 2.42888 0.289(6) 27344. 0.2547 0.2893
22955.0 2.42994 0.294(6) 26857. 0.2548 0.2921
22965.0 2.43100 0.282(6) 27835. 0.2549 0.2948
22975.0 2.43206 0.302(6) 26034. 0.2550 0.2975
22985.0 2.43312 0.294(6) 26702. 0.2551 0.3000
22995.0 2.43418 0.294(6) 26737. 0.2552 0.3023
23005.0 2.43524 0.292(6) 26824. 0.2553 0.3043
23015.0 2.43630 0.285(6) 27397. 0.2553 0.3060
23025.0 2.43736 0.303(6) 25802. 0.2554 0.3073
23035.0 2.43842 0.302(6) 25796. 0.2555 0.3081
23045.0 2.43948 0.287(6) 26975. 0.2556 0.3085
23055.0 2.44054 0.295(6) 26203. 0.2557 0.3084
23065.0 2.44160 0.288(6) 26715. 0.2558 0.3079
23075.0 2.44266 0.293(6) 26167. 0.2558 0.3069
23085.0 2.44372 0.301(6) 25572. 0.2559 0.3055
23095.0 2.44478 0.293(6) 26193. 0.2560 0.3038
23105.0 2.44584 0.305(6) 25108. 0.2561 0.3018
23115.0 2.44690 0.282(6) 27032. 0.2562 0.2996
23125.0 2.44796 0.292(6) 26127. 0.2563 0.2972
23135.0 2.44902 0.287(6) 26439. 0.2563 0.2947
23145.0 2.45008 0.282(6) 26876. 0.2564 0.2921
23155.0 2.45114 0.283(6) 26609. 0.2565 0.2896
23165.0 2.45220 0.290(6) 25948. 0.2566 0.2870
23175.0 2.45326 0.284(6) 26411. 0.2567 0.2846
23185.0 2.45432 0.277(6) 27046. 0.2568 0.2822
23195.0 2.45538 0.281(6) 26662. 0.2568 0.2799
23205.0 2.45643 0.280(6) 26782. 0.2569 0.2778
23215.0 2.45749 0.277(6) 26884. 0.2570 0.2758
23225.0 2.45855 0.275(6) 27007. 0.2571 0.2740
23235.0 2.45961 0.269(6) 27584. 0.2572 0.2723
23245.0 2.46067 0.279(6) 26660. 0.2573 0.2708
23255.0 2.46173 0.264(6) 27917. 0.2573 0.2694
23265.0 2.46279 0.270(6) 27339. 0.2574 0.2682
23275.0 2.46385 0.277(6) 26633. 0.2575 0.2672
23285.0 2.46491 0.269(6) 27298. 0.2576 0.2662
23295.0 2.46597 0.275(6) 26729. 0.2577 0.2654
23305.0 2.46703 0.269(6) 26997. 0.2577 0.2647
23315.0 2.46809 0.264(6) 27429. 0.2578 0.2641
23325.0 2.46915 0.268(6) 27071. 0.2579 0.2636
23335.0 2.47021 0.273(6) 26610. 0.2580 0.2631
23345.0 2.47127 0.265(6) 27257. 0.2581 0.2628
23355.0 2.47233 0.259(6) 27717. 0.2582 0.2624
23365.0 2.47339 0.268(6) 26798. 0.2582 0.2622
23375.0 2.47445 0.260(6) 27433. 0.2583 0.2620
23385.0 2.47551 0.270(6) 26400. 0.2584 0.2618
23395.0 2.47657 0.273(6) 26090. 0.2585 0.2616
23405.0 2.47763 0.258(6) 27473. 0.2586 0.2615
23415.0 2.47869 0.264(6) 26868. 0.2586 0.2614
23425.0 2.47975 0.263(6) 27011. 0.2587 0.2613
23435.0 2.48081 0.264(6) 26849. 0.2588 0.2613
23445.0 2.48187 0.260(6) 27156. 0.2589 0.2612
23455.0 2.48293 0.269(6) 26284. 0.2590 0.2612
23465.0 2.48399 0.257(6) 27429. 0.2590 0.2612
23475.0 2.48505 0.264(6) 26769. 0.2591 0.2612
23485.0 2.48611 0.260(6) 27161. 0.2592 0.2612
23495.0 2.48717 0.279(6) 25283. 0.2593 0.2613
23505.0 2.48823 0.269(6) 26067. 0.2593 0.2613
23515.0 2.48929 0.268(6) 26148. 0.2594 0.2613
23525.0 2.49035 0.277(6) 25258. 0.2595 0.2614
23535.0 2.49141 0.275(6) 25405. 0.2596 0.2614
23545.0 2.49247 0.268(6) 25961. 0.2597 0.2615
23555.0 2.49353 0.263(6) 26334. 0.2597 0.2615
23565.0 2.49459 0.279(6) 24732. 0.2598 0.2616
23575.0 2.49564 0.278(6) 24837. 0.2599 0.2617
23585.0 2.49670 0.272(6) 25201. 0.2600 0.2617
23595.0 2.49776 0.268(6) 25378. 0.2601 0.2618
23605.0 2.49882 0.273(6) 24863. 0.2601 0.2619
23615.0 2.49988 0.270(6) 25129. 0.2602 0.2619
23625.0 2.50094 0.273(6) 24797. 0.2603 0.2620
23635.0 2.50200 0.277(6) 24444. 0.2604 0.2621
23645.0 2.50306 0.264(6) 25390. 0.2604 0.2622
23655.0 2.50412 0.267(6) 25186. 0.2605 0.2623
23665.0 2.50518 0.261(6) 25682. 0.2606 0.2623
23675.0 2.50624 0.278(6) 24179. 0.2607 0.2624
23685.0 2.50730 0.270(6) 24878. 0.2607 0.2625
23695.0 2.50836 0.277(6) 24160. 0.2608 0.2626
23705.0 2.50942 0.284(7) 23478. 0.2609 0.2626
23715.0 2.51048 0.273(6) 24285. 0.2610 0.2627
23725.0 2.51154 0.278(6) 23814. 0.2610 0.2628
23735.0 2.51260 0.286(7) 23183. 0.2611 0.2628
23745.0 2.51366 0.269(6) 24572. 0.2612 0.2629
23755.0 2.51472 0.285(7) 23195. 0.2613 0.2629
23765.0 2.51578 0.277(6) 23851. 0.2613 0.2630
23775.0 2.51684 0.287(7) 22979. 0.2614 0.2631
23785.0 2.51790 0.278(7) 23659. 0.2615 0.2631
23795.0 2.51896 0.280(7) 23468. 0.2616 0.2632
23805.0 2.52002 0.274(6) 23890. 0.2616 0.2632
23815.0 2.52108 0.267(6) 24552. 0.2617 0.2633
23825.0 2.52214 0.260(6) 25225. 0.2618 0.2634
23835.0 2.52320 0.293(7) 22478. 0.2619 0.2634
23845.0 2.52426 0.271(6) 24159. 0.2619 0.2635
23855.0 2.52532 0.276(6) 23697. 0.2620 0.2636
23865.0 2.52638 0.264(6) 24814. 0.2621 0.2636
23875.0 2.52744 0.271(6) 24249. 0.2622 0.2637
23885.0 2.52850 0.265(6) 24776. 0.2622 0.2638
23895.0 2.52956 0.282(7) 23346. 0.2623 0.2639
23905.0 2.53062 0.270(6) 24242. 0.2624 0.2640
23915.0 2.53168 0.278(7) 23476. 0.2625 0.2641
23925.0 2.53274 0.261(6) 24916. 0.2625 0.2643
23935.0 2.53380 0.272(6) 24197. 0.2626 0.2644
23945.0 2.53486 0.267(6) 24514. 0.2627 0.2645
23955.0 2.53592 0.276(7) 23601. 0.2627 0.2647
23965.0 2.53698 0.276(6) 23671. 0.2628 0.2648
23975.0 2.53803 0.272(6) 23977. 0.2629 0.2650
23985.0 2.53909 0.268(6) 24304. 0.2630 0.2652
23995.0 2.54015 0.266(6) 24412. 0.2630 0.2655
24005.0 2.54121 0.265(6) 24513. 0.2631 0.2657
24015.0 2.54227 0.261(6) 24873. 0.2632 0.2660
24025.0 2.54333 0.263(6) 24647. 0.2632 0.2664
24035.0 2.54439 0.280(7) 23245. 0.2633 0.2667
24045.0 2.54545 0.286(7) 22638. 0.2634 0.2671
24055.0 2.54651 0.271(6) 23789. 0.2635 0.2676
24065.0 2.54757 0.276(7) 23373. 0.2635 0.2681
24075.0 2.54863 0.273(6) 23773. 0.2636 0.2686
24085.0 2.54969 0.274(6) 23684. 0.2637 0.2693
24095.0 2.55075 0.262(6) 24821. 0.2637 0.2699
24105.0 2.55181 0.258(6) 25104. 0.2638 0.2707
24115.0 2.55287 0.273(6) 23768. 0.2639 0.2715
24125.0 2.55393 0.273(6) 23765. 0.2640 0.2723
24135.0 2.55499 0.287(7) 22735. 0.2640 0.2732
24145.0 2.55605 0.275(6) 23680. 0.2641 0.2742
24155.0 2.55711 0.274(6) 23732. 0.2642 0.2753
24165.0 2.55817 0.273(6) 23849. 0.2642 0.2763
24175.0 2.55923 0.282(7) 23160. 0.2643 0.2775
24185.0 2.56029 0.279(7) 23299. 0.2644 0.2786
24195.0 2.56135 0.278(7) 23342. 0.2645 0.2798
24205.0 2.56241 0.280(7) 23258. 0.2645 0.2810
24215.0 2.56347 0.286(7) 22790. 0.2646 0.2821
24225.0 2.56453 0.278(7) 23426. 0.2647 0.2833
24235.0 2.56559 0.265(6) 24422. 0.2647 0.2844
24245.0 2.56665 0.286(7) 22722. 0.2648 0.2854
24255.0 2.56771 0.284(7) 22857. 0.2649 0.2863
24265.0 2.56877 0.288(7) 22574. 0.2649 0.2871
24275.0 2.56983 0.283(7) 22964. 0.2650 0.2878
24285.0 2.57089 0.277(7) 23301. 0.2651 0.2883
24295.0 2.57195 0.270(6) 23871. 0.2652 0.2887
24305.0 2.57301 0.289(7) 22347. 0.2652 0.2888
24315.0 2.57407 0.280(7) 23030. 0.2653 0.2888
24325.0 2.57513 0.273(7) 23478. 0.2654 0.2887
24335.0 2.57619 0.289(7) 22295. 0.2654 0.2883
24345.0 2.57725 0.282(7) 22830. 0.2655 0.2879
24355.0 2.57831 0.279(7) 23090. 0.2656 0.2872
24365.0 2.57937 0.276(7) 23344. 0.2656 0.2865
24375.0 2.58043 0.282(7) 22816. 0.2657 0.2857
24385.0 2.58149 0.271(6) 23805. 0.2658 0.2848
24395.0 2.58255 0.271(6) 23730. 0.2659 0.2839
24405.0 2.58361 0.279(7) 23165. 0.2659 0.2829
24415.0 2.58467 0.262(6) 24554. 0.2660 0.2819
24425.0 2.58573 0.267(6) 24068. 0.2661 0.2809
24435.0 2.58678 0.271(6) 23769. 0.2661 0.2799
24445.0 2.58784 0.268(6) 23905. 0.2662 0.2790
24455.0 2.58890 0.269(6) 23782. 0.2663 0.2781
24465.0 2.58996 0.268(6) 23797. 0.2664 0.2772
24475.0 2.59102 0.276(7) 23167. 0.2664 0.2764
24485.0 2.59208 0.263(6) 24253. 0.2665 0.2756
24495.0 2.59314 0.265(6) 24115. 0.2666 0.2749
24505.0 2.59420 0.265(6) 24048. 0.2666 0.2743
24515.0 2.59526 0.268(6) 23868. 0.2667 0.2737
24525.0 2.59632 0.283(7) 22506. 0.2668 0.2732
24535.0 2.59738 0.262(6) 24197. 0.2668 0.2727
24545.0 2.59844 0.261(6) 24311. 0.2669 0.2723
24555.0 2.59950 0.255(6) 24723. 0.2670 0.2719
24565.0 2.60056 0.275(7) 23047. 0.2671 0.2716
24575.0 2.60162 0.270(7) 23404. 0.2671 0.2713
24585.0 2.60268 0.264(6) 23930. 0.2672 0.2711
24595.0 2.60374 0.268(7) 23424. 0.2673 0.2709
24605.0 2.60480 0.266(7) 23584. 0.2673 0.2707
24615.0 2.60586 0.274(7) 22899. 0.2674 0.2706
24625.0 2.60692 0.260(6) 23907. 0.2675 0.2705
24635.0 2.60798 0.274(7) 22763. 0.2676 0.2704
24645.0 2.60904 0.263(7) 23495. 0.2676 0.2703
24655.0 2.61010 0.256(6) 24178. 0.2677 0.2702
24665.0 2.61116 0.268(7) 23032. 0.2678 0.2702
24675.0 2.61222 0.276(7) 22381. 0.2679 0.2701
24685.0 2.61328 0.268(7) 22886. 0.2679 0.2701
24695.0 2.61434 0.282(7) 21683. 0.2680 0.2700
24705.0 2.61540 0.274(7) 22264. 0.2681 0.2700
24715.0 2.61646 0.277(7) 21903. 0.2681 0.2700
24725.0 2.61752 0.268(7) 22699. 0.2682 0.2700
24735.0 2.61858 0.270(7) 22455. 0.2683 0.2700
24745.0 2.61964 0.277(7) 21746. 0.2684 0.2700
24755.0 2.62070 0.263(7) 22932. 0.2684 0.2699
24765.0 2.62176 0.275(7) 21783. 0.2685 0.2700
24775.0 2.62282 0.265(7) 22553. 0.2686 0.2700
24785.0 2.62388 0.279(7) 21521. 0.2687 0.2700
24795.0 2.62494 0.277(7) 21700. 0.2687 0.2700
24805.0 2.62600 0.279(7) 21487. 0.2688 0.2700
24815.0 2.62706 0.262(7) 22812. 0.2689 0.2700
24825.0 2.62812 0.283(7) 21189. 0.2690 0.2700
24835.0 2.62918 0.277(7) 21678. 0.2690 0.2701
24845.0 2.63024 0.251(6) 23698. 0.2691 0.2701
24855.0 2.63130 0.285(7) 21112. 0.2692 0.2701
24865.0 2.63236 0.268(7) 22345. 0.2693 0.2702
24875.0 2.63342 0.273(7) 21883. 0.2693 0.2702
24885.0 2.63448 0.282(7) 21263. 0.2694 0.2703
24895.0 2.63554 0.271(7) 22063. 0.2695 0.2703
24905.0 2.63660 0.271(7) 22034. 0.2696 0.2704
24915.0 2.63766 0.279(7) 21388. 0.2697 0.2704
24925.0 2.63872 0.263(7) 22621. 0.2697 0.2705
24935.0 2.63978 0.266(7) 22371. 0.2698 0.2705
24945.0 2.64084 0.266(7) 22461. 0.2699 0.2706
24955.0 2.64190 0.268(7) 22259. 0.2700 0.2707
24965.0 2.64296 0.269(7) 22183. 0.2700 0.2707
24975.0 2.64402 0.272(7) 21864. 0.2701 0.2708
24985.0 2.64508 0.273(7) 21890. 0.2702 0.2709
24995.0 2.64613 0.269(7) 22161. 0.2703 0.2709
25005.0 2.64719 0.270(7) 22077. 0.2704 0.2710
25015.0 2.64825 0.277(7) 21645. 0.2704 0.2711
25025.0 2.64931 0.271(7) 22043. 0.2705 0.2711
25035.0 2.65037 0.257(7) 23170. 0.2706 0.2712
25045.0 2.65143 0.267(7) 22355. 0.2707 0.2713
25055.0 2.65249 0.271(7) 21952. 0.2708 0.2713
25065.0 2.65355 0.264(7) 22561. 0.2709 0.2714
25075.0 2.65461 0.270(7) 22096. 0.2709 0.2715
25085.0 2.65567 0.265(7) 22539. 0.2710 0.2716
25095.0 2.65673 0.270(7) 21975. 0.2711 0.2717
25105.0 2.65779 0.269(7) 22010. 0.2712 0.2717
25115.0 2.65885 0.257(7) 22924. 0.2713 0.2718
25125.0 2.65991 0.261(7) 22550. 0.2714 0.2719
25135.0 2.66097 0.269(7) 21892. 0.2714 0.2720
25145.0 2.66203 0.272(7) 21567. 0.2715 0.2720
25155.0 2.66309 0.270(7) 21644. 0.2716 0.2721
25165.0 2.66415 0.273(7) 21278. 0.2717 0.2722
25175.0 2.66521 0.270(7) 21528. 0.2718 0.2723
25185.0 2.66627 0.277(7) 21118. 0.2719 0.2724
25195.0 2.66733 0.288(7) 20403. 0.2720 0.2725
25205.0 2.66839 0.272(7) 21463. 0.2720 0.2725
25215.0 2.66945 0.268(7) 21735. 0.2721 0.2726
25225.0 2.67051 0.267(7) 21794. 0.2722 0.2727
25235.0 2.67157 0.278(7) 20945. 0.2723 0.2728
25245.0 2.67263 0.267(7) 21702. 0.2724 0.2729
25255.0 2.67369 0.274(7) 21067. 0.2725 0.2730
25265.0 2.67475 0.271(7) 21345. 0.2726 0.2731
25275.0 2.67581 0.257(7) 22460. 0.2727 0.2732
25285.0 2.67687 0.278(7) 20901. 0.2728 0.2732
25295.0 2.67793 0.292(7) 19966. 0.2729 0.2733
25305.0 2.67899 0.273(7) 21291. 0.2729 0.2734
25315.0 2.68005 0.273(7) 21316. 0.2730 0.2735
25325.0 2.68111 0.270(7) 21503. 0.2731 0.2736
25335.0 2.68217 0.278(7) 20920. 0.2732 0.2736
25345.0 2.68323 0.274(7) 21091. 0.2733 0.2737
25355.0 2.68429 0.266(7) 21648. 0.2734 0.2738
25365.0 2.68535 0.273(7) 21107. 0.2735 0.2739
25375.0 2.68641 0.257(7) 22317. 0.2736 0.2740
25385.0 2.68747 0.278(7) 20662. 0.2737 0.2741
25395.0 2.68853 0.261(7) 21835. 0.2738 0.2742
25405.0 2.68959 0.281(7) 20290. 0.2739 0.2743
25415.0 2.69065 0.278(7) 20516. 0.2740 0.2744
25425.0 2.69171 0.276(7) 20580. 0.2741 0.2745
25435.0 2.69277 0.269(7) 20999. 0.2742 0.2746
25445.0 2.69383 0.268(7) 21082. 0.2743 0.2747
25455.0 2.69489 0.272(7) 20697. 0.2744 0.2748
25465.0 2.69595 0.272(7) 20667. 0.2745 0.2749
25475.0 2.69701 0.266(7) 21077. 0.2746 0.2750
25485.0 2.69807 0.280(7) 20121. 0.2747 0.2751
25495.0 2.69913 0.266(7) 21045. 0.2748 0.2752
25505.0 2.70019 0.279(7) 20056. 0.2749 0.2753
25515.0 2.70125 0.278(7) 20122. 0.2750 0.2754
25525.0 2.70231 0.266(7) 21006. 0.2751 0.2756
25535.0 2.70337 0.275(7) 20367. 0.2752 0.2757
25545.0 2.70443 0.269(7) 20829. 0.2753 0.2758
25555.0 2.70549 0.273(7) 20563. 0.2754 0.2759
25565.0 2.70655 0.289(7) 19535. 0.2755 0.2760
25575.0 2.70761 0.291(7) 19389. 0.2756 0.2761
25585.0 2.70867 0.271(7) 20723. 0.2757 0.2762
25595.0 2.70973 0.280(7) 19978. 0.2758 0.2763
25605.0 2.71079 0.276(7) 20289. 0.2759 0.2764
25615.0 2.71185 0.278(7) 20106. 0.2760 0.2765
25625.0 2.71291 0.274(7) 20343. 0.2762 0.2767
25635.0 2.71397 0.278(7) 19992. 0.2763 0.2768
25645.0 2.71503 0.278(7) 19963. 0.2764 0.2769
25655.0 2.71609 0.290(7) 19129. 0.2765 0.2770
25665.0 2.71715 0.285(7) 19379. 0.2766 0.2771
25675.0 2.71821 0.272(7) 20365. 0.2767 0.2772
25685.0 2.71927 0.269(7) 20620. 0.2768 0.2774
25695.0 2.72033 0.271(7) 20363. 0.2769 0.2775
25705.0 2.72139 0.276(7) 19883. 0.2770 0.2776
25715.0 2.72245 0.275(7) 19851. 0.2771 0.2777
25725.0 2.72351 0.278(7) 19651. 0.2773 0.2778
25735.0 2.72456 0.282(7) 19333. 0.2774 0.2780
25745.0 2.72562 0.269(7) 20180. 0.2775 0.2781
25755.0 2.72668 0.290(7) 18872. 0.2776 0.2782
25765.0 2.72774 0.274(7) 19877. 0.2777 0.2783
25775.0 2.72880 0.284(7) 19128. 0.2778 0.2785
25785.0 2.72986 0.275(7) 19701. 0.2780 0.2786
25795.0 2.73092 0.284(7) 19069. 0.2781 0.2787
25805.0 2.73198 0.292(7) 18433. 0.2782 0.2789
25815.0 2.73304 0.282(7) 19071. 0.2783 0.2790
25825.0 2.73410 0.280(7) 19283. 0.2784 0.2791
25835.0 2.73516 0.287(7) 18864. 0.2785 0.2793
25845.0 2.73622 0.268(7) 20048. 0.2787 0.2794
25855.0 2.73728 0.285(7) 19075. 0.2788 0.2795
25865.0 2.73834 0.285(7) 19056. 0.2789 0.2797
25875.0 2.73940 0.284(7) 19178. 0.2790 0.2798
25885.0 2.74046 0.281(7) 19304. 0.2792 0.2799
25895.0 2.74152 0.280(7) 19481. 0.2793 0.2801
25905.0 2.74258 0.277(7) 19651. 0.2794 0.2802
25915.0 2.74364 0.276(7) 19747. 0.2795 0.2804
25925.0 2.74470 0.277(7) 19711. 0.2796 0.2805
25935.0 2.74576 0.288(7) 18978. 0.2798 0.2806
25945.0 2.74682 0.287(7) 19065. 0.2799 0.2808
25955.0 2.74788 0.276(7) 19793. 0.2800 0.2809
25965.0 2.74894 0.282(7) 19379. 0.2802 0.2811
25975.0 2.75000 0.281(7) 19460. 0.2803 0.2812
25985.0 2.75106 0.273(7) 20001. 0.2804 0.2814
25995.0 2.75212 0.286(7) 19128. 0.2805 0.2816
26005.0 2.75318 0.279(7) 19597. 0.2807 0.2817
26015.0 2.75424 0.282(7) 19390. 0.2808 0.2819
26025.0 2.75530 0.282(7) 19319. 0.2809 0.2820
26035.0 2.75636 0.278(7) 19615. 0.2811 0.2822
26045.0 2.75742 0.273(7) 20006. 0.2812 0.2824
26055.0 2.75848 0.284(7) 19332. 0.2813 0.2825
26065.0 2.75954 0.280(7) 19608. 0.2814 0.2827
26075.0 2.76060 0.273(7) 19996. 0.2816 0.2829
26085.0 2.76166 0.260(7) 21058. 0.2817 0.2830
26095.0 2.76272 0.275(7) 19826. 0.2818 0.2832
26105.0 2.76378 0.271(7) 20192. 0.2820 0.2834
26115.0 2.76484 0.271(7) 20206. 0.2821 0.2836
26125.0 2.76590 0.286(7) 19157. 0.2823 0.2838
26135.0 2.76696 0.265(7) 20643. 0.2824 0.2839
26145.0 2.76802 0.270(7) 20308. 0.2825 0.2841
26155.0 2.76908 0.280(7) 19607. 0.2827 0.2843
26165.0 2.77014 0.277(7) 19782. 0.2828 0.2846
26175.0 2.77120 0.286(7) 19111. 0.2829 0.2848
26185.0 2.77226 0.287(7) 19005. 0.2831 0.2850
26195.0 2.77332 0.276(7) 19691. 0.2832 0.2852
26205.0 2.77438 0.274(7) 19825. 0.2834 0.2855
26215.0 2.77544 0.279(7) 19454. 0.2835 0.2857
26225.0 2.77650 0.285(7) 19070. 0.2836 0.2860
26235.0 2.77756 0.293(7) 18521. 0.2838 0.2863
26245.0 2.77862 0.278(7) 19420. 0.2839 0.2866
26255.0 2.77968 0.286(7) 18837. 0.2841 0.2869
26265.0 2.78074 0.281(7) 19152. 0.2842 0.2873
26275.0 2.78180 0.290(7) 18504. 0.2843 0.2877
26285.0 2.78286 0.283(7) 18942. 0.2845 0.2881
26295.0 2.78392 0.277(7) 19315. 0.2846 0.2885
26305.0 2.78498 0.288(7) 18620. 0.2848 0.2890
26315.0 2.78604 0.290(7) 18444. 0.2849 0.2895
26325.0 2.78710 0.286(7) 18676. 0.2851 0.2901
26335.0 2.78816 0.280(7) 18991. 0.2852 0.2908
26345.0 2.78922 0.287(7) 18490. 0.2853 0.2915
26355.0 2.79028 0.287(7) 18425. 0.2855 0.2922
26365.0 2.79134 0.278(7) 19013. 0.2856 0.2933
26375.0 2.79240 0.290(7) 18178. 0.2858 0.2942
26385.0 2.79346 0.286(7) 18410. 0.2859 0.2952
26395.0 2.79452 0.299(8) 17595. 0.2861 0.2963
26405.0 2.79558 0.297(8) 17673. 0.2862 0.2975
26415.0 2.79664 0.299(8) 17487. 0.2864 0.2988
26425.0 2.79770 0.305(8) 17014. 0.2865 0.3002
26435.0 2.79876 0.311(8) 16703. 0.2867 0.3016
26445.0 2.79982 0.309(8) 16722. 0.2868 0.3032
26455.0 2.80088 0.314(8) 16473. 0.2870 0.3049
26465.0 2.80194 0.295(8) 17530. 0.2871 0.3067
26475.0 2.80300 0.302(8) 17106. 0.2873 0.3085
26485.0 2.80406 0.299(8) 17333. 0.2874 0.3104
26495.0 2.80512 0.318(8) 16281. 0.2876 0.3124
26505.0 2.80618 0.310(8) 16740. 0.2877 0.3145
26515.0 2.80724 0.315(8) 16446. 0.2879 0.3166
26525.0 2.80830 0.311(8) 16565. 0.2880 0.3188
26535.0 2.80936 0.314(8) 16354. 0.2882 0.3209
26545.0 2.81042 0.320(8) 16005. 0.2883 0.3231
26555.0 2.81148 0.333(8) 15348. 0.2885 0.3252
26565.0 2.81254 0.333(8) 15231. 0.2886 0.3273
26575.0 2.81360 0.328(8) 15500. 0.2888 0.3293
26585.0 2.81466 0.317(8) 16046. 0.2889 0.3311
26595.0 2.81572 0.341(8) 14875. 0.2891 0.3328
26605.0 2.81678 0.338(8) 14994. 0.2892 0.3344
26615.0 2.81784 0.330(8) 15331. 0.2894 0.3357
26625.0 2.81890 0.334(8) 15145. 0.2895 0.3369
26635.0 2.81996 0.347(8) 14553. 0.2897 0.3377
26645.0 2.82102 0.336(8) 15019. 0.2898 0.3383
26655.0 2.82208 0.342(8) 14718. 0.2900 0.3386
26665.0 2.82314 0.337(8) 14930. 0.2902 0.3387
26675.0 2.82420 0.340(8) 14777. 0.2903 0.3385
26685.0 2.82526 0.335(8) 14956. 0.2905 0.3380
26695.0 2.82632 0.337(8) 14806. 0.2906 0.3373
26705.0 2.82738 0.335(8) 14851. 0.2908 0.3364
26715.0 2.82844 0.333(8) 14955. 0.2909 0.3352
26725.0 2.82950 0.331(8) 15094. 0.2911 0.3339
26735.0 2.83056 0.351(8) 14175. 0.2912 0.3325
26745.0 2.83162 0.347(8) 14316. 0.2914 0.3309
26755.0 2.83268 0.331(8) 14953. 0.2915 0.3292
26765.0 2.83374 0.317(8) 15576. 0.2917 0.3275
26775.0 2.83480 0.329(8) 14996. 0.2919 0.3257
26785.0 2.83586 0.340(8) 14530. 0.2920 0.3239
26795.0 2.83692 0.319(8) 15428. 0.2922 0.3221
26805.0 2.83798 0.319(8) 15424. 0.2923 0.3204
26815.0 2.83904 0.321(8) 15278. 0.2925 0.3186
26825.0 2.84010 0.325(8) 15036. 0.2926 0.3169
26835.0 2.84116 0.325(8) 14992. 0.2928 0.3153
26845.0 2.84222 0.319(8) 15185. 0.2929 0.3138
26855.0 2.84328 0.310(8) 15614. 0.2931 0.3123
26865.0 2.84434 0.322(8) 15022. 0.2932 0.3109
26875.0 2.84540 0.324(8) 14985. 0.2934 0.3096
26885.0 2.84646 0.305(8) 15935. 0.2936 0.3084
26895.0 2.84752 0.315(8) 15467. 0.2937 0.3073
26905.0 2.84858 0.328(8) 14837. 0.2939 0.3063
26915.0 2.84964 0.307(8) 15753. 0.2940 0.3053
26925.0 2.85070 0.308(8) 15706. 0.2942 0.3045
26935.0 2.85176 0.295(8) 16364. 0.2943 0.3037
26945.0 2.85282 0.316(8) 15365. 0.2945 0.3031
26955.0 2.85388 0.307(8) 15830. 0.2946 0.3025
26965.0 2.85494 0.309(8) 15681. 0.2948 0.3019
26975.0 2.85600 0.308(8) 15783. 0.2949 0.3015
26985.0 2.85706 0.304(8) 15980. 0.2951 0.3011
26995.0 2.85812 0.295(8) 16499. 0.2952 0.3008
27005.0 2.85918 0.306(8) 15956. 0.2954 0.3005
27015.0 2.86024 0.299(8) 16379. 0.2955 0.3002
27025.0 2.86130 0.308(8) 15961. 0.2957 0.3000
27035.0 2.86236 0.309(8) 15929. 0.2959 0.2999
27045.0 2.86342 0.300(8) 16404. 0.2960 0.2998
27055.0 2.86448 0.298(8) 16443. 0.2962 0.2997
27065.0 2.86554 0.279(8) 17519. 0.2963 0.2996
27075.0 2.86660 0.294(8) 16624. 0.2965 0.2996
27085.0 2.86766 0.293(8) 16589. 0.2966 0.2995
27095.0 2.86872 0.298(8) 16292. 0.2968 0.2995
27105.0 2.86978 0.298(8) 16294. 0.2969 0.2995
27115.0 2.87084 0.299(8) 16211. 0.2970 0.2996
27125.0 2.87190 0.300(8) 16096. 0.2972 0.2996
27135.0 2.87296 0.307(8) 15697. 0.2973 0.2997
27145.0 2.87402 0.296(8) 16229. 0.2975 0.2997
27155.0 2.87508 0.298(8) 16231. 0.2976 0.2998
27165.0 2.87614 0.299(8) 16130. 0.2978 0.2999
27175.0 2.87720 0.299(8) 16144. 0.2979 0.2999
27185.0 2.87826 0.308(8) 15680. 0.2981 0.3000
27195.0 2.87932 0.307(8) 15729. 0.2982 0.3001
27205.0 2.88038 0.281(8) 17101. 0.2984 0.3002
27215.0 2.88144 0.311(8) 15447. 0.2985 0.3003
27225.0 2.88250 0.305(8) 15698. 0.2987 0.3004
27235.0 2.88356 0.309(8) 15560. 0.2988 0.3005
27245.0 2.88462 0.298(8) 16039. 0.2989 0.3006
27255.0 2.88568 0.297(8) 16214. 0.2991 0.3007
27265.0 2.88674 0.298(8) 16164. 0.2992 0.3008
27275.0 2.88780 0.301(8) 15997. 0.2994 0.3009
27285.0 2.88886 0.293(8) 16396. 0.2995 0.3010
27295.0 2.88992 0.296(8) 16228. 0.2996 0.3012
27305.0 2.89098 0.302(8) 15961. 0.2998 0.3013
27315.0 2.89204 0.299(8) 16067. 0.2999 0.3014
27325.0 2.89310 0.294(8) 16250. 0.3001 0.3015
27335.0 2.89416 0.288(8) 16572. 0.3002 0.3016
27345.0 2.89522 0.302(8) 15774. 0.3003 0.3017
27355.0 2.89628 0.317(8) 15069. 0.3005 0.3018
27365.0 2.89734 0.295(8) 16082. 0.3006 0.3019
27375.0 2.89840 0.311(8) 15238. 0.3007 0.3021
27385.0 2.89946 0.293(8) 16082. 0.3009 0.3022
27395.0 2.90052 0.297(8) 15795. 0.3010 0.3023
27405.0 2.90158 0.306(8) 15314. 0.3011 0.3024
27415.0 2.90264 0.306(8) 15279. 0.3013 0.3025
27425.0 2.90370 0.320(8) 14590. 0.3014 0.3026
27435.0 2.90476 0.307(8) 15113. 0.3015 0.3028
27445.0 2.90582 0.312(8) 14884. 0.3016 0.3029
27455.0 2.90688 0.297(8) 15588. 0.3018 0.3030
27465.0 2.90794 0.299(8) 15442. 0.3019 0.3031
27475.0 2.90900 0.292(8) 15860. 0.3020 0.3032
27485.0 2.91006 0.299(8) 15531. 0.3021 0.3033
27495.0 2.91112 0.311(8) 14910. 0.3023 0.3034
27505.0 2.91218 0.299(8) 15498. 0.3024 0.3036
27515.0 2.91324 0.293(8) 15739. 0.3025 0.3037
27525.0 2.91430 0.306(8) 15045. 0.3026 0.3038
27535.0 2.91536 0.315(8) 14549. 0.3028 0.3039
27545.0 2.91642 0.302(8) 15115. 0.3029 0.3040
27555.0 2.91748 0.310(8) 14712. 0.3030 0.3041
27565.0 2.91854 0.312(8) 14686. 0.3031 0.3042
27575.0 2.91960 0.313(8) 14618. 0.3032 0.3043
27585.0 2.92066 0.320(8) 14282. 0.3033 0.3045
27595.0 2.92172 0.311(8) 14618. 0.3034 0.3046
27605.0 2.92278 0.302(8) 15060. 0.3036 0.3047
27615.0 2.92384 0.316(8) 14365. 0.3037 0.3048
27625.0 2.92490 0.295(8) 15303. 0.3038 0.3049
27635.0 2.92596 0.303(8) 14931. 0.3039 0.3050
27645.0 2.92702 0.313(8) 14445. 0.3040 0.3051
27655.0 2.92808 0.288(8) 15726. 0.3041 0.3052
27665.0 2.92914 0.322(8) 14153. 0.3042 0.3053
27675.0 2.93020 0.314(8) 14521. 0.3043 0.3054
27685.0 2.93126 0.319(8) 14225. 0.3044 0.3055
27695.0 2.93232 0.324(8) 13935. 0.3045 0.3056
27705.0 2.93338 0.320(8) 14084. 0.3046 0.3057
27715.0 2.93444 0.312(8) 14405. 0.3047 0.3058
27725.0 2.93550 0.316(8) 14187. 0.3048 0.3059
27735.0 2.93656 0.319(8) 14105. 0.3049 0.3060
27745.0 2.93762 0.319(8) 14089. 0.3050 0.3061
27755.0 2.93868 0.311(8) 14444. 0.3051 0.3062
27765.0 2.93974 0.304(8) 14822. 0.3052 0.3063
27775.0 2.94080 0.307(8) 14615. 0.3053 0.3064
27785.0 2.94186 0.311(8) 14422. 0.3054 0.3065
27795.0 2.94292 0.308(8) 14519. 0.3055 0.3066
27805.0 2.94398 0.300(8) 14874. 0.3055 0.3067
27815.0 2.94504 0.304(8) 14608. 0.3056 0.3068
27825.0 2.94610 0.303(8) 14708. 0.3057 0.3068
27835.0 2.94716 0.320(8) 13932. 0.3058 0.3069
27845.0 2.94822 0.322(8) 13909. 0.3059 0.3070
27855.0 2.94928 0.317(8) 14008. 0.3060 0.3071
27865.0 2.95034 0.300(8) 14763. 0.3060 0.3072
27875.0 2.95140 0.317(8) 13935. 0.3061 0.3073
27885.0 2.95246 0.326(9) 13505. 0.3062 0.3074
27895.0 2.95352 0.308(8) 14173. 0.3063 0.3074
27905.0 2.95458 0.311(8) 13980. 0.3063 0.3075
27915.0 2.95564 0.314(9) 13838. 0.3064 0.3076
27925.0 2.95670 0.316(9) 13692. 0.3065 0.3077
27935.0 2.95776 0.322(9) 13425. 0.3065 0.3077
27945.0 2.95882 0.324(9) 13286. 0.3066 0.3078
27955.0 2.95988 0.314(9) 13626. 0.3067 0.3079
27965.0 2.96094 0.319(9) 13408. 0.3067 0.3080
27975.0 2.96200 0.316(9) 13544. 0.3068 0.3080
27985.0 2.96306 0.324(9) 13226. 0.3069 0.3081
27995.0 2.96412 0.315(9) 13573. 0.3069 0.3082
28005.0 2.96518 0.300(8) 14276. 0.3070 0.3082
28015.0 2.96624 0.315(9) 13657. 0.3070 0.3083
28025.0 2.96730 0.308(8) 13925. 0.3071 0.3084
28035.0 2.96836 0.323(9) 13361. 0.3071 0.3084
28045.0 2.96942 0.313(9) 13737. 0.3072 0.3085
28055.0 2.97048 0.322(9) 13330. 0.3072 0.3086
28065.0 2.97154 0.320(9) 13357. 0.3073 0.3086
28075.0 2.97260 0.324(9) 13242. 0.3073 0.3087
28085.0 2.97366 0.328(9) 13127. 0.3074 0.3087
28095.0 2.97472 0.312(9) 13802. 0.3074 0.3088
28105.0 2.97578 0.323(9) 13364. 0.3075 0.3088
28115.0 2.97684 0.303(8) 14254. 0.3075 0.3089
28125.0 2.97790 0.299(8) 14353. 0.3075 0.3090
28135.0 2.97896 0.310(9) 13822. 0.3076 0.3090
28145.0 2.98002 0.325(9) 13259. 0.3076 0.3090
28155.0 2.98108 0.312(9) 13802. 0.3076 0.3091
28165.0 2.98214 0.322(9) 13382. 0.3077 0.3091
28175.0 2.98320 0.316(9) 13594. 0.3077 0.3092
28185.0 2.98426 0.331(9) 12962. 0.3077 0.3092
28195.0 2.98532 0.304(8) 14097. 0.3077 0.3093
28205.0 2.98638 0.298(8) 14379. 0.3078 0.3093
28215.0 2.98744 0.322(9) 13226. 0.3078 0.3094
28225.0 2.98850 0.298(8) 14167. 0.3078 0.3094
28235.0 2.98956 0.316(9) 13480. 0.3078 0.3094
28245.0 2.99062 0.324(9) 13080. 0.3078 0.3095
28255.0 2.99168 0.326(9) 12947. 0.3078 0.3095
28265.0 2.99274 0.322(9) 13102. 0.3079 0.3095
28275.0 2.99380 0.305(9) 13745. 0.3079 0.3096
28285.0 2.99486 0.311(9) 13480. 0.3079 0.3096
28295.0 2.99592 0.332(9) 12668. 0.3079 0.3096
28305.0 2.99698 0.321(9) 13106. 0.3079 0.3097
28315.0 2.99804 0.322(9) 13100. 0.3079 0.3097
28325.0 2.99910 0.304(8) 13854. 0.3079 0.3097
28335.0 3.00016 0.303(8) 13859. 0.3079 0.3097
28345.0 3.00122 0.316(9) 13324. 0.3079 0.3098
28355.0 3.00228 0.319(9) 13198. 0.3079 0.3098
28365.0 3.00334 0.328(9) 12864. 0.3079 0.3098
28375.0 3.00440 0.292(8) 14476. 0.3079 0.3098
28385.0 3.00546 0.315(9) 13448. 0.3078 0.3099
28395.0 3.00652 0.323(9) 13161. 0.3078 0.3099
28405.0 3.00758 0.311(9) 13632. 0.3078 0.3099
28415.0 3.00864 0.293(8) 14500. 0.3078 0.3099
28425.0 3.00970 0.305(8) 13894. 0.3078 0.3099
28435.0 3.01076 0.308(9) 13694. 0.3078 0.3099
28445.0 3.01182 0.309(9) 13702. 0.3077 0.3100
28455.0 3.01288 0.304(8) 13965. 0.3077 0.3100
28465.0 3.01394 0.288(8) 14625. 0.3077 0.3100
28475.0 3.01500 0.298(8) 14244. 0.3077 0.3100
28485.0 3.01606 0.323(9) 13109. 0.3076 0.3100
28495.0 3.01712 0.303(8) 13867. 0.3076 0.3100
28505.0 3.01818 0.300(8) 14047. 0.3076 0.3100
28515.0 3.01924 0.313(9) 13428. 0.3075 0.3100
28525.0 3.02030 0.317(9) 13258. 0.3075 0.3100
28535.0 3.02136 0.313(9) 13415. 0.3074 0.3101
28545.0 3.02242 0.303(8) 13855. 0.3074 0.3101
28555.0 3.02348 0.312(9) 13496. 0.3074 0.3101
28565.0 3.02454 0.302(9) 13819. 0.3073 0.3101
28575.0 3.02560 0.309(9) 13563. 0.3073 0.3101
28585.0 3.02666 0.317(9) 13216. 0.3072 0.3101
28595.0 3.02772 0.306(9) 13661. 0.3072 0.3101
28605.0 3.02878 0.305(9) 13719. 0.3071 0.3101
28615.0 3.02984 0.298(8) 13933. 0.3070 0.3101
28625.0 3.03091 0.314(9) 13200. 0.3070 0.3101
28635.0 3.03197 0.298(8) 13875. 0.3069 0.3101
28645.0 3.03303 0.311(9) 13307. 0.3069 0.3101
28655.0 3.03409 0.298(8) 13883. 0.3068 0.3102
28665.0 3.03515 0.298(8) 13962. 0.3067 0.3102
28675.0 3.03621 0.293(8) 14105. 0.3067 0.3102
28685.0 3.03727 0.330(9) 12528. 0.3066 0.3102
28695.0 3.03833 0.304(9) 13567. 0.3065 0.3102
28705.0 3.03939 0.306(9) 13497. 0.3064 0.3102
28715.0 3.04045 0.299(9) 13677. 0.3064 0.3102
28725.0 3.04151 0.307(9) 13303. 0.3063 0.3103
28735.0 3.04257 0.319(9) 12780. 0.3062 0.3103
28745.0 3.04363 0.314(9) 12964. 0.3061 0.3103
28755.0 3.04469 0.310(9) 13083. 0.3060 0.3103
28765.0 3.04575 0.296(9) 13676. 0.3059 0.3104
28775.0 3.04681 0.321(9) 12614. 0.3059 0.3104
28785.0 3.04787 0.312(9) 12994. 0.3058 0.3104
28795.0 3.04893 0.285(8) 14208. 0.3057 0.3105
28805.0 3.04999 0.313(9) 12861. 0.3056 0.3105
28815.0 3.05105 0.330(9) 12212. 0.3055 0.3106
28825.0 3.05211 0.317(9) 12664. 0.3054 0.3106
28835.0 3.05317 0.297(9) 13502. 0.3053 0.3107
28845.0 3.05423 0.297(9) 13503. 0.3052 0.3108
28855.0 3.05529 0.319(9) 12589. 0.3051 0.3109
28865.0 3.05635 0.319(9) 12549. 0.3050 0.3110
28875.0 3.05741 0.319(9) 12536. 0.3049 0.3111
28885.0 3.05847 0.320(9) 12385. 0.3048 0.3112
28895.0 3.05953 0.319(9) 12409. 0.3046 0.3114
28905.0 3.06059 0.305(9) 12919. 0.3045 0.3115
28915.0 3.06165 0.323(9) 12275. 0.3044 0.3117
28925.0 3.06271 0.322(9) 12328. 0.3043 0.3119
28935.0 3.06377 0.304(9) 13069. 0.3042 0.3122
28945.0 3.06483 0.319(9) 12504. 0.3041 0.3125
28955.0 3.06589 0.324(9) 12282. 0.3039 0.3128
28965.0 3.06695 0.324(9) 12292. 0.3038 0.3132
28975.0 3.06801 0.314(9) 12684. 0.3037 0.3136
28985.0 3.06907 0.304(9) 13184. 0.3036 0.3141
28995.0 3.07013 0.328(9) 12201. 0.3034 0.3146
29005.0 3.07119 0.318(9) 12559. 0.3033 0.3152
29015.0 3.07225 0.327(9) 12185. 0.3032 0.3160
29025.0 3.07331 0.319(9) 12432. 0.3030 0.3168
29035.0 3.07437 0.327(9) 12147. 0.3029 0.3177
29045.0 3.07543 0.328(9) 12099. 0.3027 0.3187
29055.0 3.07649 0.321(9) 12315. 0.3026 0.3199
29065.0 3.07755 0.329(9) 11970. 0.3025 0.3212
29075.0 3.07861 0.316(9) 12399. 0.3023 0.3226
29085.0 3.07967 0.332(9) 11837. 0.3022 0.3242
29095.0 3.08073 0.319(9) 12261. 0.3020 0.3260
29105.0 3.08179 0.323(9) 12101. 0.3019 0.3280
29115.0 3.08285 0.335(9) 11644. 0.3017 0.3302
29125.0 3.08391 0.329(9) 11935. 0.3016 0.3326
29135.0 3.08497 0.356(10) 11052. 0.3014 0.3353
29145.0 3.08603 0.332(9) 11800. 0.3012 0.3382
29155.0 3.08709 0.341(9) 11595. 0.3011 0.3413
29165.0 3.08815 0.339(9) 11696. 0.3009 0.3447
29175.0 3.08921 0.331(9) 11975. 0.3008 0.3484
29185.0 3.09027 0.330(9) 12041. 0.3006 0.3523
29195.0 3.09133 0.335(9) 11908. 0.3004 0.3566
29205.0 3.09239 0.349(9) 11409. 0.3003 0.3610
29215.0 3.09345 0.362(10) 10998. 0.3001 0.3658
29225.0 3.09451 0.357(9) 11157. 0.2999 0.3708
29235.0 3.09557 0.372(10) 10661. 0.2997 0.3761
29245.0 3.09663 0.367(10) 10827. 0.2996 0.3816
29255.0 3.09769 0.372(10) 10683. 0.2994 0.3874
29265.0 3.09875 0.381(10) 10338. 0.2992 0.3933
29275.0 3.09981 0.389(10) 10145. 0.2990 0.3994
29285.0 3.10087 0.397(10) 9967. 0.2989 0.4056
29295.0 3.10193 0.394(10) 10017. 0.2987 0.4120
29305.0 3.10299 0.420(10) 9436. 0.2985 0.4184
29315.0 3.10405 0.408(10) 9689. 0.2983 0.4248
29325.0 3.10511 0.428(10) 9220. 0.2981 0.4311
29335.0 3.10617 0.407(10) 9676. 0.2979 0.4373
29345.0 3.10723 0.438(11) 8977. 0.2977 0.4434
29355.0 3.10829 0.439(11) 8987. 0.2976 0.4492
29365.0 3.10935 0.449(11) 8868. 0.2974 0.4548
29375.0 3.11041 0.435(11) 9070. 0.2972 0.4600
29385.0 3.11148 0.427(10) 9248. 0.2970 0.4647
29395.0 3.11254 0.447(11) 8807. 0.2968 0.4689
29405.0 3.11360 0.438(11) 8967. 0.2966 0.4726
29415.0 3.11466 0.458(11) 8594. 0.2964 0.4756
29425.0 3.11572 0.450(11) 8743. 0.2962 0.4779
29435.0 3.11678 0.456(11) 8615. 0.2960 0.4796
29445.0 3.11784 0.470(11) 8465. 0.2958 0.4804
29455.0 3.11890 0.460(11) 8632. 0.2956 0.4805
29465.0 3.11996 0.445(11) 8888. 0.2954 0.4798
29475.0 3.12102 0.438(11) 9029. 0.2951 0.4784
29485.0 3.12208 0.452(11) 8746. 0.2949 0.4762
29495.0 3.12314 0.461(11) 8571. 0.2947 0.4734
29505.0 3.12420 0.438(11) 8995. 0.2945 0.4699
29515.0 3.12526 0.441(11) 8987. 0.2943 0.4658
29525.0 3.12632 0.437(11) 9050. 0.2941 0.4612
29535.0 3.12738 0.445(11) 8896. 0.2939 0.4561
29545.0 3.12844 0.422(10) 9349. 0.2937 0.4507
29555.0 3.12950 0.429(10) 9168. 0.2934 0.4448
29565.0 3.13056 0.425(10) 9267. 0.2932 0.4387
29575.0 3.13162 0.402(10) 9769. 0.2930 0.4324
29585.0 3.13268 0.429(10) 9083. 0.2928 0.4259
29595.0 3.13374 0.379(10) 10246. 0.2926 0.4194
29605.0 3.13480 0.397(10) 9783. 0.2923 0.4128
29615.0 3.13586 0.402(10) 9649. 0.2921 0.4061
29625.0 3.13692 0.387(10) 9988. 0.2919 0.3996
29635.0 3.13798 0.385(10) 10020. 0.2917 0.3931
29645.0 3.13904 0.383(10) 10065. 0.2914 0.3867
29655.0 3.14010 0.368(10) 10405. 0.2912 0.3805
29665.0 3.14116 0.362(10) 10623. 0.2910 0.3745
29675.0 3.14222 0.351(10) 10855. 0.2907 0.3687
29685.0 3.14328 0.348(10) 10881. 0.2905 0.3631
29695.0 3.14434 0.363(10) 10444. 0.2903 0.3577
29705.0 3.14540 0.356(10) 10593. 0.2900 0.3526
29715.0 3.14646 0.338(9) 11147. 0.2898 0.3477
29725.0 3.14752 0.334(9) 11284. 0.2896 0.3431
29735.0 3.14858 0.335(9) 11198. 0.2893 0.3388
29745.0 3.14964 0.336(9) 11159. 0.2891 0.3347
29755.0 3.15070 0.329(9) 11357. 0.2889 0.3309
29765.0 3.15176 0.330(9) 11221. 0.2886 0.3273
29775.0 3.15282 0.326(9) 11312. 0.2884 0.3240
29785.0 3.15388 0.319(9) 11524. 0.2881 0.3209
29795.0 3.15494 0.320(9) 11525. 0.2879 0.3180
29805.0 3.15600 0.322(9) 11437. 0.2876 0.3154
29815.0 3.15706 0.318(9) 11545. 0.2874 0.3129
29825.0 3.15812 0.307(9) 11880. 0.2872 0.3106
29835.0 3.15918 0.310(9) 11731. 0.2869 0.3086
29845.0 3.16024 0.299(9) 12124. 0.2867 0.3066
29855.0 3.16130 0.318(9) 11436. 0.2864 0.3049
29865.0 3.16236 0.298(9) 12152. 0.2862 0.3033
29875.0 3.16342 0.297(9) 12151. 0.2859 0.3018
29885.0 3.16448 0.299(9) 11972. 0.2857 0.3004
29895.0 3.16554 0.317(9) 11212. 0.2854 0.2991
29905.0 3.16660 0.290(9) 12208. 0.2852 0.2979
29915.0 3.16766 0.291(9) 12190. 0.2849 0.2969
29925.0 3.16873 0.307(9) 11455. 0.2847 0.2959
29935.0 3.16979 0.295(9) 11857. 0.2844 0.2949
29945.0 3.17085 0.305(9) 11485. 0.2842 0.2941
29955.0 3.17191 0.280(9) 12418. 0.2839 0.2933
29965.0 3.17297 0.283(9) 12196. 0.2837 0.2925
29975.0 3.17403 0.284(9) 12194. 0.2834 0.2918
29985.0 3.17509 0.299(9) 11564. 0.2831 0.2911
29995.0 3.17615 0.294(9) 11696. 0.2829 0.2905
30005.0 3.17721 0.282(9) 12137. 0.2826 0.2899
30015.0 3.17827 0.298(9) 11479. 0.2824 0.2893
30025.0 3.17933 0.297(9) 11442. 0.2821 0.2888
30035.0 3.18039 0.294(9) 11521. 0.2819 0.2882
30045.0 3.18145 0.295(9) 11384. 0.2816 0.2877
30055.0 3.18251 0.299(9) 11168. 0.2813 0.2872
30065.0 3.18357 0.286(9) 11636. 0.2811 0.2868
30075.0 3.18463 0.305(10) 10901. 0.2808 0.2863
30085.0 3.18569 0.294(9) 11274. 0.2806 0.2859
30095.0 3.18675 0.288(9) 11487. 0.2803 0.2854
30105.0 3.18781 0.299(10) 11016. 0.2800 0.2850
30115.0 3.18887 0.289(9) 11450. 0.2798 0.2846
30125.0 3.18993 0.289(9) 11375. 0.2795 0.2842
30135.0 3.19099 0.299(10) 10966. 0.2792 0.2838
30145.0 3.19205 0.309(10) 10570. 0.2790 0.2834
30155.0 3.19311 0.283(9) 11476. 0.2787 0.2830
30165.0 3.19417 0.291(9) 11164. 0.2784 0.2826
30175.0 3.19523 0.290(9) 11120. 0.2782 0.2822
30185.0 3.19629 0.302(10) 10662. 0.2779 0.2819
30195.0 3.19735 0.304(10) 10626. 0.2776 0.2815
30205.0 3.19841 0.298(10) 10809. 0.2774 0.2811
30215.0 3.19947 0.310(10) 10378. 0.2771 0.2808
30225.0 3.20053 0.309(10) 10391. 0.2768 0.2804
30235.0 3.20159 0.307(10) 10470. 0.2766 0.2800
30245.0 3.20265 0.291(10) 11039. 0.2763 0.2797
30255.0 3.20371 0.311(10) 10295. 0.2760 0.2793
30265.0 3.20477 0.293(10) 10914. 0.2758 0.2790
30275.0 3.20583 0.280(9) 11373. 0.2755 0.2786
30285.0 3.20689 0.296(10) 10779. 0.2752 0.2783
30295.0 3.20795 0.299(10) 10680. 0.2750 0.2780
30305.0 3.20901 0.285(9) 11114. 0.2747 0.2776
30315.0 3.21007 0.293(10) 10813. 0.2744 0.2773
30325.0 3.21113 0.278(9) 11405. 0.2741 0.2769
30335.0 3.21219 0.286(9) 11107. 0.2739 0.2766
30345.0 3.21325 0.281(9) 11316. 0.2736 0.2763
30355.0 3.21431 0.290(10) 10917. 0.2733 0.2759
30365.0 3.21537 0.300(10) 10589. 0.2730 0.2756
30375.0 3.21643 0.295(10) 10770. 0.2728 0.2753
30385.0 3.21749 0.283(9) 11171. 0.2725 0.2750
30395.0 3.21856 0.279(9) 11315. 0.2722 0.2746
30405.0 3.21962 0.280(9) 11285. 0.2719 0.2743
30415.0 3.22068 0.293(10) 10710. 0.2717 0.2740
30425.0 3.22174 0.293(10) 10669. 0.2714 0.2737
30435.0 3.22280 0.293(10) 10670. 0.2711 0.2734
30445.0 3.22386 0.279(9) 11157. 0.2708 0.2731
30455.0 3.22492 0.286(10) 10895. 0.2706 0.2727
30465.0 3.22598 0.293(10) 10687. 0.2703 0.2724
30475.0 3.22704 0.291(10) 10739. 0.2700 0.2721
30485.0 3.22810 0.271(9) 11535. 0.2697 0.2718
30495.0 3.22916 0.295(10) 10631. 0.2695 0.2715
30505.0 3.23022 0.301(10) 10465. 0.2692 0.2712
30515.0 3.23128 0.288(10) 10870. 0.2689 0.2708
30525.0 3.23234 0.294(10) 10678. 0.2686 0.2705
30535.0 3.23340 0.287(10) 10921. 0.2684 0.2702
30545.0 3.23446 0.279(9) 11135. 0.2681 0.2699
30555.0 3.23552 0.280(9) 11147. 0.2678 0.2696
30565.0 3.23658 0.278(9) 11280. 0.2675 0.2693
30575.0 3.23764 0.288(10) 10940. 0.2672 0.2690
30585.0 3.23870 0.274(9) 11419. 0.2670 0.2687
30595.0 3.23976 0.279(9) 11256. 0.2667 0.2684
30605.0 3.24082 0.267(9) 11779. 0.2664 0.2681
30615.0 3.24188 0.264(9) 11898. 0.2661 0.2677
30625.0 3.24294 0.272(9) 11628. 0.2658 0.2674
30635.0 3.24400 0.281(9) 11275. 0.2655 0.2671
30645.0 3.24506 0.258(9) 12276. 0.2653 0.2668
30655.0 3.24612 0.260(9) 12169. 0.2650 0.2665
30665.0 3.24718 0.282(9) 11300. 0.2647 0.2662
30675.0 3.24824 0.281(9) 11271. 0.2644 0.2659
30685.0 3.24930 0.258(9) 12240. 0.2641 0.2656
30695.0 3.25036 0.268(9) 11853. 0.2638 0.2653
30705.0 3.25142 0.259(9) 12254. 0.2636 0.2650
30715.0 3.25248 0.259(9) 12245. 0.2633 0.2647
30725.0 3.25354 0.265(9) 11988. 0.2630 0.2644
30735.0 3.25460 0.245(9) 13007. 0.2627 0.2641
30745.0 3.25566 0.262(9) 12181. 0.2624 0.2638
30755.0 3.25672 0.276(9) 11588. 0.2621 0.2634
30765.0 3.25778 0.254(9) 12586. 0.2618 0.2631
30775.0 3.25884 0.249(9) 12795. 0.2616 0.2628
30785.0 3.25990 0.251(9) 12745. 0.2613 0.2625
30795.0 3.26097 0.255(9) 12564. 0.2610 0.2622
30805.0 3.26203 0.257(9) 12347. 0.2607 0.2619
30815.0 3.26309 0.254(9) 12490. 0.2604 0.2616
30825.0 3.26415 0.251(9) 12700. 0.2601 0.2613
30835.0 3.26521 0.256(9) 12449. 0.2598 0.2610
30845.0 3.26627 0.252(9) 12590. 0.2595 0.2607
30855.0 3.26733 0.256(9) 12438. 0.2593 0.2605
30865.0 3.26839 0.254(9) 12539. 0.2590 0.2602
30875.0 3.26945 0.264(9) 11991. 0.2587 0.2599
30885.0 3.27051 0.255(9) 12454. 0.2584 0.2596
30895.0 3.27157 0.259(9) 12297. 0.2581 0.2593
30905.0 3.27263 0.244(9) 13063. 0.2578 0.2590
30915.0 3.27369 0.246(9) 12986. 0.2575 0.2587
30925.0 3.27475 0.255(9) 12538. 0.2572 0.2583
30935.0 3.27581 0.247(9) 12982. 0.2569 0.2580
30945.0 3.27687 0.245(9) 13095. 0.2566 0.2577
30955.0 3.27793 0.247(9) 12984. 0.2563 0.2574
30965.0 3.27899 0.242(9) 13291. 0.2561 0.2571
30975.0 3.28005 0.247(9) 12986. 0.2558 0.2568
30985.0 3.28111 0.236(9) 13536. 0.2555 0.2565
30995.0 3.28217 0.244(9) 13132. 0.2552 0.2562
31005.0 3.28323 0.252(9) 12695. 0.2549 0.2559
31015.0 3.28429 0.249(9) 12810. 0.2546 0.2556
31025.0 3.28535 0.242(9) 13092. 0.2543 0.2553
31035.0 3.28641 0.250(9) 12614. 0.2540 0.2550
31045.0 3.28747 0.250(9) 12537. 0.2537 0.2547
31055.0 3.28853 0.267(9) 11743. 0.2534 0.2544
31065.0 3.28959 0.254(9) 12296. 0.2531 0.2541
31075.0 3.29065 0.253(9) 12215. 0.2528 0.2538
31085.0 3.29171 0.261(9) 11873. 0.2525 0.2535
31095.0 3.29277 0.235(9) 13097. 0.2522 0.2532
31105.0 3.29383 0.253(9) 12161. 0.2519 0.2529
31115.0 3.29489 0.239(9) 12805. 0.2516 0.2526
31125.0 3.29595 0.253(9) 12164. 0.2514 0.2523
31135.0 3.29701 0.254(9) 12094. 0.2511 0.2520
31145.0 3.29807 0.241(9) 12710. 0.2508 0.2517
31155.0 3.29914 0.242(9) 12722. 0.2505 0.2514
31165.0 3.30020 0.268(9) 11443. 0.2502 0.2511
31175.0 3.30126 0.236(9) 12871. 0.2499 0.2508
31185.0 3.30232 0.250(9) 12204. 0.2496 0.2505
31195.0 3.30338 0.255(9) 11934. 0.2493 0.2502
31205.0 3.30444 0.258(9) 11660. 0.2490 0.2499
31215.0 3.30550 0.240(9) 12527. 0.2487 0.2496
31225.0 3.30656 0.249(9) 12094. 0.2484 0.2493
31235.0 3.30762 0.248(9) 12104. 0.2481 0.2490
31245.0 3.30868 0.236(9) 12598. 0.2478 0.2487
31255.0 3.30974 0.252(9) 11752. 0.2475 0.2484
31265.0 3.31080 0.250(9) 11781. 0.2472 0.2481
31275.0 3.31186 0.252(9) 11707. 0.2470 0.2478
31285.0 3.31292 0.242(9) 12074. 0.2467 0.2475
31295.0 3.31398 0.241(9) 12103. 0.2464 0.2472
31305.0 3.31504 0.241(9) 12049. 0.2461 0.2469
31315.0 3.31610 0.250(9) 11568. 0.2458 0.2466
31325.0 3.31716 0.249(9) 11674. 0.2455 0.2463
31335.0 3.31822 0.245(9) 11878. 0.2452 0.2460
31345.0 3.31928 0.250(9) 11667. 0.2449 0.2457
31355.0 3.32034 0.236(9) 12319. 0.2447 0.2454
31365.0 3.32140 0.258(9) 11248. 0.2444 0.2451
31375.0 3.32246 0.223(9) 13013. 0.2441 0.2448
31385.0 3.32352 0.237(9) 12265. 0.2438 0.2446
31395.0 3.32458 0.251(9) 11636. 0.2435 0.2443
31405.0 3.32564 0.237(9) 12281. 0.2433 0.2440
31415.0 3.32670 0.249(9) 11778. 0.2430 0.2437
31425.0 3.32776 0.244(9) 11936. 0.2427 0.2434
31435.0 3.32882 0.239(9) 12236. 0.2424 0.2432
31445.0 3.32988 0.243(9) 11968. 0.2422 0.2429
31455.0 3.33094 0.241(9) 12030. 0.2419 0.2426
31465.0 3.33200 0.232(9) 12530. 0.2416 0.2423
31475.0 3.33306 0.248(9) 11698. 0.2414 0.2421
31485.0 3.33413 0.240(9) 12106. 0.2411 0.2418
31495.0 3.33519 0.229(9) 12619. 0.2409 0.2416
31505.0 3.33625 0.265(10) 10957. 0.2406 0.2413
31515.0 3.33731 0.233(9) 12310. 0.2403 0.2410
31525.0 3.33837 0.249(9) 11572. 0.2401 0.2408
31535.0 3.33943 0.240(9) 11948. 0.2398 0.2405
31545.0 3.34049 0.243(9) 11824. 0.2396 0.2403
31555.0 3.34155 0.240(9) 11963. 0.2394 0.2400
31565.0 3.34261 0.229(9) 12420. 0.2391 0.2398
31575.0 3.34367 0.224(9) 12591. 0.2389 0.2396
31585.0 3.34473 0.249(9) 11336. 0.2387 0.2393
31595.0 3.34579 0.247(9) 11372. 0.2384 0.2391
31605.0 3.34685 0.254(10) 10991. 0.2382 0.2389
31615.0 3.34791 0.243(9) 11423. 0.2380 0.2387
31625.0 3.34897 0.235(9) 11798. 0.2378 0.2384
31635.0 3.35003 0.243(9) 11404. 0.2376 0.2382
31645.0 3.35109 0.239(9) 11593. 0.2374 0.2380
31655.0 3.35215 0.253(10) 11054. 0.2372 0.2378
31665.0 3.35321 0.244(9) 11432. 0.2370 0.2376
31675.0 3.35427 0.248(9) 11285. 0.2368 0.2374
31685.0 3.35533 0.214(9) 12962. 0.2366 0.2373
31695.0 3.35639 0.240(9) 11632. 0.2364 0.2371
31705.0 3.35745 0.242(9) 11557. 0.2363 0.2369
31715.0 3.35851 0.235(9) 11779. 0.2361 0.2367
31725.0 3.35957 0.243(9) 11389. 0.2360 0.2366
31735.0 3.36063 0.242(9) 11377. 0.2358 0.2364
31745.0 3.36169 0.238(9) 11602. 0.2357 0.2363
31755.0 3.36275 0.234(9) 11787. 0.2355 0.2362
31765.0 3.36381 0.240(9) 11476. 0.2354 0.2360
31775.0 3.36487 0.234(9) 11799. 0.2353 0.2359
31785.0 3.36594 0.241(9) 11477. 0.2352 0.2358
31795.0 3.36700 0.256(10) 10768. 0.2351 0.2357
31805.0 3.36806 0.247(9) 11082. 0.2350 0.2356
31815.0 3.36912 0.225(9) 12097. 0.2349 0.2355
31825.0 3.37018 0.230(9) 11769. 0.2349 0.2355
31835.0 3.37124 0.237(9) 11442. 0.2348 0.2354
31845.0 3.37230 0.251(10) 10821. 0.2347 0.2353
31855.0 3.37336 0.241(9) 11282. 0.2347 0.2353
31865.0 3.37442 0.222(9) 12175. 0.2347 0.2353
31875.0 3.37548 0.248(10) 10967. 0.2347 0.2353
31885.0 3.37654 0.217(9) 12421. 0.2347 0.2353
31895.0 3.37760 0.245(10) 11003. 0.2347 0.2353
31905.0 3.37866 0.242(9) 11171. 0.2347 0.2353
31915.0 3.37972 0.235(9) 11448. 0.2347 0.2353
31925.0 3.38078 0.231(9) 11602. 0.2348 0.2354
31935.0 3.38184 0.225(9) 11882. 0.2348 0.2354
31945.0 3.38290 0.231(9) 11553. 0.2349 0.2355
31955.0 3.38396 0.242(10) 10971. 0.2350 0.2356
31965.0 3.38502 0.216(9) 12189. 0.2351 0.2357
31975.0 3.38608 0.249(10) 10641. 0.2353 0.2358
31985.0 3.38714 0.227(9) 11715. 0.2354 0.2360
31995.0 3.38820 0.233(9) 11368. 0.2356 0.2362
32005.0 3.38926 0.243(10) 10896. 0.2357 0.2363
32015.0 3.39032 0.255(10) 10367. 0.2359 0.2365
32025.0 3.39138 0.238(10) 11048. 0.2362 0.2367
32035.0 3.39244 0.232(9) 11391. 0.2364 0.2370
32045.0 3.39350 0.233(9) 11381. 0.2367 0.2372
32055.0 3.39456 0.237(9) 11152. 0.2369 0.2375
32065.0 3.39562 0.238(9) 11103. 0.2372 0.2378
32075.0 3.39669 0.247(10) 10658. 0.2376 0.2381
32085.0 3.39775 0.247(10) 10651. 0.2379 0.2385
32095.0 3.39881 0.227(9) 11544. 0.2383 0.2388
32105.0 . 0.231(9) . . .
32115.0 . 0.237(9) . . .
32125.0 . 0.224(9) . . .
32135.0 . 0.215(9) . . .
32145.0 . 0.224(9) . . .
32155.0 . 0.245(10) . . .
32165.0 . 0.229(9) . . .
32175.0 . 0.221(9) . . .
32185.0 . 0.227(9) . . .
32195.0 . 0.224(9) . . .
32205.0 . 0.230(9) . . .
32215.0 . 0.230(9) . . .
32225.0 . 0.223(9) . . .
32235.0 . 0.246(10) . . .
32245.0 . 0.224(9) . . .
32255.0 . 0.219(9) . . .
32265.0 . 0.213(9) . . .
32275.0 . 0.227(9) . . .
32285.0 . 0.219(9) . . .
32295.0 . 0.219(9) . . .
32305.0 . 0.217(9) . . .
32315.0 . 0.218(9) . . .
32325.0 . 0.210(9) . . .
32335.0 . 0.225(9) . . .
32345.0 . 0.231(9) . . .
32355.0 . 0.231(9) . . .
32365.0 . 0.232(9) . . .
32375.0 . 0.222(9) . . .
32385.0 . 0.230(9) . . .
32395.0 . 0.204(9) . . .
32405.0 . 0.219(9) . . .
32415.0 . 0.226(9) . . .
32425.0 . 0.222(9) . . .
32435.0 . 0.231(9) . . .
32445.0 . 0.223(9) . . .
32455.0 . 0.229(9) . . .
32465.0 . 0.221(9) . . .
32475.0 . 0.227(9) . . .
32485.0 . 0.199(9) . . .
32495.0 . 0.205(9) . . .
32505.0 . 0.230(9) . . .
32515.0 . 0.218(9) . . .
32525.0 . 0.230(9) . . .
32535.0 . 0.206(9) . . .
32545.0 . 0.202(9) . . .
32555.0 . 0.224(9) . . .
32565.0 . 0.215(9) . . .
32575.0 . 0.220(9) . . .
32585.0 . 0.216(9) . . .
32595.0 . 0.221(9) . . .
32605.0 . 0.221(9) . . .
32615.0 . 0.214(9) . . .
32625.0 . 0.205(9) . . .
32635.0 . 0.222(9) . . .
32645.0 . 0.220(9) . . .
32655.0 . 0.210(9) . . .
32665.0 . 0.228(10) . . .
32675.0 . 0.209(9) . . .
32685.0 . 0.205(9) . . .
32695.0 . 0.228(10) . . .
32705.0 . 0.220(9) . . .
32715.0 . 0.210(9) . . .
32725.0 . 0.227(10) . . .
32735.0 . 0.227(10) . . .
32745.0 . 0.194(9) . . .
32755.0 . 0.231(10) . . .
32765.0 . 0.240(10) . . .
32775.0 . 0.210(9) . . .
32785.0 . 0.218(10) . . .
32795.0 . 0.220(10) . . .
32805.0 . 0.234(10) . . .
32815.0 . 0.237(10) . . .
32825.0 . 0.228(10) . . .
32835.0 . 0.220(10) . . .
32845.0 . 0.218(10) . . .
32855.0 . 0.223(10) . . .
32865.0 . 0.222(10) . . .
32875.0 . 0.204(9) . . .
32885.0 . 0.229(10) . . .
32895.0 . 0.220(10) . . .
32905.0 . 0.230(10) . . .
32915.0 . 0.219(10) . . .
32925.0 . 0.214(10) . . .
32935.0 . 0.214(10) . . .
32945.0 . 0.213(10) . . .
32955.0 . 0.231(10) . . .
32965.0 . 0.225(10) . . .
32975.0 . 0.205(9) . . .
32985.0 . 0.216(10) . . .
32995.0 . 0.231(10) . . .
33005.0 . 0.224(10) . . .
33015.0 . 0.222(10) . . .
33025.0 . 0.220(10) . . .
33035.0 . 0.219(10) . . .
33045.0 . 0.223(10) . . .
33055.0 . 0.214(10) . . .
33065.0 . 0.221(10) . . .
33075.0 . 0.230(10) . . .
33085.0 . 0.224(10) . . .
33095.0 . 0.213(10) . . .
33105.0 . 0.228(10) . . .
33115.0 . 0.226(10) . . .
33125.0 . 0.233(10) . . .
33135.0 . 0.230(10) . . .
33145.0 . 0.220(10) . . .
33155.0 . 0.225(10) . . .
33165.0 . 0.217(10) . . .
33175.0 . 0.222(10) . . .
33185.0 . 0.219(10) . . .
33195.0 . 0.200(9) . . .
33205.0 . 0.227(10) . . .
33215.0 . 0.220(10) . . .
33225.0 . 0.217(10) . . .
33235.0 . 0.222(10) . . .
33245.0 . 0.215(10) . . .
33255.0 . 0.206(10) . . .
33265.0 . 0.238(10) . . .
33275.0 . 0.200(10) . . .
33285.0 . 0.210(10) . . .
33295.0 . 0.224(10) . . .
33305.0 . 0.210(10) . . .
33315.0 . 0.219(10) . . .
33325.0 . 0.200(9) . . .
33335.0 . 0.205(10) . . .
33345.0 . 0.198(9) . . .
33355.0 . 0.209(10) . . .
33365.0 . 0.220(10) . . .
33375.0 . 0.204(10) . . .
33385.0 . 0.207(10) . . .
33395.0 . 0.212(10) . . .
33405.0 . 0.212(10) . . .
33415.0 . 0.217(10) . . .
33425.0 . 0.213(10) . . .
33435.0 . 0.220(10) . . .
33445.0 . 0.216(10) . . .
33455.0 . 0.203(10) . . .
33465.0 . 0.216(10) . . .
33475.0 . 0.216(10) . . .
33485.0 . 0.226(10) . . .
33495.0 . 0.196(9) . . .
33505.0 . 0.201(10) . . .
33515.0 . 0.213(10) . . .
33525.0 . 0.199(10) . . .
33535.0 . 0.207(10) . . .
33545.0 . 0.208(10) . . .
33555.0 . 0.211(10) . . .
33565.0 . 0.190(9) . . .
33575.0 . 0.204(10) . . .
33585.0 . 0.208(10) . . .
33595.0 . 0.212(10) . . .
33605.0 . 0.191(9) . . .
33615.0 . 0.213(10) . . .
33625.0 . 0.206(10) . . .
33635.0 . 0.205(10) . . .
33645.0 . 0.192(9) . . .
33655.0 . 0.194(9) . . .
33665.0 . 0.212(10) . . .
33675.0 . 0.200(10) . . .
33685.0 . 0.217(10) . . .
33695.0 . 0.216(10) . . .
33705.0 . 0.227(10) . . .
33715.0 . 0.189(9) . . .
33725.0 . 0.192(10) . . .
33735.0 . 0.215(10) . . .
33745.0 . 0.207(10) . . .
33755.0 . 0.213(10) . . .
33765.0 . 0.209(10) . . .
33775.0 . 0.228(10) . . .
33785.0 . 0.204(10) . . .
33795.0 . 0.236(11) . . .
33805.0 . 0.213(10) . . .
33815.0 . 0.207(10) . . .
33825.0 . 0.219(10) . . .
33835.0 . 0.206(10) . . .
33845.0 . 0.213(10) . . .
33855.0 . 0.231(11) . . .
33865.0 . 0.213(10) . . .
33875.0 . 0.224(11) . . .
33885.0 . 0.217(10) . . .
33895.0 . 0.241(11) . . .
33905.0 . 0.229(11) . . .
33915.0 . 0.235(11) . . .
33925.0 . 0.220(11) . . .
33935.0 . 0.229(11) . . .
33945.0 . 0.225(11) . . .
33955.0 . 0.223(11) . . .
33965.0 . 0.220(11) . . .
33975.0 . 0.229(11) . . .
33985.0 . 0.220(11) . . .
33995.0 . 0.234(11) . . .
34005.0 . 0.211(10) . . .
34015.0 . 0.217(10) . . .
34025.0 . 0.227(11) . . .
34035.0 . 0.239(11) . . .
34045.0 . 0.241(11) . . .
34055.0 . 0.242(11) . . .
34065.0 . 0.225(11) . . .
34075.0 . 0.255(11) . . .
34085.0 . 0.243(11) . . .
34095.0 . 0.222(11) . . .
34105.0 . 0.231(11) . . .
34115.0 . 0.243(11) . . .
34125.0 . 0.227(11) . . .
34135.0 . 0.266(12) . . .
34145.0 . 0.238(11) . . .
34155.0 . 0.241(11) . . .
34165.0 . 0.229(11) . . .
34175.0 . 0.244(11) . . .
34185.0 . 0.246(11) . . .
34195.0 . 0.245(11) . . .
34205.0 . 0.258(12) . . .
34215.0 . 0.235(11) . . .
34225.0 . 0.242(11) . . .
34235.0 . 0.235(11) . . .
34245.0 . 0.260(12) . . .
34255.0 . 0.246(11) . . .
34265.0 . 0.255(12) . . .
34275.0 . 0.251(11) . . .
34285.0 . 0.247(11) . . .
34295.0 . 0.265(12) . . .
34305.0 . 0.238(11) . . .
34315.0 . 0.258(12) . . .
34325.0 . 0.241(11) . . .
34335.0 . 0.247(11) . . .
34345.0 . 0.240(11) . . .
34355.0 . 0.253(12) . . .
34365.0 . 0.259(12) . . .
34375.0 . 0.246(11) . . .
34385.0 . 0.268(12) . . .
34395.0 . 0.257(12) . . .
34405.0 . 0.260(12) . . .
34415.0 . 0.230(11) . . .
34425.0 . 0.251(12) . . .
34435.0 . 0.288(12) . . .
34445.0 . 0.244(12) . . .
34455.0 . 0.272(12) . . .
34465.0 . 0.265(12) . . .
34475.0 . 0.277(12) . . .
34485.0 . 0.258(12) . . .
34495.0 . 0.268(12) . . .
34505.0 . 0.273(12) . . .
34515.0 . 0.279(12) . . .
34525.0 . 0.246(12) . . .
34535.0 . 0.284(12) . . .
34545.0 . 0.274(12) . . .
34555.0 . 0.272(12) . . .
34565.0 . 0.273(12) . . .
34575.0 . 0.282(13) . . .
34585.0 . 0.279(13) . . .
34595.0 . 0.267(12) . . .
34605.0 . 0.267(12) . . .
34615.0 . 0.276(13) . . .
34625.0 . 0.274(13) . . .
34635.0 . 0.277(13) . . .
34645.0 . 0.262(12) . . .
34655.0 . 0.254(12) . . .
34665.0 . 0.279(13) . . .
34675.0 . 0.285(13) . . .
34685.0 . 0.277(13) . . .
34695.0 . 0.235(12) . . .
34705.0 . 0.273(13) . . .
34715.0 . 0.258(12) . . .
34725.0 . 0.274(13) . . .
34735.0 . 0.258(12) . . .
34745.0 . 0.265(13) . . .
34755.0 . 0.273(13) . . .
34765.0 . 0.258(12) . . .
34775.0 . 0.273(13) . . .
34785.0 . 0.224(12) . . .
34795.0 . 0.255(12) . . .
34805.0 . 0.231(12) . . .
34815.0 . 0.253(12) . . .
34825.0 . 0.247(12) . . .
34835.0 . 0.235(12) . . .
34845.0 . 0.240(12) . . .
34855.0 . 0.222(12) . . .
34865.0 . 0.249(12) . . .
34875.0 . 0.264(13) . . .
34885.0 . 0.251(13) . . .
34895.0 . 0.215(12) . . .
34905.0 . 0.247(12) . . .
34915.0 . 0.250(13) . . .
34925.0 . 0.226(12) . . .
34935.0 . 0.216(12) . . .
34945.0 . 0.231(12) . . .
34955.0 . 0.237(12) . . .
34965.0 . 0.203(11) . . .
34975.0 . 0.220(12) . . .
34985.0 . 0.216(12) . . .
34995.0 . 0.226(12) . . .
35005.0 . 0.220(12) . . .
35015.0 . 0.209(11) . . .
35025.0 . 0.224(12) . . .
35035.0 . 0.217(11) . . .
35045.0 . 0.221(12) . . .
35055.0 . 0.217(11) . . .
35065.0 . 0.223(12) . . .
35075.0 . 0.228(12) . . .
35085. . 0.207(11) . . .
35095. . 0.192(11) . . .
35105. . 0.205(11) . . .
35115. . 0.192(11) . . .
35125. . 0.199(11) . . .
35135. . 0.192(11) . . .
35145. . 0.198(11) . . .
35155. . 0.214(11) . . .
35165. . 0.190(11) . . .
35175. . 0.215(11) . . .
35185. . 0.218(11) . . .
35195. . 0.191(11) . . .
35205. . 0.192(11) . . .
35215. . 0.198(11) . . .
35225. . 0.199(11) . . .
35235. . 0.191(11) . . .
35245. . 0.194(11) . . .
35255. . 0.188(11) . . .
35265. . 0.209(11) . . .
35275. . 0.202(11) . . .
35285. . 0.187(11) . . .
35295. . 0.186(11) . . .
35305. . 0.190(11) . . .
35315. . 0.190(11) . . .
35325. . 0.194(11) . . .
35335. . 0.193(11) . . .
35345. . 0.192(11) . . .
35355. . 0.184(11) . . .
35365. . 0.184(11) . . .
35375. . 0.194(11) . . .
35385. . 0.200(11) . . .
35395. . 0.179(10) . . .
35405. . 0.180(11) . . .
35415. . 0.182(11) . . .
35425. . 0.176(10) . . .
35435. . 0.179(11) . . .
35445. . 0.185(11) . . .
35455. . 0.196(11) . . .
35465. . 0.202(11) . . .
35475. . 0.193(11) . . .
35485. . 0.189(11) . . .
35495. . 0.180(11) . . .
35505. . 0.195(11) . . .
35515. . 0.183(11) . . .
35525. . 0.180(11) . . .
35535. . 0.205(11) . . .
35545. . 0.186(11) . . .
35555. . 0.190(11) . . .
35565. . 0.184(11) . . .
35575. . 0.202(11) . . .
35585. . 0.175(11) . . .
35595. . 0.190(11) . . .
35605. . 0.191(11) . . .
35615. . 0.190(11) . . .
35625. . 0.186(11) . . .
35635. . 0.211(12) . . .
35645. . 0.173(11) . . .
35655. . 0.214(12) . . .
35665. . 0.181(11) . . .
35675. . 0.190(11) . . .
35685. . 0.197(11) . . .
35695. . 0.201(11) . . .
35705. . 0.184(11) . . .
35715. . 0.186(11) . . .
35725. . 0.176(11) . . .
35735. . 0.174(11) . . .
35745. . 0.192(11) . . .
35755. . 0.190(11) . . .
35765. . 0.194(11) . . .
35775. . 0.186(11) . . .
35785. . 0.183(11) . . .
35795. . 0.163(10) . . .
35805. . 0.162(10) . . .
35815. . 0.190(11) . . .
35825. . 0.183(11) . . .
35835. . 0.172(11) . . .
35845. . 0.181(11) . . .
35855. . 0.175(11) . . .
35865. . 0.204(12) . . .
35875. . 0.188(11) . . .
35885. . 0.185(11) . . .
35895. . 0.179(11) . . .
35905. . 0.197(12) . . .
35915. . 0.191(11) . . .
35925. . 0.177(11) . . .
35935. . 0.202(12) . . .
35945. . 0.201(12) . . .
35955. . 0.205(12) . . .
35965. . 0.174(11) . . .
35975. . 0.185(11) . . .
35985. . 0.183(11) . . .
35995. . 0.189(11) . . .
36005. . 0.174(11) . . .
36015. . 0.172(11) . . .
36025. . 0.166(11) . . .
36035. . 0.187(11) . . .
36045. . 0.187(11) . . .
36055. . 0.186(11) . . .
36065. . 0.169(11) . . .
36075. . 0.181(11) . . .
36085. . 0.180(11) . . .
36095. . 0.178(11) . . .
36105. . 0.199(12) . . .
36115. . 0.177(11) . . .
36125. . 0.189(11) . . .
36135. . 0.166(11) . . .
36145. . 0.187(11) . . .
36155. . 0.169(11) . . .
36165. . 0.196(12) . . .
36175. . 0.175(11) . . .
36185. . 0.177(11) . . .
36195. . 0.168(11) . . .
36205. . 0.184(11) . . .
36215. . 0.192(11) . . .
36225. . 0.185(11) . . .
36235. . 0.170(11) . . .
36245. . 0.189(11) . . .
36255. . 0.162(10) . . .
36265. . 0.186(11) . . .
36275. . 0.171(11) . . .
36285. . 0.174(11) . . .
36295. . 0.166(11) . . .
36305. . 0.186(11) . . .
36315. . 0.177(11) . . .
36325. . 0.187(11) . . .
36335. . 0.174(11) . . .
36345. . 0.160(11) . . .
36355. . 0.176(11) . . .
36365. . 0.195(12) . . .
36375. . 0.170(11) . . .
36385. . 0.186(11) . . .
36395. . 0.147(10) . . .
36405. . 0.162(11) . . .
36415. . 0.145(10) . . .
36425. . 0.161(11) . . .
36435. . 0.163(11) . . .
36445. . 0.158(11) . . .
36455. . 0.184(11) . . .
36465. . 0.189(12) . . .
36475. . 0.168(11) . . .
36485. . 0.159(11) . . .
36495. . 0.203(12) . . .
36505. . 0.177(11) . . .
36515. . 0.167(11) . . .
36525. . 0.167(11) . . .
36535. . 0.171(11) . . .
36545. . 0.175(11) . . .
36555. . 0.168(11) . . .
36565. . 0.178(12) . . .
36575. . 0.162(11) . . .
36585. . 0.183(12) . . .
36595. . 0.167(11) . . .
36605. . 0.192(12) . . .
36615. . 0.163(11) . . .
36625. . 0.175(11) . . .
36635. . 0.191(12) . . .
36645. . 0.162(11) . . .
36655. . 0.177(12) . . .
36665. . 0.148(11) . . .
36675. . 0.190(12) . . .
36685. . 0.178(12) . . .
36695. . 0.177(12) . . .
36705. . 0.158(11) . . .
36715. . 0.164(11) . . .
36725. . 0.168(11) . . .
36735. . 0.180(12) . . .
36745. . 0.180(12) . . .
36755. . 0.184(12) . . .
36765. . 0.167(11) . . .
36775. . 0.150(11) . . .
36785. . 0.182(12) . . .
36795. . 0.139(10) . . .
36805. . 0.165(11) . . .
36815. . 0.174(12) . . .
36825. . 0.153(11) . . .
36835. . 0.170(12) . . .
36845. . 0.151(11) . . .
36855. . 0.155(11) . . .
36865. . 0.157(11) . . .
36875. . 0.169(12) . . .
36885. . 0.164(11) . . .
36895. . 0.171(12) . . .
36905. . 0.187(12) . . .
36915. . 0.150(11) . . .
36925. . 0.175(12) . . .
36935. . 0.156(11) . . .
36945. . 0.174(12) . . .
36955. . 0.190(13) . . .
36965. . 0.191(12) . . .
36975. . 0.159(12) . . .
36985. . 0.166(12) . . .
36995. . 0.189(13) . . .
37005. . 0.182(12) . . .
37015. . 0.179(12) . . .
37025. . 0.180(12) . . .
37035. . 0.176(12) . . .
37045. . 0.163(12) . . .
37055. . 0.173(12) . . .
37065. . 0.168(12) . . .
37075. . 0.183(12) . . .
37085. . 0.171(12) . . .
37095. . 0.177(12) . . .
37105. . 0.172(12) . . .
37115. . 0.161(12) . . .
37125. . 0.182(12) . . .
37135. . 0.172(12) . . .
37145. . 0.183(13) . . .
37155. . 0.185(13) . . .
37165. . 0.167(12) . . .
37175. . 0.164(12) . . .
37185. . 0.172(12) . . .
37195. . 0.176(12) . . .
37205. . 0.180(13) . . .
37215. . 0.167(12) . . .
37225. . 0.183(13) . . .
37235. . 0.157(12) . . .
37245. . 0.163(12) . . .
37255. . 0.198(13) . . .
37265. . 0.178(12) . . .
37275. . 0.159(12) . . .
37285. . 0.174(12) . . .
37295. . 0.183(13) . . .
37305. . 0.196(13) . . .
37315. . 0.149(12) . . .
37325. . 0.167(12) . . .
37335. . 0.158(12) . . .
37345. . 0.188(13) . . .
37355. . 0.154(12) . . .
37365. . 0.164(12) . . .
37375. . 0.167(12) . . .
37385. . 0.159(12) . . .
37395. . 0.192(13) . . .
37405. . 0.165(12) . . .
37415. . 0.166(12) . . .
37425. . 0.165(12) . . .
37435. . 0.165(12) . . .
37445. . 0.170(13) . . .
37455. . 0.168(12) . . .
37465. . 0.172(13) . . .
37475. . 0.165(12) . . .
37485. . 0.163(12) . . .
37495. . 0.166(12) . . .
37505. . 0.166(12) . . .
37515. . 0.175(13) . . .
37525. . 0.167(13) . . .
37535. . 0.190(13) . . .
37545. . 0.157(12) . . .
37555. . 0.192(13) . . .
37565. . 0.157(12) . . .
37575. . 0.168(13) . . .
37585. . 0.167(13) . . .
37595. . 0.161(13) . . .
37605. . 0.168(13) . . .
37615. . 0.163(13) . . .
37625. . 0.154(13) . . .
37635. . 0.192(14) . . .
37645. . 0.167(13) . . .
37655. . 0.171(13) . . .
37665. . 0.156(13) . . .
37675. . 0.159(13) . . .
37685. . 0.184(14) . . .
37695. . 0.174(13) . . .
37705. . 0.155(13) . . .
37715. . 0.142(12) . . .
37725. . 0.156(13) . . .
37735. . 0.166(13) . . .
37745. . 0.160(13) . . .
37755. . 0.176(13) . . .
37765. . 0.156(13) . . .
37775. . 0.176(13) . . .
37785. . 0.148(12) . . .
37795. . 0.157(13) . . .
37805. . 0.145(12) . . .
37815. . 0.178(13) . . .
37825. . 0.148(12) . . .
37835. . 0.140(12) . . .
37845. . 0.150(12) . . .
37855. . 0.136(12) . . .
37865. . 0.167(13) . . .
37875. . 0.175(13) . . .
37885. . 0.150(12) . . .
37895. . 0.183(14) . . .
37905. . 0.121(11) . . .
37915. . 0.163(13) . . .
37925. . 0.157(13) . . .
37935. . 0.156(13) . . .
37945. . 0.147(13) . . .
37955. . 0.142(12) . . .
37965. . 0.155(13) . . .
37975. . 0.154(13) . . .
37985. . 0.151(13) . . .
37995. . 0.155(13) . . .
38005. . 0.149(13) . . .
38015. . 0.131(12) . . .
38025. . 0.141(13) . . .
38035. . 0.152(13) . . .
38045. . 0.162(13) . . .
38055. . 0.137(13) . . .
38065. . 0.166(14) . . .
38075. . 0.153(13) . . .
38085. . 0.156(13) . . .
38095. . 0.173(14) . . .
38105. . 0.157(13) . . .
38115. . 0.148(13) . . .
38125. . 0.169(14) . . .
38135. . 0.139(13) . . .
38145. . 0.164(14) . . .
38155. . 0.150(13) . . .
38165. . 0.151(13) . . .
38175. . 0.174(14) . . .
38185. . 0.171(14) . . .
38195. . 0.150(13) . . .
38205. . 0.147(13) . . .
38215. . 0.154(14) . . .
38225. . 0.142(13) . . .
38235. . 0.150(14) . . .
38245. . 0.155(14) . . .
38255. . 0.157(14) . . .
38265. . 0.185(15) . . .
38275. . 0.161(14) . . .
38285. . 0.184(15) . . .
38295. . 0.189(15) . . .
38305. . 0.170(15) . . .
38315. . 0.140(13) . . .
38325. . 0.179(15) . . .
38335. . 0.136(13) . . .
38345. . 0.155(14) . . .
38355. . 0.173(15) . . .
38365. . 0.147(14) . . .
38375. . 0.172(15) . . .
38385. . 0.162(15) . . .
38395. . 0.162(15) . . .
38405. . 0.156(14) . . .
38415. . 0.177(15) . . .
38425. . 0.150(14) . . .
38435. . 0.169(15) . . .
38445. . 0.156(14) . . .
38455. . 0.153(14) . . .
38465. . 0.158(15) . . .
38475. . 0.142(14) . . .
38485. . 0.155(14) . . .
38495. . 0.147(14) . . .
38505. . 0.146(14) . . .
38515. . 0.114(13) . . .
38525. . 0.138(14) . . .
38535. . 0.159(15) . . .
38545. . 0.169(15) . . .
38555. . 0.145(14) . . .
38565. . 0.148(14) . . .
38575. . 0.158(15) . . .
38585. . 0.132(14) . . .
38595. . 0.146(14) . . .
38605. . 0.173(16) . . .
38615. . 0.130(14) . . .
38625. . 0.171(16) . . .
38635. . 0.179(16) . . .
38645. . 0.142(14) . . .
38655. . 0.177(16) . . .
38665. . 0.155(15) . . .
38675. . 0.123(13) . . .
38685. . 0.146(15) . . .
38695. . 0.160(15) . . .
38705. . 0.187(17) . . .
38715. . 0.140(15) . . .
38725. . 0.142(15) . . .
38735. . 0.162(16) . . .
38745. . 0.133(14) . . .
38755. . 0.168(16) . . .
38765. . 0.148(15) . . .
38775. . 0.141(15) . . .
38785. . 0.150(15) . . .
38795. . 0.111(13) . . .
38805. . 0.143(15) . . .
38815. . 0.137(15) . . .
38825. . 0.161(16) . . .
38835. . 0.124(14) . . .
38845. . 0.178(17) . . .
38855. . 0.144(15) . . .
38865. . 0.157(16) . . .
38875. . 0.127(14) . . .
38885. . 0.164(16) . . .
38895. . 0.161(16) . . .
38905. . 0.130(14) . . .
38915. . 0.114(14) . . .
38925. . 0.141(15) . . .
38935. . 0.154(16) . . .
38945. . 0.127(14) . . .
38955. . 0.136(15) . . .
38965. . 0.149(15) . . .
38975. . 0.154(16) . . .
38985. . 0.111(14) . . .
38995. . 0.132(15) . . .
39005. . 0.117(14) . . .
39015. . 0.145(16) . . .
39025. . 0.160(16) . . .
39035. . 0.124(15) . . .
39045. . 0.144(16) . . .
39055. . 0.136(15) . . .
39065. . 0.142(15) . . .
39075. . 0.128(15) . . .
39085. . 0.145(16) . . .
39095. . 0.140(15) . . .
39105. . 0.141(16) . . .
39115. . 0.141(15) . . .
39125. . 0.101(13) . . .
39135. . 0.127(15) . . .
39145. . 0.147(16) . . .
39155. . 0.135(15) . . .
39165. . 0.150(16) . . .
39175. . 0.113(14) . . .
39185. . 0.146(16) . . .
39195. . 0.136(15) . . .
39205. . 0.118(14) . . .
39215. . 0.127(15) . . .
39225. . 0.136(15) . . .
39235. . 0.133(15) . . .
39245. . 0.151(16) . . .
39255. . 0.101(13) . . .
39265. . 0.133(15) . . .
39275. . 0.112(14) . . .
39285. . 0.130(15) . . .
39295. . 0.141(15) . . .
39305. . 0.105(14) . . .
39315. . 0.113(14) . . .
39325. . 0.113(14) . . .
39335. . 0.128(15) . . .
39345. . 0.095(13) . . .
39355. . 0.119(15) . . .
39365. . 0.120(15) . . .
39375. . 0.135(16) . . .
39385. . 0.128(15) . . .
39395. . 0.117(15) . . .
39405. . 0.131(16) . . .
39415. . 0.129(15) . . .
39425. . 0.116(15) . . .
39435. . 0.154(17) . . .
39445. . 0.120(15) . . .
39455. . 0.133(16) . . .
39465. . 0.129(16) . . .
39475. . 0.105(15) . . .
39485. . 0.146(17) . . .
39495. . 0.149(17) . . .
39505. . 0.109(15) . . .
39515. . 0.120(16) . . .
39525. . 0.122(16) . . .
39535. . 0.116(15) . . .
39545. . 0.119(16) . . .
39555. . 0.122(16) . . .
39565. . 0.124(16) . . .
39575. . 0.096(14) . . .
39585. . 0.158(18) . . .
39595. . 0.100(15) . . .
39605. . 0.134(17) . . .
39615. . 0.103(15) . . .
39625. . 0.119(16) . . .
39635. . 0.099(15) . . .
39645. . 0.142(18) . . .
39655. . 0.114(16) . . .
39665. . 0.165(19) . . .
39675. . 0.145(18) . . .
39685. . 0.129(17) . . .
39695. . 0.132(17) . . .
39705. . 0.135(18) . . .
39715. . 0.112(16) . . .
39725. . 0.131(18) . . .
39735. . 0.118(17) . . .
39745. . 0.086(15) . . .
39755. . 0.143(18) . . .
39765. . 0.111(17) . . .
39775. . 0.142(19) . . .
39785. . 0.087(15) . . .
39795. . 0.094(16) . . .
39805. . 0.108(17) . . .
39815. . 0.118(17) . . .
39825. . 0.128(18) . . .
39835. . 0.130(18) . . .
39845. . 0.124(18) . . .
39855. . 0.144(19) . . .
39865. . 0.094(16) . . .
39875. . 0.145(20) . . .
39885. . 0.137(19) . . .
39895. . 0.105(17) . . .
39905. . 0.087(16) . . .
39915. . 0.151(20) . . .
39925. . 0.148(20) . . .
39935. . 0.125(19) . . .
39945. . 0.121(19) . . .
39955. . 0.136(20) . . .
39965. . 0.153(21) . . .
loop_
_refln_index_h
_refln_index_k
_refln_index_l
_refln_observed_status
_refln_F_squared_meas
_refln_F_squared_calc
_refln_phase_calc
_refln_d_spacing
_gsas_i100_meas
1 1 -1 o 6.566 6.530 0.00 3.11507 100.00
1 1 1 o 2.181 2.193 180.00 2.81914 22.28
0 2 0 o 0.080 0.088 180.00 2.60476 0.30
0 0 2 o 2.373 2.660 180.00 2.57059 8.38
2 0 0 o 0.404 0.060 0.00 2.50757 1.29
1 0 -2 o 7.873 6.868 180.00 2.43743 22.47
0 2 1 o 0.525 0.620 0.00 2.32355 2.48
1 2 0 o 1.589 1.672 0.00 2.31157 7.34
0 1 2 o 0.574 0.581 0.00 2.30522 2.62
2 1 0 o 7.854 7.992 180.00 2.25945 33.11
1 1 -2 o 0.116 0.124 0.00 2.20773 0.45
2 1 -1 o 5.513 5.666 180.00 2.17729 20.04
1 2 -1 o 7.720 7.854 180.00 2.16373 27.37
1 0 2 o 11.441 11.633 180.00 2.16238 20.23
1 2 1 o 1.642 1.100 0.00 2.05687 4.75
1 1 2 o 12.639 11.970 0.00 1.99716 32.53
2 1 1 o 2.101 2.197 0.00 1.97455 5.17
2 0 -2 o 1.266 2.563 0.00 1.94321 1.46
0 2 2 o 17.767 17.126 180.00 1.82964 32.21
2 1 -2 o 2.220 2.172 180.00 1.82067 3.95
2 2 0 o 20.442 19.567 180.00 1.80650 35.22
1 2 -2 o 18.035 18.551 0.00 1.77974 29.27
2 2 -1 o 7.136 7.647 180.00 1.76368 11.17
2 0 2 o 25.634 25.846 0.00 1.67621 16.37
3 0 0 o 0.045 0.045 0.00 1.67172 0.03
1 2 2 o 1.449 1.528 0.00 1.66377 1.80
2 2 1 o 2.801 2.724 0.00 1.65063 3.36
0 3 1 o 0.001 0.001 0.00 1.64519 0.00
1 3 0 o 9.739 9.283 180.00 1.64092 11.42
0 1 3 o 11.362 11.504 180.00 1.62791 12.91
1 1 -3 o 6.112 6.459 180.00 1.61596 6.74
2 1 2 o 0.007 0.007 0.00 1.59565 0.01
3 1 0 o 0.652 0.653 0.00 1.59177 0.68
1 3 -1 o 3.139 3.113 0.00 1.58544 3.21
3 1 -1 o 10.489 10.335 180.00 1.58441 10.69
2 2 -2 o 0.099 0.081 0.00 1.55754 0.09
1 3 1 o 19.205 17.196 180.00 1.54193 17.56
3 0 -2 o 29.925 30.615 180.00 1.50611 12.45
1 1 3 o 0.904 1.007 0.00 1.48862 0.72
3 1 1 o 15.035 15.931 0.00 1.46385 11.17
2 1 -3 o 3.419 3.607 0.00 1.46166 2.52
3 1 -2 o 5.744 6.453 0.00 1.44685 4.07
0 3 2 o 0.019 0.020 0.00 1.43895 0.01
0 2 3 o 0.185 0.199 0.00 1.43166 0.13
2 3 0 o 1.419 1.508 0.00 1.42761 0.95
1 2 -3 o 5.885 6.081 0.00 1.42351 3.91
1 3 -2 o 0.373 0.345 0.00 1.41429 0.24
2 2 2 o 0.615 0.560 0.00 1.40957 0.39
3 2 0 o 5.587 5.124 0.00 1.40689 3.54
2 3 -1 o 0.068 0.062 0.00 1.40619 0.04
3 2 -1 o 0.127 0.118 180.00 1.40180 0.08
1 3 2 o 3.373 2.423 0.00 1.35396 1.83
2 3 1 o 3.336 2.654 180.00 1.34685 1.78
1 2 3 o 1.375 1.428 0.00 1.33416 0.70
3 2 1 o 1.944 1.880 180.00 1.31624 0.94
3 0 2 o 0.922 0.893 0.00 1.31593 0.22
2 2 -3 o 7.882 7.651 0.00 1.31464 3.81
0 4 0 o 3.571 3.688 0.00 1.30238 0.83
3 2 -2 o 0.082 0.084 180.00 1.30384 0.04
2 3 -2 o 0.000 0.000 0.00 1.29483 0.00
1 0 -4 o 15.337 17.708 180.00 1.29148 3.45
2 1 3 o 0.020 0.024 0.00 1.28597 0.01
0 0 4 o 8.627 10.190 0.00 1.28530 1.90
3 1 2 o 6.241 6.819 0.00 1.27585 2.68
0 4 1 o 9.851 9.711 180.00 1.26250 4.05
1 4 0 o 17.015 16.702 180.00 1.26057 6.95
3 1 -3 o 1.556 1.511 0.00 1.25719 0.63
4 0 0 o 2.601 2.516 0.00 1.25379 0.52
1 1 -4 o 2.657 2.572 0.00 1.25353 1.06
0 1 4 o 2.971 3.098 180.00 1.24788 1.17
1 4 -1 o 0.051 0.053 0.00 1.23488 0.02
0 3 3 o 0.697 0.676 0.00 1.21976 0.25
4 1 0 o 17.869 17.410 180.00 1.21898 6.38
2 0 -4 o 9.707 9.469 0.00 1.21871 1.73
4 1 -1 o 0.562 0.510 0.00 1.22602 0.21
1 3 -3 o 0.027 0.026 180.00 1.21471 0.01
1 4 1 o 0.373 0.363 180.00 1.21399 0.13
2 3 2 o 8.383 8.416 0.00 1.20601 2.87
3 3 0 o 1.601 1.667 180.00 1.20433 0.54
1 0 4 o 1.334 1.427 180.00 1.20331 0.23
3 3 -1 o 0.000 0.000 0.00 1.20114 0.00
4 0 -2 o 1.416 1.752 180.00 1.19833 0.24
2 1 -4 o 0.565 0.726 0.00 1.18667 0.18
2 2 3 o 0.275 0.348 0.00 1.18243 0.09
3 2 2 o 0.217 0.305 0.00 1.17455 0.07
1 1 4 o 0.100 0.146 180.00 1.17244 0.03
4 1 -2 o 0.000 0.000 180.00 1.16783 0.00
0 4 2 o 3.686 4.060 0.00 1.16178 1.09
3 2 -3 o 0.498 0.524 0.00 1.15994 0.15
1 3 3 o 11.202 11.233 0.00 1.15776 3.26
1 2 -4 o 0.036 0.036 180.00 1.15706 0.01
2 4 0 o 0.783 0.756 180.00 1.15579 0.23
0 2 4 o 0.709 0.649 180.00 1.15261 0.20
4 1 1 o 0.044 0.039 180.00 1.14983 0.01
1 4 -2 o 0.501 0.444 0.00 1.14868 0.14
3 3 1 o 0.009 0.008 0.00 1.14599 0.00
2 3 -3 o 8.672 7.810 0.00 1.14494 2.41
3 3 -2 o 4.767 4.915 180.00 1.13778 1.29
2 4 -1 o 1.947 1.764 180.00 1.14433 0.54
4 2 -1 o 1.124 1.240 0.00 1.13532 0.30
4 2 0 o 2.777 3.459 0.00 1.12972 0.73
1 4 2 o 4.871 4.949 180.00 1.11565 1.22
2 4 1 o 3.238 3.236 0.00 1.11166 0.80
2 2 -4 o 8.280 8.927 180.00 1.10386 1.99
3 0 -4 o 10.076 10.720 0.00 1.09994 1.19
3 1 3 o 8.234 8.357 180.00 1.09262 1.90
1 2 4 o 16.355 16.588 0.00 1.09237 3.77
4 2 -2 o 2.219 2.208 180.00 1.08864 0.50
2 4 -2 o 25.314 24.149 0.00 1.08187 5.61
2 0 4 o 8.660 8.261 180.00 1.08119 0.96
3 1 -4 o 4.348 4.198 0.00 1.07621 0.94
4 2 1 o 7.206 6.890 180.00 1.07402 1.55
4 1 -3 o 3.542 3.245 180.00 1.06791 0.75
4 0 2 o 0.312 0.286 180.00 1.06688 0.03
2 1 4 o 8.464 8.170 180.00 1.05863 1.72
2 3 3 o 6.852 6.422 0.00 1.05440 1.37
3 3 2 o 11.532 10.747 180.00 1.04880 2.26
4 1 2 o 3.614 3.502 180.00 1.04518 0.70
3 3 -3 o 0.000 0.000 0.00 1.03836 0.00
0 4 3 o 3.122 2.982 0.00 1.03692 0.58
1 3 -4 o 0.000 0.000 0.00 1.03630 0.00
1 4 -3 o 1.466 1.386 0.00 1.03381 0.27
0 3 4 o 1.617 1.530 0.00 1.03309 0.30
2 4 2 o 6.276 5.931 0.00 1.02843 1.14
3 4 0 o 0.173 0.162 180.00 1.02739 0.03
3 2 3 o 2.237 2.092 0.00 1.02696 0.40
3 4 -1 o 5.873 5.425 0.00 1.02541 1.05
0 5 1 o 0.273 0.250 180.00 1.02114 0.05
4 3 -1 o 14.808 13.592 0.00 1.02059 2.60
1 5 0 o 0.535 0.492 180.00 1.02012 0.09
1 1 -5 o 3.382 3.188 0.00 1.01770 0.59
4 3 0 o 0.138 0.132 0.00 1.01652 0.02
3 2 -4 o 13.171 12.708 0.00 1.01330 2.25
0 1 5 o 13.409 12.392 0.00 1.00877 2.25
4 2 -3 o 2.761 2.541 0.00 1.00636 0.46
1 5 -1 o 2.722 2.504 0.00 1.00637 0.45
5 0 0 o 11.914 11.320 180.00 1.00303 0.98
2 2 4 o 6.997 7.058 180.00 0.99858 1.13
1 4 3 o 1.554 1.573 0.00 0.99802 0.25
2 3 -4 o 10.660 10.807 0.00 0.99755 1.71
2 4 -3 o 0.020 0.019 180.00 0.98977 0.00
1 3 4 o 10.410 9.785 180.00 0.98905 1.61
1 5 1 o 0.760 0.760 180.00 0.99496 0.12
5 1 -1 o 0.034 0.033 0.00 0.99419 0.01
4 2 2 o 9.648 8.998 180.00 0.98727 1.48
2 1 -5 o 2.558 2.378 180.00 0.98636 0.39
4 3 -2 o 22.703 21.100 0.00 0.98628 3.47
3 4 -2 o 1.529 1.415 180.00 0.98514 0.23
5 1 0 o 0.828 0.766 0.00 0.98494 0.13
5 0 -2 o 9.808 9.067 0.00 0.98464 0.75
3 4 1 o 0.127 0.121 0.00 0.99045 0.02
4 3 1 o 3.909 3.614 180.00 0.97537 0.57
4 0 -4 o 8.056 7.700 0.00 0.97161 0.58
5 1 -2 o 17.460 16.889 0.00 0.96751 2.47
0 5 2 o 10.538 10.084 180.00 0.96560 1.48
1 2 -5 o 0.933 0.887 180.00 0.96401 0.13
1 1 5 o 0.296 0.282 180.00 0.96253 0.04
2 5 0 o 1.448 1.384 0.00 0.96215 0.20
1 5 -2 o 10.113 10.331 0.00 0.95804 1.38
0 2 5 o 2.267 2.361 180.00 0.95641 0.31
2 5 -1 o 0.655 0.685 180.00 0.95551 0.09
4 1 -4 o 9.507 9.946 180.00 0.95514 1.28
3 0 4 o 16.233 16.841 180.00 0.95355 1.09
5 2 -1 o 0.040 0.042 180.00 0.94396 0.01
5 1 1 o 4.399 4.653 180.00 0.94257 0.56
3 3 3 o 2.387 2.576 180.00 0.93971 0.30
1 5 2 o 1.593 1.729 0.00 0.93863 0.20
3 1 4 o 8.488 9.249 0.00 0.93797 1.06
2 2 -5 o 0.373 0.409 180.00 0.93724 0.05
2 5 1 o 0.542 0.600 180.00 0.93625 0.07
5 2 0 o 2.705 3.005 180.00 0.93603 0.34
4 1 3 o 0.001 0.001 180.00 0.93246 0.00
2 4 3 o 7.820 9.255 180.00 0.92952 0.94
3 3 -4 o 1.332 1.577 180.00 0.92921 0.16
3 4 2 o 4.113 4.884 180.00 0.92567 0.49
3 1 -5 o 1.717 2.030 0.00 0.92461 0.20
4 3 -3 o 8.783 10.336 180.00 0.92385 1.03
0 4 4 o 10.025 11.319 0.00 0.91482 1.14
5 2 -2 o 4.178 4.772 0.00 0.92103 0.49
5 1 -3 o 1.305 1.519 0.00 0.91267 0.15
3 4 -3 o 6.391 7.153 180.00 0.91847 0.74
2 5 -2 o 9.889 11.058 180.00 0.91824 1.14
2 3 4 o 0.149 0.166 0.00 0.91783 0.02
1 4 -4 o 16.445 18.356 180.00 0.91704 1.88
1 2 5 o 9.001 10.050 180.00 0.91673 1.03
4 2 -4 o 2.229 2.738 180.00 0.91034 0.25
4 3 2 o 5.398 6.854 0.00 0.90902 0.60
4 4 -1 o 0.578 0.766 0.00 0.90611 0.06
4 4 0 o 5.160 6.542 0.00 0.90325 0.56
5 2 1 o 2.349 2.734 180.00 0.89943 0.25
3 2 4 o 0.048 0.057 180.00 0.89544 0.00
2 1 5 o 4.978 5.713 180.00 0.89244 0.51
5 0 2 o 10.789 12.065 0.00 0.89117 0.55
1 3 -5 o 3.615 4.009 180.00 0.89077 0.37
4 2 3 o 10.765 11.908 0.00 0.89064 1.10
0 5 3 o 0.767 0.842 180.00 0.89028 0.08
2 4 -4 o 0.065 0.071 0.00 0.88987 0.01
1 5 -3 o 0.058 0.062 0.00 0.88831 0.01
2 5 2 o 9.114 9.520 180.00 0.88489 0.90
0 3 5 o 0.616 0.644 0.00 0.88476 0.06
3 5 0 o 36.770 38.458 0.00 0.88422 3.64
1 4 4 o 0.446 0.467 0.00 0.88382 0.04
3 2 -5 o 0.293 0.307 180.00 0.88379 0.03
3 5 -1 o 0.009 0.009 180.00 0.88296 0.00
4 4 -2 o 0.508 0.535 0.00 0.88184 0.05
5 1 2 o 4.605 4.945 0.00 0.87841 0.44
5 3 -1 o 6.755 7.301 0.00 0.87487 0.64
4 4 1 o 2.787 3.002 180.00 0.87401 0.26
5 2 -3 o 2.552 2.739 0.00 0.87335 0.24
2 3 -5 o 12.021 12.416 180.00 0.86952 1.11
5 3 0 o 14.894 15.200 180.00 0.86855 1.37
0 6 0 o 0.103 0.105 180.00 0.86825 0.00
1 0 -6 o 2.591 2.547 0.00 0.86599 0.12
1 5 3 o 3.198 3.108 0.00 0.86529 0.29
3 5 1 o 0.925 0.838 0.00 0.86034 0.08
2 5 -3 o 0.329 0.297 0.00 0.85990 0.03
0 0 6 o 16.385 15.018 0.00 0.85686 0.71
3 5 -2 o 0.871 0.798 180.00 0.85685 0.08
5 3 -2 o 0.877 0.805 180.00 0.85653 0.08
0 6 1 o 17.247 15.855 180.00 0.85613 1.50
2 2 5 o 1.403 1.291 180.00 0.85557 0.12
1 6 0 o 10.679 9.827 0.00 0.85553 0.93
1 1 -6 o 2.732 2.507 180.00 0.85427 0.24
5 0 -4 o 1.972 1.805 180.00 0.85386 0.08
1 3 5 o 4.013 3.654 180.00 0.85307 0.34
2 0 -6 o 2.639 2.340 0.00 0.84990 0.11
5 2 2 o 0.310 0.257 180.00 0.84318 0.03
5 1 -4 o 1.794 1.501 0.00 0.84262 0.15
3 4 3 o 1.419 1.227 180.00 0.84808 0.12
4 3 -4 o 0.002 0.001 0.00 0.84791 0.00
4 1 -5 o 8.035 6.921 0.00 0.84785 0.67
1 6 -1 o 0.118 0.101 0.00 0.84736 0.01
1 6 1 o 2.455 2.139 180.00 0.84052 0.20
3 4 -4 o 3.617 3.164 180.00 0.84034 0.29
0 1 6 o 0.706 0.586 180.00 0.84550 0.06
5 3 1 o 4.113 3.688 180.00 0.83908 0.33
2 1 -6 o 9.354 8.427 180.00 0.83881 0.75
4 0 4 o 0.471 0.429 0.00 0.83811 0.02
4 4 -3 o 2.472 2.280 180.00 0.83637 0.20
3 3 4 o 0.289 0.266 180.00 0.83583 0.02
6 0 0 o 25.133 23.172 180.00 0.83586 0.99
6 1 -1 o 10.077 9.143 180.00 0.83401 0.79
4 3 3 o 0.664 0.592 180.00 0.83192 0.05
2 4 4 o 3.591 3.203 0.00 0.83189 0.28
6 0 -2 o 0.448 0.400 0.00 0.83160 0.02
4 1 4 o 0.960 0.893 180.00 0.82747 0.07
3 3 -5 o 1.217 1.144 180.00 0.82633 0.09
4 4 2 o 11.841 11.217 180.00 0.82531 0.89
6 1 0 o 2.412 2.285 180.00 0.82530 0.18
1 0 6 o 5.118 4.860 180.00 0.82477 0.19
0 6 2 o 11.975 11.347 180.00 0.82260 0.89
1 2 -6 o 20.174 18.984 0.00 0.82176 1.49
6 1 -2 o 2.000 1.870 180.00 0.82120 0.15
2 6 0 o 2.005 1.859 180.00 0.82046 0.15
2 5 3 o 0.161 0.148 0.00 0.81950 0.01
1 6 -2 o 1.355 1.233 0.00 0.81791 0.10
5 3 -3 o 3.600 3.277 180.00 0.81778 0.26
3 5 2 o 3.513 3.208 180.00 0.81686 0.25
2 6 -1 o 0.268 0.245 180.00 0.81633 0.02
4 2 -5 o 5.310 4.875 180.00 0.81605 0.38
1 1 6 o 2.732 2.531 0.00 0.81462 0.19
0 2 6 o 7.055 6.545 180.00 0.81395 0.50
3 1 5 o 1.239 1.150 0.00 0.81344 0.09
3 0 -6 o 28.416 26.244 180.00 0.81248 1.00
3 5 -3 o 0.441 0.406 0.00 0.81190 0.03
1 4 -5 o 5.656 5.178 180.00 0.81158 0.40
5 2 -4 o 6.733 6.149 180.00 0.81138 0.47
1 5 -4 o 8.025 7.283 180.00 0.81091 0.56
0 5 4 o 14.127 12.533 0.00 0.80937 0.98
2 2 -6 o 9.382 8.180 180.00 0.80798 0.65
0 4 5 o 0.042 0.037 180.00 0.80703 0.00
1 6 2 o 2.642 2.284 0.00 0.80573 0.18
5 1 3 o 13.884 12.011 0.00 0.80527 0.94
2 6 1 o 10.276 8.905 0.00 0.80422 0.70
6 2 -1 o 2.796 2.424 0.00 0.80368 0.19
4 5 -1 o 1.361 1.180 0.00 0.80332 0.09
2 3 5 o 1.959 1.698 180.00 0.80313 0.13
3 1 -6 o 0.028 0.024 0.00 0.80277 0.00
4 5 0 o 3.805 3.284 180.00 0.80133 0.25
5 4 -1 o 4.218 3.647 180.00 0.79951 0.28
4 2 4 o 9.004 7.951 0.00 0.79782 0.59
6 1 1 o 1.742 1.563 0.00 0.79699 0.11
6 2 0 o 0.060 0.055 0.00 0.79588 0.00
2 4 -5 o 0.067 0.062 0.00 0.79541 0.00
5 4 0 o 0.733 0.682 0.00 0.79467 0.05
5 3 2 o 0.540 0.511 180.00 0.79286 0.03
2 6 -2 o 8.465 8.028 180.00 0.79272 0.54
6 2 -2 o 0.739 0.705 0.00 0.79220 0.05
2 5 -4 o 0.014 0.014 0.00 0.79194 0.00
6 1 -3 o 15.331 15.052 0.00 0.78965 0.96
1 5 4 o 1.464 1.419 0.00 0.78767 0.09
1 2 6 o 1.568 1.466 180.00 0.78629 0.10
4 5 -2 o 3.040 2.841 180.00 0.78626 0.19
5 4 -2 o 2.265 2.068 0.00 0.78543 0.14
3 2 5 o 1.065 0.968 180.00 0.78523 0.07
1 4 5 o 0.681 0.620 180.00 0.78276 0.04
4 5 1 o 0.469 0.466 180.00 0.78070 0.03
0 6 3 o 5.550 5.760 0.00 0.77452 0.32
1 6 -3 o 0.874 0.893 0.00 0.77322 0.05
4 4 -4 o 0.908 0.969 180.00 0.77877 0.05
5 2 3 o 1.334 1.437 0.00 0.77788 0.08
5 4 1 o 6.109 6.166 0.00 0.77191 0.35
2 6 2 o 0.283 0.285 180.00 0.77096 0.02
2 0 6 o 12.522 13.387 0.00 0.77670 0.37
3 6 0 o 1.662 1.675 0.00 0.77052 0.09
6 2 1 o 0.524 0.528 180.00 0.77040 0.03
4 3 -5 o 3.151 3.185 0.00 0.77017 0.18
3 2 -6 o 0.026 0.028 180.00 0.77562 0.00
3 6 -1 o 3.524 3.583 0.00 0.76968 0.20
3 4 4 o 0.182 0.186 0.00 0.76938 0.01
1 3 -6 o 0.652 0.681 180.00 0.77497 0.04
5 1 -5 o 2.748 2.839 180.00 0.76877 0.16
0 3 6 o 0.204 0.212 180.00 0.76841 0.01
2 1 6 o 4.955 5.175 180.00 0.76821 0.28
4 4 3 o 0.537 0.576 0.00 0.76633 0.03
5 3 -4 o 5.327 5.725 180.00 0.76624 0.30
6 2 -3 o 0.097 0.105 180.00 0.76377 0.01
2 3 -6 o 3.196 3.467 180.00 0.76337 0.18
6 0 2 o 5.287 5.759 0.00 0.76265 0.14
3 5 3 o 0.466 0.510 180.00 0.76205 0.03
3 4 -5 o 9.035 9.890 0.00 0.76195 0.49
4 0 -6 o 1.012 1.112 0.00 0.76141 0.03
6 3 -1 o 1.264 1.390 180.00 0.75975 0.07
1 6 3 o 0.479 0.518 0.00 0.75790 0.03
3 5 -4 o 1.407 1.495 0.00 0.75642 0.07
5 4 -3 o 5.103 5.359 0.00 0.75523 0.27
4 3 4 o 11.125 11.647 0.00 0.75479 0.58
6 1 2 o 9.838 10.291 180.00 0.75461 0.52
3 6 1 o 0.307 0.321 180.00 0.75457 0.02
2 6 -3 o 0.005 0.005 0.00 0.75427 0.00
4 5 -3 o 2.159 2.258 180.00 0.75352 0.11
4 1 -6 o 5.030 5.264 180.00 0.75341 0.26
6 3 0 o 10.135 10.625 0.00 0.75315 0.53
6 0 -4 o 0.955 1.002 0.00 0.75305 0.02
3 6 -2 o 0.017 0.018 180.00 0.75221 0.00
2 5 4 o 6.669 7.482 180.00 0.75024 0.34
6 3 -2 o 0.914 1.034 0.00 0.75003 0.05
4 5 2 o 3.857 5.064 180.00 0.74541 0.19
6 1 -4 o 7.500 9.855 180.00 0.74531 0.37
1 3 6 o 1.159 1.526 180.00 0.74500 0.06
5 2 -5 o 7.505 9.893 180.00 0.74483 0.37
2 2 6 o 0.269 0.354 180.00 0.74431 0.01
3 3 5 o 4.466 5.886 0.00 0.74410 0.22
2 4 5 o 2.277 2.994 0.00 0.74365 0.11
5 0 4 o 0.647 0.792 0.00 0.73982 0.02
5 3 3 o 0.656 0.777 0.00 0.73784 0.03
0 7 1 o 2.265 2.673 0.00 0.73654 0.11
1 7 0 o 9.663 11.408 180.00 0.73615 0.46
3 3 -6 o 1.561 1.844 180.00 0.73591 0.07
4 1 5 o 0.167 0.197 0.00 0.73590 0.01
5 4 2 o 0.300 0.354 180.00 0.73547 0.01
1 5 -5 o 0.088 0.103 0.00 0.73525 0.00
1 1 -7 o 0.168 0.199 0.00 0.73507 0.01
5 1 4 o 7.434 8.413 0.00 0.73248 0.35
6 2 2 o 9.244 10.330 0.00 0.73192 0.43
0 5 5 o 0.016 0.018 0.00 0.73186 0.00
6 3 1 o 2.941 3.252 0.00 0.73145 0.14
1 7 -1 o 1.061 1.161 180.00 0.73094 0.05
4 2 -6 o 0.265 0.289 0.00 0.73083 0.01
2 1 -7 o 0.967 0.995 0.00 0.72733 0.04
0 1 7 o 6.852 7.044 180.00 0.72726 0.31
2 6 3 o 8.342 8.422 180.00 0.72656 0.38
1 7 1 o 1.193 1.204 0.00 0.72653 0.05
5 5 -1 o 0.611 0.611 0.00 0.72623 0.03
6 3 -3 o 0.006 0.006 0.00 0.72576 0.00
3 6 2 o 3.399 3.273 0.00 0.72472 0.15
6 2 -4 o 2.100 1.974 0.00 0.72343 0.09
2 5 -5 o 4.043 3.786 180.00 0.72316 0.18
5 5 0 o 2.337 2.174 0.00 0.72260 0.10
3 6 -3 o 22.001 20.286 180.00 0.72124 0.96
1 4 -6 o 2.827 2.605 180.00 0.72112 0.12
3 0 6 o 10.034 9.240 0.00 0.72079 0.22
1 6 -4 o 4.803 4.421 0.00 0.72055 0.21
0 6 4 o 4.748 4.366 180.00 0.71947 0.21
7 0 -2 o 0.560 0.518 0.00 0.71794 0.01
7 1 -1 o 0.368 0.342 180.00 0.71737 0.02
4 4 -5 o 0.059 0.055 180.00 0.71725 0.00
7 0 0 o 5.647 5.275 0.00 0.71645 0.12
0 4 6 o 0.139 0.131 0.00 0.71583 0.01
5 5 -2 o 0.715 0.673 0.00 0.71563 0.03
4 6 -1 o 5.350 5.054 0.00 0.71521 0.23
0 7 2 o 0.966 0.915 180.00 0.71486 0.04
4 2 5 o 2.483 2.352 180.00 0.71482 0.10
1 2 -7 o 0.314 0.298 180.00 0.71405 0.01
5 4 -4 o 9.252 8.791 180.00 0.71408 0.39
3 1 6 o 0.294 0.279 0.00 0.71399 0.01
4 6 0 o 0.392 0.373 180.00 0.71380 0.02
1 5 5 o 0.023 0.022 180.00 0.71361 0.00
2 7 0 o 4.637 4.408 0.00 0.71346 0.19
2 6 -4 o 1.152 1.137 180.00 0.70714 0.05
2 2 -7 o 2.356 2.329 180.00 0.70696 0.10
0 2 7 o 3.243 3.206 0.00 0.70689 0.13
2 4 -6 o 2.421 2.298 0.00 0.71176 0.10
1 7 -2 o 2.658 2.522 0.00 0.71178 0.11
5 2 4 o 0.071 0.067 180.00 0.71167 0.00
7 1 -2 o 5.643 5.362 0.00 0.71122 0.23
3 1 -7 o 7.971 7.905 180.00 0.70545 0.32
1 1 7 o 0.233 0.231 0.00 0.70532 0.01
5 5 1 o 1.177 1.167 180.00 0.70536 0.05
2 7 -1 o 0.142 0.135 180.00 0.71074 0.01
4 5 -4 o 15.389 14.671 180.00 0.71058 0.63
4 4 4 o 6.801 6.722 0.00 0.70478 0.27
6 1 3 o 0.666 0.658 0.00 0.70471 0.03
5 0 -6 o 0.344 0.340 180.00 0.70458 0.01
7 1 0 o 5.923 5.684 0.00 0.70977 0.24
1 6 4 o 1.453 1.429 0.00 0.70410 0.06
5 3 -5 o 0.174 0.167 180.00 0.70945 0.01
1 7 2 o 2.537 2.486 0.00 0.70371 0.10
2 3 6 o 10.141 9.808 0.00 0.70901 0.41
3 5 4 o 14.761 14.430 0.00 0.70343 0.58
6 4 0 o 0.057 0.056 180.00 0.70345 0.00
6 4 -1 o 4.019 3.895 180.00 0.70881 0.16
4 6 -2 o 1.783 1.738 180.00 0.70309 0.07
2 7 1 o 6.765 6.572 0.00 0.70270 0.27
4 5 3 o 0.049 0.047 180.00 0.70109 0.00
6 4 -2 o 3.163 3.022 180.00 0.70090 0.12
