#------------------------------------------------------------------------------
#$Date: 2019-08-01 07:03:08 +0300 (Thu, 01 Aug 2019) $
#$Revision: 217345 $
#$URL: file:///home/coder/svn-repositories/cod/cif/2/10/84/2108454.cif $
#------------------------------------------------------------------------------
#
# This file is available in the Crystallography Open Database (COD),
# http://www.crystallography.net/. The original data for this entry
# were provided by IUCr Journals, http://journals.iucr.org/.
#
# The file may be used within the scientific community so long as
# proper attribution is given to the journal article from which the
# data were obtained.
#
data_2108454
loop_
_publ_author_name
'Fukui, Hiroshi'
'Fujimoto, Manato'
'Akahama, Yuichi'
'Sano-Furukawa, Asami'
'Hattori, Takanori'
_publ_section_title
;
 Structure change of monoclinic ZrO~2~ baddeleyite involving softenings of
 bulk modulus and atom vibrations
;
_journal_issue                   4
_journal_name_full               'Acta Crystallographica Section B'
_journal_page_first
;
;
_journal_paper_doi               10.1107/S2052520619007923
_journal_volume                  75
_journal_year                    2019
_chemical_formula_sum            'O2 Zr'
_chemical_formula_weight         123.22
_space_group_IT_number           14
_space_group_name_Hall           '-P 2ybc'
_space_group_name_H-M_alt        'P 1 21/c 1'
_symmetry_cell_setting           monoclinic
_symmetry_space_group_name_Hall  '-P 2ybc'
_symmetry_space_group_name_H-M   'P 1 21/c 1'
_audit_creation_date             2019-05-07T13:21
_audit_creation_method           'from EXP file using GSAS2CIF'
_audit_update_record
' 2019-05-07T13:21  Initial CIF as created by GSAS2CIF'
_cell_angle_alpha                90.0
_cell_angle_beta                 98.706(5)
_cell_angle_gamma                90.0
_cell_formula_units_Z            4
_cell_length_a                   5.09098(29)
_cell_length_b                   5.20930(33)
_cell_length_c                   5.23197(32)
_cell_volume                     137.155(15)
_computing_structure_refinement  GSAS
_diffrn_radiation_probe          neutron
_exptl_absorpt_correction_T_max  1.00000
_exptl_absorpt_correction_T_min  1.00000
_exptl_absorpt_process_details
;   GSAS Absorption/surface roughness correction: function number 0
 No correction is applied.
;
_pd_block_id                     2019-05-07T13:21|34855|FUKUI,_Hiroshi|PLANET
_pd_calc_method                  'Rietveld Refinement'
_pd_instr_location               ' ?'
_pd_meas_2theta_fixed            90.00
_pd_meas_number_of_points        3712
_pd_phase_name
'from Z:/2017A/Fukui/46p0ton/gsas34841/34841.EXP'
_pd_proc_info_datetime           2019-05-07T13:21:30
_pd_proc_info_excluded_regions   ' ?'
_pd_proc_ls_background_function
;   GSAS Background function number 1 with 18 terms.
 Shifted Chebyshev function of 1st kind
      1:   0.220392     2:   5.475970E-02 3:  -6.935650E-04 4:  -1.550670E-02
      5:  -1.599520E-02 6:  -3.332530E-03 7:  -9.268370E-03 8:   3.203870E-03
      9:   4.725210E-0310:   3.599950E-0311:   1.187920E-0312:   8.565980E-04
     13:   1.639110E-0314:  -1.174560E-0315:   7.275620E-0416:   2.303690E-03
     17:   1.989760E-0318:  -6.173770E-04
;
_pd_proc_ls_peak_cutoff          0.00100
_pd_proc_ls_profile_function
;
 TOF Profile function number 3 with  21 terms
 Profile coefficients for exponential pseudovoigt
  convolution Von Dreele, 1990 (unpublished)
 #1 (alp  ) = ******** #2 (bet-0) = 0.015258 #3 (bet-1) = 0.731691
 #4 (sig-0) =      2.8 #5 (sig-1) =    354.1 #6 (sig-2) =    113.3
 #7 (gam-0) =     0.00 #8 (gam-1) =    38.92 #9 (gam-2) =     0.93
 #10(gsf  ) =     0.00 #11(g1ec ) =     0.00 #12(g2ec ) =     0.00
 #13(rstr ) =    0.000 #14(rsta ) =    0.000 #15(rsca ) =    0.000
 #16(L11)   =    0.000 #17(L22)   =    0.000 #18(L33)   =    0.000
 #19(L12)   =    0.000 #20(L13)   =    0.000 #21(L23)   =    0.000
 Peak tails are ignored  where the intensity is below 0.0010 times the peak
   Aniso. broadening axis   0.0   0.0   1.0
;
_pd_proc_ls_prof_R_factor        0.0210
_pd_proc_ls_prof_wR_expected     0.0168
_pd_proc_ls_prof_wR_factor       0.0228
_pd_proc_number_of_points        3712
_pd_spec_mounting                ' ?'
_refine_ls_goodness_of_fit_all   1.36
_refine_ls_matrix_type           full
_refine_ls_number_parameters     35
_refine_ls_number_restraints     0
_refine_ls_R_Fsqd_factor         0.06231
_refine_ls_shift/su_max          0.02
_refine_ls_shift/su_mean         0.00
_reflns_d_resolution_high        0.699
_reflns_d_resolution_low         3.130
_reflns_limit_h_max              7
_reflns_limit_h_min              0
_reflns_limit_k_max              8
_reflns_limit_k_min              0
_reflns_limit_l_max              7
_reflns_limit_l_min              -8
_reflns_number_total             423
_cod_data_source_file            xk5055sup1.cif
_cod_data_source_block           34855
_cod_depositor_comments
;
The following automatic conversions were performed:

'_geom_bond_publ_flag' value 'N' changed to 'n' according to
/home/data/users/saulius/crontab/automatic-downloads/rss-feeds/IUCr/lib/dictionaries/cif_core.dic
dictionary named 'cif_core.dic' version 2.4.2 from 2011-04-26 (21
time).

'_geom_angle_publ_flag' value 'N' changed to 'n' according to
/home/data/users/saulius/crontab/automatic-downloads/rss-feeds/IUCr/lib/dictionaries/cif_core.dic
dictionary named 'cif_core.dic' version 2.4.2 from 2011-04-26 (30
times).

Automatic conversion script
Id: cif_fix_values 4973 2017-02-22 13:04:09Z antanas 
;
_cod_original_cell_volume        137.155(10)
_cod_database_code               2108454
_gsas_exptl_extinct_corr_t_min   1.00000
_gsas_exptl_extinct_corr_t_max   1.00000
loop_
_symmetry_equiv_pos_site_id
_symmetry_equiv_pos_as_xyz
1 +x,+y,+z
2 -x,+y+1/2,-z+1/2
-1 -x,-y,-z
-2 +x,-y+1/2,+z+1/2
loop_
_atom_site_type_symbol
_atom_site_label
_atom_site_fract_x
_atom_site_fract_y
_atom_site_fract_z
_atom_site_occupancy
_atom_site_thermal_displace_type
_atom_site_U_iso_or_equiv
_atom_site_symmetry_multiplicity
Zr Zr 0.2761(5) 0.0388(5) 0.2080(5) 1.0 Uiso 0.0015 4
O O1 0.0775(7) 0.3501(6) 0.3278(6) 1.0 Uiso 0.00375 4
O O2 0.4449(6) 0.7591(6) 0.4870(7) 1.0 Uiso 0.00066 4
loop_
_atom_type_symbol
_atom_type_number_in_cell
_atom_type_scat_length_neutron
_atom_type_scat_source
Zr 4.0 0.7160 International_Tables_Vol_C
O 8.0 0.5803 International_Tables_Vol_C
loop_
_geom_angle_atom_site_label_1
_geom_angle_atom_site_label_2
_geom_angle_atom_site_label_3
_geom_angle
_geom_angle_site_symmetry_1
_geom_angle_site_symmetry_3
_geom_angle_publ_flag
O1 Zr O1 86.57(12) 1_555 2_545 n
O1 Zr O1 83.51(16) 1_555 -2_565 n
O1 Zr O2 119.48(20) 1_555 1_545 n
O1 Zr O2 96.42(19) 1_555 2_645 n
O1 Zr O2 72.51(17) 1_555 -1_666 n
O1 Zr O2 166.01(22) 1_555 -2_565 n
O1 Zr O1 76.20(15) 2_545 -2_565 n
O1 Zr O2 89.55(16) 2_545 1_545 n
O1 Zr O2 146.72(16) 2_545 2_645 n
O1 Zr O2 138.73(17) 2_545 -1_666 n
O1 Zr O2 91.24(18) 2_545 -2_565 n
O1 Zr O2 152.52(15) -2_565 1_545 n
O1 Zr O2 71.27(14) -2_565 2_645 n
O1 Zr O2 133.43(14) -2_565 -1_666 n
O1 Zr O2 82.55(16) -2_565 -2_565 n
O2 Zr O2 116.75(15) 1_545 2_645 n
O2 Zr O2 71.84(16) 1_545 -1_666 n
O2 Zr O2 74.28(11) 1_545 -2_565 n
O2 Zr O2 72.50(10) 2_645 -1_666 n
O2 Zr O2 77.96(13) 2_645 -2_565 n
O2 Zr O2 117.00(15) -1_666 -2_565 n
Zr O1 Zr 145.20(20) 1_555 2_555 n
Zr O1 Zr 107.89(19) 1_555 -2_555 n
Zr O1 Zr 103.80(15) 2_555 -2_555 n
Zr O2 Zr 105.05(18) 1_565 2_655 n
Zr O2 Zr 108.16(16) 1_565 -1_666 n
Zr O2 Zr 133.77(22) 1_565 -2_555 n
Zr O2 Zr 101.09(14) 2_655 -1_666 n
Zr O2 Zr 102.04(13) 2_655 -2_555 n
Zr O2 Zr 102.41(14) -1_666 -2_555 n
loop_
_geom_bond_atom_site_label_1
_geom_bond_atom_site_label_2
_geom_bond_distance
_geom_bond_site_symmetry_2
_geom_bond_publ_flag
Zr Zr 3.446(4) 2_645 n
Zr Zr 3.446(4) 2_655 n
Zr Zr 3.309(6) -1_555 n
Zr Zr 3.406(5) -1_655 n
Zr Zr 3.548(6) -1_656 n
Zr Zr 3.4182(32) -2_554 n
Zr Zr 3.4182(32) -2_555 n
Zr O1 2.058(5) 1_555 n
Zr O1 2.035(4) 2_545 n
Zr O1 2.169(5) -2_554 n
Zr O2 2.148(4) 1_545 n
Zr O2 2.194(4) 2_645 n
Zr O2 2.233(4) -1_666 n
Zr O2 2.188(5) -2_554 n
O1 Zr 2.058(5) 1_555 n
O1 Zr 2.035(4) 2_555 n
O1 Zr 2.169(5) -2_555 n
O2 Zr 2.148(4) 1_565 n
O2 Zr 2.194(4) 2_655 n
O2 Zr 2.233(4) -1_666 n
O2 Zr 2.188(5) -2_555 n
loop_
_pd_meas_time_of_flight
_pd_proc_d_spacing
_pd_meas_intensity_total
_pd_proc_ls_weight
_pd_proc_intensity_bkg_calc
_pd_calc_intensity_total
2855.00 . 0.1753(26) . . .
2865.00 . 0.1789(26) . . .
2875.00 . 0.1725(26) . . .
2885.00 . 0.1755(26) . . .
2895.00 . 0.1716(26) . . .
2905.00 . 0.1707(25) . . .
2915.00 . 0.1639(25) . . .
2925.00 . 0.1698(25) . . .
2935.00 . 0.1661(25) . . .
2945.00 . 0.1686(25) . . .
2955.00 . 0.1688(25) . . .
2965.00 . 0.1647(25) . . .
2975.00 . 0.1638(24) . . .
2985.00 . 0.1628(24) . . .
2995.00 . 0.1643(24) . . .
3005.00 . 0.1666(24) . . .
3015.00 . 0.1691(24) . . .
3025.00 . 0.1648(24) . . .
3035.00 . 0.1668(24) . . .
3045.00 . 0.1679(24) . . .
3055.00 . 0.1718(24) . . .
3065.00 . 0.1646(23) . . .
3075.00 . 0.1654(23) . . .
3085.00 . 0.1649(23) . . .
3095.00 . 0.1587(23) . . .
3105.00 . 0.1597(23) . . .
3115.00 . 0.1638(23) . . .
3125.00 . 0.1636(23) . . .
3135.00 . 0.1635(23) . . .
3145.00 . 0.1677(23) . . .
3155.00 . 0.1668(23) . . .
3165.00 . 0.1680(23) . . .
3175.00 . 0.1613(22) . . .
3185.00 . 0.1633(22) . . .
3195.00 . 0.1598(22) . . .
3205.00 . 0.1574(22) . . .
3215.00 . 0.1624(22) . . .
3225.00 . 0.1597(22) . . .
3235.00 . 0.1648(22) . . .
3245.00 . 0.1631(22) . . .
3255.00 . 0.1641(22) . . .
3265.00 . 0.1631(22) . . .
3275.00 . 0.1595(22) . . .
3285.00 . 0.1598(22) . . .
3295.00 . 0.1669(22) . . .
3305.00 . 0.1653(22) . . .
3315.00 . 0.1616(22) . . .
3325.00 . 0.1587(21) . . .
3335.00 . 0.1612(21) . . .
3345.00 . 0.1612(21) . . .
3355.00 . 0.1634(21) . . .
3365.00 . 0.1685(21) . . .
3375.00 . 0.1669(21) . . .
3385.00 . 0.1559(21) . . .
3395.00 . 0.1561(21) . . .
3405.00 . 0.1558(21) . . .
3415.00 . 0.1526(21) . . .
3425.00 . 0.1565(21) . . .
3435.00 . 0.1576(21) . . .
3445.00 . 0.1519(20) . . .
3455.00 . 0.1451(20) . . .
3465.00 . 0.1465(20) . . .
3475.00 . 0.1486(20) . . .
3485.00 . 0.1461(20) . . .
3495.00 . 0.1483(20) . . .
3505.00 . 0.1525(20) . . .
3515.0 . 0.1549(20) . . .
3525.0 . 0.1528(20) . . .
3535.0 . 0.1523(20) . . .
3545.0 . 0.1514(20) . . .
3555.0 . 0.1549(20) . . .
3565.0 . 0.1539(20) . . .
3575.0 . 0.1589(20) . . .
3585.0 . 0.1518(20) . . .
3595.0 . 0.1522(19) . . .
3605.0 . 0.1490(19) . . .
3615.0 . 0.1532(19) . . .
3625.0 . 0.1511(19) . . .
3635.0 . 0.1536(19) . . .
3645.0 . 0.1515(19) . . .
3655.0 . 0.1514(19) . . .
3665.0 . 0.1549(19) . . .
3675.0 . 0.1537(19) . . .
3685.0 . 0.1529(19) . . .
3695.0 . 0.1530(19) . . .
3705.0 . 0.1536(19) . . .
3715.0 . 0.1542(19) . . .
3725.0 . 0.1563(19) . . .
3735.0 . 0.1580(19) . . .
3745.0 . 0.1522(19) . . .
3755.0 . 0.1583(19) . . .
3765.0 . 0.1588(19) . . .
3775.0 . 0.1575(19) . . .
3785.0 . 0.1604(19) . . .
3795.0 . 0.1568(19) . . .
3805.0 . 0.1575(19) . . .
3815.0 . 0.1548(19) . . .
3825.0 . 0.1569(19) . . .
3835.0 . 0.1575(19) . . .
3845.0 . 0.1587(19) . . .
3855.0 . 0.1610(19) . . .
3865.0 . 0.1574(18) . . .
3875.0 . 0.1593(19) . . .
3885.0 . 0.1598(18) . . .
3895.0 . 0.1544(18) . . .
3905.0 . 0.1551(18) . . .
3915.0 . 0.1549(18) . . .
3925.0 . 0.1569(18) . . .
3935.0 . 0.1582(18) . . .
3945.0 . 0.1601(18) . . .
3955.0 . 0.1595(18) . . .
3965.0 . 0.1607(18) . . .
3975.0 . 0.1581(18) . . .
3985.0 . 0.1597(18) . . .
3995.0 . 0.1556(18) . . .
4005.0 . 0.1568(18) . . .
4015.0 . 0.1578(18) . . .
4025.0 . 0.1572(18) . . .
4035.0 . 0.1566(18) . . .
4045.0 . 0.1560(18) . . .
4055.0 . 0.1588(18) . . .
4065.0 . 0.1543(18) . . .
4075.0 . 0.1567(18) . . .
4085.0 . 0.1613(18) . . .
4095.0 . 0.1576(18) . . .
4105.0 . 0.1565(18) . . .
4115.0 . 0.1534(18) . . .
4125.0 . 0.1551(18) . . .
4135.0 . 0.1590(18) . . .
4145.0 . 0.1557(18) . . .
4155.0 . 0.1575(18) . . .
4165.0 . 0.1510(17) . . .
4175.0 . 0.1593(18) . . .
4185.0 . 0.1528(17) . . .
4195.0 . 0.1578(18) . . .
4205.0 . 0.1591(18) . . .
4215.0 . 0.1644(18) . . .
4225.0 . 0.1573(18) . . .
4235.0 . 0.1586(18) . . .
4245.0 . 0.1579(18) . . .
4255.0 . 0.1575(18) . . .
4265.0 . 0.1544(17) . . .
4275.0 . 0.1548(17) . . .
4285.0 . 0.1542(17) . . .
4295.0 . 0.1574(18) . . .
4305.0 . 0.1608(18) . . .
4315.0 . 0.1617(18) . . .
4325.0 . 0.1608(18) . . .
4335.0 . 0.1623(18) . . .
4345.0 . 0.1569(18) . . .
4355.0 . 0.1596(18) . . .
4365.0 . 0.1600(18) . . .
4375.0 . 0.1604(18) . . .
4385.0 . 0.1585(18) . . .
4395.0 . 0.1587(18) . . .
4405.0 . 0.1600(18) . . .
4415.0 . 0.1626(18) . . .
4425.0 . 0.1597(18) . . .
4435.0 . 0.1642(18) . . .
4445.0 . 0.1653(18) . . .
4455.0 . 0.1693(18) . . .
4465.0 . 0.1662(18) . . .
4475.0 . 0.1676(18) . . .
4485.0 . 0.1689(18) . . .
4495.0 . 0.1636(18) . . .
4505.0 . 0.1615(18) . . .
4515.0 . 0.1613(18) . . .
4525.0 . 0.1690(18) . . .
4535.0 . 0.1734(18) . . .
4545.0 . 0.1782(18) . . .
4555.0 . 0.1732(18) . . .
4565.0 . 0.1756(18) . . .
4575.0 . 0.1703(18) . . .
4585.0 . 0.1708(18) . . .
4595.0 . 0.1708(18) . . .
4605.0 . 0.1664(18) . . .
4615.0 . 0.1662(18) . . .
4625.0 . 0.1645(18) . . .
4635.0 . 0.1630(18) . . .
4645.0 . 0.1662(18) . . .
4655.0 . 0.1634(18) . . .
4665.0 . 0.1678(18) . . .
4675.0 . 0.1685(18) . . .
4685.0 . 0.1620(18) . . .
4695.0 . 0.1646(18) . . .
4705.0 . 0.1671(18) . . .
4715.0 . 0.1644(18) . . .
4725.0 . 0.1675(18) . . .
4735.0 . 0.1660(18) . . .
4745.0 . 0.1597(18) . . .
4755.0 . 0.1589(18) . . .
4765.0 . 0.1604(18) . . .
4775.0 . 0.1615(18) . . .
4785.0 . 0.1642(18) . . .
4795.0 . 0.1679(18) . . .
4805.0 . 0.1644(18) . . .
4815.0 . 0.1681(18) . . .
4825.0 . 0.1713(19) . . .
4835.0 . 0.1781(19) . . .
4845.0 . 0.1703(19) . . .
4855.0 . 0.1708(19) . . .
4865.0 . 0.1686(19) . . .
4875.0 . 0.1700(19) . . .
4885.0 . 0.1693(19) . . .
4895.0 . 0.1667(19) . . .
4905.0 . 0.1687(19) . . .
4915.0 . 0.1680(19) . . .
4925.0 . 0.1676(19) . . .
4935.0 . 0.1709(19) . . .
4945.0 . 0.1734(19) . . .
4955.0 . 0.1722(19) . . .
4965.0 . 0.1708(19) . . .
4975.0 . 0.1686(19) . . .
4985.0 . 0.1661(19) . . .
4995.0 . 0.1628(19) . . .
5005.0 . 0.1603(19) . . .
5015.0 . 0.1631(19) . . .
5025.0 . 0.1604(19) . . .
5035.0 . 0.1601(19) . . .
5045.0 . 0.1632(19) . . .
5055.0 . 0.1636(19) . . .
5065.0 . 0.1590(19) . . .
5075.0 . 0.1617(19) . . .
5085.0 . 0.1677(19) . . .
5095.0 . 0.1627(19) . . .
5105.0 . 0.1630(19) . . .
5115.0 . 0.1591(19) . . .
5125.0 . 0.1588(19) . . .
5135.0 . 0.1632(19) . . .
5145.0 . 0.1652(19) . . .
5155.0 . 0.1660(19) . . .
5165.0 . 0.1646(19) . . .
5175.0 . 0.1649(19) . . .
5185.0 . 0.1680(19) . . .
5195.0 . 0.1592(19) . . .
5205.0 . 0.1595(19) . . .
5215.0 . 0.1619(19) . . .
5225.0 . 0.1627(19) . . .
5235.0 . 0.1595(19) . . .
5245.0 . 0.1632(19) . . .
5255.0 . 0.1628(19) . . .
5265.0 . 0.1617(19) . . .
5275.0 . 0.1645(20) . . .
5285.0 . 0.1634(20) . . .
5295.0 . 0.1641(20) . . .
5305.0 . 0.1608(19) . . .
5315.0 . 0.1643(20) . . .
5325.0 . 0.1625(20) . . .
5335.0 . 0.1646(20) . . .
5345.0 . 0.1653(20) . . .
5355.0 . 0.1681(20) . . .
5365.0 . 0.1615(20) . . .
5375.0 . 0.1641(20) . . .
5385.0 . 0.1571(20) . . .
5395.0 . 0.1633(20) . . .
5405.0 . 0.1619(20) . . .
5415.0 . 0.1614(20) . . .
5425.0 . 0.1602(20) . . .
5435.0 . 0.1614(20) . . .
5445.0 . 0.1596(20) . . .
5455.0 . 0.1563(20) . . .
5465.0 . 0.1556(20) . . .
5475.0 . 0.1580(20) . . .
5485.0 . 0.1589(20) . . .
5495.0 . 0.1589(20) . . .
5505.0 . 0.1598(20) . . .
5515.0 . 0.1558(20) . . .
5525.0 . 0.1572(20) . . .
5535.0 . 0.1553(20) . . .
5545.0 . 0.1579(20) . . .
5555.0 . 0.1625(20) . . .
5565.0 . 0.1590(20) . . .
5575.0 . 0.1636(21) . . .
5585.0 . 0.1636(21) . . .
5595.0 . 0.1748(21) . . .
5605.0 . 0.1735(21) . . .
5615.0 . 0.1726(21) . . .
5625.0 . 0.1692(21) . . .
5635.0 . 0.1738(21) . . .
5645.0 . 0.1772(21) . . .
5655.0 . 0.1747(21) . . .
5665.0 . 0.1749(21) . . .
5675.0 . 0.1745(21) . . .
5685.0 . 0.1705(21) . . .
5695.0 . 0.1677(21) . . .
5705.0 . 0.1674(21) . . .
5715.0 . 0.1663(21) . . .
5725.0 . 0.1655(21) . . .
5735.0 . 0.1661(21) . . .
5745.0 . 0.1690(21) . . .
5755.0 . 0.1679(21) . . .
5765.0 . 0.1708(22) . . .
5775.0 . 0.1685(21) . . .
5785.0 . 0.1691(22) . . .
5795.0 . 0.1689(22) . . .
5805.0 . 0.1677(22) . . .
5815.0 . 0.1685(22) . . .
5825.0 . 0.1682(22) . . .
5835.0 . 0.1688(22) . . .
5845.0 . 0.1603(21) . . .
5855.0 . 0.1626(21) . . .
5865.0 . 0.1667(22) . . .
5875.0 . 0.1690(22) . . .
5885.0 . 0.1745(22) . . .
5895.0 . 0.1771(22) . . .
5905.0 . 0.1760(22) . . .
5915.0 . 0.1779(22) . . .
5925.0 . 0.1818(23) . . .
5935.0 . 0.1875(23) . . .
5945.0 . 0.1864(23) . . .
5955.0 . 0.1899(23) . . .
5965.0 . 0.1852(23) . . .
5975.0 . 0.1845(23) . . .
5985.0 . 0.1817(23) . . .
5995.0 . 0.1774(23) . . .
6005.0 . 0.1750(23) . . .
6015.0 . 0.1683(22) . . .
6025.0 . 0.1694(22) . . .
6035.0 . 0.1664(22) . . .
6045.0 . 0.1666(22) . . .
6055.0 . 0.1754(23) . . .
6065.0 . 0.1740(23) . . .
6075.0 . 0.1786(23) . . .
6085.0 . 0.1810(23) . . .
6095.0 . 0.1779(23) . . .
6105.0 . 0.1835(23) . . .
6115.0 . 0.1915(24) . . .
6125.0 . 0.1880(24) . . .
6135.0 . 0.1891(24) . . .
6145.0 . 0.1954(24) . . .
6155.0 . 0.1893(24) . . .
6165.0 . 0.1907(24) . . .
6175.0 . 0.1885(24) . . .
6185.0 . 0.1824(24) . . .
6195.0 . 0.1759(23) . . .
6205.0 . 0.1768(23) . . .
6215.0 . 0.1805(24) . . .
6225.0 . 0.1819(24) . . .
6235.0 . 0.1929(24) . . .
6245.0 . 0.1913(24) . . .
6255.0 . 0.1912(24) . . .
6265.0 . 0.1880(24) . . .
6275.0 . 0.1842(24) . . .
6285.0 . 0.1911(24) . . .
6295.0 . 0.1882(24) . . .
6305.0 . 0.1834(24) . . .
6315.0 . 0.1817(24) . . .
6325.0 . 0.1807(24) . . .
6335.0 . 0.1763(24) . . .
6345.0 . 0.1729(24) . . .
6355.0 . 0.1759(24) . . .
6365.0 . 0.1764(24) . . .
6375.0 . 0.1813(24) . . .
6385.0 . 0.1877(25) . . .
6395.0 . 0.1895(25) . . .
6405.0 . 0.1895(25) . . .
6415.0 . 0.1934(25) . . .
6425.0 . 0.1949(25) . . .
6435.0 . 0.1945(25) . . .
6445.0 . 0.1950(25) . . .
6455.0 . 0.1851(25) . . .
6465.0 . 0.1891(25) . . .
6475.0 . 0.1829(25) . . .
6485.0 . 0.1799(25) . . .
6495.0 . 0.1799(25) . . .
6505.0 . 0.1765(24) . . .
6515.0 . 0.1746(24) . . .
6525.0 . 0.1771(25) . . .
6535.0 . 0.1787(25) . . .
6545.0 . 0.1805(25) . . .
6555.0 . 0.1851(25) . . .
6565.0 . 0.1810(25) . . .
6575.0 . 0.1863(25) . . .
6585.0 . 0.1872(25) . . .
6595.0 0.69726 0.1937(26) 0.0 0.16097 .
6605.0 0.69832 0.1874(25) 0.0 0.16078 .
6615.0 0.69938 0.1913(26) 153600. 0.16061 0.19296
6625.0 0.70044 0.1886(25) 154817. 0.16048 0.19133
6635.0 0.70150 0.1836(25) 158080. 0.16037 0.18963
6645.0 0.70256 0.1861(25) 156092. 0.16028 0.18839
6655.0 0.70362 0.1901(26) 152539. 0.16022 0.18706
6665.0 0.70467 0.1846(25) 156162. 0.16018 0.18473
6675.0 0.70573 0.1834(25) 156670. 0.16017 0.18193
6685.0 0.70679 0.1770(25) 160806. 0.16018 0.18027
6695.0 0.70785 0.1846(25) 155091. 0.16021 0.18117
6705.0 0.70891 0.1849(25) 154664. 0.16025 0.18498
6715.0 0.70997 0.1932(26) 148683. 0.16032 0.19052
6725.0 0.71102 0.1952(26) 147194. 0.16040 0.19529
6735.0 0.71208 0.1951(26) 147013. 0.16050 0.19737
6745.0 0.71314 0.1961(26) 146020. 0.16062 0.19656
6755.0 0.71420 0.1926(26) 148008. 0.16075 0.19361
6765.0 0.71526 0.1900(26) 149047. 0.16090 0.19016
6775.0 0.71632 0.1842(26) 152453. 0.16106 0.18732
6785.0 0.71738 0.1889(26) 148870. 0.16124 0.18514
6795.0 0.71843 0.1861(26) 150312. 0.16142 0.18392
6805.0 0.71949 0.1902(26) 147080. 0.16162 0.18434
6815.0 0.72055 0.1879(26) 148214. 0.16183 0.18630
6825.0 0.72161 0.1938(26) 144547. 0.16205 0.18868
6835.0 0.72267 0.1973(27) 142150. 0.16228 0.18975
6845.0 0.72373 0.1897(26) 146648. 0.16252 0.18859
6855.0 0.72479 0.1844(26) 149840. 0.16276 0.18611
6865.0 0.72584 0.1864(26) 147897. 0.16302 0.18338
6875.0 0.72690 0.1819(26) 150902. 0.16328 0.18095
6885.0 0.72796 0.1803(26) 151681. 0.16355 0.17917
6895.0 0.72902 0.1795(26) 151923. 0.16383 0.17880
6905.0 0.73008 0.1829(26) 149246. 0.16411 0.18019
6915.0 0.73114 0.1877(26) 145833. 0.16440 0.18284
6925.0 0.73220 0.1823(26) 149046. 0.16469 0.18580
6935.0 0.73325 0.1878(26) 145121. 0.16499 0.18795
6945.0 0.73431 0.1903(26) 143139. 0.16530 0.18837
6955.0 0.73537 0.1867(26) 145154. 0.16560 0.18715
6965.0 0.73643 0.1827(26) 147578. 0.16591 0.18449
6975.0 0.73749 0.1846(26) 145931. 0.16622 0.18120
6985.0 0.73855 0.1799(26) 148741. 0.16654 0.17846
6995.0 0.73960 0.1752(26) 151739. 0.16686 0.17675
7005.0 0.74066 0.1752(26) 151569. 0.16718 0.17613
7015.0 0.74172 0.1779(26) 149819. 0.16750 0.17666
7025.0 0.74278 0.1770(26) 149958. 0.16782 0.17839
7035.0 0.74384 0.1834(26) 145478. 0.16815 0.18127
7045.0 0.74490 0.1861(26) 143363. 0.16847 0.18473
7055.0 0.74596 0.1860(26) 143255. 0.16880 0.18779
7065.0 0.74701 0.1871(27) 142257. 0.16913 0.19014
7075.0 0.74807 0.1936(27) 137906. 0.16945 0.19248
7085.0 0.74913 0.1894(27) 140363. 0.16978 0.19456
7095.0 0.75019 0.1875(27) 141146. 0.17011 0.19547
7105.0 0.75125 0.1925(27) 138135. 0.17043 0.19534
7115.0 0.75231 0.1957(27) 136066. 0.17076 0.19550
7125.0 0.75337 0.1959(27) 135633. 0.17108 0.19718
7135.0 0.75442 0.1977(27) 134365. 0.17140 0.20008
7145.0 0.75548 0.2048(28) 130016. 0.17172 0.20221
7155.0 0.75654 0.1988(27) 133308. 0.17204 0.20173
7165.0 0.75760 0.1972(27) 134021. 0.17236 0.19885
7175.0 0.75866 0.1930(27) 136101. 0.17268 0.19479
7185.0 0.75972 0.1858(27) 140134. 0.17299 0.19071
7195.0 0.76078 0.1833(27) 141749. 0.17330 0.18785
7205.0 0.76183 0.1837(27) 140973. 0.17361 0.18686
7215.0 0.76289 0.1863(27) 139090. 0.17392 0.18750
7225.0 0.76395 0.1911(27) 135636. 0.17423 0.18918
7235.0 0.76501 0.1925(27) 134495. 0.17453 0.19095
7245.0 0.76607 0.1884(27) 136641. 0.17483 0.19216
7255.0 0.76713 0.1926(27) 133850. 0.17512 0.19296
7265.0 0.76819 0.1949(27) 132240. 0.17542 0.19401
7275.0 0.76924 0.1959(28) 131505. 0.17571 0.19566
7285.0 0.77030 0.1999(28) 128906. 0.17600 0.19740
7295.0 0.77136 0.1994(28) 128796. 0.17628 0.19831
7305.0 0.77242 0.2008(28) 127848. 0.17656 0.19811
7315.0 0.77348 0.1908(27) 133532. 0.17684 0.19687
7325.0 0.77454 0.1927(27) 132299. 0.17711 0.19470
7335.0 0.77560 0.1949(28) 130815. 0.17738 0.19216
7345.0 0.77665 0.1845(27) 136995. 0.17765 0.19000
7355.0 0.77771 0.1864(27) 135761. 0.17792 0.18872
7365.0 0.77877 0.1839(27) 136799. 0.17818 0.18813
7375.0 0.77983 0.1839(27) 136595. 0.17843 0.18763
7385.0 0.78089 0.1826(27) 136992. 0.17869 0.18690
7395.0 0.78195 0.1876(27) 133781. 0.17894 0.18621
7405.0 0.78300 0.1812(27) 137145. 0.17918 0.18589
7415.0 0.78406 0.1841(27) 135075. 0.17942 0.18616
7425.0 0.78512 0.1849(27) 134183. 0.17966 0.18709
7435.0 0.78618 0.1892(28) 131439. 0.17990 0.18858
7445.0 0.78724 0.1930(28) 129330. 0.18013 0.19040
7455.0 0.78830 0.1884(28) 131655. 0.18036 0.19225
7465.0 0.78936 0.1972(28) 126341. 0.18058 0.19424
7475.0 0.79041 0.1947(28) 127396. 0.18080 0.19678
7485.0 0.79147 0.2021(28) 123512. 0.18102 0.20010
7495.0 0.79253 0.1999(28) 124284. 0.18123 0.20344
7505.0 0.79359 0.2082(29) 119744. 0.18144 0.20512
7515.0 0.79465 0.1985(28) 124538. 0.18164 0.20424
7525.0 0.79571 0.2002(28) 123554. 0.18184 0.20223
7535.0 0.79677 0.2024(29) 121942. 0.18204 0.20091
7545.0 0.79782 0.2045(29) 120685. 0.18223 0.20097
7555.0 0.79888 0.2061(29) 119622. 0.18242 0.20199
7565.0 0.79994 0.2024(29) 120982. 0.18261 0.20317
7575.0 0.80100 0.2058(29) 118680. 0.18279 0.20431
7585.0 0.80206 0.2073(29) 117524. 0.18297 0.20564
7595.0 0.80312 0.2072(29) 117372. 0.18315 0.20722
7605.0 0.80418 0.2121(29) 114958. 0.18332 0.20881
7615.0 0.80523 0.2132(30) 114284. 0.18349 0.20997
7625.0 0.80629 0.2131(30) 114169. 0.18365 0.21046
7635.0 0.80735 0.2096(29) 115550. 0.18381 0.21037
7645.0 0.80841 0.2090(29) 115579. 0.18397 0.21067
7655.0 0.80947 0.2122(30) 113884. 0.18413 0.21249
7665.0 0.81053 0.2208(30) 109935. 0.18428 0.21571
7675.0 0.81159 0.2211(30) 109611. 0.18442 0.21919
7685.0 0.81264 0.2204(30) 109764. 0.18457 0.22187
7695.0 0.81370 0.2293(31) 105978. 0.18471 0.22317
7705.0 0.81476 0.2342(31) 103704. 0.18485 0.22352
7715.0 0.81582 0.2269(31) 106315. 0.18498 0.22360
7725.0 0.81688 0.2233(30) 107601. 0.18512 0.22350
7735.0 0.81794 0.2258(31) 106421. 0.18524 0.22274
7745.0 0.81900 0.2218(30) 107832. 0.18537 0.22105
7755.0 0.82005 0.2202(30) 108476. 0.18549 0.21945
7765.0 0.82111 0.2214(30) 107990. 0.18561 0.21875
7775.0 0.82217 0.2209(30) 108221. 0.18573 0.21899
7785.0 0.82323 0.2218(30) 107746. 0.18584 0.21983
7795.0 0.82429 0.2278(31) 105032. 0.18595 0.22119
7805.0 0.82535 0.2180(30) 108965. 0.18606 0.22250
7815.0 0.82641 0.2215(31) 107291. 0.18616 0.22199
7825.0 0.82746 0.2177(30) 108602. 0.18627 0.21876
7835.0 0.82852 0.2168(30) 108766. 0.18637 0.21402
7845.0 0.82958 0.2103(30) 111470. 0.18646 0.20942
7855.0 0.83064 0.2053(30) 113751. 0.18656 0.20598
7865.0 0.83170 0.2103(30) 111029. 0.18665 0.20411
7875.0 0.83276 0.2028(30) 114311. 0.18674 0.20385
7885.0 0.83382 0.2093(30) 111531. 0.18682 0.20507
7895.0 0.83488 0.2118(30) 110104. 0.18691 0.20761
7905.0 0.83593 0.2177(31) 107263. 0.18699 0.21106
7915.0 0.83699 0.2187(31) 106634. 0.18707 0.21432
7925.0 0.83805 0.2193(31) 106059. 0.18715 0.21600
7935.0 0.83911 0.2158(31) 107376. 0.18722 0.21554
7945.0 0.84017 0.2165(31) 106967. 0.18729 0.21352
7955.0 0.84123 0.2136(30) 108293. 0.18736 0.21097
7965.0 0.84229 0.2160(31) 107258. 0.18743 0.20885
7975.0 0.84334 0.2086(30) 110056. 0.18750 0.20746
7985.0 0.84440 0.1993(30) 114235. 0.18756 0.20635
7995.0 0.84546 0.2059(30) 111539. 0.18762 0.20519
8005.0 0.84652 0.2046(30) 112258. 0.18768 0.20431
8015.0 0.84758 0.2088(30) 110111. 0.18774 0.20404
8025.0 0.84864 0.2108(30) 108914. 0.18780 0.20454
8035.0 0.84970 0.2108(30) 109068. 0.18785 0.20599
8045.0 0.85075 0.2113(30) 108761. 0.18790 0.20869
8055.0 0.85181 0.2180(31) 105734. 0.18795 0.21298
8065.0 0.85287 0.2233(31) 103499. 0.18800 0.21850
8075.0 0.85393 0.2223(31) 103764. 0.18805 0.22393
8085.0 0.85499 0.2259(31) 102328. 0.18809 0.22729
8095.0 0.85605 0.2291(31) 101012. 0.18814 0.22712
8105.0 0.85711 0.2281(31) 101304. 0.18818 0.22397
8115.0 0.85816 0.2282(31) 101328. 0.18822 0.21993
8125.0 0.85922 0.2214(31) 104118. 0.18826 0.21636
8135.0 0.86028 0.2089(30) 109377. 0.18830 0.21345
8145.0 0.86134 0.2113(30) 108491. 0.18833 0.21077
8155.0 0.86240 0.2116(30) 108442. 0.18837 0.20805
8165.0 0.86346 0.2017(30) 113176. 0.18840 0.20566
8175.0 0.86452 0.1999(30) 113889. 0.18843 0.20423
8185.0 0.86557 0.2013(30) 113624. 0.18846 0.20412
8195.0 0.86663 0.2073(30) 110541. 0.18849 0.20541
8205.0 0.86769 0.2086(30) 110068. 0.18852 0.20809
8215.0 0.86875 0.2090(30) 109866. 0.18854 0.21186
8225.0 0.86981 0.2178(31) 106154. 0.18857 0.21587
8235.0 0.87087 0.2149(31) 107349. 0.18859 0.21900
8245.0 0.87193 0.2176(31) 106086. 0.18862 0.22094
8255.0 0.87298 0.2226(31) 104081. 0.18864 0.22226
8265.0 0.87404 0.2182(31) 105974. 0.18866 0.22297
8275.0 0.87510 0.2224(31) 104185. 0.18868 0.22287
8285.0 0.87616 0.2200(31) 105268. 0.18870 0.22244
8295.0 0.87722 0.2187(31) 105790. 0.18871 0.22206
8305.0 0.87828 0.2203(31) 105139. 0.18873 0.22190
8315.0 0.87934 0.2271(31) 102520. 0.18875 0.22262
8325.0 0.88040 0.2238(31) 103933. 0.18876 0.22512
8335.0 0.88145 0.2300(31) 101457. 0.18877 0.22988
8345.0 0.88251 0.2371(32) 98691. 0.18879 0.23659
8355.0 0.88357 0.2419(32) 96702. 0.18880 0.24328
8365.0 0.88463 0.2427(32) 96359. 0.18881 0.24629
8375.0 0.88569 0.2451(32) 95268. 0.18882 0.24331
8385.0 0.88675 0.2370(32) 98147. 0.18883 0.23635
8395.0 0.88781 0.2284(31) 101120. 0.18884 0.22922
8405.0 0.88886 0.2218(31) 103877. 0.18885 0.22438
8415.0 0.88992 0.2203(31) 104330. 0.18885 0.22255
8425.0 0.89098 0.2219(31) 103563. 0.18886 0.22305
8435.0 0.89204 0.2230(31) 103091. 0.18886 0.22407
8445.0 0.89310 0.2237(31) 102563. 0.18887 0.22384
8455.0 0.89416 0.2114(30) 108011. 0.18887 0.22181
8465.0 0.89522 0.2166(31) 105845. 0.18888 0.21832
8475.0 0.89627 0.2114(30) 108077. 0.18888 0.21391
8485.0 0.89733 0.2080(30) 109561. 0.18888 0.20949
8495.0 0.89839 0.2062(30) 110549. 0.18888 0.20598
8505.0 0.89945 0.2054(30) 110840. 0.18888 0.20375
8515.0 0.90051 0.2025(30) 112467. 0.18888 0.20271
8525.0 0.90157 0.2018(30) 112828. 0.18888 0.20247
8535.0 0.90263 0.1977(30) 114884. 0.18888 0.20270
8545.0 0.90369 0.1965(29) 115179. 0.18888 0.20311
8555.0 0.90474 0.1970(30) 114866. 0.18888 0.20344
8565.0 0.90580 0.1999(30) 113208. 0.18888 0.20366
8575.0 0.90686 0.2028(30) 111803. 0.18887 0.20404
8585.0 0.90792 0.2034(30) 111135. 0.18887 0.20480
8595.0 0.90898 0.2002(30) 112506. 0.18887 0.20587
8605.0 0.91004 0.2043(30) 110419. 0.18886 0.20704
8615.0 0.91110 0.2017(30) 111888. 0.18886 0.20830
8625.0 0.91215 0.2076(30) 108943. 0.18885 0.21030
8635.0 0.91321 0.2095(30) 108061. 0.18885 0.21390
8645.0 0.91427 0.2168(31) 104774. 0.18884 0.21956
8655.0 0.91533 0.2198(31) 103414. 0.18883 0.22728
8665.0 0.91639 0.2311(32) 98848. 0.18882 0.23606
8675.0 0.91745 0.2395(32) 95719. 0.18882 0.24445
8685.0 0.91851 0.2436(33) 94164. 0.18881 0.25095
8695.0 0.91956 0.2501(33) 91950. 0.18880 0.25401
8705.0 0.92062 0.2405(32) 95175. 0.18879 0.25237
8715.0 0.92168 0.2458(33) 93144. 0.18878 0.24682
8725.0 0.92274 0.2380(32) 95582. 0.18877 0.23989
8735.0 0.92380 0.2286(32) 98910. 0.18876 0.23394
8745.0 0.92486 0.2373(32) 95562. 0.18875 0.22994
8755.0 0.92592 0.2213(31) 101713. 0.18874 0.22769
8765.0 0.92698 0.2191(31) 102624. 0.18873 0.22651
8775.0 0.92803 0.2252(32) 100146. 0.18872 0.22573
8785.0 0.92909 0.2270(32) 99401. 0.18871 0.22470
8795.0 0.93015 0.2185(31) 102770. 0.18870 0.22295
8805.0 0.93121 0.2176(31) 103018. 0.18868 0.22001
8815.0 0.93227 0.2111(31) 105470. 0.18867 0.21619
8825.0 0.93333 0.2028(30) 109048. 0.18866 0.21256
8835.0 0.93439 0.2072(31) 106840. 0.18864 0.21005
8845.0 0.93544 0.2095(31) 105874. 0.18863 0.20909
8855.0 0.93650 0.2061(31) 107012. 0.18862 0.20970
8865.0 0.93756 0.2121(31) 104278. 0.18860 0.21155
8875.0 0.93862 0.2175(31) 101942. 0.18859 0.21371
8885.0 0.93968 0.2190(31) 101345. 0.18857 0.21510
8895.0 0.94074 0.2106(31) 104631. 0.18856 0.21487
8905.0 0.94180 0.2171(31) 101813. 0.18854 0.21301
8915.0 0.94286 0.2095(31) 104812. 0.18852 0.21034
8925.0 0.94391 0.2039(31) 107004. 0.18851 0.20754
8935.0 0.94497 0.2068(31) 105640. 0.18849 0.20489
8945.0 0.94603 0.2040(31) 106784. 0.18847 0.20247
8955.0 0.94709 0.2012(30) 107949. 0.18846 0.20053
8965.0 0.94815 0.1982(30) 109245. 0.18844 0.19919
8975.0 0.94921 0.1984(30) 108959. 0.18842 0.19861
8985.0 0.95027 0.2023(31) 107010. 0.18840 0.19892
8995.0 0.95132 0.2011(31) 107381. 0.18838 0.20024
9005.0 0.95238 0.2091(31) 103728. 0.18837 0.20268
9015.0 0.95344 0.2074(31) 104517. 0.18835 0.20620
9025.0 0.95450 0.2125(31) 102187. 0.18833 0.21055
9035.0 0.95556 0.2150(31) 100987. 0.18831 0.21524
9045.0 0.95662 0.2216(32) 98277. 0.18829 0.21946
9055.0 0.95768 0.2249(32) 96912. 0.18827 0.22276
9065.0 0.95874 0.2238(32) 97272. 0.18825 0.22487
9075.0 0.95979 0.2252(32) 96418. 0.18823 0.22561
9085.0 0.96085 0.2231(32) 97330. 0.18820 0.22517
9095.0 0.96191 0.2235(32) 97133. 0.18818 0.22390
9105.0 0.96297 0.2226(32) 97274. 0.18816 0.22230
9115.0 0.96403 0.2196(32) 98163. 0.18814 0.22100
9125.0 0.96509 0.2206(32) 97786. 0.18812 0.22020
9135.0 0.96615 0.2227(32) 97128. 0.18809 0.21943
9145.0 0.96720 0.2141(32) 100756. 0.18807 0.21856
9155.0 0.96826 0.2267(32) 95956. 0.18805 0.21804
9165.0 0.96932 0.2241(32) 96911. 0.18802 0.21844
9175.0 0.97038 0.2200(32) 98349. 0.18800 0.21968
9185.0 0.97144 0.2239(32) 96877. 0.18797 0.22086
9195.0 0.97250 0.2232(32) 97170. 0.18795 0.22080
9205.0 0.97356 0.2216(32) 97676. 0.18792 0.21919
9215.0 0.97462 0.2174(32) 99285. 0.18790 0.21677
9225.0 0.97567 0.2128(31) 100897. 0.18787 0.21439
9235.0 0.97673 0.2119(31) 101025. 0.18785 0.21221
9245.0 0.97779 0.2192(32) 98241. 0.18782 0.21005
9255.0 0.97885 0.2124(31) 101088. 0.18779 0.20786
9265.0 0.97991 0.2104(31) 102054. 0.18777 0.20594
9275.0 0.98097 0.2054(31) 104257. 0.18774 0.20476
9285.0 0.98203 0.2093(31) 102544. 0.18771 0.20486
9295.0 0.98309 0.2058(31) 103994. 0.18768 0.20672
9305.0 0.98414 0.2258(32) 96040. 0.18766 0.21066
9315.0 0.98520 0.2222(32) 97526. 0.18763 0.21679
9325.0 0.98626 0.2332(33) 93695. 0.18760 0.22488
9335.0 0.98732 0.2411(33) 91069. 0.18757 0.23395
9345.0 0.98838 0.2465(33) 89280. 0.18754 0.24214
9355.0 0.98944 0.2498(34) 88352. 0.18751 0.24702
9365.0 0.99050 0.2471(33) 89485. 0.18748 0.24705
9375.0 0.99155 0.2441(33) 90414. 0.18745 0.24262
9385.0 0.99261 0.2364(33) 93083. 0.18742 0.23544
9395.0 0.99367 0.2286(32) 96033. 0.18739 0.22751
9405.0 0.99473 0.2212(32) 98985. 0.18736 0.22050
9415.0 0.99579 0.2191(32) 99624. 0.18732 0.21552
9425.0 0.99685 0.2152(31) 101324. 0.18729 0.21308
9435.0 0.99791 0.2158(31) 101117. 0.18726 0.21303
9445.0 0.99897 0.2140(31) 101950. 0.18723 0.21484
9455.0 1.00002 0.2252(32) 97438. 0.18719 0.21764
9465.0 1.00108 0.2166(31) 100910. 0.18716 0.22036
9475.0 1.00214 0.2165(31) 100902. 0.18712 0.22176
9485.0 1.00320 0.2189(32) 99898. 0.18709 0.22147
9495.0 1.00426 0.2206(32) 99375. 0.18706 0.22001
9505.0 1.00532 0.2112(31) 103064. 0.18702 0.21806
9515.0 1.00638 0.2160(31) 101189. 0.18699 0.21597
9525.0 1.00744 0.2153(31) 101332. 0.18695 0.21401
9535.0 1.00849 0.2221(32) 98669. 0.18691 0.21272
9545.0 1.00955 0.2210(32) 99288. 0.18688 0.21258
9555.0 1.01061 0.2206(32) 99625. 0.18684 0.21368
9565.0 1.01167 0.2197(32) 100046. 0.18681 0.21567
9575.0 1.01273 0.2246(32) 98240. 0.18677 0.21800
9585.0 1.01379 0.2235(32) 98824. 0.18673 0.22009
9595.0 1.01485 0.2275(32) 97280. 0.18669 0.22158
9605.0 1.01591 0.2255(32) 98021. 0.18666 0.22287
9615.0 1.01696 0.2257(32) 98084. 0.18662 0.22466
9625.0 1.01802 0.2298(32) 96603. 0.18658 0.22723
9635.0 1.01908 0.2285(32) 97190. 0.18654 0.23012
9645.0 1.02014 0.2404(33) 92939. 0.18650 0.23260
9655.0 1.02120 0.2344(32) 95129. 0.18646 0.23439
9665.0 1.02226 0.2414(33) 92726. 0.18642 0.23553
9675.0 1.02332 0.2384(33) 93943. 0.18638 0.23562
9685.0 1.02437 0.2329(32) 95746. 0.18634 0.23437
9695.0 1.02543 0.2395(33) 93489. 0.18630 0.23208
9705.0 1.02649 0.2367(32) 94748. 0.18626 0.22920
9715.0 1.02755 0.2314(32) 96617. 0.18622 0.22583
9725.0 1.02861 0.2242(32) 99403. 0.18617 0.22180
9735.0 1.02967 0.2170(31) 102134. 0.18613 0.21729
9745.0 1.03073 0.2164(31) 102310. 0.18609 0.21279
9755.0 1.03179 0.2062(31) 106678. 0.18605 0.20895
9765.0 1.03284 0.2077(31) 105897. 0.18601 0.20619
9775.0 1.03390 0.2048(31) 107260. 0.18596 0.20460
9785.0 1.03496 0.2077(31) 105896. 0.18592 0.20391
9795.0 1.03602 0.2046(31) 107470. 0.18588 0.20365
9805.0 1.03708 0.2036(30) 107771. 0.18583 0.20327
9815.0 1.03814 0.2024(30) 108497. 0.18579 0.20252
9825.0 1.03920 0.2005(30) 109569. 0.18574 0.20145
9835.0 1.04026 0.2005(30) 109447. 0.18570 0.20032
9845.0 1.04131 0.1962(30) 111323. 0.18565 0.19952
9855.0 1.04237 0.2014(30) 108905. 0.18561 0.19940
9865.0 1.04343 0.2009(30) 109014. 0.18556 0.20019
9875.0 1.04449 0.2040(30) 107535. 0.18552 0.20198
9885.0 1.04555 0.1970(30) 110753. 0.18547 0.20466
9895.0 1.04661 0.2125(31) 103680. 0.18543 0.20787
9905.0 1.04767 0.2096(31) 105063. 0.18538 0.21106
9915.0 1.04873 0.2122(31) 104159. 0.18533 0.21361
9925.0 1.04978 0.2157(31) 102484. 0.18529 0.21485
9935.0 1.05084 0.2118(31) 104189. 0.18524 0.21445
9945.0 1.05190 0.2150(31) 102972. 0.18519 0.21285
9955.0 1.05296 0.2080(31) 106369. 0.18514 0.21095
9965.0 1.05402 0.2107(31) 105314. 0.18510 0.20938
9975.0 1.05508 0.2083(31) 106590. 0.18505 0.20830
9985.0 1.05614 0.2115(31) 104912. 0.18500 0.20751
9995.0 1.05720 0.2082(31) 106315. 0.18495 0.20679
10005.0 1.05825 0.2060(31) 107147. 0.18490 0.20620
10015.0 1.05931 0.2036(30) 107959. 0.18486 0.20588
10025.0 1.06037 0.2036(30) 107760. 0.18481 0.20574
10035.0 1.06143 0.1963(30) 111232. 0.18476 0.20539
10045.0 1.06249 0.1982(30) 110303. 0.18471 0.20432
10055.0 1.06355 0.1916(30) 113768. 0.18466 0.20256
10065.0 1.06461 0.1934(30) 112829. 0.18461 0.20048
10075.0 1.06567 0.1954(30) 111735. 0.18456 0.19861
10085.0 1.06672 0.1937(30) 112705. 0.18451 0.19729
10095.0 1.06778 0.1947(30) 112258. 0.18446 0.19675
10105.0 1.06884 0.2031(30) 108265. 0.18441 0.19708
10115.0 1.06990 0.1963(30) 111291. 0.18436 0.19831
10125.0 1.07096 0.1981(30) 110376. 0.18431 0.20045
10135.0 1.07202 0.2043(31) 107299. 0.18426 0.20325
10145.0 1.07308 0.2036(30) 107786. 0.18421 0.20648
10155.0 1.07414 0.2052(31) 107174. 0.18416 0.20969
10165.0 1.07519 0.2166(31) 102171. 0.18411 0.21242
10175.0 1.07625 0.2163(31) 102330. 0.18406 0.21456
10185.0 1.07731 0.2172(31) 102083. 0.18401 0.21657
10195.0 1.07837 0.2206(32) 100465. 0.18396 0.21934
10205.0 1.07943 0.2236(32) 99447. 0.18391 0.22356
10215.0 1.08049 0.2276(32) 97780. 0.18386 0.22939
10225.0 1.08155 0.2365(33) 94445. 0.18381 0.23621
10235.0 1.08261 0.2388(33) 93640. 0.18376 0.24248
10245.0 1.08366 0.2443(33) 91841. 0.18371 0.24601
10255.0 1.08472 0.2464(33) 90960. 0.18366 0.24515
10265.0 1.08578 0.2335(32) 95165. 0.18361 0.24031
10275.0 1.08684 0.2305(32) 96174. 0.18356 0.23354
10285.0 1.08790 0.2265(32) 97529. 0.18350 0.22709
10295.0 1.08896 0.2239(32) 98312. 0.18345 0.22251
10305.0 1.09002 0.2193(32) 100156. 0.18340 0.22059
10315.0 1.09108 0.2242(32) 98060. 0.18335 0.22154
10325.0 1.09213 0.2305(32) 95497. 0.18330 0.22492
10335.0 1.09319 0.2282(32) 96297. 0.18325 0.22969
10345.0 1.09425 0.2315(32) 95073. 0.18320 0.23426
10355.0 1.09531 0.2350(33) 93722. 0.18315 0.23683
10365.0 1.09637 0.2340(33) 93849. 0.18310 0.23596
10375.0 1.09743 0.2282(32) 96038. 0.18305 0.23158
10385.0 1.09849 0.2230(32) 97883. 0.18300 0.22502
10395.0 1.09955 0.2124(31) 102198. 0.18295 0.21798
10405.0 1.10060 0.2100(31) 103154. 0.18290 0.21178
10415.0 1.10166 0.2097(31) 103100. 0.18285 0.20714
10425.0 1.10272 0.2076(31) 103778. 0.18280 0.20440
10435.0 1.10378 0.2074(31) 104138. 0.18275 0.20357
10445.0 1.10484 0.2077(31) 104075. 0.18270 0.20450
10455.0 1.10590 0.2007(31) 107395. 0.18265 0.20682
10465.0 1.10696 0.2080(31) 104088. 0.18260 0.20997
10475.0 1.10802 0.2118(31) 102299. 0.18255 0.21327
10485.0 1.10907 0.2150(31) 101188. 0.18250 0.21597
10495.0 1.11013 0.2131(31) 101966. 0.18245 0.21743
10505.0 1.11119 0.2138(31) 101687. 0.18240 0.21731
10515.0 1.11225 0.2166(32) 100580. 0.18235 0.21573
10525.0 1.11331 0.2080(31) 104199. 0.18230 0.21324
10535.0 1.11437 0.2094(31) 103769. 0.18225 0.21040
10545.0 1.11543 0.2012(30) 107535. 0.18220 0.20748
10555.0 1.11649 0.2053(31) 105784. 0.18216 0.20445
10565.0 1.11755 0.1964(30) 109816. 0.18211 0.20128
10575.0 1.11860 0.1984(30) 108854. 0.18206 0.19814
10585.0 1.11966 0.1937(30) 111121. 0.18201 0.19526
10595.0 1.12072 0.1904(30) 112870. 0.18196 0.19284
10605.0 1.12178 0.1877(30) 114151. 0.18192 0.19094
10615.0 1.12284 0.1876(30) 113879. 0.18187 0.18957
10625.0 1.12390 0.1866(30) 114383. 0.18182 0.18868
10635.0 1.12496 0.1855(29) 115171. 0.18178 0.18823
10645.0 1.12602 0.1818(29) 117256. 0.18173 0.18823
10655.0 1.12707 0.1846(29) 115654. 0.18168 0.18851
10665.0 1.12813 0.1837(29) 116044. 0.18164 0.18911
10675.0 1.12919 0.1882(30) 113564. 0.18159 0.18994
10685.0 1.13025 0.1872(30) 114013. 0.18154 0.19091
10695.0 1.13131 0.1907(30) 112264. 0.18150 0.19187
10705.0 1.13237 0.1922(30) 111668. 0.18145 0.19261
10715.0 1.13343 0.1929(30) 111341. 0.18141 0.19307
10725.0 1.13449 0.1918(30) 111727. 0.18137 0.19340
10735.0 1.13554 0.1864(30) 114620. 0.18132 0.19385
10745.0 1.13660 0.1908(30) 112378. 0.18128 0.19464
10755.0 1.13766 0.1896(30) 113339. 0.18123 0.19586
10765.0 1.13872 0.1885(30) 113750. 0.18119 0.19748
10775.0 1.13978 0.1984(30) 108709. 0.18115 0.19928
10785.0 1.14084 0.1993(30) 108090. 0.18110 0.20103
10795.0 1.14190 0.2016(31) 106715. 0.18106 0.20243
10805.0 1.14296 0.2058(31) 104656. 0.18102 0.20345
10815.0 1.14402 0.2058(31) 104488. 0.18098 0.20435
10825.0 1.14507 0.2098(31) 102696. 0.18094 0.20542
10835.0 1.14613 0.2111(31) 102156. 0.18090 0.20677
10845.0 1.14719 0.2115(31) 101801. 0.18086 0.20830
10855.0 1.14825 0.2155(32) 100061. 0.18082 0.20961
10865.0 1.14931 0.2142(32) 100381. 0.18078 0.21015
10875.0 1.15037 0.2102(31) 102193. 0.18074 0.20954
10885.0 1.15143 0.2097(31) 102261. 0.18070 0.20800
10895.0 1.15249 0.2134(32) 100683. 0.18066 0.20626
10905.0 1.15354 0.2118(31) 101214. 0.18062 0.20500
10915.0 1.15460 0.2021(31) 105593. 0.18058 0.20474
10925.0 1.15566 0.2034(31) 104875. 0.18054 0.20560
10935.0 1.15672 0.2134(32) 100425. 0.18051 0.20746
10945.0 1.15778 0.2078(31) 102865. 0.18047 0.20991
10955.0 1.15884 0.2099(31) 101890. 0.18043 0.21229
10965.0 1.15990 0.2151(32) 99668. 0.18040 0.21372
10975.0 1.16096 0.2142(32) 100086. 0.18036 0.21345
10985.0 1.16201 0.2091(31) 102163. 0.18033 0.21153
10995.0 1.16307 0.2106(31) 101425. 0.18029 0.20828
11005.0 1.16413 0.2076(31) 102751. 0.18026 0.20436
11015.0 1.16519 0.2076(31) 102805. 0.18022 0.20021
11025.0 1.16625 0.1948(30) 108619. 0.18019 0.19638
11035.0 1.16731 0.1953(30) 108506. 0.18015 0.19303
11045.0 1.16837 0.1916(30) 110180. 0.18012 0.19031
11055.0 1.16943 0.1955(30) 108281. 0.18009 0.18821
11065.0 1.17049 0.1922(30) 109971. 0.18006 0.18665
11075.0 1.17154 0.1871(30) 112660. 0.18003 0.18554
11085.0 1.17260 0.1832(30) 114584. 0.17999 0.18475
11095.0 1.17366 0.1818(29) 115456. 0.17996 0.18417
11105.0 1.17472 0.1851(30) 113868. 0.17993 0.18381
11115.0 1.17578 0.1789(29) 117079. 0.17990 0.18356
11125.0 1.17684 0.1823(29) 115213. 0.17987 0.18338
11135.0 1.17790 0.1803(29) 116400. 0.17985 0.18324
11145.0 1.17896 0.1839(30) 114271. 0.17982 0.18315
11155.0 1.18001 0.1846(30) 114154. 0.17979 0.18310
11165.0 1.18107 0.1839(30) 114700. 0.17976 0.18311
11175.0 1.18213 0.1815(29) 115939. 0.17973 0.18319
11185.0 1.18319 0.1798(29) 116769. 0.17971 0.18327
11195.0 1.18425 0.1844(30) 114298. 0.17968 0.18338
11205.0 1.18531 0.1794(29) 116554. 0.17966 0.18348
11215.0 1.18637 0.1851(30) 113474. 0.17963 0.18361
11225.0 1.18743 0.1906(30) 110526. 0.17961 0.18375
11235.0 1.18849 0.1816(29) 115265. 0.17958 0.18401
11245.0 1.18954 0.1869(30) 112730. 0.17956 0.18437
11255.0 1.19060 0.1836(30) 114726. 0.17953 0.18486
11265.0 1.19166 0.1846(30) 114121. 0.17951 0.18545
11275.0 1.19272 0.1887(30) 112102. 0.17949 0.18610
11285.0 1.19378 0.1831(29) 114911. 0.17947 0.18671
11295.0 1.19484 0.1858(30) 113521. 0.17944 0.18723
11305.0 1.19590 0.1890(30) 112128. 0.17942 0.18762
11315.0 1.19696 0.1910(30) 110989. 0.17940 0.18805
11325.0 1.19802 0.1904(30) 111255. 0.17938 0.18857
11335.0 1.19907 0.1894(30) 111696. 0.17936 0.18946
11345.0 1.20013 0.1860(30) 113667. 0.17934 0.19085
11355.0 1.20119 0.1980(30) 107759. 0.17933 0.19285
11365.0 1.20225 0.1984(30) 107526. 0.17931 0.19542
11375.0 1.20331 0.2006(31) 106478. 0.17929 0.19844
11385.0 1.20437 0.1995(31) 106942. 0.17927 0.20159
11395.0 1.20543 0.2040(31) 105113. 0.17926 0.20442
11405.0 1.20649 0.2102(31) 102252. 0.17924 0.20636
11415.0 1.20754 0.2094(31) 102648. 0.17922 0.20697
11425.0 1.20860 0.2111(31) 102146. 0.17921 0.20616
11435.0 1.20966 0.2046(31) 104953. 0.17919 0.20435
11445.0 1.21072 0.2021(31) 106277. 0.17918 0.20217
11455.0 1.21178 0.2006(31) 106830. 0.17916 0.20025
11465.0 1.21284 0.1978(30) 108255. 0.17915 0.19904
11475.0 1.21390 0.1976(30) 108106. 0.17914 0.19888
11485.0 1.21496 0.2015(31) 106541. 0.17913 0.20001
11495.0 1.21602 0.1991(30) 107923. 0.17911 0.20254
11505.0 1.21707 0.2090(31) 103468. 0.17910 0.20654
11515.0 1.21813 0.2162(32) 100438. 0.17909 0.21186
11525.0 1.21919 0.2177(32) 100039. 0.17908 0.21817
11535.0 1.22025 0.2288(32) 95632. 0.17907 0.22471
11545.0 1.22131 0.2366(33) 92729. 0.17906 0.23044
11555.0 1.22237 0.2403(33) 91648. 0.17905 0.23406
11565.0 1.22343 0.2406(33) 91790. 0.17904 0.23468
11575.0 1.22449 0.2342(33) 94117. 0.17903 0.23241
11585.0 1.22555 0.2283(32) 96523. 0.17903 0.22812
11595.0 1.22660 0.2271(32) 97034. 0.17902 0.22284
11605.0 1.22766 0.2206(32) 99401. 0.17901 0.21721
11615.0 1.22872 0.2101(31) 103690. 0.17900 0.21163
11625.0 1.22978 0.2024(30) 107560. 0.17900 0.20639
11635.0 1.23084 0.2058(31) 106055. 0.17899 0.20173
11645.0 1.23190 0.2029(30) 107601. 0.17899 0.19778
11655.0 1.23296 0.1998(30) 109395. 0.17898 0.19457
11665.0 1.23402 0.1908(30) 114002. 0.17898 0.19199
11675.0 1.23508 0.1932(30) 112736. 0.17897 0.19005
11685.0 1.23613 0.1907(30) 114079. 0.17897 0.18858
11695.0 1.23719 0.1903(30) 114264. 0.17897 0.18750
11705.0 1.23825 0.1887(29) 115448. 0.17896 0.18673
11715.0 1.23931 0.1873(29) 116346. 0.17896 0.18622
11725.0 1.24037 0.1833(29) 118843. 0.17896 0.18593
11735.0 1.24143 0.1854(29) 118173. 0.17896 0.18583
11745.0 1.24249 0.1812(29) 120556. 0.17896 0.18591
11755.0 1.24355 0.1833(29) 119478. 0.17896 0.18619
11765.0 1.24460 0.1858(29) 118015. 0.17896 0.18667
11775.0 1.24566 0.1862(29) 117949. 0.17896 0.18744
11785.0 1.24672 0.1867(29) 117726. 0.17896 0.18856
11795.0 1.24778 0.1946(30) 113698. 0.17896 0.19013
11805.0 1.24884 0.1994(30) 111333. 0.17896 0.19228
11815.0 1.24990 0.1985(30) 111987. 0.17896 0.19515
11825.0 1.25096 0.1978(30) 112697. 0.17896 0.19890
11835.0 1.25202 0.2058(30) 109183. 0.17896 0.20368
11845.0 1.25308 0.2131(31) 106045. 0.17897 0.20954
11855.0 1.25413 0.2166(31) 104594. 0.17897 0.21647
11865.0 1.25519 0.2250(31) 100820. 0.17897 0.22437
11875.0 1.25625 0.2315(32) 98328. 0.17898 0.23306
11885.0 1.25731 0.2416(32) 94787. 0.17898 0.24221
11895.0 1.25837 0.2522(33) 91410. 0.17899 0.25114
11905.0 1.25943 0.2589(33) 89403. 0.17899 0.25874
11915.0 1.26049 0.2611(34) 88796. 0.17900 0.26363
11925.0 1.26155 0.2609(34) 88843. 0.17900 0.26464
11935.0 1.26261 0.2599(34) 89045. 0.17901 0.26139
11945.0 1.26366 0.2459(33) 93667. 0.17901 0.25450
11955.0 1.26472 0.2440(33) 94603. 0.17902 0.24528
11965.0 1.26578 0.2343(32) 98201. 0.17903 0.23520
11975.0 1.26684 0.2321(32) 98806. 0.17903 0.22549
11985.0 1.26790 0.2203(31) 103427. 0.17904 0.21696
11995.0 1.26896 0.2075(30) 109261. 0.17905 0.21008
12005.0 1.27002 0.1962(29) 115015. 0.17905 0.20500
12015.0 1.27108 0.1981(30) 114124. 0.17906 0.20169
12025.0 1.27214 0.2011(30) 112726. 0.17907 0.19997
12035.0 1.27319 0.1990(30) 113785. 0.17908 0.19957
12045.0 1.27425 0.1963(29) 115504. 0.17909 0.20018
12055.0 1.27531 0.1972(29) 115038. 0.17910 0.20142
12065.0 1.27637 0.2002(30) 113581. 0.17911 0.20284
12075.0 1.27743 0.1981(30) 114822. 0.17912 0.20394
12085.0 1.27849 0.1981(29) 114993. 0.17913 0.20423
12095.0 1.27955 0.2027(30) 112630. 0.17914 0.20351
12105.0 1.28061 0.1979(29) 115285. 0.17915 0.20191
12115.0 1.28167 0.1948(29) 117453. 0.17916 0.19984
12125.0 1.28272 0.1932(29) 118377. 0.17917 0.19773
12135.0 1.28378 0.1927(29) 118860. 0.17918 0.19591
12145.0 1.28484 0.1951(29) 117512. 0.17919 0.19460
12155.0 1.28590 0.1857(29) 122748. 0.17920 0.19393
12165.0 1.28696 0.1928(29) 118743. 0.17922 0.19395
12175.0 1.28802 0.1954(29) 117261. 0.17923 0.19466
12185.0 1.28908 0.1923(29) 119227. 0.17924 0.19599
12195.0 1.29014 0.1967(29) 116859. 0.17925 0.19786
12205.0 1.29120 0.1972(29) 116657. 0.17926 0.20011
12215.0 1.29226 0.2045(30) 112888. 0.17928 0.20258
12225.0 1.29331 0.2012(30) 114609. 0.17929 0.20516
12235.0 1.29437 0.2089(30) 110958. 0.17930 0.20788
12245.0 1.29543 0.2127(30) 109128. 0.17932 0.21083
12255.0 1.29649 0.2165(31) 107378. 0.17933 0.21404
12265.0 1.29755 0.2133(30) 108992. 0.17934 0.21733
12275.0 1.29861 0.2128(30) 109597. 0.17936 0.22024
12285.0 1.29967 0.2096(30) 111132. 0.17937 0.22211
12295.0 1.30073 0.2117(30) 110220. 0.17938 0.22226
12305.0 1.30179 0.2132(30) 109348. 0.17940 0.22045
12315.0 1.30284 0.2068(30) 112318. 0.17941 0.21697
12325.0 1.30390 0.2107(30) 110602. 0.17943 0.21249
12335.0 1.30496 0.2058(30) 112907. 0.17944 0.20766
12345.0 1.30602 0.2001(29) 115792. 0.17945 0.20308
12355.0 1.30708 0.1975(29) 117213. 0.17947 0.19910
12365.0 1.30814 0.2013(29) 115255. 0.17948 0.19590
12375.0 1.30920 0.1965(29) 117715. 0.17950 0.19357
12385.0 1.31026 0.1941(29) 118928. 0.17951 0.19214
12395.0 1.31132 0.1947(29) 118646. 0.17953 0.19156
12405.0 1.31237 0.1972(29) 117224. 0.17954 0.19179
12415.0 1.31343 0.1994(29) 115942. 0.17956 0.19268
12425.0 1.31449 0.1931(29) 119238. 0.17957 0.19430
12435.0 1.31555 0.2002(29) 115886. 0.17959 0.19645
12445.0 1.31661 0.2039(30) 114207. 0.17960 0.19895
12455.0 1.31767 0.2049(30) 113759. 0.17962 0.20156
12465.0 1.31873 0.2036(30) 114423. 0.17963 0.20396
12475.0 1.31979 0.2085(30) 112161. 0.17965 0.20584
12485.0 1.32085 0.2110(30) 110999. 0.17966 0.20684
12495.0 1.32190 0.2045(30) 114045. 0.17968 0.20672
12505.0 1.32296 0.1991(29) 116878. 0.17969 0.20544
12515.0 1.32402 0.2090(30) 111917. 0.17971 0.20319
12525.0 1.32508 0.2029(29) 115186. 0.17972 0.20040
12535.0 1.32614 0.1963(29) 118358. 0.17974 0.19748
12545.0 1.32720 0.1976(29) 117814. 0.17976 0.19475
12555.0 1.32826 0.1926(29) 120655. 0.17977 0.19241
12565.0 1.32932 0.1912(29) 121578. 0.17979 0.19058
12575.0 1.33038 0.1884(28) 123117. 0.17980 0.18929
12585.0 1.33144 0.1906(29) 121778. 0.17982 0.18851
12595.0 1.33249 0.1915(29) 121578. 0.17983 0.18820
12605.0 1.33355 0.1880(28) 123344. 0.17985 0.18827
12615.0 1.33461 0.1889(29) 122872. 0.17986 0.18863
12625.0 1.33567 0.1897(29) 122366. 0.17988 0.18915
12635.0 1.33673 0.1909(29) 121936. 0.17989 0.18971
12645.0 1.33779 0.1834(28) 125776. 0.17991 0.19018
12655.0 1.33885 0.1894(29) 122013. 0.17992 0.19049
12665.0 1.33991 0.2006(29) 115728. 0.17994 0.19064
12675.0 1.34097 0.1965(29) 117955. 0.17995 0.19073
12685.0 1.34202 0.1919(29) 120552. 0.17996 0.19087
12695.0 1.34308 0.1979(29) 117211. 0.17998 0.19116
12705.0 1.34414 0.1914(29) 120410. 0.17999 0.19161
12715.0 1.34520 0.1966(29) 117726. 0.18001 0.19220
12725.0 1.34626 0.1924(29) 119483. 0.18002 0.19277
12735.0 1.34732 0.1988(29) 116122. 0.18004 0.19320
12745.0 1.34838 0.1975(29) 117073. 0.18005 0.19335
12755.0 1.34944 0.1957(29) 117870. 0.18006 0.19320
12765.0 1.35050 0.1996(29) 115880. 0.18008 0.19282
12775.0 1.35156 0.1949(29) 118298. 0.18009 0.19227
12785.0 1.35261 0.1906(29) 120670. 0.18010 0.19174
12795.0 1.35367 0.1968(29) 117232. 0.18012 0.19118
12805.0 1.35473 0.1943(29) 118811. 0.18013 0.19061
12815.0 1.35579 0.1945(29) 118426. 0.18014 0.18992
12825.0 1.35685 0.1900(29) 121386. 0.18016 0.18917
12835.0 1.35791 0.1926(29) 120195. 0.18017 0.18821
12845.0 1.35897 0.1854(28) 124693. 0.18018 0.18719
12855.0 1.36003 0.1928(29) 120191. 0.18019 0.18621
12865.0 1.36109 0.1884(29) 122739. 0.18021 0.18531
12875.0 1.36214 0.1867(28) 123461. 0.18022 0.18452
12885.0 1.36320 0.1850(28) 124641. 0.18023 0.18387
12895.0 1.36426 0.1833(28) 125811. 0.18024 0.18333
12905.0 1.36532 0.1824(28) 126574. 0.18025 0.18292
12915.0 1.36638 0.1860(28) 124420. 0.18027 0.18260
12925.0 1.36744 0.1840(28) 126135. 0.18028 0.18236
12935.0 1.36850 0.1792(28) 129428. 0.18029 0.18219
12945.0 1.36956 0.1822(28) 127890. 0.18030 0.18204
12955.0 1.37062 0.1874(28) 124960. 0.18031 0.18195
12965.0 1.37168 0.1819(28) 128281. 0.18032 0.18189
12975.0 1.37273 0.1841(28) 126976. 0.18033 0.18184
12985.0 1.37379 0.1834(28) 127412. 0.18034 0.18182
12995.0 1.37485 0.1843(28) 126959. 0.18035 0.18180
13005.0 1.37591 0.1835(28) 127386. 0.18036 0.18180
13015.0 1.37697 0.1865(28) 125772. 0.18037 0.18179
13025.0 1.37803 0.1814(28) 129081. 0.18038 0.18180
13035.0 1.37909 0.1853(28) 126919. 0.18039 0.18181
13045.0 1.38015 0.1823(28) 128628. 0.18040 0.18183
13055.0 1.38121 0.1846(28) 127016. 0.18041 0.18185
13065.0 1.38226 0.1822(28) 128310. 0.18041 0.18188
13075.0 1.38332 0.1832(28) 127638. 0.18042 0.18192
13085.0 1.38438 0.1853(28) 126566. 0.18043 0.18196
13095.0 1.38544 0.1847(28) 127231. 0.18044 0.18201
13105.0 1.38650 0.1869(28) 125925. 0.18045 0.18207
13115.0 1.38756 0.1862(28) 126449. 0.18045 0.18214
13125.0 1.38862 0.1862(28) 126233. 0.18046 0.18222
13135.0 1.38968 0.1841(28) 127512. 0.18047 0.18232
13145.0 1.39074 0.1833(28) 128320. 0.18047 0.18242
13155.0 1.39180 0.1861(28) 126725. 0.18048 0.18255
13165.0 1.39285 0.1864(28) 126770. 0.18049 0.18271
13175.0 1.39391 0.1830(28) 129026. 0.18049 0.18291
13185.0 1.39497 0.1835(28) 128998. 0.18050 0.18317
13195.0 1.39603 0.1801(28) 131299. 0.18050 0.18351
13205.0 1.39709 0.1810(28) 131030. 0.18051 0.18394
13215.0 1.39815 0.1837(28) 129351. 0.18051 0.18459
13225.0 1.39921 0.1877(28) 127064. 0.18052 0.18538
13235.0 1.40027 0.1862(28) 127833. 0.18052 0.18640
13245.0 1.40133 0.1863(28) 127986. 0.18053 0.18771
13255.0 1.40239 0.1828(28) 130387. 0.18053 0.18933
13265.0 1.40344 0.1871(28) 128157. 0.18054 0.19126
13275.0 1.40450 0.1921(28) 125200. 0.18054 0.19347
13285.0 1.40556 0.1994(29) 121382. 0.18054 0.19589
13295.0 1.40662 0.2010(29) 120681. 0.18055 0.19836
13305.0 1.40768 0.2029(29) 119692. 0.18055 0.20068
13315.0 1.40874 0.2004(29) 121062. 0.18055 0.20257
13325.0 1.40980 0.2048(29) 119112. 0.18055 0.20375
13335.0 1.41086 0.2080(29) 117346. 0.18055 0.20403
13345.0 1.41192 0.2039(29) 119091. 0.18056 0.20342
13355.0 1.41298 0.2064(29) 118026. 0.18056 0.20212
13365.0 1.41403 0.2101(29) 116226. 0.18056 0.20043
13375.0 1.41509 0.2039(29) 119641. 0.18056 0.19862
13385.0 1.41615 0.1999(29) 121775. 0.18056 0.19691
13395.0 1.41721 0.1978(28) 123286. 0.18056 0.19550
13405.0 1.41827 0.1937(28) 125847. 0.18056 0.19448
13415.0 1.41933 0.1940(28) 125567. 0.18056 0.19393
13425.0 1.42039 0.1950(28) 125088. 0.18056 0.19389
13435.0 1.42145 0.1921(28) 126800. 0.18056 0.19447
13445.0 1.42251 0.1956(28) 124965. 0.18056 0.19565
13455.0 1.42357 0.1999(29) 122656. 0.18056 0.19741
13465.0 1.42462 0.2002(29) 122485. 0.18056 0.19979
13475.0 1.42568 0.1985(28) 123609. 0.18056 0.20240
13485.0 1.42674 0.2045(29) 120570. 0.18056 0.20515
13495.0 1.42780 0.2032(29) 121127. 0.18055 0.20772
13505.0 1.42886 0.2099(29) 117594. 0.18055 0.20975
13515.0 1.42992 0.2084(29) 118434. 0.18055 0.21089
13525.0 1.43098 0.2084(29) 118523. 0.18055 0.21091
13535.0 1.43204 0.2087(29) 118411. 0.18054 0.20985
13545.0 1.43310 0.2076(29) 119041. 0.18054 0.20792
13555.0 1.43416 0.1977(28) 124675. 0.18054 0.20546
13565.0 1.43521 0.1997(28) 123674. 0.18053 0.20279
13575.0 1.43627 0.1997(28) 123980. 0.18053 0.20018
13585.0 1.43733 0.2026(29) 122530. 0.18053 0.19777
13595.0 1.43839 0.1974(28) 125565. 0.18052 0.19564
13605.0 1.43945 0.1940(28) 127634. 0.18052 0.19385
13615.0 1.44051 0.1932(28) 128334. 0.18051 0.19244
13625.0 1.44157 0.1914(28) 129405. 0.18051 0.19143
13635.0 1.44263 0.1841(27) 134212. 0.18050 0.19083
13645.0 1.44369 0.1896(28) 130881. 0.18050 0.19065
13655.0 1.44475 0.1903(28) 130382. 0.18049 0.19088
13665.0 1.44580 0.1946(28) 127902. 0.18049 0.19153
13675.0 1.44686 0.1921(28) 129441. 0.18048 0.19262
13685.0 1.44792 0.1926(28) 129249. 0.18048 0.19414
13695.0 1.44898 0.1985(28) 125801. 0.18047 0.19607
13705.0 1.45004 0.2016(28) 123956. 0.18046 0.19839
13715.0 1.45110 0.1950(28) 127680. 0.18046 0.20103
13725.0 1.45216 0.2029(28) 123592. 0.18045 0.20389
13735.0 1.45322 0.2050(29) 122199. 0.18044 0.20680
13745.0 1.45428 0.1988(28) 125645. 0.18044 0.20963
13755.0 1.45534 0.2049(29) 122084. 0.18043 0.21221
13765.0 1.45639 0.2100(29) 119231. 0.18042 0.21454
13775.0 1.45745 0.2061(29) 121210. 0.18042 0.21680
13785.0 1.45851 0.2075(29) 120573. 0.18041 0.21927
13795.0 1.45957 0.2158(29) 116456. 0.18040 0.22235
13805.0 1.46063 0.2218(30) 113908. 0.18039 0.22626
13815.0 1.46169 0.2245(30) 112629. 0.18038 0.23106
13825.0 1.46275 0.2361(31) 107467. 0.18038 0.23658
13835.0 1.46381 0.2442(31) 104404. 0.18037 0.24246
13845.0 1.46487 0.2504(31) 102216. 0.18036 0.24807
13855.0 1.46593 0.2531(31) 101157. 0.18035 0.25262
13865.0 1.46698 0.2519(31) 101616. 0.18034 0.25515
13875.0 1.46804 0.2538(31) 101080. 0.18033 0.25519
13885.0 1.46910 0.2525(31) 101698. 0.18032 0.25258
13895.0 1.47016 0.2436(31) 105311. 0.18032 0.24807
13905.0 1.47122 0.2416(31) 105969. 0.18031 0.24213
13915.0 1.47228 0.2272(30) 112118. 0.18030 0.23534
13925.0 1.47334 0.2231(30) 114144. 0.18029 0.22822
13935.0 1.47440 0.2197(29) 116032. 0.18028 0.22125
13945.0 1.47546 0.2096(29) 121181. 0.18027 0.21476
13955.0 1.47652 0.2021(28) 125407. 0.18026 0.20898
13965.0 1.47758 0.2002(28) 126471. 0.18025 0.20404
13975.0 1.47863 0.1962(28) 128509. 0.18024 0.19997
13985.0 1.47969 0.1938(28) 129880. 0.18023 0.19672
13995.0 1.48075 0.1912(28) 131651. 0.18022 0.19421
14005.0 1.48181 0.1910(28) 132164. 0.18021 0.19233
14015.0 1.48287 0.1891(27) 133209. 0.18020 0.19098
14025.0 1.48393 0.1869(27) 134640. 0.18019 0.19006
14035.0 1.48499 0.1899(27) 132914. 0.18018 0.18950
14045.0 1.48605 0.1839(27) 136934. 0.18017 0.18923
14055.0 1.48711 0.1845(27) 136552. 0.18016 0.18920
14065.0 1.48817 0.1839(27) 136988. 0.18015 0.18936
14075.0 1.48922 0.1821(27) 137856. 0.18014 0.18966
14085.0 1.49028 0.1834(27) 137012. 0.18013 0.19007
14095.0 1.49134 0.1856(27) 135631. 0.18012 0.19052
14105.0 1.49240 0.1891(27) 133551. 0.18011 0.19097
14115.0 1.49346 0.1853(27) 136105. 0.18010 0.19134
14125.0 1.49452 0.1901(27) 133123. 0.18009 0.19156
14135.0 1.49558 0.1878(27) 134669. 0.18008 0.19166
14145.0 1.49664 0.1871(27) 135202. 0.18007 0.19165
14155.0 1.49770 0.1890(27) 133997. 0.18006 0.19160
14165.0 1.49876 0.1872(27) 135005. 0.18005 0.19162
14175.0 1.49981 0.1866(27) 135077. 0.18004 0.19181
14185.0 1.50087 0.1908(27) 132336. 0.18003 0.19234
14195.0 1.50193 0.1961(28) 128850. 0.18002 0.19322
14205.0 1.50299 0.1966(28) 129072. 0.18001 0.19463
14215.0 1.50405 0.1968(28) 128939. 0.18000 0.19671
14225.0 1.50511 0.1996(28) 127102. 0.17999 0.19959
14235.0 1.50617 0.2043(28) 124438. 0.17998 0.20338
14245.0 1.50723 0.2143(29) 119073. 0.17997 0.20822
14255.0 1.50829 0.2208(29) 115935. 0.17996 0.21401
14265.0 1.50935 0.2158(29) 118180. 0.17996 0.22074
14275.0 1.51041 0.2314(30) 110883. 0.17995 0.22832
14285.0 1.51146 0.2319(30) 110539. 0.17994 0.23622
14295.0 1.51252 0.2370(30) 108538. 0.17993 0.24400
14305.0 1.51358 0.2362(30) 109311. 0.17992 0.25095
14315.0 1.51464 0.2439(31) 106022. 0.17991 0.25600
14325.0 1.51570 0.2478(31) 104442. 0.17990 0.25865
14335.0 1.51676 0.2466(31) 104872. 0.17990 0.25834
14345.0 1.51782 0.2467(31) 104801. 0.17989 0.25512
14355.0 1.51888 0.2472(31) 104734. 0.17988 0.24964
14365.0 1.51994 0.2340(30) 110508. 0.17987 0.24271
14375.0 1.52100 0.2294(30) 112375. 0.17986 0.23518
14385.0 1.52206 0.2269(30) 113652. 0.17986 0.22772
14395.0 1.52311 0.2227(29) 115692. 0.17985 0.22081
14405.0 1.52417 0.2158(29) 119148. 0.17984 0.21477
14415.0 1.52523 0.2192(29) 117305. 0.17984 0.20978
14425.0 1.52629 0.2196(29) 117147. 0.17983 0.20593
14435.0 1.52735 0.2123(29) 120800. 0.17982 0.20326
14445.0 1.52841 0.2076(28) 123530. 0.17982 0.20175
14455.0 1.52947 0.2105(29) 121918. 0.17981 0.20141
14465.0 1.53053 0.2099(29) 122166. 0.17981 0.20222
14475.0 1.53159 0.2096(29) 122553. 0.17980 0.20419
14485.0 1.53265 0.2140(29) 120391. 0.17979 0.20735
14495.0 1.53370 0.2211(29) 116651. 0.17979 0.21171
14505.0 1.53476 0.2274(30) 113641. 0.17979 0.21720
14515.0 1.53582 0.2272(30) 113585. 0.17978 0.22375
14525.0 1.53688 0.2350(30) 110150. 0.17978 0.23120
14535.0 1.53794 0.2473(31) 105150. 0.17977 0.23920
14545.0 1.53900 0.2509(31) 103725. 0.17977 0.24709
14555.0 1.54006 0.2577(31) 101170. 0.17977 0.25448
14565.0 1.54112 0.2658(32) 98333. 0.17976 0.26036
14575.0 1.54218 0.2685(32) 97474. 0.17976 0.26386
14585.0 1.54324 0.2644(32) 98897. 0.17976 0.26437
14595.0 1.54430 0.2646(32) 98852. 0.17976 0.26178
14605.0 1.54535 0.2553(31) 102275. 0.17976 0.25654
14615.0 1.54641 0.2561(31) 101959. 0.17975 0.24954
14625.0 1.54747 0.2493(31) 104676. 0.17975 0.24144
14635.0 1.54853 0.2378(30) 109379. 0.17975 0.23309
14645.0 1.54959 0.2257(30) 114756. 0.17975 0.22504
14655.0 1.55065 0.2217(29) 116684. 0.17975 0.21767
14665.0 1.55171 0.2141(29) 120563. 0.17975 0.21120
14675.0 1.55277 0.2087(28) 123279. 0.17975 0.20570
14685.0 1.55383 0.1996(28) 128311. 0.17976 0.20119
14695.0 1.55489 0.1980(28) 129418. 0.17976 0.19760
14705.0 1.55595 0.1962(28) 130605. 0.17976 0.19480
14715.0 1.55700 0.1952(28) 131218. 0.17976 0.19268
14725.0 1.55806 0.1975(28) 129680. 0.17977 0.19110
14735.0 1.55912 0.1899(27) 134314. 0.17977 0.18994
14745.0 1.56018 0.1919(27) 133054. 0.17977 0.18911
14755.0 1.56124 0.1868(27) 136455. 0.17978 0.18847
14765.0 1.56230 0.1914(27) 133602. 0.17978 0.18804
14775.0 1.56336 0.1892(27) 135104. 0.17979 0.18773
14785.0 1.56442 0.1928(27) 132878. 0.17979 0.18750
14795.0 1.56548 0.1884(27) 135858. 0.17980 0.18733
14805.0 1.56654 0.1879(27) 136489. 0.17981 0.18722
14815.0 1.56760 0.1913(27) 134430. 0.17981 0.18715
14825.0 1.56865 0.1868(27) 137558. 0.17982 0.18714
14835.0 1.56971 0.1858(27) 138134. 0.17983 0.18719
14845.0 1.57077 0.1908(27) 134941. 0.17984 0.18733
14855.0 1.57183 0.1864(27) 137824. 0.17985 0.18758
14865.0 1.57289 0.1894(27) 135783. 0.17986 0.18796
14875.0 1.57395 0.1909(27) 135231. 0.17987 0.18852
14885.0 1.57501 0.1923(27) 134833. 0.17988 0.18930
14895.0 1.57607 0.1891(27) 136848. 0.17989 0.19036
14905.0 1.57713 0.1961(27) 132692. 0.17990 0.19176
14915.0 1.57819 0.1955(27) 133067. 0.17991 0.19357
14925.0 1.57925 0.1951(27) 133535. 0.17993 0.19586
14935.0 1.58030 0.2086(28) 125448. 0.17994 0.19867
14945.0 1.58136 0.2055(28) 127310. 0.17995 0.20207
14955.0 1.58242 0.2126(28) 123187. 0.17997 0.20605
14965.0 1.58348 0.2156(29) 121779. 0.17998 0.21057
14975.0 1.58454 0.2204(29) 119424. 0.18000 0.21545
14985.0 1.58560 0.2290(29) 115327. 0.18001 0.22051
14995.0 1.58666 0.2326(30) 114150. 0.18003 0.22566
15005.0 1.58772 0.2317(30) 114879. 0.18005 0.23047
15015.0 1.58878 0.2348(30) 113832. 0.18007 0.23461
15025.0 1.58984 0.2332(30) 114713. 0.18009 0.23769
15035.0 1.59090 0.2413(30) 110980. 0.18010 0.23938
15045.0 1.59196 0.2349(30) 114290. 0.18012 0.23944
15055.0 1.59301 0.2329(29) 115769. 0.18014 0.23783
15065.0 1.59407 0.2306(29) 116693. 0.18017 0.23477
15075.0 1.59513 0.2221(29) 120730. 0.18019 0.23062
15085.0 1.59619 0.2264(29) 118731. 0.18021 0.22582
15095.0 1.59725 0.2154(28) 124283. 0.18023 0.22076
15105.0 1.59831 0.2174(28) 123291. 0.18026 0.21576
15115.0 1.59937 0.2111(28) 126697. 0.18028 0.21105
15125.0 1.60043 0.2071(28) 129097. 0.18031 0.20681
15135.0 1.60149 0.2026(28) 131898. 0.18033 0.20311
15145.0 1.60255 0.2004(27) 133157. 0.18036 0.20001
15155.0 1.60361 0.1963(27) 135623. 0.18038 0.19749
15165.0 1.60466 0.1938(27) 137160. 0.18041 0.19552
15175.0 1.60572 0.1931(27) 137716. 0.18044 0.19404
15185.0 1.60678 0.1938(27) 137378. 0.18047 0.19299
15195.0 1.60784 0.1902(27) 139818. 0.18050 0.19232
15205.0 1.60890 0.1866(27) 142248. 0.18053 0.19200
15215.0 1.60996 0.1898(27) 140313. 0.18056 0.19198
15225.0 1.61102 0.1967(27) 135928. 0.18059 0.19226
15235.0 1.61208 0.1920(27) 138704. 0.18063 0.19284
15245.0 1.61314 0.1924(27) 139001. 0.18066 0.19374
15255.0 1.61420 0.1990(27) 134822. 0.18069 0.19500
15265.0 1.61526 0.1985(27) 134851. 0.18073 0.19666
15275.0 1.61631 0.1982(27) 135435. 0.18076 0.19877
15285.0 1.61737 0.1990(27) 134917. 0.18080 0.20133
15295.0 1.61843 0.2070(28) 130256. 0.18084 0.20444
15305.0 1.61949 0.2106(28) 128366. 0.18087 0.20809
15315.0 1.62055 0.2104(28) 128141. 0.18091 0.21227
15325.0 1.62161 0.2138(28) 126394. 0.18095 0.21695
15335.0 1.62267 0.2182(28) 124228. 0.18099 0.22205
15345.0 1.62373 0.2299(29) 118460. 0.18103 0.22745
15355.0 1.62479 0.2326(29) 117298. 0.18107 0.23298
15365.0 1.62585 0.2362(29) 115637. 0.18112 0.23844
15375.0 1.62691 0.2429(30) 112682. 0.18116 0.24374
15385.0 1.62797 0.2459(30) 111316. 0.18120 0.24879
15395.0 1.62902 0.2473(30) 110804. 0.18125 0.25363
15405.0 1.63008 0.2527(30) 108836. 0.18129 0.25872
15415.0 1.63114 0.2621(31) 104971. 0.18134 0.26408
15425.0 1.63220 0.2708(31) 101988. 0.18138 0.26983
15435.0 1.63326 0.2777(32) 99533. 0.18143 0.27583
15445.0 1.63432 0.2827(32) 97914. 0.18148 0.28174
15455.0 1.63538 0.2825(32) 98156. 0.18153 0.28707
15465.0 1.63644 0.2826(32) 98167. 0.18158 0.29128
15475.0 1.63750 0.2936(32) 94799. 0.18163 0.29389
15485.0 1.63856 0.2844(32) 97483. 0.18168 0.29464
15495.0 1.63962 0.2887(32) 96220. 0.18173 0.29343
15505.0 1.64068 0.2853(32) 97340. 0.18179 0.29034
15515.0 1.64173 0.2821(32) 98367. 0.18184 0.28553
15525.0 1.64279 0.2777(32) 99733. 0.18190 0.27932
15535.0 1.64385 0.2772(32) 99589. 0.18195 0.27212
15545.0 1.64491 0.2728(31) 101206. 0.18201 0.26466
15555.0 1.64597 0.2708(31) 101874. 0.18206 0.25703
15565.0 1.64703 0.2581(31) 106506. 0.18212 0.24984
15575.0 1.64809 0.2475(30) 110763. 0.18218 0.24335
15585.0 1.64915 0.2436(30) 112522. 0.18224 0.23769
15595.0 1.65021 0.2348(29) 116303. 0.18230 0.23286
15605.0 1.65127 0.2362(29) 115474. 0.18236 0.22874
15615.0 1.65233 0.2315(29) 117415. 0.18242 0.22519
15625.0 1.65338 0.2240(29) 121215. 0.18249 0.22202
15635.0 1.65444 0.2250(29) 120169. 0.18255 0.21913
15645.0 1.65550 0.2211(29) 122324. 0.18261 0.21633
15655.0 1.65656 0.2131(28) 126597. 0.18268 0.21391
15665.0 1.65762 0.2148(28) 125683. 0.18275 0.21177
15675.0 1.65868 0.2078(28) 129465. 0.18281 0.20997
15685.0 1.65974 0.2072(28) 129921. 0.18288 0.20855
15695.0 1.66080 0.2055(28) 131154. 0.18295 0.20755
15705.0 1.66186 0.2032(27) 132523. 0.18302 0.20698
15715.0 1.66292 0.2097(28) 128851. 0.18309 0.20686
15725.0 1.66398 0.2060(28) 130825. 0.18316 0.20718
15735.0 1.66504 0.2047(28) 131640. 0.18323 0.20794
15745.0 1.66609 0.2051(28) 131802. 0.18330 0.20914
15755.0 1.66715 0.2114(28) 128232. 0.18338 0.21099
15765.0 1.66821 0.2134(28) 127151. 0.18345 0.21307
15775.0 1.66927 0.2110(28) 128172. 0.18353 0.21568
15785.0 1.67033 0.2173(28) 124680. 0.18360 0.21888
15795.0 1.67139 0.2216(29) 122648. 0.18368 0.22275
15805.0 1.67245 0.2279(29) 119692. 0.18376 0.22732
15815.0 1.67351 0.2298(29) 118534. 0.18383 0.23255
15825.0 1.67457 0.2417(30) 113078. 0.18391 0.23834
15835.0 1.67563 0.2431(30) 112407. 0.18399 0.24448
15845.0 1.67669 0.2490(30) 110083. 0.18407 0.25063
15855.0 1.67775 0.2593(31) 105928. 0.18416 0.25633
15865.0 1.67880 0.2655(31) 103631. 0.18424 0.26104
15875.0 1.67986 0.2632(31) 104310. 0.18432 0.26417
15885.0 1.68092 0.2651(31) 103625. 0.18440 0.26526
15895.0 1.68198 0.2668(31) 102911. 0.18449 0.26413
15905.0 1.68304 0.2598(31) 105699. 0.18458 0.26087
15915.0 1.68410 0.2538(30) 108156. 0.18466 0.25605
15925.0 1.68516 0.2537(30) 108025. 0.18475 0.24989
15935.0 1.68622 0.2480(30) 110305. 0.18484 0.24309
15945.0 1.68728 0.2395(30) 113969. 0.18493 0.23612
15955.0 1.68834 0.2356(29) 116004. 0.18502 0.22935
15965.0 1.68940 0.2262(29) 120677. 0.18511 0.22304
15975.0 1.69046 0.2158(28) 126122. 0.18520 0.21736
15985.0 1.69151 0.2092(28) 129777. 0.18529 0.21239
15995.0 1.69257 0.2083(28) 130136. 0.18538 0.20816
16005.0 1.69363 0.2064(28) 131289. 0.18547 0.20464
16015.0 1.69469 0.2095(28) 129405. 0.18557 0.20179
16025.0 1.69575 0.1989(27) 135775. 0.18566 0.19951
16035.0 1.69681 0.1984(27) 135888. 0.18576 0.19773
16045.0 1.69787 0.2005(27) 134209. 0.18586 0.19635
16055.0 1.69893 0.1984(27) 135386. 0.18595 0.19530
16065.0 1.69999 0.1928(27) 138831. 0.18605 0.19449
16075.0 1.70105 0.1945(27) 137644. 0.18615 0.19389
16085.0 1.70211 0.1976(27) 135767. 0.18625 0.19343
16095.0 1.70317 0.1944(27) 138214. 0.18635 0.19308
16105.0 1.70423 0.1918(27) 139660. 0.18645 0.19281
16115.0 1.70528 0.1941(27) 138123. 0.18655 0.19261
16125.0 1.70634 0.1929(27) 139004. 0.18666 0.19245
16135.0 1.70740 0.1921(27) 139199. 0.18676 0.19234
16145.0 1.70846 0.1944(27) 137684. 0.18686 0.19223
16155.0 1.70952 0.1918(27) 139173. 0.18697 0.19218
16165.0 1.71058 0.1926(27) 138601. 0.18708 0.19214
16175.0 1.71164 0.1897(27) 140365. 0.18718 0.19213
16185.0 1.71270 0.1931(27) 138165. 0.18729 0.19206
16195.0 1.71376 0.1931(27) 138294. 0.18740 0.19208
16205.0 1.71482 0.1871(26) 142599. 0.18751 0.19211
16215.0 1.71588 0.1907(27) 140392. 0.18761 0.19216
16225.0 1.71694 0.1903(27) 140698. 0.18772 0.19222
16235.0 1.71799 0.1947(27) 137645. 0.18784 0.19229
16245.0 1.71905 0.1951(27) 137543. 0.18795 0.19238
16255.0 1.72011 0.1918(27) 139419. 0.18806 0.19247
16265.0 1.72117 0.1862(26) 143411. 0.18817 0.19258
16275.0 1.72223 0.1885(27) 141587. 0.18828 0.19269
16285.0 1.72329 0.1927(27) 138257. 0.18840 0.19281
16295.0 1.72435 0.1918(27) 138861. 0.18851 0.19295
16305.0 1.72541 0.1971(27) 135413. 0.18863 0.19309
16315.0 1.72647 0.1916(27) 138969. 0.18874 0.19325
16325.0 1.72753 0.1934(27) 137952. 0.18886 0.19341
16335.0 1.72859 0.1920(27) 139023. 0.18898 0.19358
16345.0 1.72965 0.1936(27) 137989. 0.18910 0.19377
16355.0 1.73071 0.1920(27) 139044. 0.18922 0.19396
16365.0 1.73176 0.1890(27) 141066. 0.18933 0.19416
16375.0 1.73282 0.1962(27) 136140. 0.18945 0.19438
16385.0 1.73388 0.1953(27) 136676. 0.18958 0.19461
16395.0 1.73494 0.1939(27) 137467. 0.18970 0.19485
16405.0 1.73600 0.1968(27) 135140. 0.18982 0.19510
16415.0 1.73706 0.1918(27) 138599. 0.18994 0.19537
16425.0 1.73812 0.1916(27) 138807. 0.19006 0.19565
16435.0 1.73918 0.1964(27) 135708. 0.19019 0.19595
16445.0 1.74024 0.1948(27) 136751. 0.19031 0.19627
16455.0 1.74130 0.1965(27) 135458. 0.19044 0.19661
16465.0 1.74236 0.1891(27) 140656. 0.19056 0.19698
16475.0 1.74342 0.1951(27) 136520. 0.19069 0.19737
16485.0 1.74448 0.2008(27) 132959. 0.19081 0.19780
16495.0 1.74553 0.1970(27) 135229. 0.19094 0.19827
16505.0 1.74659 0.1973(27) 134834. 0.19107 0.19879
16515.0 1.74765 0.1914(27) 139099. 0.19120 0.19932
16525.0 1.74871 0.1966(27) 135629. 0.19132 0.20000
16535.0 1.74977 0.1965(27) 135610. 0.19145 0.20078
16545.0 1.75083 0.2001(27) 133785. 0.19158 0.20169
16555.0 1.75189 0.1952(27) 136884. 0.19171 0.20279
16565.0 1.75295 0.1976(27) 135209. 0.19184 0.20410
16575.0 1.75401 0.2050(28) 130553. 0.19197 0.20568
16585.0 1.75507 0.2005(27) 133161. 0.19211 0.20758
16595.0 1.75613 0.2104(28) 127228. 0.19224 0.20986
16605.0 1.75719 0.2113(28) 126909. 0.19237 0.21256
16615.0 1.75824 0.2138(28) 125583. 0.19250 0.21573
16625.0 1.75930 0.2129(28) 125841. 0.19264 0.21939
16635.0 1.76036 0.2234(29) 120077. 0.19277 0.22355
16645.0 1.76142 0.2218(29) 121187. 0.19291 0.22819
16655.0 1.76248 0.2311(29) 116300. 0.19304 0.23325
16665.0 1.76354 0.2398(30) 111948. 0.19318 0.23862
16675.0 1.76460 0.2418(30) 110914. 0.19331 0.24417
16685.0 1.76566 0.2484(30) 108138. 0.19345 0.24968
16695.0 1.76672 0.2476(30) 108506. 0.19358 0.25490
16705.0 1.76778 0.2630(31) 102594. 0.19372 0.25957
16715.0 1.76884 0.2610(31) 103487. 0.19386 0.26346
16725.0 1.76990 0.2611(31) 103232. 0.19400 0.26644
16735.0 1.77096 0.2657(31) 101344. 0.19413 0.26839
16745.0 1.77201 0.2705(32) 99656. 0.19427 0.26987
16755.0 1.77307 0.2715(32) 99414. 0.19441 0.27109
16765.0 1.77413 0.2719(32) 99168. 0.19455 0.27247
16775.0 1.77519 0.2759(32) 97602. 0.19469 0.27443
16785.0 1.77625 0.2705(32) 99410. 0.19483 0.27733
16795.0 1.77731 0.2822(32) 95630. 0.19497 0.28143
16805.0 1.77837 0.2876(33) 94019. 0.19511 0.28686
16815.0 1.77943 0.2967(33) 91332. 0.19525 0.29362
16825.0 1.78049 0.2985(33) 90499. 0.19539 0.30157
16835.0 1.78155 0.3096(34) 87413. 0.19553 0.31041
16845.0 1.78261 0.3225(34) 84154. 0.19568 0.31966
16855.0 1.78367 0.3270(35) 82953. 0.19582 0.32871
16865.0 1.78473 0.3328(35) 81789. 0.19596 0.33678
16875.0 1.78579 0.343(4) 79585. 0.1961 0.3430
16885.0 1.78684 0.349(4) 78073. 0.1962 0.3468
16895.0 1.78790 0.341(4) 79819. 0.1964 0.3475
16905.0 1.78896 0.3328(35) 81728. 0.19653 0.34517
16915.0 1.79002 0.336(4) 80933. 0.1967 0.3402
16925.0 1.79108 0.3317(35) 81793. 0.19682 0.33326
16935.0 1.79214 0.3156(34) 85612. 0.19696 0.32515
16945.0 1.79320 0.3125(34) 86249. 0.19711 0.31671
16955.0 1.79426 0.3026(34) 89010. 0.19725 0.30867
16965.0 1.79532 0.2987(33) 90023. 0.19740 0.30168
16975.0 1.79638 0.2916(33) 91727. 0.19754 0.29623
16985.0 1.79744 0.2864(33) 93197. 0.19769 0.29269
16995.0 1.79850 0.2823(33) 94327. 0.19783 0.29130
17005.0 1.79956 0.2896(33) 92118. 0.19798 0.29217
17015.0 1.80061 0.2949(33) 90391. 0.19812 0.29527
17025.0 1.80167 0.2983(33) 89154. 0.19827 0.30048
17035.0 1.80273 0.3118(34) 85217. 0.19841 0.30753
17045.0 1.80379 0.3180(35) 83611. 0.19856 0.31600
17055.0 1.80485 0.335(4) 79451. 0.1987 0.3254
17065.0 1.80591 0.344(4) 77451. 0.1988 0.3349
17075.0 1.80697 0.359(4) 74160. 0.1990 0.3439
17085.0 1.80803 0.364(4) 72972. 0.1991 0.3514
17095.0 1.80909 0.372(4) 71298. 0.1993 0.3565
17105.0 1.81015 0.371(4) 71391. 0.1994 0.3585
17115.0 1.81121 0.370(4) 71404. 0.1996 0.3574
17125.0 1.81227 0.367(4) 71966. 0.1997 0.3532
17135.0 1.81333 0.359(4) 73367. 0.1999 0.3464
17145.0 1.81439 0.347(4) 75609. 0.2000 0.3376
17155.0 1.81544 0.338(4) 77455. 0.2002 0.3279
17165.0 1.81650 0.3158(35) 82484. 0.20031 0.31786
17175.0 1.81756 0.3146(35) 82595. 0.20046 0.30825
17185.0 1.81862 0.3001(34) 86169. 0.20060 0.29963
17195.0 1.81968 0.2885(33) 89178. 0.20075 0.29242
17205.0 1.82074 0.2784(33) 92083. 0.20090 0.28696
17215.0 1.82180 0.2736(33) 93381. 0.20104 0.28349
17225.0 1.82286 0.2725(33) 93663. 0.20119 0.28215
17235.0 1.82392 0.2803(33) 90967. 0.20133 0.28295
17245.0 1.82498 0.2754(33) 92356. 0.20148 0.28584
17255.0 1.82604 0.2926(34) 86930. 0.20163 0.29067
17265.0 1.82710 0.2972(34) 85485. 0.20177 0.29719
17275.0 1.82816 0.3061(35) 83060. 0.20192 0.30505
17285.0 1.82921 0.314(4) 80852. 0.2021 0.3138
17295.0 1.83027 0.331(4) 77062. 0.2022 0.3229
17305.0 1.83133 0.340(4) 75036. 0.2024 0.3317
17315.0 1.83239 0.345(4) 73861. 0.2025 0.3395
17325.0 1.83345 0.348(4) 73048. 0.2026 0.3454
17335.0 1.83451 0.353(4) 71930. 0.2028 0.3491
17345.0 1.83557 0.355(4) 71445. 0.2029 0.3497
17355.0 1.83663 0.355(4) 71280. 0.2031 0.3473
17365.0 1.83769 0.343(4) 73753. 0.2032 0.3420
17375.0 1.83875 0.342(4) 73650. 0.2034 0.3343
17385.0 1.83981 0.332(4) 75721. 0.2035 0.3248
17395.0 1.84087 0.329(4) 76389. 0.2037 0.3142
17405.0 1.84193 0.309(4) 81120. 0.2038 0.3030
17415.0 1.84299 0.2911(34) 85871. 0.20394 0.29186
17425.0 1.84404 0.2831(34) 87853. 0.20409 0.28111
17435.0 1.84510 0.2766(33) 89596. 0.20423 0.27105
17445.0 1.84616 0.2601(32) 94693. 0.20437 0.26189
17455.0 1.84722 0.2558(32) 96249. 0.20452 0.25373
17465.0 1.84828 0.2456(32) 99836. 0.20466 0.24662
17475.0 1.84934 0.2416(31) 101055. 0.20480 0.24053
17485.0 1.85040 0.2341(31) 104088. 0.20494 0.23541
17495.0 1.85146 0.2326(31) 104410. 0.20509 0.23116
17505.0 1.85252 0.2250(30) 107591. 0.20523 0.22769
17515.0 1.85358 0.2223(30) 108641. 0.20537 0.22488
17525.0 1.85464 0.2198(30) 109775. 0.20551 0.22263
17535.0 1.85570 0.2214(30) 109122. 0.20565 0.22084
17545.0 1.85676 0.2159(30) 111508. 0.20579 0.21940
17555.0 1.85782 0.2187(30) 109854. 0.20593 0.21826
17565.0 1.85887 0.2199(30) 109046. 0.20607 0.21735
17575.0 1.85993 0.2157(30) 110888. 0.20621 0.21661
17585.0 1.86099 0.2210(30) 108187. 0.20635 0.21601
17595.0 1.86205 0.2229(31) 107076. 0.20648 0.21551
17605.0 1.86311 0.2187(30) 109078. 0.20662 0.21510
17615.0 1.86417 0.2194(30) 108510. 0.20676 0.21475
17625.0 1.86523 0.2205(30) 107933. 0.20690 0.21445
17635.0 1.86629 0.2183(30) 109139. 0.20703 0.21420
17645.0 1.86735 0.2223(31) 107178. 0.20717 0.21399
17655.0 1.86841 0.2227(31) 106796. 0.20731 0.21380
17665.0 1.86947 0.2163(30) 109683. 0.20744 0.21364
17675.0 1.87053 0.2243(31) 105825. 0.20758 0.21351
17685.0 1.87159 0.2212(31) 107251. 0.20771 0.21339
17695.0 1.87265 0.2216(31) 106956. 0.20785 0.21330
17705.0 1.87371 0.2240(31) 105663. 0.20798 0.21322
17715.0 1.87476 0.2254(31) 104810. 0.20811 0.21315
17725.0 1.87582 0.2301(31) 103033. 0.20825 0.21310
17735.0 1.87688 0.2214(31) 106774. 0.20838 0.21306
17745.0 1.87794 0.2327(31) 101480. 0.20851 0.21303
17755.0 1.87900 0.2246(31) 104893. 0.20864 0.21301
17765.0 1.88006 0.2202(31) 106901. 0.20877 0.21300
17775.0 1.88112 0.2257(31) 104323. 0.20890 0.21300
17785.0 1.88218 0.2244(31) 104627. 0.20903 0.21301
17795.0 1.88324 0.2232(31) 104896. 0.20916 0.21302
17805.0 1.88430 0.2273(31) 103099. 0.20929 0.21305
17815.0 1.88536 0.2217(31) 105241. 0.20942 0.21307
17825.0 1.88642 0.2202(31) 105684. 0.20955 0.21310
17835.0 1.88748 0.2219(31) 104736. 0.20968 0.21314
17845.0 1.88854 0.2200(31) 105414. 0.20980 0.21319
17855.0 1.88959 0.2160(31) 106892. 0.20993 0.21325
17865.0 1.89065 0.2194(31) 105290. 0.21006 0.21330
17875.0 1.89171 0.2111(30) 108991. 0.21018 0.21335
17885.0 1.89277 0.2094(30) 109890. 0.21030 0.21341
17895.0 1.89383 0.2075(30) 111015. 0.21043 0.21348
17905.0 1.89489 0.2172(31) 106170. 0.21055 0.21354
17915.0 1.89595 0.2112(30) 108699. 0.21068 0.21361
17925.0 1.89701 0.2040(30) 111840. 0.21080 0.21368
17935.0 1.89807 0.2097(30) 108644. 0.21092 0.21376
17945.0 1.89913 0.2097(30) 108542. 0.21104 0.21383
17955.0 1.90019 0.2130(31) 106776. 0.21116 0.21391
17965.0 1.90125 0.2092(30) 108473. 0.21128 0.21400
17975.0 1.90231 0.2100(30) 108315. 0.21140 0.21408
17985.0 1.90337 0.2157(31) 105217. 0.21152 0.21417
17995.0 1.90443 0.2069(30) 109432. 0.21164 0.21425
18005.0 1.90548 0.2083(30) 108607. 0.21175 0.21434
18015.0 1.90654 0.2028(30) 111127. 0.21187 0.21444
18025.0 1.90760 0.2022(30) 111041. 0.21199 0.21445
18035.0 1.90866 0.2126(31) 105669. 0.21210 0.21454
18045.0 1.90972 0.2066(30) 108035. 0.21222 0.21464
18055.0 1.91078 0.2088(31) 107012. 0.21233 0.21474
18065.0 1.91184 0.2086(31) 106994. 0.21244 0.21485
18075.0 1.91290 0.2027(30) 109841. 0.21256 0.21495
18085.0 1.91396 0.2077(31) 106927. 0.21267 0.21506
18095.0 1.91502 0.2101(31) 105454. 0.21278 0.21516
18105.0 1.91608 0.2096(31) 105116. 0.21289 0.21527
18115.0 1.91714 0.2094(31) 105153. 0.21300 0.21539
18125.0 1.91820 0.2130(31) 102968. 0.21311 0.21550
18135.0 1.91926 0.2100(31) 104170. 0.21322 0.21562
18145.0 1.92032 0.2060(31) 106027. 0.21333 0.21573
18155.0 1.92137 0.2108(31) 103638. 0.21344 0.21585
18165.0 1.92243 0.2079(31) 105004. 0.21354 0.21598
18175.0 1.92349 0.2152(31) 101382. 0.21365 0.21610
18185.0 1.92455 0.2126(31) 102285. 0.21375 0.21623
18195.0 1.92561 0.2101(31) 103084. 0.21386 0.21614
18205.0 1.92667 0.2086(31) 103589. 0.21396 0.21628
18215.0 1.92773 0.2124(31) 101568. 0.21406 0.21642
18225.0 1.92879 0.2110(31) 101848. 0.21417 0.21657
18235.0 1.92985 0.2133(32) 100546. 0.21427 0.21672
18245.0 1.93091 0.2161(32) 99071. 0.21437 0.21688
18255.0 1.93197 0.2088(31) 102131. 0.21447 0.21705
18265.0 1.93303 0.2091(31) 101873. 0.21457 0.21722
18275.0 1.93409 0.2160(32) 98520. 0.21467 0.21741
18285.0 1.93515 0.2111(32) 100362. 0.21476 0.21762
18295.0 1.93621 0.2113(32) 100100. 0.21486 0.21785
18305.0 1.93726 0.2173(32) 97415. 0.21496 0.21809
18315.0 1.93832 0.2090(31) 100837. 0.21505 0.21837
18325.0 1.93938 0.2181(32) 96757. 0.21515 0.21869
18335.0 1.94044 0.2141(32) 98081. 0.21524 0.21905
18345.0 1.94150 0.2163(32) 97030. 0.21533 0.21945
18355.0 1.94256 0.2145(32) 97683. 0.21543 0.21992
18365.0 1.94362 0.2163(32) 96852. 0.21552 0.22044
18375.0 1.94468 0.2171(32) 96181. 0.21561 0.22104
18385.0 1.94574 0.2209(33) 94315. 0.21570 0.22171
18395.0 1.94680 0.2134(32) 97189. 0.21579 0.22245
18405.0 1.94786 0.2174(32) 95207. 0.21588 0.22303
18415.0 1.94892 0.2252(33) 92021. 0.21596 0.22391
18425.0 1.94998 0.2198(33) 94077. 0.21605 0.22486
18435.0 1.95104 0.2205(33) 93671. 0.21614 0.22585
18445.0 1.95210 0.2258(33) 91322. 0.21622 0.22686
18455.0 1.95316 0.2261(33) 91129. 0.21631 0.22787
18465.0 1.95421 0.2322(34) 88660. 0.21639 0.22885
18475.0 1.95527 0.2261(33) 90750. 0.21647 0.22975
18485.0 1.95633 0.2290(33) 89355. 0.21656 0.23054
18495.0 1.95739 0.2279(33) 89445. 0.21664 0.23119
18505.0 1.95845 0.2282(33) 89119. 0.21672 0.23168
18515.0 1.95951 0.2240(33) 90675. 0.21680 0.23202
18525.0 1.96057 0.2295(34) 88437. 0.21688 0.23221
18535.0 1.96163 0.2274(34) 89080. 0.21696 0.23231
18545.0 1.96269 0.2245(33) 89845. 0.21703 0.23236
18555.0 1.96375 0.2265(34) 89081. 0.21711 0.23240
18565.0 1.96481 0.2286(34) 88090. 0.21719 0.23249
18575.0 1.96587 0.2238(33) 89706. 0.21726 0.23268
18585.0 1.96693 0.2221(33) 90236. 0.21733 0.23299
18595.0 1.96799 0.2288(34) 87616. 0.21741 0.23345
18605.0 1.96905 0.2288(34) 87427. 0.21748 0.23408
18615.0 1.97011 0.2277(34) 87609. 0.21755 0.23487
18625.0 1.97116 0.2361(34) 84490. 0.21762 0.23582
18635.0 1.97222 0.2345(34) 84647. 0.21769 0.23691
18645.0 1.97328 0.2362(35) 83740. 0.21776 0.23811
18655.0 1.97434 0.2404(35) 82272. 0.21783 0.23937
18665.0 1.97540 0.2420(35) 81655. 0.21790 0.24064
18675.0 1.97646 0.2418(35) 81627. 0.21797 0.24186
18685.0 1.97752 0.2421(35) 81293. 0.21803 0.24297
18695.0 1.97858 0.242(4) 81052. 0.2181 0.2439
18705.0 1.97964 0.249(4) 79015. 0.2182 0.2447
18715.0 1.98070 0.244(4) 80215. 0.2182 0.2453
18725.0 1.98176 0.244(4) 80427. 0.2183 0.2459
18735.0 1.98282 0.245(4) 79829. 0.2184 0.2462
18745.0 1.98388 0.244(4) 80150. 0.2184 0.2468
18755.0 1.98494 0.246(4) 79206. 0.2185 0.2477
18765.0 1.98600 0.248(4) 78357. 0.2185 0.2489
18775.0 1.98706 0.248(4) 78096. 0.2186 0.2505
18785.0 1.98811 0.247(4) 78259. 0.2187 0.2527
18795.0 1.98917 0.252(4) 76763. 0.2187 0.2556
18805.0 1.99023 0.261(4) 74201. 0.2188 0.2593
18815.0 1.99129 0.264(4) 73307. 0.2188 0.2637
18825.0 1.99235 0.268(4) 72188. 0.2189 0.2691
18835.0 1.99341 0.279(4) 69256. 0.2189 0.2751
18845.0 1.99447 0.286(4) 67790. 0.2190 0.2818
18855.0 1.99553 0.292(4) 66188. 0.2190 0.2892
18865.0 1.99659 0.299(4) 64607. 0.2191 0.2971
18875.0 1.99765 0.316(4) 61205. 0.2191 0.3052
18885.0 1.99871 0.325(4) 59598. 0.2192 0.3132
18895.0 1.99977 0.323(4) 59899. 0.2192 0.3210
18905.0 2.00083 0.340(4) 57044. 0.2193 0.3278
18915.0 2.00189 0.344(4) 56037. 0.2193 0.3334
18925.0 2.00295 0.343(4) 56263. 0.2194 0.3373
18935.0 2.00401 0.346(4) 55686. 0.2194 0.3392
18945.0 2.00506 0.346(4) 55672. 0.2195 0.3391
18955.0 2.00612 0.337(4) 56882. 0.2195 0.3368
18965.0 2.00718 0.337(4) 56719. 0.2196 0.3327
18975.0 2.00824 0.334(4) 57167. 0.2196 0.3269
18985.0 2.00930 0.324(4) 58736. 0.2197 0.3200
18995.0 2.01036 0.320(4) 59377. 0.2197 0.3122
19005.0 2.01142 0.307(4) 61458. 0.2197 0.3040
19015.0 2.01248 0.307(4) 61348. 0.2198 0.2956
19025.0 2.01354 0.295(4) 63755. 0.2198 0.2874
19035.0 2.01460 0.282(4) 66511. 0.2199 0.2795
19045.0 2.01566 0.270(4) 69243. 0.2199 0.2722
19055.0 2.01672 0.268(4) 69788. 0.2199 0.2654
19065.0 2.01778 0.261(4) 71392. 0.2200 0.2593
19075.0 2.01884 0.244(4) 75992. 0.2200 0.2539
19085.0 2.01990 0.248(4) 74764. 0.2201 0.2492
19095.0 2.02096 0.241(4) 76624. 0.2201 0.2451
19105.0 2.02202 0.243(4) 75897. 0.2201 0.2416
19115.0 2.02307 0.236(4) 77422. 0.2202 0.2387
19125.0 2.02413 0.233(4) 78043. 0.2202 0.2363
19135.0 2.02519 0.236(4) 77483. 0.2202 0.2343
19145.0 2.02625 0.229(4) 79704. 0.2203 0.2327
19155.0 2.02731 0.231(4) 78911. 0.2203 0.2314
19165.0 2.02837 0.233(4) 78141. 0.2203 0.2303
19175.0 2.02943 0.229(4) 79169. 0.2204 0.2294
19185.0 2.03049 0.226(4) 80331. 0.2204 0.2287
19195.0 2.03155 0.230(4) 78822. 0.2204 0.2281
19205.0 2.03261 0.224(4) 80347. 0.2204 0.2276
19215.0 2.03367 0.231(4) 78154. 0.2205 0.2273
19225.0 2.03473 0.230(4) 78085. 0.2205 0.2270
19235.0 2.03579 0.222(4) 80655. 0.2205 0.2267
19245.0 2.03685 0.231(4) 77561. 0.2205 0.2265
19255.0 2.03791 0.230(4) 77849. 0.2206 0.2264
19265.0 2.03897 0.227(4) 78640. 0.2206 0.2263
19275.0 2.04003 0.232(4) 77033. 0.2206 0.2263
19285.0 2.04109 0.235(4) 75699. 0.2206 0.2263
19295.0 2.04214 0.230(4) 77123. 0.2207 0.2263
19305.0 2.04320 0.234(4) 75742. 0.2207 0.2265
19315.0 2.04426 0.227(4) 77852. 0.2207 0.2266
19325.0 2.04532 0.228(4) 77560. 0.2207 0.2269
19335.0 2.04638 0.230(4) 76777. 0.2208 0.2272
19345.0 2.04744 0.236(4) 75026. 0.2208 0.2275
19355.0 2.04850 0.234(4) 75749. 0.2208 0.2280
19365.0 2.04956 0.229(4) 77029. 0.2208 0.2285
19375.0 2.05062 0.233(4) 75688. 0.2208 0.2290
19385.0 2.05168 0.240(4) 73402. 0.2209 0.2295
19395.0 2.05274 0.241(4) 72635. 0.2209 0.2301
19405.0 2.05380 0.242(4) 72330. 0.2209 0.2307
19415.0 2.05486 0.240(4) 72825. 0.2209 0.2312
19425.0 2.05592 0.238(4) 73138. 0.2209 0.2318
19435.0 2.05698 0.234(4) 74313. 0.2209 0.2322
19445.0 2.05804 0.237(4) 73087. 0.2210 0.2325
19455.0 2.05910 0.229(4) 75419. 0.2210 0.2327
19465.0 2.06015 0.232(4) 74492. 0.2210 0.2327
19475.0 2.06121 0.235(4) 73594. 0.2210 0.2326
19485.0 2.06227 0.235(4) 73293. 0.2210 0.2323
19495.0 2.06333 0.239(4) 72108. 0.2210 0.2320
19505.0 2.06439 0.230(4) 74742. 0.2210 0.2315
19515.0 2.06545 0.233(4) 73842. 0.2210 0.2309
19525.0 2.06651 0.229(4) 74842. 0.2211 0.2303
19535.0 2.06757 0.227(4) 75300. 0.2211 0.2296
19545.0 2.06863 0.233(4) 73181. 0.2211 0.2290
19555.0 2.06969 0.226(4) 75307. 0.2211 0.2284
19565.0 2.07075 0.223(4) 76157. 0.2211 0.2278
19575.0 2.07181 0.223(4) 75869. 0.2211 0.2272
19585.0 2.07287 0.234(4) 72364. 0.2211 0.2267
19595.0 2.07393 0.224(4) 74985. 0.2211 0.2262
19605.0 2.07499 0.219(4) 76692. 0.2211 0.2258
19615.0 2.07605 0.224(4) 74814. 0.2211 0.2255
19625.0 2.07711 0.225(4) 74327. 0.2212 0.2251
19635.0 2.07817 0.227(4) 73633. 0.2212 0.2250
19645.0 2.07922 0.222(4) 75024. 0.2212 0.2248
19655.0 2.08028 0.224(4) 73800. 0.2212 0.2246
19665.0 2.08134 0.230(4) 72095. 0.2212 0.2245
19675.0 2.08240 0.224(4) 73888. 0.2212 0.2243
19685.0 2.08346 0.223(4) 73575. 0.2212 0.2242
19695.0 2.08452 0.226(4) 72706. 0.2212 0.2242
19705.0 2.08558 0.221(4) 73892. 0.2212 0.2241
19715.0 2.08664 0.227(4) 71969. 0.2212 0.2241
19725.0 2.08770 0.216(4) 75544. 0.2212 0.2240
19735.0 2.08876 0.222(4) 73369. 0.2212 0.2240
19745.0 2.08982 0.224(4) 72389. 0.2212 0.2240
19755.0 2.09088 0.235(4) 69390. 0.2212 0.2240
19765.0 2.09194 0.223(4) 72679. 0.2212 0.2240
19775.0 2.09300 0.222(4) 72774. 0.2212 0.2240
19785.0 2.09406 0.221(4) 72653. 0.2212 0.2240
19795.0 2.09512 0.229(4) 69975. 0.2212 0.2240
19805.0 2.09618 0.218(4) 73210. 0.2212 0.2240
19815.0 2.09724 0.232(4) 68794. 0.2212 0.2240
19825.0 2.09829 0.234(4) 67862. 0.2212 0.2241
19835.0 2.09935 0.221(4) 71636. 0.2212 0.2241
19845.0 2.10041 0.227(4) 69699. 0.2212 0.2241
19855.0 2.10147 0.224(4) 70449. 0.2212 0.2241
19865.0 2.10253 0.219(4) 72138. 0.2212 0.2242
19875.0 2.10359 0.225(4) 70410. 0.2213 0.2242
19885.0 2.10465 0.232(4) 68018. 0.2213 0.2243
19895.0 2.10571 0.228(4) 69116. 0.2213 0.2243
19905.0 2.10677 0.225(4) 69738. 0.2213 0.2244
19915.0 2.10783 0.226(4) 69251. 0.2213 0.2244
19925.0 2.10889 0.229(4) 68331. 0.2213 0.2245
19935.0 2.10995 0.231(4) 67890. 0.2213 0.2245
19945.0 2.11101 0.230(4) 68070. 0.2213 0.2246
19955.0 2.11207 0.226(4) 69061. 0.2213 0.2247
19965.0 2.11313 0.230(4) 67673. 0.2213 0.2248
19975.0 2.11419 0.219(4) 70861. 0.2213 0.2248
19985.0 2.11525 0.220(4) 70692. 0.2213 0.2249
19995.0 2.11631 0.227(4) 68826. 0.2213 0.2250
20005.0 2.11737 0.225(4) 69157. 0.2213 0.2251
20015.0 2.11842 0.225(4) 69226. 0.2213 0.2252
20025.0 2.11948 0.226(4) 68867. 0.2213 0.2254
20035.0 2.12054 0.222(4) 69800. 0.2213 0.2255
20045.0 2.12160 0.232(4) 66855. 0.2213 0.2256
20055.0 2.12266 0.228(4) 67938. 0.2213 0.2257
20065.0 2.12372 0.228(4) 67728. 0.2213 0.2259
20075.0 2.12478 0.233(4) 66421. 0.2213 0.2260
20085.0 2.12584 0.225(4) 68495. 0.2213 0.2262
20095.0 2.12690 0.226(4) 68031. 0.2213 0.2264
20105.0 2.12796 0.230(4) 67170. 0.2213 0.2266
20115.0 2.12902 0.229(4) 67191. 0.2213 0.2268
20125.0 2.13008 0.221(4) 69148. 0.2213 0.2270
20135.0 2.13114 0.225(4) 68024. 0.2213 0.2273
20145.0 2.13220 0.226(4) 67714. 0.2213 0.2275
20155.0 2.13326 0.222(4) 68857. 0.2213 0.2278
20165.0 2.13432 0.226(4) 67532. 0.2213 0.2281
20175.0 2.13538 0.228(4) 66748. 0.2213 0.2285
20185.0 2.13644 0.226(4) 67426. 0.2213 0.2288
20195.0 2.13750 0.228(4) 66804. 0.2213 0.2293
20205.0 2.13856 0.224(4) 68247. 0.2213 0.2298
20215.0 2.13961 0.230(4) 66258. 0.2213 0.2303
20225.0 2.14067 0.231(4) 65776. 0.2213 0.2309
20235.0 2.14173 0.229(4) 66154. 0.2213 0.2317
20245.0 2.14279 0.231(4) 65468. 0.2213 0.2326
20255.0 2.14385 0.235(4) 64291. 0.2213 0.2336
20265.0 2.14491 0.235(4) 64153. 0.2213 0.2348
20275.0 2.14597 0.233(4) 64336. 0.2213 0.2363
20285.0 2.14703 0.242(4) 62146. 0.2213 0.2380
20295.0 2.14809 0.239(4) 62833. 0.2213 0.2401
20305.0 2.14915 0.244(4) 61547. 0.2213 0.2425
20315.0 2.15021 0.248(4) 60241. 0.2213 0.2454
20325.0 2.15127 0.240(4) 62068. 0.2213 0.2489
20335.0 2.15233 0.250(4) 59724. 0.2213 0.2528
20345.0 2.15339 0.255(4) 58527. 0.2213 0.2575
20355.0 2.15445 0.259(4) 57509. 0.2213 0.2627
20365.0 2.15551 0.262(4) 56652. 0.2213 0.2687
20375.0 2.15657 0.276(4) 53650. 0.2213 0.2754
20385.0 2.15763 0.290(4) 51245. 0.2213 0.2829
20395.0 2.15869 0.296(4) 50204. 0.2213 0.2910
20405.0 2.15974 0.304(5) 48733. 0.2213 0.2997
20415.0 2.16080 0.318(5) 46733. 0.2213 0.3090
20425.0 2.16186 0.317(5) 46646. 0.2213 0.3186
20435.0 2.16292 0.339(5) 43564. 0.2213 0.3285
20445.0 2.16398 0.343(5) 43051. 0.2213 0.3383
20455.0 2.16504 0.352(5) 41817. 0.2213 0.3479
20465.0 2.16610 0.362(5) 40525. 0.2213 0.3568
20475.0 2.16716 0.379(5) 38696. 0.2213 0.3647
20485.0 2.16822 0.376(5) 38990. 0.2213 0.3714
20495.0 2.16928 0.386(5) 37892. 0.2213 0.3763
20505.0 2.17034 0.386(5) 37898. 0.2213 0.3797
20515.0 2.17140 0.384(5) 38032. 0.2214 0.3812
20525.0 2.17246 0.386(5) 37771. 0.2214 0.3810
20535.0 2.17352 0.376(5) 38609. 0.2214 0.3792
20545.0 2.17458 0.376(5) 38462. 0.2214 0.3760
20555.0 2.17564 0.376(5) 38403. 0.2214 0.3717
20565.0 2.17670 0.370(5) 38937. 0.2214 0.3668
20575.0 2.17776 0.358(5) 40070. 0.2214 0.3614
20585.0 2.17882 0.365(5) 39202. 0.2214 0.3558
20595.0 2.17988 0.350(5) 40861. 0.2214 0.3503
20605.0 2.18094 0.341(5) 41662. 0.2214 0.3450
20615.0 2.18199 0.344(5) 41314. 0.2214 0.3400
20625.0 2.18305 0.340(5) 41694. 0.2215 0.3354
20635.0 2.18411 0.330(5) 42836. 0.2215 0.3311
20645.0 2.18517 0.330(5) 42780. 0.2215 0.3271
20655.0 2.18623 0.317(5) 44410. 0.2215 0.3232
20665.0 2.18729 0.314(5) 44649. 0.2215 0.3193
20675.0 2.18835 0.305(5) 45791. 0.2215 0.3154
20685.0 2.18941 0.313(5) 44722. 0.2215 0.3113
20695.0 2.19047 0.306(5) 45576. 0.2215 0.3070
20705.0 2.19153 0.301(5) 46257. 0.2216 0.3024
20715.0 2.19259 0.297(5) 46773. 0.2216 0.2977
20725.0 2.19365 0.293(5) 47380. 0.2216 0.2927
20735.0 2.19471 0.285(5) 48497. 0.2216 0.2877
20745.0 2.19577 0.281(5) 49141. 0.2216 0.2827
20755.0 2.19683 0.278(4) 49708. 0.2216 0.2777
20765.0 2.19789 0.275(4) 50077. 0.2216 0.2729
20775.0 2.19895 0.263(4) 52207. 0.2217 0.2683
20785.0 2.20001 0.265(4) 51641. 0.2217 0.2639
20795.0 2.20107 0.259(4) 52555. 0.2217 0.2598
20805.0 2.20213 0.254(4) 53476. 0.2217 0.2560
20815.0 2.20319 0.250(4) 54219. 0.2217 0.2525
20825.0 2.20424 0.259(4) 52105. 0.2218 0.2493
20835.0 2.20530 0.246(4) 54662. 0.2218 0.2465
20845.0 2.20636 0.245(4) 54694. 0.2218 0.2440
20855.0 2.20742 0.242(4) 55409. 0.2218 0.2418
20865.0 2.20848 0.238(4) 56119. 0.2218 0.2398
20875.0 2.20954 0.238(4) 55797. 0.2219 0.2382
20885.0 2.21060 0.241(4) 55227. 0.2219 0.2367
20895.0 2.21166 0.241(4) 54955. 0.2219 0.2355
20905.0 2.21272 0.237(4) 55711. 0.2219 0.2345
20915.0 2.21378 0.232(4) 56925. 0.2219 0.2336
20925.0 2.21484 0.232(4) 56731. 0.2220 0.2329
20935.0 2.21590 0.228(4) 57731. 0.2220 0.2323
20945.0 2.21696 0.232(4) 56710. 0.2220 0.2318
20955.0 2.21802 0.235(4) 56056. 0.2220 0.2314
20965.0 2.21908 0.229(4) 57252. 0.2221 0.2310
20975.0 2.22014 0.231(4) 56562. 0.2221 0.2307
20985.0 2.22120 0.235(4) 55548. 0.2221 0.2305
20995.0 2.22226 0.225(4) 57428. 0.2222 0.2303
21005.0 2.22332 0.228(4) 56781. 0.2222 0.2302
21015.0 2.22438 0.225(4) 57375. 0.2222 0.2301
21025.0 2.22544 0.229(4) 56460. 0.2222 0.2300
21035.0 2.22650 0.231(4) 56215. 0.2223 0.2300
21045.0 2.22755 0.224(4) 57491. 0.2223 0.2300
21055.0 2.22861 0.230(4) 56090. 0.2223 0.2300
21065.0 2.22967 0.228(4) 56380. 0.2224 0.2300
21075.0 2.23073 0.233(4) 55131. 0.2224 0.2301
21085.0 2.23179 0.231(4) 55404. 0.2224 0.2302
21095.0 2.23285 0.230(4) 55528. 0.2225 0.2304
21105.0 2.23391 0.230(4) 55234. 0.2225 0.2306
21115.0 2.23497 0.228(4) 55526. 0.2225 0.2308
21125.0 2.23603 0.225(4) 56036. 0.2226 0.2312
21135.0 2.23709 0.232(4) 54447. 0.2226 0.2315
21145.0 2.23815 0.225(4) 55994. 0.2226 0.2320
21155.0 2.23921 0.231(4) 54649. 0.2227 0.2326
21165.0 2.24027 0.225(4) 55802. 0.2227 0.2333
21175.0 2.24133 0.235(4) 53443. 0.2227 0.2342
21185.0 2.24239 0.230(4) 54628. 0.2228 0.2352
21195.0 2.24345 0.235(4) 53386. 0.2228 0.2364
21205.0 2.24451 0.234(4) 53330. 0.2229 0.2379
21215.0 2.24557 0.224(4) 55561. 0.2229 0.2396
21225.0 2.24663 0.241(4) 51653. 0.2229 0.2416
21235.0 2.24769 0.242(4) 51132. 0.2230 0.2439
21245.0 2.24875 0.248(4) 49978. 0.2230 0.2467
21255.0 2.24981 0.245(4) 50130. 0.2231 0.2498
21265.0 2.25086 0.244(4) 50109. 0.2231 0.2533
21275.0 2.25192 0.256(5) 47852. 0.2231 0.2572
21285.0 2.25298 0.255(5) 47839. 0.2232 0.2615
21295.0 2.25404 0.260(5) 46922. 0.2232 0.2663
21305.0 2.25510 0.275(5) 44225. 0.2233 0.2713
21315.0 2.25616 0.281(5) 43284. 0.2233 0.2768
21325.0 2.25722 0.285(5) 42607. 0.2234 0.2824
21335.0 2.25828 0.298(5) 40633. 0.2234 0.2882
21345.0 2.25934 0.293(5) 41278. 0.2235 0.2941
21355.0 2.26040 0.299(5) 40358. 0.2235 0.2999
21365.0 2.26146 0.307(5) 39401. 0.2236 0.3054
21375.0 2.26252 0.310(5) 38848. 0.2236 0.3104
21385.0 2.26358 0.312(5) 38449. 0.2237 0.3149
21395.0 2.26464 0.320(5) 37486. 0.2237 0.3184
21405.0 2.26570 0.324(5) 37020. 0.2238 0.3210
21415.0 2.26676 0.317(5) 37609. 0.2238 0.3225
21425.0 2.26782 0.322(5) 36791. 0.2239 0.3227
21435.0 2.26888 0.333(5) 35497. 0.2239 0.3217
21445.0 2.26994 0.326(5) 36200. 0.2240 0.3197
21455.0 2.27100 0.328(5) 36009. 0.2240 0.3166
21465.0 2.27206 0.317(5) 36974. 0.2241 0.3126
21475.0 2.27312 0.312(5) 37468. 0.2241 0.3080
21485.0 2.27418 0.303(5) 38501. 0.2242 0.3029
21495.0 2.27524 0.302(5) 38426. 0.2242 0.2975
21505.0 2.27629 0.295(5) 39276. 0.2243 0.2919
21515.0 2.27735 0.290(5) 39756. 0.2244 0.2863
21525.0 2.27841 0.273(5) 41854. 0.2244 0.2808
21535.0 2.27947 0.263(5) 43198. 0.2245 0.2755
21545.0 2.28053 0.274(5) 41392. 0.2245 0.2705
21555.0 2.28159 0.267(5) 42339. 0.2246 0.2658
21565.0 2.28265 0.262(5) 42866. 0.2246 0.2615
21575.0 2.28371 0.258(5) 43482. 0.2247 0.2576
21585.0 2.28477 0.250(5) 44632. 0.2248 0.2540
21595.0 2.28583 0.251(5) 44320. 0.2248 0.2510
21605.0 2.28689 0.250(5) 44513. 0.2249 0.2483
21615.0 2.28795 0.242(5) 45658. 0.2249 0.2460
21625.0 2.28901 0.251(5) 44007. 0.2250 0.2440
21635.0 2.29007 0.245(5) 44766. 0.2251 0.2424
21645.0 2.29113 0.246(5) 44176. 0.2251 0.2412
21655.0 2.29219 0.252(5) 43119. 0.2252 0.2402
21665.0 2.29325 0.240(5) 45142. 0.2253 0.2395
21675.0 2.29431 0.238(5) 45329. 0.2253 0.2391
21685.0 2.29537 0.242(5) 44710. 0.2254 0.2389
21695.0 2.29643 0.239(5) 45453. 0.2255 0.2389
21705.0 2.29749 0.239(5) 45379. 0.2255 0.2391
21715.0 2.29855 0.240(5) 45157. 0.2256 0.2396
21725.0 2.29961 0.246(5) 43916. 0.2257 0.2402
21735.0 2.30067 0.235(5) 45807. 0.2257 0.2410
21745.0 2.30173 0.253(5) 42660. 0.2258 0.2419
21755.0 2.30278 0.251(5) 42877. 0.2259 0.2430
21765.0 2.30384 0.241(5) 44358. 0.2259 0.2442
21775.0 2.30490 0.249(5) 43044. 0.2260 0.2455
21785.0 2.30596 0.246(5) 43428. 0.2261 0.2469
21795.0 2.30702 0.250(5) 42670. 0.2261 0.2484
21805.0 2.30808 0.244(5) 43723. 0.2262 0.2499
21815.0 2.30914 0.250(5) 42680. 0.2263 0.2514
21825.0 2.31020 0.256(5) 41720. 0.2264 0.2528
21835.0 2.31126 0.243(5) 43904. 0.2264 0.2541
21845.0 2.31232 0.253(5) 42153. 0.2265 0.2553
21855.0 2.31338 0.260(5) 40999. 0.2266 0.2564
21865.0 2.31444 0.254(5) 41729. 0.2266 0.2572
21875.0 2.31550 0.252(5) 41904. 0.2267 0.2577
21885.0 2.31656 0.253(5) 41638. 0.2268 0.2580
21895.0 2.31762 0.254(5) 41404. 0.2269 0.2580
21905.0 2.31868 0.255(5) 41327. 0.2269 0.2578
21915.0 2.31974 0.252(5) 41572. 0.2270 0.2574
21925.0 2.32080 0.252(5) 41587. 0.2271 0.2567
21935.0 2.32186 0.254(5) 41331. 0.2272 0.2559
21945.0 2.32292 0.255(5) 40881. 0.2273 0.2549
21955.0 2.32398 0.248(5) 41962. 0.2273 0.2538
21965.0 2.32504 0.248(5) 41672. 0.2274 0.2526
21975.0 2.32610 0.250(5) 41367. 0.2275 0.2514
21985.0 2.32716 0.241(5) 42674. 0.2276 0.2501
21995.0 2.32822 0.246(5) 41731. 0.2276 0.2488
22005.0 2.32928 0.248(5) 41232. 0.2277 0.2474
22015.0 2.33033 0.247(5) 41203. 0.2278 0.2461
22025.0 2.33139 0.241(5) 42170. 0.2279 0.2448
22035.0 2.33245 0.238(5) 42478. 0.2280 0.2436
22045.0 2.33351 0.237(5) 42473. 0.2280 0.2424
22055.0 2.33457 0.245(5) 41164. 0.2281 0.2413
22065.0 2.33563 0.242(5) 41659. 0.2282 0.2402
22075.0 2.33669 0.227(5) 44116. 0.2283 0.2392
22085.0 2.33775 0.234(5) 42873. 0.2284 0.2383
22095.0 2.33881 0.240(5) 41674. 0.2285 0.2375
22105.0 2.33987 0.240(5) 41615. 0.2285 0.2368
22115.0 2.34093 0.243(5) 41021. 0.2286 0.2361
22125.0 2.34199 0.234(5) 42318. 0.2287 0.2356
22135.0 2.34305 0.237(5) 41840. 0.2288 0.2350
22145.0 2.34411 0.232(5) 42624. 0.2289 0.2345
22155.0 2.34517 0.227(5) 43292. 0.2290 0.2341
22165.0 2.34623 0.232(5) 42204. 0.2290 0.2336
22175.0 2.34729 0.235(5) 41618. 0.2291 0.2334
22185.0 2.34835 0.234(5) 41459. 0.2292 0.2331
22195.0 2.34941 0.230(5) 42131. 0.2293 0.2329
22205.0 2.35047 0.237(5) 40872. 0.2294 0.2328
22215.0 2.35153 0.232(5) 41496. 0.2295 0.2326
22225.0 2.35259 0.232(5) 41457. 0.2295 0.2325
22235.0 2.35365 0.232(5) 41130. 0.2296 0.2325
22245.0 2.35471 0.232(5) 40989. 0.2297 0.2324
22255.0 2.35577 0.225(5) 42043. 0.2298 0.2324
22265.0 2.35683 0.235(5) 40336. 0.2299 0.2324
22275.0 2.35789 0.225(5) 41964. 0.2300 0.2323
22285.0 2.35894 0.236(5) 40171. 0.2301 0.2323
22295.0 2.36000 0.232(5) 40545. 0.2302 0.2323
22305.0 2.36106 0.227(5) 41225. 0.2302 0.2324
22315.0 2.36212 0.225(5) 41365. 0.2303 0.2324
22325.0 2.36318 0.229(5) 40669. 0.2304 0.2324
22335.0 2.36424 0.231(5) 40264. 0.2305 0.2325
22345.0 2.36530 0.228(5) 40930. 0.2306 0.2325
22355.0 2.36636 0.227(5) 41040. 0.2307 0.2325
22365.0 2.36742 0.230(5) 40490. 0.2308 0.2326
22375.0 2.36848 0.233(5) 39869. 0.2309 0.2326
22385.0 2.36954 0.230(5) 40069. 0.2309 0.2327
22395.0 2.37060 0.226(5) 40589. 0.2310 0.2328
22405.0 2.37166 0.237(5) 38813. 0.2311 0.2328
22415.0 2.37272 0.224(5) 40735. 0.2312 0.2329
22425.0 2.37378 0.231(5) 39437. 0.2313 0.2329
22435.0 2.37484 0.238(5) 38078. 0.2314 0.2329
22445.0 2.37590 0.238(5) 37883. 0.2315 0.2330
22455.0 2.37696 0.235(5) 38227. 0.2316 0.2331
22465.0 2.37802 0.228(5) 39337. 0.2317 0.2332
22475.0 2.37908 0.231(5) 38668. 0.2317 0.2332
22485.0 2.38014 0.240(5) 37332. 0.2318 0.2333
22495.0 2.38120 0.224(5) 39651. 0.2319 0.2334
22505.0 2.38226 0.237(5) 37576. 0.2320 0.2335
22515.0 2.38332 0.233(5) 38272. 0.2321 0.2335
22525.0 2.38438 0.235(5) 37734. 0.2322 0.2336
22535.0 2.38544 0.231(5) 38321. 0.2323 0.2337
22545.0 2.38650 0.241(5) 36772. 0.2324 0.2338
22555.0 2.38756 0.236(5) 37396. 0.2325 0.2339
22565.0 2.38862 0.225(5) 39048. 0.2326 0.2340
22575.0 2.38967 0.229(5) 38283. 0.2326 0.2341
22585.0 2.39073 0.234(5) 37420. 0.2327 0.2342
22595.0 2.39179 0.227(5) 38292. 0.2328 0.2343
22605.0 2.39285 0.234(5) 37227. 0.2329 0.2344
22615.0 2.39391 0.230(5) 37618. 0.2330 0.2345
22625.0 2.39497 0.241(5) 35983. 0.2331 0.2346
22635.0 2.39603 0.236(5) 36552. 0.2332 0.2347
22645.0 2.39709 0.240(5) 35998. 0.2333 0.2348
22655.0 2.39815 0.225(5) 38177. 0.2334 0.2349
22665.0 2.39921 0.227(5) 37885. 0.2334 0.2350
22675.0 2.40027 0.240(5) 35742. 0.2335 0.2351
22685.0 2.40133 0.231(5) 36957. 0.2336 0.2352
22695.0 2.40239 0.236(5) 36192. 0.2337 0.2353
22705.0 2.40345 0.236(5) 36030. 0.2338 0.2354
22715.0 2.40451 0.235(5) 36127. 0.2339 0.2356
22725.0 2.40557 0.232(5) 36530. 0.2340 0.2357
22735.0 2.40663 0.238(5) 35357. 0.2341 0.2358
22745.0 2.40769 0.238(5) 35396. 0.2342 0.2359
22755.0 2.40875 0.236(5) 35717. 0.2342 0.2360
22765.0 2.40981 0.236(5) 35535. 0.2343 0.2362
22775.0 2.41087 0.239(5) 35132. 0.2344 0.2363
22785.0 2.41193 0.234(5) 35891. 0.2345 0.2365
22795.0 2.41299 0.234(5) 36029. 0.2346 0.2366
22805.0 2.41405 0.240(5) 35158. 0.2347 0.2368
22815.0 2.41511 0.242(5) 34668. 0.2348 0.2369
22825.0 2.41617 0.234(5) 35682. 0.2349 0.2371
22835.0 2.41723 0.249(5) 33730. 0.2350 0.2372
22845.0 2.41829 0.235(5) 35420. 0.2350 0.2374
22855.0 2.41935 0.237(5) 35039. 0.2351 0.2376
22865.0 2.42041 0.242(5) 34233. 0.2352 0.2378
22875.0 2.42147 0.243(5) 34183. 0.2353 0.2380
22885.0 2.42252 0.234(5) 35407. 0.2354 0.2383
22895.0 2.42358 0.235(5) 35264. 0.2355 0.2386
22905.0 2.42464 0.246(5) 33762. 0.2356 0.2389
22915.0 2.42570 0.241(5) 34393. 0.2356 0.2392
22925.0 2.42676 0.242(5) 34201. 0.2357 0.2396
22935.0 2.42782 0.256(6) 32354. 0.2358 0.2400
22945.0 2.42888 0.242(5) 33951. 0.2359 0.2405
22955.0 2.42994 0.243(5) 33772. 0.2360 0.2410
22965.0 2.43100 0.238(5) 34277. 0.2361 0.2416
22975.0 2.43206 0.241(5) 33732. 0.2362 0.2423
22985.0 2.43312 0.242(5) 33665. 0.2362 0.2431
22995.0 2.43418 0.236(5) 34384. 0.2363 0.2440
23005.0 2.43524 0.255(6) 31958. 0.2364 0.2451
23015.0 2.43630 0.247(6) 32847. 0.2365 0.2462
23025.0 2.43736 0.260(6) 31208. 0.2366 0.2475
23035.0 2.43842 0.234(5) 34339. 0.2367 0.2490
23045.0 2.43948 0.258(6) 31305. 0.2367 0.2506
23055.0 2.44054 0.255(6) 31543. 0.2368 0.2523
23065.0 2.44160 0.261(6) 30675. 0.2369 0.2542
23075.0 2.44266 0.261(6) 30633. 0.2370 0.2563
23085.0 2.44372 0.261(6) 30622. 0.2371 0.2585
23095.0 2.44478 0.252(6) 31517. 0.2372 0.2609
23105.0 2.44584 0.268(6) 29729. 0.2372 0.2633
23115.0 2.44690 0.271(6) 29402. 0.2373 0.2659
23125.0 2.44796 0.273(6) 29125. 0.2374 0.2685
23135.0 2.44902 0.272(6) 29161. 0.2375 0.2711
23145.0 2.45008 0.271(6) 29166. 0.2376 0.2736
23155.0 2.45114 0.276(6) 28563. 0.2376 0.2760
23165.0 2.45220 0.284(6) 27677. 0.2377 0.2783
23175.0 2.45326 0.283(6) 27866. 0.2378 0.2804
23185.0 2.45432 0.284(6) 27687. 0.2379 0.2822
23195.0 2.45538 0.271(6) 28972. 0.2380 0.2837
23205.0 2.45643 0.283(6) 27799. 0.2380 0.2848
23215.0 2.45749 0.277(6) 28219. 0.2381 0.2854
23225.0 2.45855 0.276(6) 28218. 0.2382 0.2856
23235.0 2.45961 0.273(6) 28588. 0.2383 0.2853
23245.0 2.46067 0.269(6) 28925. 0.2383 0.2846
23255.0 2.46173 0.275(6) 28254. 0.2384 0.2835
23265.0 2.46279 0.267(6) 28942. 0.2385 0.2821
23275.0 2.46385 0.267(6) 28877. 0.2386 0.2803
23285.0 2.46491 0.274(6) 28118. 0.2386 0.2783
23295.0 2.46597 0.262(6) 29303. 0.2387 0.2762
23305.0 2.46703 0.265(6) 28738. 0.2388 0.2739
23315.0 2.46809 0.274(6) 27822. 0.2389 0.2715
23325.0 2.46915 0.279(6) 27338. 0.2389 0.2691
23335.0 2.47021 0.255(6) 29666. 0.2390 0.2668
23345.0 2.47127 0.263(6) 28788. 0.2391 0.2645
23355.0 2.47233 0.264(6) 28596. 0.2392 0.2623
23365.0 2.47339 0.269(6) 27974. 0.2392 0.2602
23375.0 2.47445 0.260(6) 28823. 0.2393 0.2582
23385.0 2.47551 0.260(6) 28730. 0.2394 0.2563
23395.0 2.47657 0.267(6) 28044. 0.2394 0.2546
23405.0 2.47763 0.255(6) 29227. 0.2395 0.2531
23415.0 2.47869 0.260(6) 28678. 0.2396 0.2517
23425.0 2.47975 0.239(6) 30960. 0.2397 0.2504
23435.0 2.48081 0.252(6) 29476. 0.2397 0.2493
23445.0 2.48187 0.252(6) 29479. 0.2398 0.2484
23455.0 2.48293 0.259(6) 28650. 0.2399 0.2475
23465.0 2.48399 0.249(6) 29746. 0.2399 0.2468
23475.0 2.48505 0.252(6) 29491. 0.2400 0.2461
23485.0 2.48611 0.262(6) 28456. 0.2401 0.2456
23495.0 2.48717 0.254(6) 29087. 0.2401 0.2451
23505.0 2.48823 0.251(6) 29322. 0.2402 0.2447
23515.0 2.48929 0.245(6) 29950. 0.2403 0.2444
23525.0 2.49035 0.253(6) 28950. 0.2403 0.2442
23535.0 2.49141 0.253(6) 28978. 0.2404 0.2439
23545.0 2.49247 0.249(6) 29406. 0.2405 0.2438
23555.0 2.49353 0.248(6) 29334. 0.2405 0.2436
23565.0 2.49459 0.259(6) 28044. 0.2406 0.2435
23575.0 2.49564 0.249(6) 29024. 0.2407 0.2434
23585.0 2.49670 0.249(6) 28793. 0.2407 0.2434
23595.0 2.49776 0.243(6) 29380. 0.2408 0.2434
23605.0 2.49882 0.266(6) 26862. 0.2408 0.2433
23615.0 2.49988 0.247(6) 28975. 0.2409 0.2433
23625.0 2.50094 0.247(6) 28780. 0.2410 0.2434
23635.0 2.50200 0.256(6) 27762. 0.2410 0.2434
23645.0 2.50306 0.254(6) 27882. 0.2411 0.2434
23655.0 2.50412 0.247(6) 28696. 0.2412 0.2435
23665.0 2.50518 0.261(6) 27306. 0.2412 0.2435
23675.0 2.50624 0.249(6) 28481. 0.2413 0.2436
23685.0 2.50730 0.249(6) 28559. 0.2413 0.2436
23695.0 2.50836 0.261(6) 27142. 0.2414 0.2437
23705.0 2.50942 0.257(6) 27492. 0.2415 0.2438
23715.0 2.51048 0.255(6) 27667. 0.2415 0.2438
23725.0 2.51154 0.253(6) 27753. 0.2416 0.2439
23735.0 2.51260 0.251(6) 27936. 0.2416 0.2440
23745.0 2.51366 0.258(6) 27300. 0.2417 0.2440
23755.0 2.51472 0.259(6) 27089. 0.2417 0.2441
23765.0 2.51578 0.260(6) 27028. 0.2418 0.2442
23775.0 2.51684 0.253(6) 27700. 0.2419 0.2442
23785.0 2.51790 0.257(6) 27168. 0.2419 0.2443
23795.0 2.51896 0.251(6) 27728. 0.2420 0.2443
23805.0 2.52002 0.263(6) 26575. 0.2420 0.2443
23815.0 2.52108 0.250(6) 27886. 0.2421 0.2443
23825.0 2.52214 0.251(6) 27825. 0.2421 0.2443
23835.0 2.52320 0.249(6) 27986. 0.2422 0.2443
23845.0 2.52426 0.249(6) 27914. 0.2422 0.2443
23855.0 2.52532 0.251(6) 27779. 0.2423 0.2443
23865.0 2.52638 0.247(6) 28230. 0.2423 0.2443
23875.0 2.52744 0.264(6) 26561. 0.2424 0.2443
23885.0 2.52850 0.243(6) 28669. 0.2424 0.2443
23895.0 2.52956 0.250(6) 27899. 0.2425 0.2443
23905.0 2.53062 0.241(6) 28779. 0.2425 0.2443
23915.0 2.53168 0.238(6) 29019. 0.2426 0.2443
23925.0 2.53274 0.246(6) 28199. 0.2426 0.2443
23935.0 2.53380 0.248(6) 28105. 0.2427 0.2443
23945.0 2.53486 0.246(6) 28272. 0.2427 0.2443
23955.0 2.53592 0.243(6) 28426. 0.2428 0.2443
23965.0 2.53698 0.249(6) 27754. 0.2428 0.2443
23975.0 2.53803 0.246(6) 28163. 0.2429 0.2443
23985.0 2.53909 0.248(6) 27882. 0.2429 0.2443
23995.0 2.54015 0.243(6) 28327. 0.2430 0.2444
24005.0 2.54121 0.237(6) 28905. 0.2430 0.2444
24015.0 2.54227 0.250(6) 27555. 0.2431 0.2444
24025.0 2.54333 0.234(6) 29299. 0.2431 0.2445
24035.0 2.54439 0.241(6) 28368. 0.2432 0.2445
24045.0 2.54545 0.241(6) 28313. 0.2432 0.2446
24055.0 2.54651 0.251(6) 27193. 0.2433 0.2447
24065.0 2.54757 0.243(6) 28043. 0.2433 0.2447
24075.0 2.54863 0.243(6) 28164. 0.2434 0.2448
24085.0 2.54969 0.247(6) 27737. 0.2434 0.2449
24095.0 2.55075 0.239(6) 28687. 0.2435 0.2450
24105.0 2.55181 0.242(6) 28285. 0.2435 0.2451
24115.0 2.55287 0.244(6) 28016. 0.2435 0.2452
24125.0 2.55393 0.237(6) 28779. 0.2436 0.2453
24135.0 2.55499 0.244(6) 28055. 0.2436 0.2455
24145.0 2.55605 0.242(6) 28220. 0.2437 0.2457
24155.0 2.55711 0.237(6) 28761. 0.2437 0.2459
24165.0 2.55817 0.241(6) 28364. 0.2438 0.2461
24175.0 2.55923 0.251(6) 27305. 0.2438 0.2463
24185.0 2.56029 0.244(6) 27966. 0.2438 0.2466
24195.0 2.56135 0.247(6) 27572. 0.2439 0.2469
24205.0 2.56241 0.247(6) 27587. 0.2439 0.2472
24215.0 2.56347 0.248(6) 27544. 0.2440 0.2476
24225.0 2.56453 0.249(6) 27432. 0.2440 0.2481
24235.0 2.56559 0.229(6) 29515. 0.2441 0.2485
24245.0 2.56665 0.245(6) 27663. 0.2441 0.2491
24255.0 2.56771 0.241(6) 28119. 0.2441 0.2497
24265.0 2.56877 0.246(6) 27502. 0.2442 0.2503
24275.0 2.56983 0.243(6) 27827. 0.2442 0.2510
24285.0 2.57089 0.244(6) 27586. 0.2443 0.2517
24295.0 2.57195 0.243(6) 27701. 0.2443 0.2525
24305.0 2.57301 0.250(6) 26915. 0.2443 0.2534
24315.0 2.57407 0.249(6) 26983. 0.2444 0.2544
24325.0 2.57513 0.252(6) 26604. 0.2444 0.2553
24335.0 2.57619 0.255(6) 26308. 0.2445 0.2562
24345.0 2.57725 0.253(6) 26580. 0.2445 0.2572
24355.0 2.57831 0.245(6) 27352. 0.2446 0.2582
24365.0 2.57937 0.255(6) 26453. 0.2446 0.2592
24375.0 2.58043 0.248(6) 27055. 0.2446 0.2601
24385.0 2.58149 0.249(6) 27072. 0.2447 0.2610
24395.0 2.58255 0.268(6) 25209. 0.2447 0.2619
24405.0 2.58361 0.247(6) 27236. 0.2448 0.2626
24415.0 2.58467 0.250(6) 26930. 0.2448 0.2633
24425.0 2.58573 0.250(6) 26823. 0.2448 0.2638
24435.0 2.58678 0.253(6) 26607. 0.2449 0.2642
24445.0 2.58784 0.253(6) 26422. 0.2449 0.2645
24455.0 2.58890 0.253(6) 26386. 0.2450 0.2646
24465.0 2.58996 0.261(6) 25579. 0.2450 0.2646
24475.0 2.59102 0.260(6) 25744. 0.2450 0.2644
24485.0 2.59208 0.259(6) 25833. 0.2451 0.2641
24495.0 2.59314 0.254(6) 26325. 0.2451 0.2637
24505.0 2.59420 0.256(6) 26037. 0.2452 0.2632
24515.0 2.59526 0.246(6) 27026. 0.2452 0.2626
24525.0 2.59632 0.246(6) 26931. 0.2452 0.2619
24535.0 2.59738 0.258(6) 25694. 0.2453 0.2612
24545.0 2.59844 0.266(6) 25023. 0.2453 0.2605
24555.0 2.59950 0.259(6) 25538. 0.2454 0.2597
24565.0 2.60056 0.261(6) 25370. 0.2454 0.2590
24575.0 2.60162 0.260(6) 25469. 0.2454 0.2582
24585.0 2.60268 0.251(6) 26285. 0.2455 0.2575
24595.0 2.60374 0.249(6) 26368. 0.2455 0.2567
24605.0 2.60480 0.254(6) 25750. 0.2456 0.2560
24615.0 2.60586 0.239(6) 27218. 0.2456 0.2553
24625.0 2.60692 0.254(6) 25604. 0.2456 0.2547
24635.0 2.60798 0.254(6) 25543. 0.2457 0.2541
24645.0 2.60904 0.258(6) 25073. 0.2457 0.2535
24655.0 2.61010 0.253(6) 25506. 0.2458 0.2529
24665.0 2.61116 0.238(6) 26943. 0.2458 0.2524
24675.0 2.61222 0.243(6) 26390. 0.2458 0.2519
24685.0 2.61328 0.261(6) 24439. 0.2459 0.2515
24695.0 2.61434 0.261(6) 24351. 0.2459 0.2511
24705.0 2.61540 0.255(6) 24882. 0.2460 0.2507
24715.0 2.61646 0.250(6) 25179. 0.2460 0.2504
24725.0 2.61752 0.258(6) 24573. 0.2461 0.2501
24735.0 2.61858 0.255(6) 24698. 0.2461 0.2498
24745.0 2.61964 0.259(6) 24227. 0.2461 0.2495
24755.0 2.62070 0.255(6) 24572. 0.2462 0.2493
24765.0 2.62176 0.256(6) 24300. 0.2462 0.2491
24775.0 2.62282 0.249(6) 24957. 0.2463 0.2489
24785.0 2.62388 0.252(6) 24665. 0.2463 0.2488
24795.0 2.62494 0.250(6) 24914. 0.2464 0.2486
24805.0 2.62600 0.254(6) 24450. 0.2464 0.2485
24815.0 2.62706 0.253(6) 24587. 0.2465 0.2484
24825.0 2.62812 0.260(6) 23916. 0.2465 0.2483
24835.0 2.62918 0.258(6) 24145. 0.2465 0.2482
24845.0 2.63024 0.257(6) 24178. 0.2466 0.2482
24855.0 2.63130 0.243(6) 25563. 0.2466 0.2481
24865.0 2.63236 0.251(6) 24834. 0.2467 0.2481
24875.0 2.63342 0.246(6) 25193. 0.2467 0.2480
24885.0 2.63448 0.249(6) 24950. 0.2468 0.2480
24895.0 2.63554 0.250(6) 24830. 0.2468 0.2480
24905.0 2.63660 0.255(6) 24358. 0.2469 0.2480
24915.0 2.63766 0.255(6) 24266. 0.2469 0.2480
24925.0 2.63872 0.244(6) 25261. 0.2470 0.2480
24935.0 2.63978 0.250(6) 24805. 0.2470 0.2480
24945.0 2.64084 0.251(6) 24691. 0.2471 0.2480
24955.0 2.64190 0.259(6) 24060. 0.2471 0.2480
24965.0 2.64296 0.250(6) 24854. 0.2472 0.2481
24975.0 2.64402 0.256(6) 24150. 0.2472 0.2481
24985.0 2.64508 0.244(6) 25394. 0.2473 0.2481
24995.0 2.64613 0.238(6) 25953. 0.2473 0.2481
25005.0 2.64719 0.253(6) 24482. 0.2474 0.2482
25015.0 2.64825 0.243(6) 25586. 0.2475 0.2482
25025.0 2.64931 0.236(6) 26176. 0.2475 0.2482
25035.0 2.65037 0.236(6) 26205. 0.2476 0.2483
25045.0 2.65143 0.251(6) 24796. 0.2476 0.2483
25055.0 2.65249 0.248(6) 24970. 0.2477 0.2484
25065.0 2.65355 0.246(6) 25062. 0.2477 0.2484
25075.0 2.65461 0.240(6) 25766. 0.2478 0.2484
25085.0 2.65567 0.253(6) 24464. 0.2479 0.2485
25095.0 2.65673 0.251(6) 24480. 0.2479 0.2485
25105.0 2.65779 0.255(6) 24050. 0.2480 0.2486
25115.0 2.65885 0.255(6) 23992. 0.2480 0.2486
25125.0 2.65991 0.250(6) 24399. 0.2481 0.2487
25135.0 2.66097 0.246(6) 24709. 0.2482 0.2487
25145.0 2.66203 0.255(6) 23822. 0.2482 0.2488
25155.0 2.66309 0.249(6) 24197. 0.2483 0.2488
25165.0 2.66415 0.246(6) 24301. 0.2483 0.2488
25175.0 2.66521 0.258(7) 23199. 0.2484 0.2489
25185.0 2.66627 0.247(6) 24346. 0.2485 0.2489
25195.0 2.66733 0.251(6) 24096. 0.2485 0.2490
25205.0 2.66839 0.241(6) 24869. 0.2486 0.2491
25215.0 2.66945 0.248(6) 24276. 0.2487 0.2491
25225.0 2.67051 0.248(6) 24270. 0.2487 0.2492
25235.0 2.67157 0.240(6) 24994. 0.2488 0.2493
25245.0 2.67263 0.256(7) 23478. 0.2489 0.2493
25255.0 2.67369 0.255(7) 23475. 0.2489 0.2494
25265.0 2.67475 0.254(7) 23624. 0.2490 0.2495
25275.0 2.67581 0.260(7) 23023. 0.2491 0.2495
25285.0 2.67687 0.256(7) 23473. 0.2492 0.2496
25295.0 2.67793 0.246(6) 24409. 0.2492 0.2497
25305.0 2.67899 0.226(6) 26406. 0.2493 0.2497
25315.0 2.68005 0.241(6) 24927. 0.2494 0.2498
25325.0 2.68111 0.251(6) 24030. 0.2495 0.2499
25335.0 2.68217 0.238(6) 25318. 0.2495 0.2500
25345.0 2.68323 0.254(7) 23645. 0.2496 0.2500
25355.0 2.68429 0.256(7) 23415. 0.2497 0.2501
25365.0 2.68535 0.249(6) 24013. 0.2498 0.2502
25375.0 2.68641 0.251(6) 23741. 0.2498 0.2503
25385.0 2.68747 0.256(7) 23346. 0.2499 0.2504
25395.0 2.68853 0.264(7) 22507. 0.2500 0.2504
25405.0 2.68959 0.239(6) 24658. 0.2501 0.2505
25415.0 2.69065 0.244(6) 24163. 0.2502 0.2506
25425.0 2.69171 0.246(6) 23927. 0.2503 0.2507
25435.0 2.69277 0.240(6) 24428. 0.2503 0.2508
25445.0 2.69383 0.258(7) 22785. 0.2504 0.2509
25455.0 2.69489 0.259(7) 22586. 0.2505 0.2509
25465.0 2.69595 0.248(7) 23588. 0.2506 0.2510
25475.0 2.69701 0.245(6) 23832. 0.2507 0.2511
25485.0 2.69807 0.264(7) 22210. 0.2508 0.2512
25495.0 2.69913 0.253(7) 23038. 0.2509 0.2513
25505.0 2.70019 0.251(7) 23179. 0.2510 0.2514
25515.0 2.70125 0.257(7) 22634. 0.2511 0.2515
25525.0 2.70231 0.256(7) 22709. 0.2512 0.2516
25535.0 2.70337 0.253(7) 23048. 0.2512 0.2517
25545.0 2.70443 0.254(7) 23054. 0.2513 0.2518
25555.0 2.70549 0.253(7) 23091. 0.2514 0.2519
25565.0 2.70655 0.260(7) 22538. 0.2515 0.2520
25575.0 2.70761 0.256(7) 22865. 0.2516 0.2521
25585.0 2.70867 0.252(7) 23216. 0.2517 0.2522
25595.0 2.70973 0.253(7) 23051. 0.2518 0.2523
25605.0 2.71079 0.256(7) 22846. 0.2519 0.2524
25615.0 2.71185 0.252(7) 23074. 0.2520 0.2525
25625.0 2.71291 0.249(7) 23256. 0.2521 0.2526
25635.0 2.71397 0.253(7) 22904. 0.2523 0.2527
25645.0 2.71503 0.241(6) 23884. 0.2524 0.2528
25655.0 2.71609 0.257(7) 22442. 0.2525 0.2530
25665.0 2.71715 0.256(7) 22433. 0.2526 0.2531
25675.0 2.71821 0.259(7) 22307. 0.2527 0.2532
25685.0 2.71927 0.250(7) 23212. 0.2528 0.2533
25695.0 2.72033 0.267(7) 21673. 0.2529 0.2534
25705.0 2.72139 0.253(7) 22660. 0.2530 0.2535
25715.0 2.72245 0.252(7) 22619. 0.2531 0.2537
25725.0 2.72351 0.248(7) 22889. 0.2532 0.2538
25735.0 2.72456 0.266(7) 21395. 0.2534 0.2539
25745.0 2.72562 0.274(7) 20735. 0.2535 0.2540
25755.0 2.72668 0.251(7) 22732. 0.2536 0.2542
25765.0 2.72774 0.244(7) 23297. 0.2537 0.2543
25775.0 2.72880 0.251(7) 22589. 0.2538 0.2544
25785.0 2.72986 0.263(7) 21540. 0.2540 0.2545
25795.0 2.73092 0.266(7) 21248. 0.2541 0.2547
25805.0 2.73198 0.247(7) 22636. 0.2542 0.2548
25815.0 2.73304 0.274(7) 20503. 0.2543 0.2549
25825.0 2.73410 0.247(7) 22690. 0.2544 0.2551
25835.0 2.73516 0.257(7) 21950. 0.2546 0.2552
25845.0 2.73622 0.260(7) 21590. 0.2547 0.2554
25855.0 2.73728 0.253(7) 22335. 0.2548 0.2555
25865.0 2.73834 0.261(7) 21591. 0.2550 0.2556
25875.0 2.73940 0.247(7) 22852. 0.2551 0.2558
25885.0 2.74046 0.264(7) 21446. 0.2552 0.2559
25895.0 2.74152 0.257(7) 22084. 0.2554 0.2561
25905.0 2.74258 0.260(7) 21817. 0.2555 0.2562
25915.0 2.74364 0.257(7) 22175. 0.2556 0.2564
25925.0 2.74470 0.261(7) 21888. 0.2558 0.2565
25935.0 2.74576 0.266(7) 21420. 0.2559 0.2567
25945.0 2.74682 0.261(7) 21898. 0.2560 0.2568
25955.0 2.74788 0.261(7) 21794. 0.2562 0.2570
25965.0 2.74894 0.245(7) 23158. 0.2563 0.2572
25975.0 2.75000 0.255(7) 22360. 0.2565 0.2573
25985.0 2.75106 0.269(7) 21291. 0.2566 0.2575
25995.0 2.75212 0.267(7) 21408. 0.2568 0.2577
26005.0 2.75318 0.263(7) 21704. 0.2569 0.2578
26015.0 2.75424 0.260(7) 21926. 0.2570 0.2580
26025.0 2.75530 0.259(7) 21905. 0.2572 0.2582
26035.0 2.75636 0.255(7) 22338. 0.2573 0.2583
26045.0 2.75742 0.250(7) 22806. 0.2575 0.2585
26055.0 2.75848 0.257(7) 22268. 0.2576 0.2587
26065.0 2.75954 0.257(7) 22276. 0.2578 0.2589
26075.0 2.76060 0.256(7) 22313. 0.2579 0.2591
26085.0 2.76166 0.260(7) 22009. 0.2581 0.2592
26095.0 2.76272 0.268(7) 21336. 0.2583 0.2594
26105.0 2.76378 0.252(7) 22656. 0.2584 0.2596
26115.0 2.76484 0.252(7) 22641. 0.2586 0.2598
26125.0 2.76590 0.260(7) 22024. 0.2587 0.2600
26135.0 2.76696 0.265(7) 21605. 0.2589 0.2602
26145.0 2.76802 0.259(7) 22115. 0.2591 0.2604
26155.0 2.76908 0.255(7) 22436. 0.2592 0.2606
26165.0 2.77014 0.251(7) 22774. 0.2594 0.2608
26175.0 2.77120 0.259(7) 22011. 0.2595 0.2611
26185.0 2.77226 0.262(7) 21708. 0.2597 0.2613
26195.0 2.77332 0.264(7) 21477. 0.2599 0.2615
26205.0 2.77438 0.261(7) 21765. 0.2600 0.2617
26215.0 2.77544 0.253(7) 22292. 0.2602 0.2620
26225.0 2.77650 0.248(7) 22756. 0.2604 0.2622
26235.0 2.77756 0.260(7) 21725. 0.2606 0.2625
26245.0 2.77862 0.248(7) 22641. 0.2607 0.2627
26255.0 2.77968 0.255(7) 22034. 0.2609 0.2630
26265.0 2.78074 0.258(7) 21746. 0.2611 0.2633
26275.0 2.78180 0.257(7) 21765. 0.2613 0.2636
26285.0 2.78286 0.270(7) 20715. 0.2614 0.2639
26295.0 2.78392 0.262(7) 21325. 0.2616 0.2642
26305.0 2.78498 0.258(7) 21624. 0.2618 0.2645
26315.0 2.78604 0.266(7) 20927. 0.2620 0.2649
26325.0 2.78710 0.259(7) 21478. 0.2621 0.2653
26335.0 2.78816 0.264(7) 20943. 0.2623 0.2657
26345.0 2.78922 0.247(7) 22238. 0.2625 0.2662
26355.0 2.79028 0.266(7) 20659. 0.2627 0.2667
26365.0 2.79134 0.264(7) 20851. 0.2629 0.2672
26375.0 2.79240 0.272(7) 20174. 0.2631 0.2678
26385.0 2.79346 0.268(7) 20469. 0.2632 0.2684
26395.0 2.79452 0.278(7) 19676. 0.2634 0.2691
26405.0 2.79558 0.265(7) 20606. 0.2636 0.2699
26415.0 2.79664 0.278(7) 19603. 0.2638 0.2708
26425.0 2.79770 0.270(7) 20031. 0.2640 0.2717
26435.0 2.79876 0.282(7) 19203. 0.2642 0.2727
26445.0 2.79982 0.280(7) 19195. 0.2644 0.2738
26455.0 2.80088 0.286(7) 18836. 0.2646 0.2750
26465.0 2.80194 0.274(7) 19625. 0.2648 0.2763
26475.0 2.80300 0.277(7) 19341. 0.2650 0.2777
26485.0 2.80406 0.279(7) 19258. 0.2652 0.2792
26495.0 2.80512 0.279(7) 19239. 0.2654 0.2808
26505.0 2.80618 0.297(7) 18156. 0.2656 0.2826
26515.0 2.80724 0.279(7) 19263. 0.2657 0.2844
26525.0 2.80830 0.281(7) 19007. 0.2659 0.2864
26535.0 2.80936 0.293(7) 18180. 0.2661 0.2884
26545.0 2.81042 0.291(7) 18201. 0.2663 0.2905
26555.0 2.81148 0.297(7) 17806. 0.2665 0.2928
26565.0 2.81254 0.309(8) 17022. 0.2668 0.2951
26575.0 2.81360 0.302(8) 17430. 0.2670 0.2974
26585.0 2.81466 0.299(8) 17650. 0.2672 0.2997
26595.0 2.81572 0.307(8) 17140. 0.2674 0.3021
26605.0 2.81678 0.302(8) 17431. 0.2676 0.3044
26615.0 2.81784 0.313(8) 16817. 0.2678 0.3067
26625.0 2.81890 0.304(8) 17248. 0.2680 0.3090
26635.0 2.81996 0.309(8) 16929. 0.2682 0.3111
26645.0 2.82102 0.309(8) 16970. 0.2684 0.3130
26655.0 2.82208 0.311(8) 16813. 0.2686 0.3148
26665.0 2.82314 0.319(8) 16407. 0.2688 0.3163
26675.0 2.82420 0.314(8) 16610. 0.2690 0.3176
26685.0 2.82526 0.308(8) 16871. 0.2692 0.3186
26695.0 2.82632 0.331(8) 15686. 0.2694 0.3193
26705.0 2.82738 0.318(8) 16242. 0.2697 0.3196
26715.0 2.82844 0.323(8) 16001. 0.2699 0.3197
26725.0 2.82950 0.315(8) 16458. 0.2701 0.3195
26735.0 2.83056 0.317(8) 16284. 0.2703 0.3190
26745.0 2.83162 0.318(8) 16214. 0.2705 0.3182
26755.0 2.83268 0.325(8) 15874. 0.2707 0.3172
26765.0 2.83374 0.320(8) 16076. 0.2709 0.3159
26775.0 2.83480 0.319(8) 16076. 0.2712 0.3145
26785.0 2.83586 0.315(8) 16282. 0.2714 0.3129
26795.0 2.83692 0.315(8) 16270. 0.2716 0.3112
26805.0 2.83798 0.311(8) 16445. 0.2718 0.3095
26815.0 2.83904 0.314(8) 16248. 0.2720 0.3076
26825.0 2.84010 0.326(8) 15624. 0.2722 0.3057
26835.0 2.84116 0.312(8) 16291. 0.2725 0.3039
26845.0 2.84222 0.302(8) 16741. 0.2727 0.3020
26855.0 2.84328 0.309(8) 16372. 0.2729 0.3002
26865.0 2.84434 0.302(8) 16675. 0.2731 0.2987
26875.0 2.84540 0.304(8) 16648. 0.2733 0.2970
26885.0 2.84646 0.300(8) 16930. 0.2736 0.2954
26895.0 2.84752 0.286(8) 17777. 0.2738 0.2939
26905.0 2.84858 0.298(8) 16960. 0.2740 0.2924
26915.0 2.84964 0.294(8) 17128. 0.2742 0.2911
26925.0 2.85070 0.298(8) 16905. 0.2744 0.2898
26935.0 2.85176 0.288(8) 17509. 0.2747 0.2887
26945.0 2.85282 0.288(8) 17559. 0.2749 0.2877
26955.0 2.85388 0.287(8) 17615. 0.2751 0.2868
26965.0 2.85494 0.288(8) 17545. 0.2753 0.2859
26975.0 2.85600 0.293(8) 17275. 0.2755 0.2852
26985.0 2.85706 0.282(7) 17934. 0.2758 0.2846
26995.0 2.85812 0.288(8) 17693. 0.2760 0.2840
27005.0 2.85918 0.287(8) 17745. 0.2762 0.2835
27015.0 2.86024 0.273(7) 18703. 0.2764 0.2831
27025.0 2.86130 0.279(7) 18377. 0.2767 0.2828
27035.0 2.86236 0.277(7) 18493. 0.2769 0.2825
27045.0 2.86342 0.281(7) 18249. 0.2771 0.2823
27055.0 2.86448 0.280(7) 18320. 0.2773 0.2821
27065.0 2.86554 0.288(7) 17830. 0.2776 0.2820
27075.0 2.86660 0.275(7) 18639. 0.2778 0.2819
27085.0 2.86766 0.280(7) 18172. 0.2780 0.2818
27095.0 2.86872 0.276(7) 18419. 0.2782 0.2818
27105.0 2.86978 0.265(7) 19191. 0.2784 0.2818
27115.0 2.87084 0.275(7) 18473. 0.2787 0.2818
27125.0 2.87190 0.272(7) 18660. 0.2789 0.2819
27135.0 2.87296 0.290(8) 17454. 0.2791 0.2820
27145.0 2.87402 0.293(8) 17285. 0.2793 0.2820
27155.0 2.87508 0.291(8) 17468. 0.2796 0.2821
27165.0 2.87614 0.286(8) 17719. 0.2798 0.2823
27175.0 2.87720 0.275(7) 18457. 0.2800 0.2824
27185.0 2.87826 0.271(7) 18673. 0.2802 0.2825
27195.0 2.87932 0.272(7) 18627. 0.2804 0.2826
27205.0 2.88038 0.279(7) 18180. 0.2807 0.2828
27215.0 2.88144 0.277(7) 18146. 0.2809 0.2829
27225.0 2.88250 0.271(7) 18564. 0.2811 0.2831
27235.0 2.88356 0.269(7) 18749. 0.2813 0.2833
27245.0 2.88462 0.275(7) 18276. 0.2816 0.2834
27255.0 2.88568 0.282(7) 17969. 0.2818 0.2836
27265.0 2.88674 0.262(7) 19275. 0.2820 0.2838
27275.0 2.88780 0.281(7) 17991. 0.2822 0.2840
27285.0 2.88886 0.272(7) 18556. 0.2824 0.2841
27295.0 2.88992 0.280(7) 18058. 0.2826 0.2843
27305.0 2.89098 0.268(7) 18884. 0.2829 0.2845
27315.0 2.89204 0.261(7) 19257. 0.2831 0.2847
27325.0 2.89310 0.291(8) 17280. 0.2833 0.2849
27335.0 2.89416 0.276(7) 18196. 0.2835 0.2850
27345.0 2.89522 0.282(8) 17696. 0.2837 0.2852
27355.0 2.89628 0.284(8) 17622. 0.2840 0.2854
27365.0 2.89734 0.274(7) 18183. 0.2842 0.2856
27375.0 2.89840 0.283(8) 17505. 0.2844 0.2858
27385.0 2.89946 0.279(8) 17726. 0.2846 0.2860
27395.0 2.90052 0.290(8) 16983. 0.2848 0.2862
27405.0 2.90158 0.286(8) 17161. 0.2850 0.2864
27415.0 2.90264 0.284(8) 17258. 0.2852 0.2866
27425.0 2.90370 0.288(8) 16944. 0.2854 0.2868
27435.0 2.90476 0.290(8) 16773. 0.2857 0.2870
27445.0 2.90582 0.273(8) 17771. 0.2859 0.2871
27455.0 2.90688 0.274(8) 17667. 0.2861 0.2873
27465.0 2.90794 0.277(8) 17445. 0.2863 0.2875
27475.0 2.90900 0.292(8) 16667. 0.2865 0.2877
27485.0 2.91006 0.302(8) 16207. 0.2867 0.2879
27495.0 2.91112 0.288(8) 16918. 0.2869 0.2881
27505.0 2.91218 0.286(8) 17048. 0.2871 0.2883
27515.0 2.91324 0.297(8) 16357. 0.2873 0.2885
27525.0 2.91430 0.288(8) 16776. 0.2875 0.2887
27535.0 2.91536 0.276(8) 17464. 0.2877 0.2889
27545.0 2.91642 0.284(8) 16925. 0.2879 0.2891
27555.0 2.91748 0.295(8) 16248. 0.2881 0.2893
27565.0 2.91854 0.282(8) 17038. 0.2883 0.2895
27575.0 2.91960 0.290(8) 16523. 0.2885 0.2896
27585.0 2.92066 0.287(8) 16688. 0.2887 0.2898
27595.0 2.92172 0.296(8) 16131. 0.2889 0.2900
27605.0 2.92278 0.293(8) 16301. 0.2891 0.2902
27615.0 2.92384 0.284(8) 16688. 0.2893 0.2904
27625.0 2.92490 0.300(8) 15796. 0.2895 0.2906
27635.0 2.92596 0.289(8) 16365. 0.2897 0.2908
27645.0 2.92702 0.295(8) 15993. 0.2899 0.2910
27655.0 2.92808 0.285(8) 16605. 0.2901 0.2912
27665.0 2.92914 0.280(8) 16924. 0.2903 0.2913
27675.0 2.93020 0.293(8) 16208. 0.2904 0.2915
27685.0 2.93126 0.293(8) 16112. 0.2906 0.2917
27695.0 2.93232 0.304(8) 15469. 0.2908 0.2919
27705.0 2.93338 0.290(8) 16156. 0.2910 0.2921
27715.0 2.93444 0.295(8) 15861. 0.2912 0.2923
27725.0 2.93550 0.308(8) 15146. 0.2914 0.2924
27735.0 2.93656 0.293(8) 15949. 0.2915 0.2926
27745.0 2.93762 0.285(8) 16323. 0.2917 0.2928
27755.0 2.93868 0.297(8) 15657. 0.2919 0.2930
27765.0 2.93974 0.307(8) 15265. 0.2921 0.2931
27775.0 2.94080 0.298(8) 15637. 0.2923 0.2933
27785.0 2.94186 0.293(8) 15916. 0.2924 0.2935
27795.0 2.94292 0.287(8) 16178. 0.2926 0.2937
27805.0 2.94398 0.289(8) 16006. 0.2928 0.2938
27815.0 2.94504 0.301(8) 15303. 0.2929 0.2940
27825.0 2.94610 0.291(8) 15921. 0.2931 0.2942
27835.0 2.94716 0.290(8) 15911. 0.2933 0.2944
27845.0 2.94822 0.299(8) 15497. 0.2934 0.2945
27855.0 2.94928 0.292(8) 15755. 0.2936 0.2947
27865.0 2.95034 0.299(8) 15351. 0.2938 0.2949
27875.0 2.95140 0.298(8) 15314. 0.2939 0.2950
27885.0 2.95246 0.290(8) 15654. 0.2941 0.2952
27895.0 2.95352 0.312(8) 14500. 0.2942 0.2953
27905.0 2.95458 0.306(8) 14662. 0.2944 0.2955
27915.0 2.95564 0.313(8) 14336. 0.2946 0.2957
27925.0 2.95670 0.316(8) 14121. 0.2947 0.2958
27935.0 2.95776 0.300(8) 14868. 0.2949 0.2960
27945.0 2.95882 0.294(8) 15043. 0.2950 0.2961
27955.0 2.95988 0.316(8) 13943. 0.2952 0.2963
27965.0 2.96094 0.302(8) 14525. 0.2953 0.2964
27975.0 2.96200 0.307(8) 14309. 0.2955 0.2966
27985.0 2.96306 0.300(8) 14677. 0.2956 0.2967
27995.0 2.96412 0.301(8) 14555. 0.2957 0.2969
28005.0 2.96518 0.303(8) 14545. 0.2959 0.2970
28015.0 2.96624 0.309(8) 14282. 0.2960 0.2972
28025.0 2.96730 0.309(8) 14264. 0.2962 0.2973
28035.0 2.96836 0.314(8) 14098. 0.2963 0.2975
28045.0 2.96942 0.297(8) 14848. 0.2964 0.2976
28055.0 2.97048 0.317(8) 13881. 0.2966 0.2978
28065.0 2.97154 0.301(8) 14572. 0.2967 0.2979
28075.0 2.97260 0.303(8) 14484. 0.2968 0.2980
28085.0 2.97366 0.302(8) 14580. 0.2969 0.2982
28095.0 2.97472 0.311(8) 14210. 0.2971 0.2983
28105.0 2.97578 0.303(8) 14548. 0.2972 0.2984
28115.0 2.97684 0.318(8) 13948. 0.2973 0.2986
28125.0 2.97790 0.299(8) 14710. 0.2974 0.2987
28135.0 2.97896 0.299(8) 14686. 0.2976 0.2988
28145.0 2.98002 0.316(8) 13940. 0.2977 0.2990
28155.0 2.98108 0.303(8) 14577. 0.2978 0.2991
28165.0 2.98214 0.318(8) 13860. 0.2979 0.2992
28175.0 2.98320 0.306(8) 14417. 0.2980 0.2993
28185.0 2.98426 0.303(8) 14520. 0.2981 0.2995
28195.0 2.98532 0.307(8) 14328. 0.2982 0.2996
28205.0 2.98638 0.309(8) 14260. 0.2983 0.2997
28215.0 2.98744 0.291(8) 14981. 0.2984 0.2998
28225.0 2.98850 0.298(8) 14552. 0.2985 0.2999
28235.0 2.98956 0.307(8) 14251. 0.2986 0.3000
28245.0 2.99062 0.314(8) 13856. 0.2987 0.3002
28255.0 2.99168 0.303(8) 14287. 0.2988 0.3003
28265.0 2.99274 0.311(8) 13959. 0.2989 0.3004
28275.0 2.99380 0.307(8) 14097. 0.2990 0.3005
28285.0 2.99486 0.323(9) 13406. 0.2991 0.3006
28295.0 2.99592 0.306(8) 14119. 0.2992 0.3007
28305.0 2.99698 0.300(8) 14446. 0.2993 0.3008
28315.0 2.99804 0.306(8) 14197. 0.2994 0.3009
28325.0 2.99910 0.316(9) 13812. 0.2994 0.3010
28335.0 3.00016 0.310(8) 14033. 0.2995 0.3011
28345.0 3.00122 0.302(8) 14425. 0.2996 0.3012
28355.0 3.00228 0.306(8) 14250. 0.2997 0.3013
28365.0 3.00334 0.302(8) 14408. 0.2997 0.3014
28375.0 3.00440 0.305(8) 14342. 0.2998 0.3015
28385.0 3.00546 0.301(8) 14560. 0.2999 0.3016
28395.0 3.00652 0.297(8) 14762. 0.3000 0.3017
28405.0 3.00758 0.294(8) 14888. 0.3000 0.3018
28415.0 3.00864 0.308(8) 14286. 0.3001 0.3019
28425.0 3.00970 0.301(8) 14594. 0.3001 0.3019
28435.0 3.01076 0.297(8) 14634. 0.3002 0.3020
28445.0 3.01182 0.293(8) 14910. 0.3003 0.3021
28455.0 3.01288 0.300(8) 14616. 0.3003 0.3022
28465.0 3.01394 0.293(8) 14891. 0.3004 0.3023
28475.0 3.01500 0.297(8) 14759. 0.3004 0.3024
28485.0 3.01606 0.305(8) 14312. 0.3005 0.3024
28495.0 3.01712 0.295(8) 14730. 0.3005 0.3025
28505.0 3.01818 0.309(8) 14098. 0.3006 0.3026
28515.0 3.01924 0.300(8) 14457. 0.3006 0.3027
28525.0 3.02030 0.292(8) 14861. 0.3007 0.3028
28535.0 3.02136 0.307(8) 14202. 0.3007 0.3028
28545.0 3.02242 0.305(8) 14271. 0.3007 0.3029
28555.0 3.02348 0.292(8) 14929. 0.3008 0.3030
28565.0 3.02454 0.285(8) 15175. 0.3008 0.3031
28575.0 3.02560 0.298(8) 14611. 0.3008 0.3031
28585.0 3.02666 0.300(8) 14488. 0.3009 0.3032
28595.0 3.02772 0.304(8) 14316. 0.3009 0.3033
28605.0 3.02878 0.308(8) 14136. 0.3009 0.3033
28615.0 3.02984 0.309(8) 14030. 0.3010 0.3034
28625.0 3.03091 0.306(8) 14148. 0.3010 0.3035
28635.0 3.03197 0.287(8) 14996. 0.3010 0.3035
28645.0 3.03303 0.300(8) 14406. 0.3010 0.3036
28655.0 3.03409 0.315(9) 13755. 0.3010 0.3037
28665.0 3.03515 0.312(8) 13931. 0.3011 0.3037
28675.0 3.03621 0.317(9) 13670. 0.3011 0.3038
28685.0 3.03727 0.301(8) 14323. 0.3011 0.3039
28695.0 3.03833 0.306(8) 14094. 0.3011 0.3039
28705.0 3.03939 0.290(8) 14883. 0.3011 0.3040
28715.0 3.04045 0.309(8) 13886. 0.3011 0.3041
28725.0 3.04151 0.300(8) 14231. 0.3011 0.3041
28735.0 3.04257 0.304(8) 13967. 0.3011 0.3042
28745.0 3.04363 0.305(8) 13958. 0.3011 0.3043
28755.0 3.04469 0.308(9) 13747. 0.3011 0.3043
28765.0 3.04575 0.320(9) 13238. 0.3011 0.3044
28775.0 3.04681 0.319(9) 13297. 0.3011 0.3045
28785.0 3.04787 0.300(8) 14111. 0.3011 0.3046
28795.0 3.04893 0.303(8) 13985. 0.3011 0.3046
28805.0 3.04999 0.290(8) 14511. 0.3011 0.3047
28815.0 3.05105 0.326(9) 12928. 0.3011 0.3048
28825.0 3.05211 0.306(9) 13671. 0.3011 0.3048
28835.0 3.05317 0.299(8) 13980. 0.3010 0.3049
28845.0 3.05423 0.321(9) 13065. 0.3010 0.3050
28855.0 3.05529 0.311(9) 13462. 0.3010 0.3051
28865.0 3.05635 0.314(9) 13279. 0.3010 0.3052
28875.0 3.05741 0.308(9) 13517. 0.3010 0.3053
28885.0 3.05847 0.314(9) 13154. 0.3009 0.3053
28895.0 3.05953 0.315(9) 13074. 0.3009 0.3054
28905.0 3.06059 0.315(9) 13057. 0.3009 0.3055
28915.0 3.06165 0.298(9) 13810. 0.3008 0.3056
28925.0 3.06271 0.314(9) 13169. 0.3008 0.3057
28935.0 3.06377 0.315(9) 13156. 0.3008 0.3058
28945.0 3.06483 0.311(9) 13339. 0.3007 0.3060
28955.0 3.06589 0.304(9) 13652. 0.3007 0.3061
28965.0 3.06695 0.315(9) 13161. 0.3007 0.3062
28975.0 3.06801 0.295(8) 14086. 0.3006 0.3063
28985.0 3.06907 0.306(9) 13676. 0.3006 0.3065
28995.0 3.07013 0.303(9) 13758. 0.3006 0.3066
29005.0 3.07119 0.286(8) 14506. 0.3005 0.3068
29015.0 3.07225 0.310(9) 13388. 0.3005 0.3070
29025.0 3.07331 0.311(9) 13310. 0.3004 0.3072
29035.0 3.07437 0.312(9) 13261. 0.3004 0.3074
29045.0 3.07543 0.310(9) 13344. 0.3003 0.3076
29055.0 3.07649 0.309(9) 13369. 0.3003 0.3078
29065.0 3.07755 0.305(9) 13479. 0.3002 0.3080
29075.0 3.07861 0.315(9) 13003. 0.3002 0.3083
29085.0 3.07967 0.325(9) 12635. 0.3001 0.3087
29095.0 3.08073 0.313(9) 13070. 0.3000 0.3090
29105.0 3.08179 0.315(9) 12936. 0.3000 0.3095
29115.0 3.08285 0.289(8) 14044. 0.2999 0.3099
29125.0 3.08391 0.313(9) 13086. 0.2999 0.3104
29135.0 3.08497 0.319(9) 12842. 0.2998 0.3110
29145.0 3.08603 0.314(9) 13029. 0.2997 0.3117
29155.0 3.08709 0.319(9) 12932. 0.2997 0.3124
29165.0 3.08815 0.323(9) 12804. 0.2996 0.3133
29175.0 3.08921 0.317(9) 13050. 0.2995 0.3142
29185.0 3.09027 0.302(9) 13712. 0.2995 0.3152
29195.0 3.09133 0.315(9) 13188. 0.2994 0.3164
29205.0 3.09239 0.319(9) 13001. 0.2993 0.3178
29215.0 3.09345 0.310(9) 13346. 0.2992 0.3192
29225.0 3.09451 0.331(9) 12551. 0.2992 0.3209
29235.0 3.09557 0.323(9) 12771. 0.2991 0.3227
29245.0 3.09663 0.325(9) 12728. 0.2990 0.3248
29255.0 3.09769 0.327(9) 12616. 0.2989 0.3270
29265.0 3.09875 0.337(9) 12146. 0.2989 0.3295
29275.0 3.09981 0.327(9) 12518. 0.2988 0.3323
29285.0 3.10087 0.326(9) 12577. 0.2987 0.3353
29295.0 3.10193 0.325(9) 12609. 0.2986 0.3386
29305.0 3.10299 0.323(9) 12713. 0.2985 0.3422
29315.0 3.10405 0.341(9) 12037. 0.2984 0.3461
29325.0 3.10511 0.346(9) 11820. 0.2983 0.3503
29335.0 3.10617 0.347(9) 11757. 0.2983 0.3548
29345.0 3.10723 0.368(10) 11073. 0.2982 0.3596
29355.0 3.10829 0.344(9) 11911. 0.2981 0.3648
29365.0 3.10935 0.352(9) 11719. 0.2980 0.3702
29375.0 3.11041 0.358(9) 11449. 0.2979 0.3760
29385.0 3.11148 0.381(10) 10777. 0.2978 0.3820
29395.0 3.11254 0.372(10) 11006. 0.2977 0.3884
29405.0 3.11360 0.397(10) 10303. 0.2976 0.3949
29415.0 3.11466 0.396(10) 10326. 0.2975 0.4017
29425.0 3.11572 0.384(10) 10640. 0.2974 0.4087
29435.0 3.11678 0.412(10) 9928. 0.2973 0.4158
29445.0 3.11784 0.399(10) 10354. 0.2972 0.4230
29455.0 3.11890 0.414(10) 10005. 0.2971 0.4302
29465.0 3.11996 0.418(10) 9863. 0.2970 0.4374
29475.0 3.12102 0.424(10) 9751. 0.2969 0.4445
29485.0 3.12208 0.442(10) 9350. 0.2968 0.4514
29495.0 3.12314 0.430(10) 9586. 0.2967 0.4581
29505.0 3.12420 0.431(10) 9561. 0.2966 0.4645
29515.0 3.12526 0.450(10) 9209. 0.2965 0.4704
29525.0 3.12632 0.463(11) 8947. 0.2964 0.4759
29535.0 3.12738 0.457(10) 9074. 0.2963 0.4807
29545.0 3.12844 0.460(11) 9006. 0.2962 0.4849
29555.0 3.12950 0.454(11) 9063. 0.2961 0.4884
29565.0 3.13056 0.450(10) 9140. 0.2960 0.4910
29575.0 3.13162 0.484(11) 8522. 0.2959 0.4928
29585.0 3.13268 0.462(11) 8836. 0.2957 0.4937
29595.0 3.13374 0.469(11) 8679. 0.2956 0.4937
29605.0 3.13480 0.477(11) 8550. 0.2955 0.4929
29615.0 3.13586 0.456(11) 8915. 0.2954 0.4912
29625.0 3.13692 0.463(11) 8777. 0.2953 0.4886
29635.0 3.13798 0.456(11) 8889. 0.2952 0.4853
29645.0 3.13904 0.448(11) 9065. 0.2951 0.4812
29655.0 3.14010 0.462(11) 8723. 0.2949 0.4766
29665.0 3.14116 0.440(10) 9160. 0.2948 0.4713
29675.0 3.14222 0.444(11) 9003. 0.2947 0.4655
29685.0 3.14328 0.440(11) 9051. 0.2946 0.4593
29695.0 3.14434 0.432(10) 9222. 0.2945 0.4528
29705.0 3.14540 0.410(10) 9643. 0.2944 0.4459
29715.0 3.14646 0.415(10) 9531. 0.2942 0.4389
29725.0 3.14752 0.406(10) 9745. 0.2941 0.4318
29735.0 3.14858 0.429(10) 9197. 0.2940 0.4246
29745.0 3.14964 0.405(10) 9708. 0.2939 0.4174
29755.0 3.15070 0.402(10) 9733. 0.2937 0.4102
29765.0 3.15176 0.395(10) 9820. 0.2936 0.4032
29775.0 3.15282 0.393(10) 9840. 0.2935 0.3962
29785.0 3.15388 0.374(10) 10289. 0.2934 0.3895
29795.0 3.15494 0.385(10) 10046. 0.2932 0.3829
29805.0 3.15600 0.371(10) 10376. 0.2931 0.3766
29815.0 3.15706 0.363(10) 10589. 0.2930 0.3706
29825.0 3.15812 0.368(10) 10399. 0.2929 0.3648
29835.0 3.15918 0.358(10) 10643. 0.2927 0.3593
29845.0 3.16024 0.340(9) 11168. 0.2926 0.3541
29855.0 3.16130 0.348(10) 10908. 0.2925 0.3493
29865.0 3.16236 0.331(9) 11451. 0.2923 0.3447
29875.0 3.16342 0.367(10) 10326. 0.2922 0.3404
29885.0 3.16448 0.338(10) 11078. 0.2921 0.3364
29895.0 3.16554 0.338(10) 10969. 0.2920 0.3327
29905.0 3.16660 0.344(10) 10765. 0.2918 0.3292
29915.0 3.16766 0.330(9) 11254. 0.2917 0.3260
29925.0 3.16873 0.329(9) 11175. 0.2916 0.3231
29935.0 3.16979 0.332(10) 11014. 0.2914 0.3204
29945.0 3.17085 0.307(9) 11866. 0.2913 0.3179
29955.0 3.17191 0.320(9) 11393. 0.2911 0.3157
29965.0 3.17297 0.310(9) 11659. 0.2910 0.3136
29975.0 3.17403 0.318(9) 11408. 0.2909 0.3117
29985.0 3.17509 0.319(9) 11286. 0.2907 0.3100
29995.0 3.17615 0.313(9) 11483. 0.2906 0.3084
30005.0 3.17721 0.302(9) 11830. 0.2905 0.3070
30015.0 3.17827 0.319(9) 11175. 0.2903 0.3057
30025.0 3.17933 0.331(10) 10736. 0.2902 0.3045
30035.0 3.18039 0.309(9) 11451. 0.2900 0.3034
30045.0 3.18145 0.323(10) 10866. 0.2899 0.3024
30055.0 3.18251 0.320(10) 10917. 0.2897 0.3015
30065.0 3.18357 0.318(10) 10945. 0.2896 0.3007
30075.0 3.18463 0.307(9) 11267. 0.2895 0.2999
30085.0 3.18569 0.316(10) 10936. 0.2893 0.2992
30095.0 3.18675 0.312(10) 11037. 0.2892 0.2985
30105.0 3.18781 0.321(10) 10683. 0.2890 0.2979
30115.0 3.18887 0.313(10) 11036. 0.2889 0.2973
30125.0 3.18993 0.319(10) 10749. 0.2887 0.2968
30135.0 3.19099 0.322(10) 10650. 0.2886 0.2963
30145.0 3.19205 0.317(10) 10727. 0.2884 0.2958
30155.0 3.19311 0.322(10) 10559. 0.2883 0.2954
30165.0 3.19417 0.301(9) 11257. 0.2881 0.2949
30175.0 3.19523 0.310(10) 10904. 0.2879 0.2945
30185.0 3.19629 0.305(10) 11051. 0.2878 0.2941
30195.0 3.19735 0.314(10) 10729. 0.2876 0.2937
30205.0 3.19841 0.322(10) 10440. 0.2875 0.2934
30215.0 3.19947 0.298(9) 11233. 0.2873 0.2930
30225.0 3.20053 0.320(10) 10473. 0.2872 0.2927
30235.0 3.20159 0.307(10) 10899. 0.2870 0.2923
30245.0 3.20265 0.295(9) 11364. 0.2868 0.2920
30255.0 3.20371 0.310(10) 10749. 0.2867 0.2917
30265.0 3.20477 0.300(9) 11143. 0.2865 0.2914
30275.0 3.20583 0.311(10) 10736. 0.2863 0.2911
30285.0 3.20689 0.286(9) 11639. 0.2862 0.2908
30295.0 3.20795 0.299(9) 11155. 0.2860 0.2905
30305.0 3.20901 0.324(10) 10264. 0.2858 0.2902
30315.0 3.21007 0.303(10) 10921. 0.2856 0.2899
30325.0 3.21113 0.300(10) 11046. 0.2855 0.2896
30335.0 3.21219 0.324(10) 10288. 0.2853 0.2893
30345.0 3.21325 0.319(10) 10458. 0.2851 0.2890
30355.0 3.21431 0.304(10) 10900. 0.2849 0.2888
30365.0 3.21537 0.324(10) 10286. 0.2848 0.2885
30375.0 3.21643 0.303(10) 10970. 0.2846 0.2882
30385.0 3.21749 0.308(10) 10773. 0.2844 0.2879
30395.0 3.21856 0.297(9) 11148. 0.2842 0.2877
30405.0 3.21962 0.291(9) 11342. 0.2840 0.2874
30415.0 3.22068 0.301(10) 10934. 0.2838 0.2871
30425.0 3.22174 0.312(10) 10482. 0.2837 0.2869
30435.0 3.22280 0.291(9) 11190. 0.2835 0.2866
30445.0 3.22386 0.281(9) 11532. 0.2833 0.2863
30455.0 3.22492 0.276(9) 11728. 0.2831 0.2861
30465.0 3.22598 0.300(10) 10906. 0.2829 0.2858
30475.0 3.22704 0.295(10) 11073. 0.2827 0.2855
30485.0 3.22810 0.307(10) 10694. 0.2825 0.2853
30495.0 3.22916 0.284(9) 11555. 0.2823 0.2850
30505.0 3.23022 0.301(10) 10947. 0.2821 0.2848
30515.0 3.23128 0.295(9) 11113. 0.2819 0.2845
30525.0 3.23234 0.300(10) 10987. 0.2817 0.2842
30535.0 3.23340 0.288(9) 11415. 0.2814 0.2840
30545.0 3.23446 0.299(10) 10907. 0.2812 0.2837
30555.0 3.23552 0.283(9) 11563. 0.2810 0.2834
30565.0 3.23658 0.291(9) 11293. 0.2808 0.2832
30575.0 3.23764 0.307(10) 10753. 0.2806 0.2829
30585.0 3.23870 0.289(9) 11378. 0.2803 0.2826
30595.0 3.23976 0.294(9) 11220. 0.2801 0.2824
30605.0 3.24082 0.299(10) 11030. 0.2799 0.2821
30615.0 3.24188 0.283(9) 11628. 0.2797 0.2818
30625.0 3.24294 0.283(9) 11672. 0.2794 0.2815
30635.0 3.24400 0.287(9) 11552. 0.2792 0.2813
30645.0 3.24506 0.300(9) 11108. 0.2790 0.2810
30655.0 3.24612 0.262(9) 12630. 0.2787 0.2807
30665.0 3.24718 0.277(9) 11975. 0.2785 0.2804
30675.0 3.24824 0.284(9) 11636. 0.2782 0.2801
30685.0 3.24930 0.277(9) 11951. 0.2780 0.2799
30695.0 3.25036 0.286(9) 11587. 0.2777 0.2796
30705.0 3.25142 0.274(9) 12117. 0.2775 0.2793
30715.0 3.25248 0.293(9) 11362. 0.2772 0.2790
30725.0 3.25354 0.268(9) 12451. 0.2769 0.2787
30735.0 3.25460 0.275(9) 12176. 0.2767 0.2784
30745.0 3.25566 0.277(9) 12061. 0.2764 0.2781
30755.0 3.25672 0.269(9) 12401. 0.2761 0.2778
30765.0 3.25778 0.268(9) 12456. 0.2759 0.2775
30775.0 3.25884 0.286(9) 11689. 0.2756 0.2772
30785.0 3.25990 0.254(9) 13158. 0.2753 0.2769
30795.0 3.26097 0.262(9) 12772. 0.2750 0.2766
30805.0 3.26203 0.275(9) 12102. 0.2748 0.2763
30815.0 3.26309 0.259(9) 12860. 0.2745 0.2760
30825.0 3.26415 0.257(9) 12991. 0.2742 0.2757
30835.0 3.26521 0.276(9) 12172. 0.2739 0.2753
30845.0 3.26627 0.261(9) 12819. 0.2736 0.2750
30855.0 3.26733 0.264(9) 12683. 0.2733 0.2747
30865.0 3.26839 0.256(9) 13049. 0.2730 0.2744
30875.0 3.26945 0.263(9) 12626. 0.2727 0.2741
30885.0 3.27051 0.267(9) 12493. 0.2723 0.2737
30895.0 3.27157 0.262(9) 12743. 0.2720 0.2734
30905.0 3.27263 0.250(9) 13425. 0.2717 0.2731
30915.0 3.27369 0.252(9) 13350. 0.2714 0.2727
30925.0 3.27475 0.268(9) 12578. 0.2711 0.2724
30935.0 3.27581 0.265(9) 12787. 0.2707 0.2720
30945.0 3.27687 0.265(9) 12763. 0.2704 0.2717
30955.0 3.27793 0.265(9) 12767. 0.2701 0.2713
30965.0 3.27899 0.274(9) 12403. 0.2697 0.2710
30975.0 3.28005 0.256(9) 13177. 0.2694 0.2706
30985.0 3.28111 0.252(9) 13433. 0.2690 0.2703
30995.0 3.28217 0.263(9) 12841. 0.2687 0.2699
31005.0 3.28323 0.268(9) 12566. 0.2683 0.2695
31015.0 3.28429 0.245(9) 13677. 0.2680 0.2691
31025.0 3.28535 0.251(9) 13279. 0.2676 0.2688
31035.0 3.28641 0.265(9) 12547. 0.2673 0.2684
31045.0 3.28747 0.252(9) 13117. 0.2669 0.2680
31055.0 3.28853 0.274(9) 12140. 0.2665 0.2676
31065.0 3.28959 0.256(9) 12875. 0.2661 0.2672
31075.0 3.29065 0.241(9) 13569. 0.2658 0.2668
31085.0 3.29171 0.254(9) 12857. 0.2654 0.2664
31095.0 3.29277 0.256(9) 12750. 0.2650 0.2661
31105.0 3.29383 0.266(9) 12213. 0.2646 0.2657
31115.0 3.29489 0.283(9) 11501. 0.2642 0.2652
31125.0 3.29595 0.254(9) 12830. 0.2638 0.2648
31135.0 3.29701 0.253(9) 12858. 0.2634 0.2644
31145.0 3.29807 0.262(9) 12409. 0.2630 0.2640
31155.0 3.29914 0.269(9) 12163. 0.2626 0.2636
31165.0 3.30020 0.266(9) 12180. 0.2622 0.2632
31175.0 3.30126 0.250(9) 12936. 0.2618 0.2628
31185.0 3.30232 0.266(9) 12180. 0.2614 0.2624
31195.0 3.30338 0.250(9) 12902. 0.2610 0.2619
31205.0 3.30444 0.251(9) 12693. 0.2606 0.2615
31215.0 3.30550 0.240(9) 13294. 0.2602 0.2611
31225.0 3.30656 0.258(9) 12378. 0.2597 0.2606
31235.0 3.30762 0.251(9) 12673. 0.2593 0.2602
31245.0 3.30868 0.251(9) 12574. 0.2589 0.2598
31255.0 3.30974 0.271(9) 11627. 0.2585 0.2593
31265.0 3.31080 0.268(9) 11705. 0.2580 0.2589
31275.0 3.31186 0.270(9) 11604. 0.2576 0.2584
31285.0 3.31292 0.268(9) 11655. 0.2572 0.2580
31295.0 3.31398 0.264(9) 11767. 0.2567 0.2576
31305.0 3.31504 0.253(9) 12198. 0.2563 0.2571
31315.0 3.31610 0.254(9) 12129. 0.2559 0.2567
31325.0 3.31716 0.261(9) 11842. 0.2554 0.2562
31335.0 3.31822 0.268(9) 11538. 0.2550 0.2558
31345.0 3.31928 0.261(9) 11849. 0.2545 0.2553
31355.0 3.32034 0.262(9) 11799. 0.2541 0.2550
31365.0 3.32140 0.262(9) 11784. 0.2536 0.2545
31375.0 3.32246 0.249(9) 12427. 0.2532 0.2541
31385.0 3.32352 0.263(9) 11816. 0.2528 0.2536
31395.0 3.32458 0.261(9) 11886. 0.2523 0.2532
31405.0 3.32564 0.235(9) 13193. 0.2519 0.2527
31415.0 3.32670 0.252(9) 12327. 0.2514 0.2523
31425.0 3.32776 0.256(9) 12138. 0.2510 0.2518
31435.0 3.32882 0.232(9) 13362. 0.2506 0.2514
31445.0 3.32988 0.255(9) 12126. 0.2501 0.2509
31455.0 3.33094 0.254(9) 12198. 0.2497 0.2505
31465.0 3.33200 0.245(9) 12673. 0.2493 0.2501
31475.0 3.33306 0.242(9) 12773. 0.2488 0.2496
31485.0 3.33413 0.239(9) 12948. 0.2484 0.2492
31495.0 3.33519 0.232(9) 13310. 0.2480 0.2488
31505.0 3.33625 0.256(9) 12077. 0.2475 0.2483
31515.0 3.33731 0.261(9) 11767. 0.2471 0.2479
31525.0 3.33837 0.228(9) 13393. 0.2467 0.2475
31535.0 3.33943 0.251(9) 12178. 0.2463 0.2471
31545.0 3.34049 0.261(9) 11784. 0.2459 0.2467
31555.0 3.34155 0.246(9) 12477. 0.2455 0.2463
31565.0 3.34261 0.248(9) 12269. 0.2451 0.2459
31575.0 3.34367 0.257(9) 11803. 0.2447 0.2455
31585.0 3.34473 0.254(9) 11862. 0.2443 0.2451
31595.0 3.34579 0.251(9) 11935. 0.2439 0.2447
31605.0 3.34685 0.253(9) 11777. 0.2436 0.2443
31615.0 3.34791 0.251(9) 11802. 0.2432 0.2440
31625.0 3.34897 0.250(9) 11823. 0.2429 0.2436
31635.0 3.35003 0.235(9) 12532. 0.2425 0.2432
31645.0 3.35109 0.244(9) 12139. 0.2422 0.2429
31655.0 3.35215 0.244(9) 12201. 0.2419 0.2426
31665.0 3.35321 0.249(9) 11995. 0.2415 0.2423
31675.0 3.35427 0.236(9) 12572. 0.2412 0.2419
31685.0 3.35533 0.248(9) 11991. 0.2409 0.2416
31695.0 3.35639 0.239(9) 12427. 0.2407 0.2414
31705.0 3.35745 0.260(9) 11461. 0.2404 0.2411
31715.0 3.35851 0.249(9) 11806. 0.2401 0.2408
31725.0 3.35957 0.245(9) 12020. 0.2399 0.2406
31735.0 3.36063 0.226(9) 12890. 0.2397 0.2404
31745.0 3.36169 0.242(9) 12098. 0.2395 0.2401
31755.0 3.36275 0.254(9) 11539. 0.2393 0.2399
31765.0 3.36381 0.259(9) 11283. 0.2391 0.2398
31775.0 3.36487 0.246(9) 11913. 0.2389 0.2396
31785.0 3.36594 0.254(9) 11536. 0.2388 0.2395
31795.0 3.36700 0.239(9) 12189. 0.2387 0.2393
31805.0 3.36806 0.243(9) 11905. 0.2385 0.2392
31815.0 3.36912 0.245(9) 11815. 0.2385 0.2391
31825.0 3.37018 0.240(9) 11961. 0.2384 0.2391
31835.0 3.37124 0.237(9) 12107. 0.2384 0.2390
31845.0 3.37230 0.244(9) 11748. 0.2383 0.2390
31855.0 3.37336 0.236(9) 12165. 0.2384 0.2390
31865.0 3.37442 0.261(10) 11045. 0.2384 0.2390
31875.0 3.37548 0.250(9) 11457. 0.2385 0.2391
31885.0 3.37654 0.260(10) 11023. 0.2385 0.2392
31895.0 3.37760 0.237(9) 11965. 0.2387 0.2393
31905.0 3.37866 0.251(9) 11357. 0.2388 0.2394
31915.0 3.37972 0.225(9) 12574. 0.2390 0.2396
31925.0 3.38078 0.247(9) 11482. 0.2392 0.2398
31935.0 3.38184 0.257(10) 11024. 0.2394 0.2401
31945.0 3.38290 0.232(9) 12108. 0.2397 0.2403
31955.0 3.38396 0.256(10) 10959. 0.2400 0.2407
31965.0 3.38502 0.244(9) 11473. 0.2404 0.2410
31975.0 3.38608 0.234(9) 11902. 0.2407 0.2414
31985.0 3.38714 0.245(9) 11495. 0.2412 0.2418
31995.0 3.38820 0.240(9) 11672. 0.2416 0.2423
32005.0 3.38926 0.236(9) 11827. 0.2421 0.2428
32015.0 3.39032 0.234(9) 11872. 0.2427 0.2433
32025.0 3.39138 0.237(9) 11661. 0.2433 0.2439
32035.0 3.39244 0.231(9) 12048. 0.2439 0.2445
32045.0 3.39350 0.228(9) 12231. 0.2446 0.2452
32055.0 3.39456 0.225(9) 12313. 0.2453 0.2460
32065.0 3.39562 0.241(9) 11513. 0.2461 0.2467
32075.0 3.39669 0.248(9) 11148. 0.2470 0.2476
32085.0 3.39775 0.245(9) 11285. 0.2479 0.2485
32095.0 3.39881 0.253(10) 10922. 0.2488 0.2494
32105.0 . 0.246(9) . . .
32115.0 . 0.238(9) . . .
32125.0 . 0.239(9) . . .
32135.0 . 0.243(9) . . .
32145.0 . 0.238(9) . . .
32155.0 . 0.231(9) . . .
32165.0 . 0.255(10) . . .
32175.0 . 0.237(9) . . .
32185.0 . 0.230(9) . . .
32195.0 . 0.241(9) . . .
32205.0 . 0.226(9) . . .
32215.0 . 0.226(9) . . .
32225.0 . 0.231(9) . . .
32235.0 . 0.249(10) . . .
32245.0 . 0.230(9) . . .
32255.0 . 0.222(9) . . .
32265.0 . 0.241(9) . . .
32275.0 . 0.243(9) . . .
32285.0 . 0.228(9) . . .
32295.0 . 0.241(9) . . .
32305.0 . 0.242(9) . . .
32315.0 . 0.229(9) . . .
32325.0 . 0.235(9) . . .
32335.0 . 0.214(9) . . .
32345.0 . 0.219(9) . . .
32355.0 . 0.225(9) . . .
32365.0 . 0.219(9) . . .
32375.0 . 0.233(9) . . .
32385.0 . 0.235(9) . . .
32395.0 . 0.214(9) . . .
32405.0 . 0.234(9) . . .
32415.0 . 0.235(9) . . .
32425.0 . 0.224(9) . . .
32435.0 . 0.237(9) . . .
32445.0 . 0.229(9) . . .
32455.0 . 0.237(9) . . .
32465.0 . 0.218(9) . . .
32475.0 . 0.238(9) . . .
32485.0 . 0.218(9) . . .
32495.0 . 0.210(9) . . .
32505.0 . 0.207(9) . . .
32515.0 . 0.218(9) . . .
32525.0 . 0.236(9) . . .
32535.0 . 0.223(9) . . .
32545.0 . 0.225(9) . . .
32555.0 . 0.230(9) . . .
32565.0 . 0.219(9) . . .
32575.0 . 0.233(9) . . .
32585.0 . 0.228(9) . . .
32595.0 . 0.214(9) . . .
32605.0 . 0.209(9) . . .
32615.0 . 0.218(9) . . .
32625.0 . 0.210(9) . . .
32635.0 . 0.221(9) . . .
32645.0 . 0.228(9) . . .
32655.0 . 0.232(9) . . .
32665.0 . 0.221(9) . . .
32675.0 . 0.231(9) . . .
32685.0 . 0.215(9) . . .
32695.0 . 0.228(9) . . .
32705.0 . 0.239(10) . . .
32715.0 . 0.216(9) . . .
32725.0 . 0.227(9) . . .
32735.0 . 0.218(9) . . .
32745.0 . 0.223(9) . . .
32755.0 . 0.212(9) . . .
32765.0 . 0.229(10) . . .
32775.0 . 0.233(10) . . .
32785.0 . 0.218(9) . . .
32795.0 . 0.239(10) . . .
32805.0 . 0.230(10) . . .
32815.0 . 0.219(9) . . .
32825.0 . 0.228(10) . . .
32835.0 . 0.242(10) . . .
32845.0 . 0.233(10) . . .
32855.0 . 0.231(10) . . .
32865.0 . 0.213(9) . . .
32875.0 . 0.219(9) . . .
32885.0 . 0.219(9) . . .
32895.0 . 0.231(10) . . .
32905.0 . 0.236(10) . . .
32915.0 . 0.223(10) . . .
32925.0 . 0.234(10) . . .
32935.0 . 0.231(10) . . .
32945.0 . 0.226(10) . . .
32955.0 . 0.242(10) . . .
32965.0 . 0.224(10) . . .
32975.0 . 0.218(10) . . .
32985.0 . 0.220(10) . . .
32995.0 . 0.223(10) . . .
33005.0 . 0.250(10) . . .
33015.0 . 0.208(9) . . .
33025.0 . 0.232(10) . . .
33035.0 . 0.225(10) . . .
33045.0 . 0.200(9) . . .
33055.0 . 0.223(10) . . .
33065.0 . 0.237(10) . . .
33075.0 . 0.245(10) . . .
33085.0 . 0.223(10) . . .
33095.0 . 0.231(10) . . .
33105.0 . 0.222(10) . . .
33115.0 . 0.230(10) . . .
33125.0 . 0.232(10) . . .
33135.0 . 0.211(9) . . .
33145.0 . 0.215(10) . . .
33155.0 . 0.226(10) . . .
33165.0 . 0.224(10) . . .
33175.0 . 0.229(10) . . .
33185.0 . 0.229(10) . . .
33195.0 . 0.225(10) . . .
33205.0 . 0.237(10) . . .
33215.0 . 0.225(10) . . .
33225.0 . 0.230(10) . . .
33235.0 . 0.206(9) . . .
33245.0 . 0.210(9) . . .
33255.0 . 0.213(10) . . .
33265.0 . 0.210(9) . . .
33275.0 . 0.202(9) . . .
33285.0 . 0.214(10) . . .
33295.0 . 0.211(9) . . .
33305.0 . 0.229(10) . . .
33315.0 . 0.207(9) . . .
33325.0 . 0.223(10) . . .
33335.0 . 0.210(9) . . .
33345.0 . 0.223(10) . . .
33355.0 . 0.214(9) . . .
33365.0 . 0.213(9) . . .
33375.0 . 0.209(9) . . .
33385.0 . 0.203(9) . . .
33395.0 . 0.214(10) . . .
33405.0 . 0.215(10) . . .
33415.0 . 0.213(10) . . .
33425.0 . 0.211(10) . . .
33435.0 . 0.199(9) . . .
33445.0 . 0.220(10) . . .
33455.0 . 0.206(9) . . .
33465.0 . 0.203(9) . . .
33475.0 . 0.212(10) . . .
33485.0 . 0.225(10) . . .
33495.0 . 0.205(9) . . .
33505.0 . 0.213(10) . . .
33515.0 . 0.218(10) . . .
33525.0 . 0.202(9) . . .
33535.0 . 0.210(10) . . .
33545.0 . 0.199(9) . . .
33555.0 . 0.198(9) . . .
33565.0 . 0.212(10) . . .
33575.0 . 0.208(10) . . .
33585.0 . 0.212(10) . . .
33595.0 . 0.214(10) . . .
33605.0 . 0.200(9) . . .
33615.0 . 0.214(10) . . .
33625.0 . 0.203(9) . . .
33635.0 . 0.202(9) . . .
33645.0 . 0.224(10) . . .
33655.0 . 0.214(10) . . .
33665.0 . 0.210(10) . . .
33675.0 . 0.203(9) . . .
33685.0 . 0.206(10) . . .
33695.0 . 0.209(10) . . .
33705.0 . 0.211(10) . . .
33715.0 . 0.209(10) . . .
33725.0 . 0.215(10) . . .
33735.0 . 0.205(10) . . .
33745.0 . 0.217(10) . . .
33755.0 . 0.223(10) . . .
33765.0 . 0.198(10) . . .
33775.0 . 0.208(10) . . .
33785.0 . 0.210(10) . . .
33795.0 . 0.197(10) . . .
33805.0 . 0.211(10) . . .
33815.0 . 0.213(10) . . .
33825.0 . 0.223(10) . . .
33835.0 . 0.216(10) . . .
33845.0 . 0.214(10) . . .
33855.0 . 0.224(10) . . .
33865.0 . 0.211(10) . . .
33875.0 . 0.217(10) . . .
33885.0 . 0.234(11) . . .
33895.0 . 0.240(11) . . .
33905.0 . 0.219(10) . . .
33915.0 . 0.229(10) . . .
33925.0 . 0.210(10) . . .
33935.0 . 0.220(10) . . .
33945.0 . 0.221(10) . . .
33955.0 . 0.232(11) . . .
33965.0 . 0.229(11) . . .
33975.0 . 0.229(10) . . .
33985.0 . 0.236(11) . . .
33995.0 . 0.219(10) . . .
34005.0 . 0.218(10) . . .
34015.0 . 0.240(11) . . .
34025.0 . 0.231(11) . . .
34035.0 . 0.234(11) . . .
34045.0 . 0.221(10) . . .
34055.0 . 0.230(11) . . .
34065.0 . 0.226(10) . . .
34075.0 . 0.231(11) . . .
34085.0 . 0.242(11) . . .
34095.0 . 0.223(10) . . .
34105.0 . 0.248(11) . . .
34115.0 . 0.236(11) . . .
34125.0 . 0.260(11) . . .
34135.0 . 0.225(11) . . .
34145.0 . 0.236(11) . . .
34155.0 . 0.250(11) . . .
34165.0 . 0.248(11) . . .
34175.0 . 0.233(11) . . .
34185.0 . 0.237(11) . . .
34195.0 . 0.239(11) . . .
34205.0 . 0.224(11) . . .
34215.0 . 0.241(11) . . .
34225.0 . 0.252(11) . . .
34235.0 . 0.227(11) . . .
34245.0 . 0.258(11) . . .
34255.0 . 0.241(11) . . .
34265.0 . 0.244(11) . . .
34275.0 . 0.249(11) . . .
34285.0 . 0.223(11) . . .
34295.0 . 0.253(11) . . .
34305.0 . 0.238(11) . . .
34315.0 . 0.241(11) . . .
34325.0 . 0.238(11) . . .
34335.0 . 0.246(11) . . .
34345.0 . 0.247(11) . . .
34355.0 . 0.227(11) . . .
34365.0 . 0.242(11) . . .
34375.0 . 0.242(11) . . .
34385.0 . 0.268(12) . . .
34395.0 . 0.242(11) . . .
34405.0 . 0.240(11) . . .
34415.0 . 0.237(11) . . .
34425.0 . 0.261(12) . . .
34435.0 . 0.247(11) . . .
34445.0 . 0.248(11) . . .
34455.0 . 0.243(11) . . .
34465.0 . 0.240(11) . . .
34475.0 . 0.233(11) . . .
34485.0 . 0.248(11) . . .
34495.0 . 0.253(11) . . .
34505.0 . 0.239(11) . . .
34515.0 . 0.253(11) . . .
34525.0 . 0.253(11) . . .
34535.0 . 0.243(11) . . .
34545.0 . 0.255(12) . . .
34555.0 . 0.268(12) . . .
34565.0 . 0.296(12) . . .
34575.0 . 0.258(12) . . .
34585.0 . 0.271(12) . . .
34595.0 . 0.294(13) . . .
34605.0 . 0.272(12) . . .
34615.0 . 0.283(12) . . .
34625.0 . 0.280(12) . . .
34635.0 . 0.275(12) . . .
34645.0 . 0.272(12) . . .
34655.0 . 0.278(12) . . .
34665.0 . 0.291(13) . . .
34675.0 . 0.271(12) . . .
34685.0 . 0.303(13) . . .
34695.0 . 0.293(13) . . .
34705.0 . 0.283(13) . . .
34715.0 . 0.263(12) . . .
34725.0 . 0.285(13) . . .
34735.0 . 0.289(13) . . .
34745.0 . 0.279(13) . . .
34755.0 . 0.266(12) . . .
34765.0 . 0.271(12) . . .
34775.0 . 0.263(12) . . .
34785.0 . 0.262(12) . . .
34795.0 . 0.268(12) . . .
34805.0 . 0.272(13) . . .
34815.0 . 0.266(12) . . .
34825.0 . 0.275(13) . . .
34835.0 . 0.247(12) . . .
34845.0 . 0.240(12) . . .
34855.0 . 0.244(12) . . .
34865.0 . 0.250(12) . . .
34875.0 . 0.264(12) . . .
34885.0 . 0.255(12) . . .
34895.0 . 0.262(13) . . .
34905.0 . 0.243(12) . . .
34915.0 . 0.257(12) . . .
34925.0 . 0.264(13) . . .
34935.0 . 0.241(12) . . .
34945.0 . 0.241(12) . . .
34955.0 . 0.244(12) . . .
34965.0 . 0.230(12) . . .
34975.0 . 0.252(12) . . .
34985.0 . 0.231(12) . . .
34995.0 . 0.215(11) . . .
35005.0 . 0.211(11) . . .
35015.0 . 0.233(12) . . .
35025.0 . 0.234(12) . . .
35035.0 . 0.221(11) . . .
35045.0 . 0.235(12) . . .
35055.0 . 0.230(12) . . .
35065.0 . 0.197(11) . . .
35075.0 . 0.242(12) . . .
35085. . 0.216(11) . . .
35095. . 0.203(11) . . .
35105. . 0.203(11) . . .
35115. . 0.198(11) . . .
35125. . 0.223(11) . . .
35135. . 0.197(11) . . .
35145. . 0.221(11) . . .
35155. . 0.190(11) . . .
35165. . 0.204(11) . . .
35175. . 0.202(11) . . .
35185. . 0.220(11) . . .
35195. . 0.193(11) . . .
35205. . 0.195(11) . . .
35215. . 0.188(10) . . .
35225. . 0.199(11) . . .
35235. . 0.190(11) . . .
35245. . 0.201(11) . . .
35255. . 0.194(11) . . .
35265. . 0.195(11) . . .
35275. . 0.183(10) . . .
35285. . 0.190(10) . . .
35295. . 0.200(11) . . .
35305. . 0.198(11) . . .
35315. . 0.177(10) . . .
35325. . 0.195(11) . . .
35335. . 0.183(10) . . .
35345. . 0.187(10) . . .
35355. . 0.174(10) . . .
35365. . 0.197(11) . . .
35375. . 0.176(10) . . .
35385. . 0.192(10) . . .
35395. . 0.197(11) . . .
35405. . 0.182(10) . . .
35415. . 0.193(11) . . .
35425. . 0.181(10) . . .
35435. . 0.173(10) . . .
35445. . 0.175(10) . . .
35455. . 0.184(10) . . .
35465. . 0.191(11) . . .
35475. . 0.181(10) . . .
35485. . 0.168(10) . . .
35495. . 0.179(10) . . .
35505. . 0.200(11) . . .
35515. . 0.175(10) . . .
35525. . 0.203(11) . . .
35535. . 0.187(11) . . .
35545. . 0.190(11) . . .
35555. . 0.188(11) . . .
35565. . 0.178(10) . . .
35575. . 0.191(11) . . .
35585. . 0.179(10) . . .
35595. . 0.177(10) . . .
35605. . 0.192(11) . . .
35615. . 0.206(11) . . .
35625. . 0.203(11) . . .
35635. . 0.167(10) . . .
35645. . 0.195(11) . . .
35655. . 0.185(11) . . .
35665. . 0.181(11) . . .
35675. . 0.168(10) . . .
35685. . 0.187(11) . . .
35695. . 0.202(11) . . .
35705. . 0.193(11) . . .
35715. . 0.172(10) . . .
35725. . 0.180(11) . . .
35735. . 0.195(11) . . .
35745. . 0.180(11) . . .
35755. . 0.194(11) . . .
35765. . 0.168(10) . . .
35775. . 0.190(11) . . .
35785. . 0.180(11) . . .
35795. . 0.181(11) . . .
35805. . 0.171(10) . . .
35815. . 0.185(11) . . .
35825. . 0.180(11) . . .
35835. . 0.157(10) . . .
35845. . 0.184(11) . . .
35855. . 0.205(11) . . .
35865. . 0.183(11) . . .
35875. . 0.178(11) . . .
35885. . 0.183(11) . . .
35895. . 0.202(11) . . .
35905. . 0.163(10) . . .
35915. . 0.191(11) . . .
35925. . 0.201(11) . . .
35935. . 0.199(11) . . .
35945. . 0.203(12) . . .
35955. . 0.190(11) . . .
35965. . 0.187(11) . . .
35975. . 0.161(10) . . .
35985. . 0.166(11) . . .
35995. . 0.198(11) . . .
36005. . 0.183(11) . . .
36015. . 0.176(11) . . .
36025. . 0.177(11) . . .
36035. . 0.172(11) . . .
36045. . 0.180(11) . . .
36055. . 0.189(11) . . .
36065. . 0.180(11) . . .
36075. . 0.178(11) . . .
36085. . 0.156(10) . . .
36095. . 0.171(11) . . .
36105. . 0.186(11) . . .
36115. . 0.189(11) . . .
36125. . 0.190(11) . . .
36135. . 0.159(10) . . .
36145. . 0.173(11) . . .
36155. . 0.175(11) . . .
36165. . 0.184(11) . . .
36175. . 0.158(10) . . .
36185. . 0.175(11) . . .
36195. . 0.180(11) . . .
36205. . 0.163(10) . . .
36215. . 0.160(10) . . .
36225. . 0.176(11) . . .
36235. . 0.168(10) . . .
36245. . 0.170(10) . . .
36255. . 0.145(10) . . .
36265. . 0.159(10) . . .
36275. . 0.169(10) . . .
36285. . 0.182(11) . . .
36295. . 0.169(10) . . .
36305. . 0.169(10) . . .
36315. . 0.148(10) . . .
36325. . 0.164(10) . . .
36335. . 0.155(10) . . .
36345. . 0.173(11) . . .
36355. . 0.147(10) . . .
36365. . 0.184(11) . . .
36375. . 0.173(11) . . .
36385. . 0.172(11) . . .
36395. . 0.187(11) . . .
36405. . 0.169(10) . . .
36415. . 0.143(10) . . .
36425. . 0.156(10) . . .
36435. . 0.157(10) . . .
36445. . 0.164(10) . . .
36455. . 0.169(11) . . .
36465. . 0.166(10) . . .
36475. . 0.173(11) . . .
36485. . 0.181(11) . . .
36495. . 0.173(11) . . .
36505. . 0.144(10) . . .
36515. . 0.182(11) . . .
36525. . 0.168(11) . . .
36535. . 0.160(10) . . .
36545. . 0.189(11) . . .
36555. . 0.177(11) . . .
36565. . 0.163(11) . . .
36575. . 0.175(11) . . .
36585. . 0.170(11) . . .
36595. . 0.170(11) . . .
36605. . 0.162(11) . . .
36615. . 0.177(11) . . .
36625. . 0.152(10) . . .
36635. . 0.176(11) . . .
36645. . 0.169(11) . . .
36655. . 0.191(12) . . .
36665. . 0.170(11) . . .
36675. . 0.165(11) . . .
36685. . 0.180(11) . . .
36695. . 0.166(11) . . .
36705. . 0.183(12) . . .
36715. . 0.150(10) . . .
36725. . 0.188(12) . . .
36735. . 0.156(11) . . .
36745. . 0.180(11) . . .
36755. . 0.177(11) . . .
36765. . 0.164(11) . . .
36775. . 0.182(11) . . .
36785. . 0.164(11) . . .
36795. . 0.174(11) . . .
36805. . 0.156(11) . . .
36815. . 0.163(11) . . .
36825. . 0.168(11) . . .
36835. . 0.166(11) . . .
36845. . 0.176(11) . . .
36855. . 0.181(12) . . .
36865. . 0.188(12) . . .
36875. . 0.155(11) . . .
36885. . 0.186(12) . . .
36895. . 0.178(12) . . .
36905. . 0.175(12) . . .
36915. . 0.185(12) . . .
36925. . 0.176(12) . . .
36935. . 0.170(12) . . .
36945. . 0.176(12) . . .
36955. . 0.169(12) . . .
36965. . 0.157(11) . . .
36975. . 0.176(12) . . .
36985. . 0.169(12) . . .
36995. . 0.189(12) . . .
37005. . 0.184(12) . . .
37015. . 0.167(12) . . .
37025. . 0.162(12) . . .
37035. . 0.168(12) . . .
37045. . 0.165(12) . . .
37055. . 0.187(12) . . .
37065. . 0.192(12) . . .
37075. . 0.182(12) . . .
37085. . 0.184(12) . . .
37095. . 0.155(11) . . .
37105. . 0.183(12) . . .
37115. . 0.186(12) . . .
37125. . 0.166(12) . . .
37135. . 0.177(12) . . .
37145. . 0.182(12) . . .
37155. . 0.182(12) . . .
37165. . 0.182(12) . . .
37175. . 0.178(12) . . .
37185. . 0.171(12) . . .
37195. . 0.183(12) . . .
37205. . 0.163(12) . . .
37215. . 0.170(12) . . .
37225. . 0.169(12) . . .
37235. . 0.166(12) . . .
37245. . 0.168(12) . . .
37255. . 0.159(12) . . .
37265. . 0.143(11) . . .
37275. . 0.188(13) . . .
37285. . 0.175(12) . . .
37295. . 0.152(11) . . .
37305. . 0.169(12) . . .
37315. . 0.167(12) . . .
37325. . 0.180(12) . . .
37335. . 0.177(12) . . .
37345. . 0.159(12) . . .
37355. . 0.155(12) . . .
37365. . 0.157(12) . . .
37375. . 0.161(12) . . .
37385. . 0.151(11) . . .
37395. . 0.181(12) . . .
37405. . 0.164(12) . . .
37415. . 0.148(11) . . .
37425. . 0.159(12) . . .
37435. . 0.169(12) . . .
37445. . 0.152(12) . . .
37455. . 0.151(12) . . .
37465. . 0.174(12) . . .
37475. . 0.155(12) . . .
37485. . 0.163(12) . . .
37495. . 0.183(13) . . .
37505. . 0.135(11) . . .
37515. . 0.157(12) . . .
37525. . 0.174(12) . . .
37535. . 0.151(12) . . .
37545. . 0.161(12) . . .
37555. . 0.161(12) . . .
37565. . 0.159(12) . . .
37575. . 0.161(12) . . .
37585. . 0.162(12) . . .
37595. . 0.159(12) . . .
37605. . 0.167(13) . . .
37615. . 0.147(12) . . .
37625. . 0.158(12) . . .
37635. . 0.169(13) . . .
37645. . 0.176(13) . . .
37655. . 0.157(12) . . .
37665. . 0.145(12) . . .
37675. . 0.173(13) . . .
37685. . 0.193(14) . . .
37695. . 0.160(12) . . .
37705. . 0.157(12) . . .
37715. . 0.153(12) . . .
37725. . 0.160(12) . . .
37735. . 0.146(12) . . .
37745. . 0.169(13) . . .
37755. . 0.149(12) . . .
37765. . 0.149(12) . . .
37775. . 0.157(12) . . .
37785. . 0.157(12) . . .
37795. . 0.139(12) . . .
37805. . 0.144(12) . . .
37815. . 0.167(12) . . .
37825. . 0.167(13) . . .
37835. . 0.146(12) . . .
37845. . 0.135(11) . . .
37855. . 0.153(12) . . .
37865. . 0.135(11) . . .
37875. . 0.155(12) . . .
37885. . 0.159(12) . . .
37895. . 0.150(12) . . .
37905. . 0.141(12) . . .
37915. . 0.147(12) . . .
37925. . 0.138(12) . . .
37935. . 0.148(12) . . .
37945. . 0.140(12) . . .
37955. . 0.158(13) . . .
37965. . 0.157(13) . . .
37975. . 0.158(13) . . .
37985. . 0.150(12) . . .
37995. . 0.159(13) . . .
38005. . 0.142(12) . . .
38015. . 0.145(12) . . .
38025. . 0.163(13) . . .
38035. . 0.158(13) . . .
38045. . 0.159(13) . . .
38055. . 0.169(13) . . .
38065. . 0.155(13) . . .
38075. . 0.143(12) . . .
38085. . 0.136(12) . . .
38095. . 0.149(13) . . .
38105. . 0.150(13) . . .
38115. . 0.143(13) . . .
38125. . 0.165(14) . . .
38135. . 0.153(13) . . .
38145. . 0.146(13) . . .
38155. . 0.185(14) . . .
38165. . 0.162(14) . . .
38175. . 0.192(15) . . .
38185. . 0.155(13) . . .
38195. . 0.170(14) . . .
38205. . 0.161(14) . . .
38215. . 0.161(14) . . .
38225. . 0.150(13) . . .
38235. . 0.151(13) . . .
38245. . 0.154(13) . . .
38255. . 0.165(14) . . .
38265. . 0.158(14) . . .
38275. . 0.171(14) . . .
38285. . 0.146(13) . . .
38295. . 0.164(14) . . .
38305. . 0.165(14) . . .
38315. . 0.143(13) . . .
38325. . 0.142(13) . . .
38335. . 0.150(14) . . .
38345. . 0.157(14) . . .
38355. . 0.176(15) . . .
38365. . 0.156(14) . . .
38375. . 0.133(13) . . .
38385. . 0.153(14) . . .
38395. . 0.142(14) . . .
38405. . 0.155(14) . . .
38415. . 0.133(13) . . .
38425. . 0.165(15) . . .
38435. . 0.145(14) . . .
38445. . 0.163(15) . . .
38455. . 0.165(15) . . .
38465. . 0.140(14) . . .
38475. . 0.167(15) . . .
38485. . 0.122(13) . . .
38495. . 0.143(14) . . .
38505. . 0.161(14) . . .
38515. . 0.141(13) . . .
38525. . 0.155(14) . . .
38535. . 0.146(14) . . .
38545. . 0.149(14) . . .
38555. . 0.136(14) . . .
38565. . 0.160(14) . . .
38575. . 0.148(14) . . .
38585. . 0.166(15) . . .
38595. . 0.164(15) . . .
38605. . 0.173(15) . . .
38615. . 0.165(15) . . .
38625. . 0.166(15) . . .
38635. . 0.135(14) . . .
38645. . 0.156(15) . . .
38655. . 0.138(14) . . .
38665. . 0.154(15) . . .
38675. . 0.130(14) . . .
38685. . 0.154(15) . . .
38695. . 0.175(16) . . .
38705. . 0.157(15) . . .
38715. . 0.189(16) . . .
38725. . 0.160(15) . . .
38735. . 0.156(15) . . .
38745. . 0.168(16) . . .
38755. . 0.137(14) . . .
38765. . 0.138(14) . . .
38775. . 0.144(15) . . .
38785. . 0.133(14) . . .
38795. . 0.160(15) . . .
38805. . 0.141(15) . . .
38815. . 0.155(15) . . .
38825. . 0.153(15) . . .
38835. . 0.142(15) . . .
38845. . 0.133(14) . . .
38855. . 0.132(14) . . .
38865. . 0.139(14) . . .
38875. . 0.128(14) . . .
38885. . 0.143(14) . . .
38895. . 0.147(15) . . .
38905. . 0.146(15) . . .
38915. . 0.133(14) . . .
38925. . 0.151(15) . . .
38935. . 0.138(14) . . .
38945. . 0.110(13) . . .
38955. . 0.139(15) . . .
38965. . 0.127(14) . . .
38975. . 0.136(14) . . .
38985. . 0.151(15) . . .
38995. . 0.144(15) . . .
39005. . 0.125(14) . . .
39015. . 0.157(16) . . .
39025. . 0.144(15) . . .
39035. . 0.124(14) . . .
39045. . 0.134(14) . . .
39055. . 0.141(15) . . .
39065. . 0.150(15) . . .
39075. . 0.135(14) . . .
39085. . 0.125(14) . . .
39095. . 0.113(13) . . .
39105. . 0.108(13) . . .
39115. . 0.122(14) . . .
39125. . 0.113(13) . . .
39135. . 0.114(13) . . .
39145. . 0.115(13) . . .
39155. . 0.160(16) . . .
39165. . 0.112(13) . . .
39175. . 0.120(14) . . .
39185. . 0.102(13) . . .
39195. . 0.106(13) . . .
39205. . 0.113(13) . . .
39215. . 0.129(14) . . .
39225. . 0.112(13) . . .
39235. . 0.115(13) . . .
39245. . 0.121(14) . . .
39255. . 0.128(14) . . .
39265. . 0.128(14) . . .
39275. . 0.108(13) . . .
39285. . 0.102(13) . . .
39295. . 0.102(13) . . .
39305. . 0.118(14) . . .
39315. . 0.106(13) . . .
39325. . 0.118(14) . . .
39335. . 0.117(14) . . .
39345. . 0.132(14) . . .
39355. . 0.112(13) . . .
39365. . 0.123(14) . . .
39375. . 0.114(14) . . .
39385. . 0.093(13) . . .
39395. . 0.132(15) . . .
39405. . 0.136(15) . . .
39415. . 0.115(14) . . .
39425. . 0.121(14) . . .
39435. . 0.094(13) . . .
39445. . 0.127(15) . . .
39455. . 0.111(14) . . .
39465. . 0.119(14) . . .
39475. . 0.126(15) . . .
39485. . 0.133(15) . . .
39495. . 0.140(16) . . .
39505. . 0.138(16) . . .
39515. . 0.112(14) . . .
39525. . 0.130(15) . . .
39535. . 0.102(14) . . .
39545. . 0.126(15) . . .
39555. . 0.133(16) . . .
39565. . 0.137(16) . . .
39575. . 0.105(14) . . .
39585. . 0.106(14) . . .
39595. . 0.115(15) . . .
39605. . 0.104(14) . . .
39615. . 0.120(15) . . .
39625. . 0.116(15) . . .
39635. . 0.106(14) . . .
39645. . 0.105(14) . . .
39655. . 0.099(14) . . .
39665. . 0.110(15) . . .
39675. . 0.120(16) . . .
39685. . 0.096(14) . . .
39695. . 0.108(15) . . .
39705. . 0.143(17) . . .
39715. . 0.121(16) . . .
39725. . 0.116(16) . . .
39735. . 0.123(16) . . .
39745. . 0.114(16) . . .
39755. . 0.110(15) . . .
39765. . 0.107(15) . . .
39775. . 0.106(15) . . .
39785. . 0.119(16) . . .
39795. . 0.114(16) . . .
39805. . 0.127(17) . . .
39815. . 0.122(17) . . .
39825. . 0.121(17) . . .
39835. . 0.141(18) . . .
39845. . 0.124(17) . . .
39855. . 0.086(15) . . .
39865. . 0.106(16) . . .
39875. . 0.117(17) . . .
39885. . 0.136(18) . . .
39895. . 0.131(18) . . .
39905. . 0.093(16) . . .
39915. . 0.123(18) . . .
39925. . 0.115(17) . . .
39935. . 0.124(18) . . .
39945. . 0.143(19) . . .
39955. . 0.124(18) . . .
39965. . 0.124(18) . . .
loop_
_refln_index_h
_refln_index_k
_refln_index_l
_refln_observed_status
_refln_F_squared_meas
_refln_F_squared_calc
_refln_phase_calc
_refln_d_spacing
_gsas_i100_meas
1 1 -1 o 7.067 7.027 0.00 3.12968 88.29
1 1 1 o 2.323 2.292 180.00 2.82437 19.25
0 2 0 o 0.312 0.239 180.00 2.60465 0.93
0 0 2 o 1.471 2.134 180.00 2.58584 4.28
2 0 0 o 0.545 0.140 0.00 2.51616 1.42
1 0 -2 o 6.927 6.159 180.00 2.45606 16.41
0 2 1 o 0.376 0.431 0.00 2.32628 1.43
0 1 2 o 0.598 0.657 0.00 2.31618 2.24
1 2 0 o 1.188 1.281 0.00 2.31317 4.43
2 1 0 o 7.692 7.748 180.00 2.26571 26.40
1 1 -2 o 0.005 0.006 0.00 2.22153 0.02
2 1 -1 o 5.153 5.184 180.00 2.18779 15.37
1 0 2 o 10.928 10.735 180.00 2.17029 15.79
1 2 -1 o 7.975 7.823 180.00 2.16857 22.97
1 2 1 o 1.178 0.949 0.00 2.05886 2.76
1 1 2 o 13.291 12.968 0.00 2.00338 27.88
2 1 1 o 1.778 2.000 0.00 1.97853 3.55
2 0 -2 o 1.558 2.509 0.00 1.95750 1.49
0 2 2 o 17.043 16.339 180.00 1.83508 25.17
2 1 -2 o 2.945 2.848 180.00 1.83240 4.32
2 2 0 o 21.218 20.557 180.00 1.80967 29.63
1 2 -2 o 19.527 20.009 0.00 1.78692 25.93
2 2 -1 o 7.812 8.185 180.00 1.76922 9.97
2 0 2 o 26.757 26.339 0.00 1.68065 13.90
3 0 0 o 0.171 0.170 0.00 1.67744 0.09
1 2 2 o 1.373 1.405 0.00 1.66734 1.38
2 2 1 o 3.166 3.032 0.00 1.65294 3.08
0 3 1 o 0.004 0.004 180.00 1.64612 0.00
0 1 3 o 11.513 11.602 180.00 1.63661 10.76
1 3 0 o 8.958 8.813 180.00 1.64146 8.47
1 1 -3 o 6.427 6.535 180.00 1.62664 5.86
2 1 2 o 0.007 0.008 0.00 1.59947 0.01
3 1 0 o 0.593 0.603 0.00 1.59670 0.50
3 1 -1 o 9.252 9.112 180.00 1.59166 7.73
1 3 -1 o 2.505 2.347 0.00 1.58731 2.07
2 2 -2 o 0.143 0.122 0.00 1.56484 0.11
1 3 1 o 19.341 17.829 180.00 1.54274 14.27
3 0 -2 o 33.310 34.578 180.00 1.51594 11.45
1 1 3 o 0.878 1.215 0.00 1.49448 0.57
3 1 1 o 14.534 15.634 0.00 1.46722 8.77
2 1 -3 o 2.686 2.976 0.00 1.47202 1.64
3 1 -2 o 4.500 5.072 0.00 1.45556 2.63
0 3 2 o 0.000 0.000 180.00 1.44157 0.00
0 2 3 o 0.579 0.594 0.00 1.43755 0.32
1 2 -3 o 4.884 5.030 0.00 1.43078 2.67
2 3 0 o 2.140 2.193 0.00 1.42915 1.16
1 3 -2 o 0.553 0.507 0.00 1.41786 0.29
2 2 2 o 0.526 0.470 0.00 1.41219 0.27
3 2 0 o 5.659 5.132 0.00 1.41028 2.92
2 3 -1 o 0.022 0.020 0.00 1.40897 0.01
3 2 -1 o 0.271 0.256 180.00 1.40680 0.14
1 3 2 o 2.444 1.800 0.00 1.35587 1.08
2 3 1 o 3.671 2.858 180.00 1.34808 1.58
1 2 3 o 2.358 2.018 0.00 1.33836 0.99
2 2 -3 o 7.101 6.523 0.00 1.32215 2.83
3 0 2 o 1.043 0.938 0.00 1.31906 0.21
3 2 1 o 1.938 1.736 180.00 1.31867 0.76
3 2 -2 o 0.002 0.002 180.00 1.31019 0.00
0 4 0 o 3.833 4.076 0.00 1.30233 0.72
1 0 -4 o 20.607 22.261 180.00 1.30060 3.84
0 0 4 o 6.969 7.469 0.00 1.29292 1.27
2 3 -2 o 0.072 0.078 180.00 1.29900 0.03
2 1 3 o 0.083 0.091 0.00 1.28982 0.03
3 1 2 o 5.961 6.892 0.00 1.27870 2.08
3 1 -3 o 0.708 0.734 0.00 1.26588 0.24
0 4 1 o 11.525 11.797 180.00 1.26290 3.82
1 1 -4 o 2.483 2.530 0.00 1.26186 0.82
1 4 0 o 15.425 15.641 180.00 1.26079 5.08
4 0 0 o 3.390 3.383 0.00 1.25808 0.55
0 1 4 o 3.364 3.273 180.00 1.25485 1.09
1 4 -1 o 0.234 0.215 0.00 1.23575 0.07
4 1 -1 o 0.769 0.707 0.00 1.23137 0.23
2 0 -4 o 8.717 8.171 0.00 1.22803 1.29
0 3 3 o 1.019 0.963 0.00 1.22339 0.30
4 1 0 o 19.843 18.762 180.00 1.22292 5.78
1 3 -3 o 0.023 0.022 0.00 1.21921 0.01
2 3 2 o 7.761 7.415 0.00 1.20764 2.15
1 4 1 o 0.561 0.548 180.00 1.21436 0.16
3 3 0 o 1.014 0.966 180.00 1.20645 0.28
4 0 -2 o 2.412 2.294 180.00 1.20535 0.33
3 3 -1 o 0.000 0.000 180.00 1.20427 0.00
1 0 4 o 1.763 1.693 180.00 1.20892 0.25
2 1 -4 o 1.821 1.766 0.00 1.19527 0.48
2 2 3 o 0.392 0.405 0.00 1.18541 0.10
1 1 4 o 0.016 0.019 180.00 1.17763 0.00
3 2 2 o 0.135 0.158 0.00 1.17676 0.03
4 1 -2 o 0.003 0.004 180.00 1.17432 0.00
3 2 -3 o 0.471 0.417 0.00 1.16675 0.11
1 2 -4 o 0.013 0.012 180.00 1.16360 0.00
0 4 2 o 3.680 3.420 0.00 1.16314 0.88
1 3 3 o 11.366 10.878 0.00 1.16049 2.68
0 2 4 o 0.496 0.478 180.00 1.15809 0.12
2 4 0 o 0.609 0.583 180.00 1.15659 0.14
4 1 1 o 0.049 0.046 180.00 1.15272 0.01
1 4 -2 o 0.148 0.137 0.00 1.15058 0.03
2 3 -3 o 11.116 10.334 0.00 1.14988 2.53
3 3 1 o 0.007 0.006 180.00 1.14759 0.00
2 4 -1 o 1.224 1.182 180.00 1.14581 0.27
3 3 -2 o 5.321 5.752 180.00 1.14198 1.18
4 2 -1 o 0.560 0.665 0.00 1.13956 0.12
4 2 0 o 2.384 3.181 0.00 1.13285 0.51
1 4 2 o 4.663 5.396 180.00 1.11670 0.94
2 4 1 o 2.976 3.274 0.00 1.11234 0.59
2 2 -4 o 8.097 8.786 180.00 1.11076 1.61
3 0 -4 o 8.369 8.867 0.00 1.10837 0.82
1 2 4 o 17.288 17.787 0.00 1.09656 3.26
3 1 3 o 7.796 7.988 180.00 1.09538 1.46
4 2 -2 o 1.753 1.784 180.00 1.09389 0.33
2 0 4 o 8.837 9.080 180.00 1.08515 0.80
2 4 -2 o 21.733 22.327 0.00 1.08428 3.91
3 1 -4 o 5.354 5.499 0.00 1.08410 0.96
4 2 1 o 6.262 6.389 180.00 1.07637 1.09
4 1 -3 o 4.484 4.622 180.00 1.07486 0.78
4 0 2 o 0.316 0.349 180.00 1.06940 0.03
2 1 4 o 6.226 7.680 180.00 1.06234 1.03
2 3 3 o 5.982 6.211 0.00 1.05651 0.97
3 3 2 o 12.266 12.483 180.00 1.05037 1.94
4 1 2 o 3.280 3.340 180.00 1.04755 0.51
1 3 -4 o 0.000 0.000 180.00 1.04098 0.00
0 4 3 o 2.664 2.646 0.00 1.03913 0.40
0 3 4 o 3.040 2.968 0.00 1.03703 0.46
3 3 -3 o 0.103 0.104 0.00 1.04323 0.02
1 4 -3 o 1.556 1.513 0.00 1.03657 0.23
2 4 2 o 5.828 5.483 0.00 1.02943 0.85
3 2 3 o 2.014 1.893 0.00 1.02925 0.29
3 4 0 o 0.371 0.347 180.00 1.02869 0.05
3 4 -1 o 7.938 7.395 0.00 1.02734 1.15
1 1 -5 o 2.557 2.382 0.00 1.02442 0.37
4 3 -1 o 15.435 14.395 0.00 1.02366 2.21
0 5 1 o 0.169 0.158 180.00 1.02134 0.02
1 5 0 o 0.722 0.674 180.00 1.02023 0.10
3 2 -4 o 13.891 12.960 0.00 1.01987 1.96
4 3 0 o 0.227 0.211 0.00 1.01879 0.03
0 1 5 o 12.271 10.976 0.00 1.01453 1.69
4 2 -3 o 4.102 3.604 0.00 1.01216 0.56
1 5 -1 o 2.371 2.230 0.00 1.00682 0.32
5 0 0 o 11.563 10.962 180.00 1.00646 0.77
2 3 -4 o 10.311 10.166 0.00 1.00263 1.36
2 2 4 o 5.759 5.650 180.00 1.00169 0.76
1 4 3 o 1.426 1.374 0.00 0.99976 0.19
5 1 -1 o 0.005 0.005 0.00 0.99837 0.00
1 5 1 o 0.147 0.138 180.00 0.99515 0.02
2 1 -5 o 2.561 2.414 180.00 0.99347 0.32
2 4 -3 o 0.117 0.110 180.00 0.99295 0.01
1 3 4 o 9.645 9.036 180.00 0.99215 1.22
3 4 1 o 0.183 0.170 0.00 0.99147 0.02
4 3 -2 o 21.024 19.296 0.00 0.99017 2.63
5 0 -2 o 6.594 6.032 0.00 0.98994 0.41
4 2 2 o 10.839 9.812 180.00 0.98927 1.35
5 1 0 o 0.505 0.449 0.00 0.98819 0.06
3 4 -2 o 1.666 1.473 180.00 0.98785 0.21
4 0 -4 o 9.475 8.319 0.00 0.97875 0.57
4 3 1 o 4.776 4.287 180.00 0.97712 0.57
5 1 -2 o 18.641 17.290 0.00 0.97254 2.17
1 2 -5 o 0.280 0.261 180.00 0.96972 0.03
2 5 0 o 1.489 1.464 0.00 0.96260 0.17
4 1 -4 o 7.081 6.971 180.00 0.96192 0.79
0 2 5 o 3.222 3.170 180.00 0.96131 0.36
1 1 5 o 0.553 0.526 180.00 0.96709 0.06
0 5 2 o 12.424 11.897 180.00 0.96637 1.41
1 5 -2 o 11.967 11.638 0.00 0.95913 1.32
3 0 4 o 17.041 16.074 180.00 0.95643 0.93
2 5 -1 o 1.183 1.115 180.00 0.95637 0.13
5 2 -1 o 0.458 0.438 180.00 0.94753 0.05
5 1 1 o 4.262 4.175 180.00 0.94508 0.44
2 2 -5 o 0.001 0.001 180.00 0.94334 0.00
3 3 3 o 2.731 2.713 180.00 0.94146 0.28
3 1 4 o 10.723 10.684 0.00 0.94070 1.09
1 5 2 o 1.886 1.902 0.00 0.93924 0.19
5 2 0 o 2.684 2.722 180.00 0.93881 0.27
2 5 1 o 0.158 0.167 180.00 0.93664 0.02
4 1 3 o 0.000 0.000 180.00 0.93464 0.00
3 3 -4 o 1.118 1.237 180.00 0.93427 0.11
3 1 -5 o 2.895 3.209 0.00 0.93151 0.28
2 4 3 o 10.601 11.692 180.00 0.93095 1.04
4 3 -3 o 7.350 7.939 180.00 0.92833 0.71
3 4 2 o 3.970 4.261 180.00 0.92674 0.38
5 2 -2 o 5.693 6.091 0.00 0.92536 0.54
3 4 -3 o 8.680 9.444 180.00 0.92183 0.82
1 2 5 o 10.177 11.186 180.00 0.92067 0.95
1 4 -4 o 13.500 14.892 180.00 0.92027 1.26
2 3 4 o 0.273 0.302 0.00 0.92023 0.03
2 5 -2 o 8.440 9.358 180.00 0.91971 0.79
5 1 -3 o 1.183 1.330 0.00 0.91822 0.11
0 4 4 o 10.933 12.366 0.00 0.91754 1.01
4 2 -4 o 3.898 4.472 180.00 0.91620 0.36
4 3 2 o 5.646 6.907 0.00 0.91057 0.51
4 4 -1 o 0.846 1.052 0.00 0.90824 0.07
4 4 0 o 4.086 5.169 0.00 0.90483 0.36
5 2 1 o 2.048 2.367 180.00 0.90162 0.18
3 2 4 o 0.043 0.047 180.00 0.89781 0.00
2 1 5 o 6.413 6.976 180.00 0.89592 0.54
1 3 -5 o 3.953 4.303 180.00 0.89526 0.33
2 4 -4 o 0.648 0.701 0.00 0.89346 0.05
5 0 2 o 11.722 12.656 0.00 0.89333 0.49
4 2 3 o 11.288 12.109 0.00 0.89254 0.93
0 5 3 o 1.563 1.664 180.00 0.89167 0.13
3 5 0 o 38.452 39.296 0.00 0.88504 3.07
4 4 -2 o 1.292 1.319 0.00 0.88461 0.10
1 5 -3 o 0.010 0.010 0.00 0.89004 0.00
3 5 -1 o 0.095 0.097 180.00 0.88418 0.01
3 2 -5 o 0.000 0.000 180.00 0.88981 0.00
0 3 5 o 1.069 1.112 0.00 0.88863 0.09
5 1 2 o 5.389 5.485 0.00 0.88048 0.42
1 4 4 o 0.588 0.603 0.00 0.88602 0.05
2 5 2 o 9.392 9.612 180.00 0.88551 0.75
5 2 -3 o 4.553 4.701 0.00 0.87821 0.35
5 3 -1 o 7.855 8.142 0.00 0.87771 0.61
4 4 1 o 2.699 2.835 180.00 0.87527 0.21
2 3 -5 o 12.740 13.410 180.00 0.87438 0.97
1 0 -6 o 4.079 4.283 0.00 0.87182 0.15
5 3 0 o 14.547 15.221 180.00 0.87077 1.09
0 6 0 o 0.024 0.025 180.00 0.86822 0.00
1 5 3 o 1.624 1.710 0.00 0.86641 0.12
0 0 6 o 16.832 16.837 0.00 0.86195 0.60
2 5 -3 o 0.077 0.077 0.00 0.86197 0.01
3 5 1 o 1.452 1.424 0.00 0.86100 0.10
5 3 -2 o 1.476 1.418 180.00 0.86000 0.11
1 1 -6 o 2.465 2.362 180.00 0.85986 0.18
5 0 -4 o 1.368 1.309 180.00 0.85978 0.05
2 2 5 o 1.031 0.971 180.00 0.85863 0.07
3 5 -2 o 0.448 0.422 180.00 0.85863 0.03
1 3 5 o 2.493 2.323 180.00 0.85623 0.17
0 6 1 o 14.485 13.499 180.00 0.85624 1.01
2 0 -6 o 4.764 4.438 0.00 0.85613 0.17
1 6 0 o 12.931 12.018 0.00 0.85558 0.90
4 1 -5 o 9.602 8.799 0.00 0.85413 0.67
4 3 -4 o 0.022 0.020 0.00 0.85263 0.00
0 1 6 o 2.207 1.924 180.00 0.85038 0.15
3 4 3 o 2.169 1.892 180.00 0.84936 0.15
5 1 -4 o 3.126 2.760 0.00 0.84831 0.21
1 6 -1 o 0.010 0.009 180.00 0.84762 0.00
5 2 2 o 0.439 0.411 180.00 0.84501 0.03
2 1 -6 o 7.475 6.992 180.00 0.84479 0.50
3 4 -4 o 2.872 2.682 180.00 0.84406 0.19
5 3 1 o 4.735 4.295 180.00 0.84084 0.31
1 6 1 o 1.821 1.649 180.00 0.84063 0.12
4 0 4 o 0.535 0.484 0.00 0.84032 0.02
4 4 -3 o 3.723 3.349 180.00 0.83968 0.24
6 0 0 o 24.357 21.744 180.00 0.83872 0.78
3 3 4 o 0.251 0.222 180.00 0.83775 0.02
6 1 -1 o 12.128 10.712 180.00 0.83741 0.78
6 0 -2 o 0.029 0.026 0.00 0.83580 0.00
2 4 4 o 3.125 2.781 0.00 0.83367 0.20
4 3 3 o 0.780 0.696 180.00 0.83347 0.05
3 3 -5 o 2.365 2.175 180.00 0.83124 0.15
4 1 4 o 0.732 0.690 180.00 0.82960 0.05
1 0 6 o 5.249 4.982 180.00 0.82895 0.16
6 1 0 o 3.404 3.258 180.00 0.82806 0.21
1 2 -6 o 17.730 17.072 0.00 0.82674 1.08
4 4 2 o 10.137 9.760 180.00 0.82647 0.62
6 1 -2 o 1.594 1.528 180.00 0.82524 0.10
0 6 2 o 11.512 10.935 180.00 0.82306 0.69
5 3 -3 o 2.628 2.492 180.00 0.82176 0.16
4 2 -5 o 4.361 4.134 180.00 0.82164 0.26
2 6 0 o 1.027 0.973 180.00 0.82073 0.06
2 5 3 o 0.003 0.002 0.00 0.82047 0.00
3 0 -6 o 21.971 20.691 180.00 0.81869 0.64
1 1 6 o 1.871 1.762 0.00 0.81865 0.11
1 6 -2 o 0.711 0.669 0.00 0.81858 0.04
0 2 6 o 7.114 6.685 180.00 0.81830 0.42
3 5 2 o 3.768 3.524 180.00 0.81759 0.22
2 6 -1 o 0.580 0.539 180.00 0.81685 0.03
5 2 -4 o 6.711 6.225 180.00 0.81645 0.39
3 1 5 o 1.013 0.938 0.00 0.81611 0.06
1 4 -5 o 8.193 7.562 180.00 0.81497 0.47
3 1 -6 o 0.029 0.028 180.00 0.80876 0.00
3 5 -3 o 0.555 0.513 0.00 0.81421 0.03
2 2 -6 o 11.465 10.675 180.00 0.81332 0.65
1 5 -4 o 9.067 8.456 180.00 0.81313 0.52
5 1 3 o 12.397 11.855 0.00 0.80713 0.69
6 2 -1 o 1.844 1.759 0.00 0.80673 0.10
1 6 2 o 2.655 2.525 0.00 0.80611 0.15
0 5 4 o 12.613 11.958 0.00 0.81125 0.71
2 3 5 o 1.039 0.986 180.00 0.80566 0.06
4 5 -1 o 0.365 0.345 0.00 0.80480 0.02
2 6 1 o 10.261 9.714 0.00 0.80446 0.56
0 4 5 o 0.027 0.026 0.00 0.80996 0.00
4 5 0 o 3.372 3.195 180.00 0.80243 0.18
5 4 -1 o 3.939 3.733 180.00 0.80166 0.21
4 2 4 o 9.491 9.014 0.00 0.79973 0.51
6 1 1 o 2.355 2.243 0.00 0.79921 0.13
2 4 -5 o 0.025 0.024 0.00 0.79912 0.00
6 2 0 o 0.147 0.142 0.00 0.79835 0.01
5 4 0 o 0.256 0.255 0.00 0.79636 0.01
6 2 -2 o 0.440 0.444 0.00 0.79583 0.02
2 5 -4 o 0.001 0.001 0.00 0.79446 0.00
5 3 2 o 0.292 0.300 180.00 0.79437 0.02
6 1 -3 o 14.327 14.716 0.00 0.79417 0.74
2 6 -2 o 10.723 11.033 180.00 0.79365 0.55
1 2 6 o 2.123 2.201 180.00 0.78991 0.11
1 5 4 o 1.114 1.164 0.00 0.78922 0.06
4 5 -2 o 1.774 1.887 180.00 0.78822 0.09
5 4 -2 o 2.619 2.794 0.00 0.78810 0.13
3 2 5 o 0.494 0.534 180.00 0.78762 0.02
1 4 5 o 0.241 0.290 180.00 0.78520 0.01
4 4 -4 o 0.475 0.631 180.00 0.78242 0.02
4 5 1 o 0.138 0.186 180.00 0.78159 0.01
3 2 -6 o 0.010 0.014 180.00 0.78101 0.00
2 0 6 o 7.508 10.137 0.00 0.78003 0.18
5 2 3 o 0.978 1.310 0.00 0.77954 0.05
1 3 -6 o 0.125 0.166 180.00 0.77913 0.01
0 6 3 o 4.302 4.912 0.00 0.77543 0.20
4 3 -5 o 1.190 1.331 0.00 0.77486 0.06
1 6 -3 o 1.940 2.134 0.00 0.77436 0.09
5 1 -5 o 1.743 1.914 180.00 0.77430 0.08
5 4 1 o 7.702 8.189 0.00 0.77328 0.36
6 2 1 o 0.478 0.497 180.00 0.77240 0.02
0 3 6 o 0.387 0.399 180.00 0.77206 0.02
2 1 6 o 6.733 6.871 180.00 0.77143 0.31
2 6 2 o 0.248 0.253 180.00 0.77137 0.01
3 6 0 o 1.943 1.974 0.00 0.77106 0.09
3 4 4 o 0.109 0.111 0.00 0.77087 0.01
5 3 -4 o 3.768 3.815 180.00 0.77051 0.17
3 6 -1 o 3.636 3.682 0.00 0.77049 0.17
2 3 -6 o 3.373 3.461 180.00 0.76787 0.15
6 2 -3 o 0.044 0.046 0.00 0.76785 0.00
4 4 3 o 0.314 0.323 0.00 0.76753 0.01
4 0 -6 o 3.808 3.931 0.00 0.76728 0.09
3 4 -5 o 9.517 9.958 0.00 0.76579 0.43
6 0 2 o 5.968 6.359 0.00 0.76456 0.13
3 5 3 o 0.456 0.506 180.00 0.76297 0.02
6 3 -1 o 0.589 0.665 180.00 0.76231 0.03
4 1 -6 o 6.102 6.882 180.00 0.75909 0.26
3 5 -4 o 0.230 0.260 0.00 0.75913 0.01
1 6 3 o 0.455 0.509 0.00 0.75865 0.02
5 4 -3 o 3.920 4.354 0.00 0.75836 0.17
6 0 -4 o 3.589 3.953 0.00 0.75797 0.08
6 1 2 o 9.527 10.234 180.00 0.75646 0.41
4 3 4 o 10.516 11.290 0.00 0.75641 0.45
4 5 -3 o 1.347 1.440 180.00 0.75594 0.06
2 6 -3 o 0.184 0.196 0.00 0.75566 0.01
6 3 0 o 10.402 11.093 0.00 0.75524 0.44
3 6 1 o 0.678 0.723 180.00 0.75500 0.03
3 6 -2 o 0.101 0.109 180.00 0.75340 0.00
6 3 -2 o 0.721 0.781 0.00 0.75310 0.03
2 5 4 o 8.825 9.756 180.00 0.75154 0.37
6 1 -4 o 8.096 8.987 180.00 0.75007 0.33
5 2 -5 o 9.586 10.624 180.00 0.74985 0.39
1 3 6 o 2.267 2.441 180.00 0.74808 0.09
2 2 6 o 0.296 0.313 180.00 0.74724 0.01
4 5 2 o 5.048 5.226 180.00 0.74625 0.20
3 3 5 o 6.815 7.039 0.00 0.74614 0.28
2 4 5 o 3.584 3.667 0.00 0.74565 0.14
5 4 2 o 0.202 0.197 180.00 0.73667 0.01
0 7 1 o 2.913 2.851 0.00 0.73660 0.11
5 0 4 o 1.108 1.110 0.00 0.74164 0.02
1 7 0 o 13.579 13.291 180.00 0.73618 0.52
4 2 -6 o 0.178 0.175 0.00 0.73601 0.01
3 3 -6 o 0.830 0.830 180.00 0.74051 0.03
1 1 -7 o 1.018 1.011 0.00 0.73984 0.04
5 1 4 o 8.719 8.491 0.00 0.73424 0.33
0 5 5 o 0.100 0.098 0.00 0.73403 0.00
5 3 3 o 0.720 0.711 0.00 0.73926 0.03
6 2 2 o 9.882 9.579 0.00 0.73361 0.37
6 3 1 o 2.742 2.645 0.00 0.73316 0.10
4 1 5 o 0.276 0.270 0.00 0.73801 0.01
2 1 -7 o 1.695 1.619 0.00 0.73245 0.06
1 5 -5 o 0.514 0.503 0.00 0.73775 0.02
0 1 7 o 5.664 5.332 180.00 0.73149 0.21
1 7 -1 o 1.495 1.401 180.00 0.73110 0.06
6 3 -3 o 0.001 0.001 180.00 0.72926 0.00
5 5 -1 o 0.167 0.156 0.00 0.72784 0.01
6 2 -4 o 1.363 1.270 0.00 0.72778 0.05
2 6 3 o 7.861 7.327 180.00 0.72723 0.29
1 7 1 o 1.439 1.341 0.00 0.72659 0.05
2 5 -5 o 2.583 2.401 180.00 0.72594 0.09
3 6 2 o 4.406 4.077 0.00 0.72522 0.16
1 4 -6 o 4.115 3.776 180.00 0.72447 0.15
5 5 0 o 3.248 2.956 0.00 0.72387 0.12
3 0 6 o 9.562 8.655 0.00 0.72343 0.17
3 6 -3 o 20.699 18.619 180.00 0.72286 0.74
1 6 -4 o 4.589 4.108 0.00 0.72211 0.16
7 0 -2 o 0.083 0.074 0.00 0.72139 0.00
4 4 -5 o 0.082 0.074 180.00 0.72104 0.00
0 6 4 o 6.881 6.172 180.00 0.72078 0.24
7 1 -1 o 0.650 0.586 180.00 0.72024 0.02
7 0 0 o 5.403 4.967 0.00 0.71890 0.09
0 4 6 o 0.147 0.136 0.00 0.71878 0.01
1 2 -7 o 0.481 0.447 180.00 0.71842 0.02
5 5 -2 o 0.571 0.540 0.00 0.71765 0.02
5 4 -4 o 11.207 10.638 180.00 0.71752 0.39
4 2 5 o 1.883 1.820 180.00 0.71675 0.06
3 1 6 o 0.177 0.171 0.00 0.71655 0.01
4 6 -1 o 6.370 6.219 0.00 0.71625 0.22
1 5 5 o 0.008 0.008 0.00 0.71545 0.00
2 4 -6 o 1.087 1.075 0.00 0.71539 0.04
0 7 2 o 0.256 0.254 180.00 0.71516 0.01
7 1 -2 o 8.286 8.253 0.00 0.71457 0.28
4 6 0 o 0.584 0.582 180.00 0.71457 0.02
5 3 -5 o 1.432 1.431 180.00 0.71379 0.05
2 7 0 o 2.855 2.852 0.00 0.71363 0.10
4 5 -4 o 19.522 19.500 180.00 0.71335 0.66
5 2 4 o 0.089 0.089 180.00 0.71329 0.00
1 7 -2 o 1.961 1.951 0.00 0.71221 0.07
7 1 0 o 4.801 4.773 0.00 0.71215 0.16
2 2 -7 o 4.695 4.653 180.00 0.71165 0.16
2 3 6 o 11.324 11.212 0.00 0.71154 0.38
2 7 -1 o 0.001 0.001 0.00 0.71108 0.00
6 4 -1 o 4.336 4.274 180.00 0.71089 0.14
0 2 7 o 2.686 2.646 0.00 0.71077 0.09
3 1 -7 o 7.962 7.839 180.00 0.71067 0.26
5 0 -6 o 0.476 0.468 180.00 0.70992 0.01
1 1 7 o 0.365 0.359 0.00 0.70892 0.01
2 6 -4 o 1.339 1.314 180.00 0.70893 0.04
5 5 1 o 0.893 0.888 180.00 0.70640 0.03
6 1 3 o 0.500 0.498 0.00 0.70635 0.02
4 4 4 o 5.119 5.099 0.00 0.70609 0.17
1 6 4 o 0.428 0.430 0.00 0.70520 0.01
6 4 0 o 0.102 0.103 180.00 0.70514 0.00
3 5 4 o 13.715 13.862 0.00 0.70457 0.44
4 6 -2 o 3.029 3.065 180.00 0.70449 0.10
1 7 2 o 4.253 4.341 0.00 0.70395 0.14
5 1 -6 o 0.751 0.775 0.00 0.70341 0.02
6 4 -2 o 1.491 1.538 180.00 0.70340 0.05
2 7 1 o 5.986 6.243 0.00 0.70286 0.19
4 5 3 o 0.008 0.008 180.00 0.70201 0.00
4 3 -6 o 6.512 6.912 0.00 0.70182 0.21
3 5 -5 o 0.497 0.532 0.00 0.70068 0.02
7 2 -1 o 7.938 8.504 0.00 0.70044 0.25
6 3 2 o 0.259 0.277 0.00 0.69974 0.01
4 6 1 o 0.632 0.676 180.00 0.69974 0.02
6 1 -5 o 5.710 6.109 180.00 0.69943 0.18
