#------------------------------------------------------------------------------
#$Date: 2019-08-01 07:03:08 +0300 (Thu, 01 Aug 2019) $
#$Revision: 217345 $
#$URL: file:///home/coder/svn-repositories/cod/cif/2/10/84/2108453.cif $
#------------------------------------------------------------------------------
#
# This file is available in the Crystallography Open Database (COD),
# http://www.crystallography.net/. The original data for this entry
# were provided by IUCr Journals, http://journals.iucr.org/.
#
# The file may be used within the scientific community so long as
# proper attribution is given to the journal article from which the
# data were obtained.
#
data_2108453
loop_
_publ_author_name
'Fukui, Hiroshi'
'Fujimoto, Manato'
'Akahama, Yuichi'
'Sano-Furukawa, Asami'
'Hattori, Takanori'
_publ_section_title
;
 Structure change of monoclinic ZrO~2~ baddeleyite involving softenings of
 bulk modulus and atom vibrations
;
_journal_issue                   4
_journal_name_full               'Acta Crystallographica Section B'
_journal_page_first
;
;
_journal_paper_doi               10.1107/S2052520619007923
_journal_volume                  75
_journal_year                    2019
_chemical_formula_sum            'O2 Zr'
_chemical_formula_weight         123.22
_space_group_IT_number           14
_space_group_name_Hall           '-P 2ybc'
_space_group_name_H-M_alt        'P 1 21/c 1'
_symmetry_cell_setting           monoclinic
_symmetry_space_group_name_Hall  '-P 2ybc'
_symmetry_space_group_name_H-M   'P 1 21/c 1'
_audit_creation_date             2019-05-07T13:19
_audit_creation_method           'from EXP file using GSAS2CIF'
_audit_update_record
' 2019-05-07T13:19  Initial CIF as created by GSAS2CIF'
_cell_angle_alpha                90.0
_cell_angle_beta                 98.868(5)
_cell_angle_gamma                90.0
_cell_formula_units_Z            4
_cell_length_a                   5.10541(27)
_cell_length_b                   5.20827(32)
_cell_length_c                   5.25387(31)
_cell_volume                     138.032(14)
_computing_structure_refinement  GSAS
_diffrn_radiation_probe          neutron
_exptl_absorpt_correction_T_max  1.00000
_exptl_absorpt_correction_T_min  1.00000
_exptl_absorpt_process_details
;   GSAS Absorption/surface roughness correction: function number 0
 No correction is applied.
;
_pd_block_id                     2019-05-07T13:19|34841|FUKUI,_Hiroshi|PLANET
_pd_calc_method                  'Rietveld Refinement'
_pd_instr_location               ' ?'
_pd_meas_2theta_fixed            90.00
_pd_meas_number_of_points        3712
_pd_phase_name
'from Z:/2017A/Fukui/38p0ton/gsas034800/34800.EXP'
_pd_proc_info_datetime           2019-05-07T13:19:36
_pd_proc_info_excluded_regions   ' ?'
_pd_proc_ls_background_function
;   GSAS Background function number 1 with 14 terms.
 Shifted Chebyshev function of 1st kind
      1:   0.223123     2:   6.286750E-02 3:   6.764820E-03 4:  -1.065590E-02
      5:  -1.624130E-02 6:  -4.966240E-03 7:  -1.091090E-02 8:   1.705260E-03
      9:   3.301190E-0310:   3.855320E-0311:   2.284390E-0312:   6.999260E-04
     13:   2.139500E-0314:  -7.210700E-04
;
_pd_proc_ls_peak_cutoff          0.00100
_pd_proc_ls_profile_function
;
 TOF Profile function number 3 with  21 terms
 Profile coefficients for exponential pseudovoigt
  convolution Von Dreele, 1990 (unpublished)
 #1 (alp  ) = ******** #2 (bet-0) = 0.015258 #3 (bet-1) = 0.731691
 #4 (sig-0) =      2.8 #5 (sig-1) =    487.0 #6 (sig-2) =    117.6
 #7 (gam-0) =     0.00 #8 (gam-1) =    26.47 #9 (gam-2) =     0.93
 #10(gsf  ) =     0.00 #11(g1ec ) =     0.00 #12(g2ec ) =     0.00
 #13(rstr ) =    0.000 #14(rsta ) =    0.000 #15(rsca ) =    0.000
 #16(L11)   =    0.000 #17(L22)   =    0.000 #18(L33)   =    0.000
 #19(L12)   =    0.000 #20(L13)   =    0.000 #21(L23)   =    0.000
 Peak tails are ignored  where the intensity is below 0.0010 times the peak
   Aniso. broadening axis   0.0   0.0   1.0
;
_pd_proc_ls_prof_R_factor        0.0218
_pd_proc_ls_prof_wR_expected     0.0171
_pd_proc_ls_prof_wR_factor       0.0233
_pd_proc_number_of_points        3712
_pd_spec_mounting                ' ?'
_refine_ls_goodness_of_fit_all   1.37
_refine_ls_matrix_type           full
_refine_ls_number_parameters     31
_refine_ls_number_restraints     0
_refine_ls_R_Fsqd_factor         0.07094
_refine_ls_shift/su_max          0.01
_refine_ls_shift/su_mean         0.00
_reflns_d_resolution_high        0.700
_reflns_d_resolution_low         3.139
_reflns_limit_h_max              7
_reflns_limit_h_min              0
_reflns_limit_k_max              8
_reflns_limit_k_min              0
_reflns_limit_l_max              7
_reflns_limit_l_min              -8
_reflns_number_total             424
_cod_data_source_file            xk5055sup1.cif
_cod_data_source_block           34841
_cod_depositor_comments
;
The following automatic conversions were performed:

'_geom_bond_publ_flag' value 'N' changed to 'n' according to
/home/data/users/saulius/crontab/automatic-downloads/rss-feeds/IUCr/lib/dictionaries/cif_core.dic
dictionary named 'cif_core.dic' version 2.4.2 from 2011-04-26 (21
time).

'_geom_angle_publ_flag' value 'N' changed to 'n' according to
/home/data/users/saulius/crontab/automatic-downloads/rss-feeds/IUCr/lib/dictionaries/cif_core.dic
dictionary named 'cif_core.dic' version 2.4.2 from 2011-04-26 (30
times).

Automatic conversion script
Id: cif_fix_values 4973 2017-02-22 13:04:09Z antanas 
;
_cod_original_cell_volume        138.032(9)
_cod_database_code               2108453
_gsas_exptl_extinct_corr_t_min   1.00000
_gsas_exptl_extinct_corr_t_max   1.00000
loop_
_symmetry_equiv_pos_site_id
_symmetry_equiv_pos_as_xyz
1 +x,+y,+z
2 -x,+y+1/2,-z+1/2
-1 -x,-y,-z
-2 +x,-y+1/2,+z+1/2
loop_
_atom_site_type_symbol
_atom_site_label
_atom_site_fract_x
_atom_site_fract_y
_atom_site_fract_z
_atom_site_occupancy
_atom_site_thermal_displace_type
_atom_site_U_iso_or_equiv
_atom_site_symmetry_multiplicity
Zr Zr 0.2774(5) 0.0386(5) 0.2106(5) 1.0 Uiso 0.00204 4
O O1 0.0764(7) 0.3453(6) 0.3318(6) 1.0 Uiso 0.00363 4
O O2 0.4469(6) 0.7587(6) 0.4852(6) 1.0 Uiso 0.00101 4
loop_
_atom_type_symbol
_atom_type_number_in_cell
_atom_type_scat_length_neutron
_atom_type_scat_source
Zr 4.0 0.7160 International_Tables_Vol_C
O 8.0 0.5803 International_Tables_Vol_C
loop_
_geom_angle_atom_site_label_1
_geom_angle_atom_site_label_2
_geom_angle_atom_site_label_3
_geom_angle
_geom_angle_site_symmetry_1
_geom_angle_site_symmetry_3
_geom_angle_publ_flag
O1 Zr O1 86.66(12) 1_555 2_545 n
O1 Zr O1 83.10(14) 1_555 -2_565 n
O1 Zr O2 119.41(18) 1_555 1_545 n
O1 Zr O2 97.27(19) 1_555 2_645 n
O1 Zr O2 72.49(17) 1_555 -1_666 n
O1 Zr O2 165.79(20) 1_555 -2_565 n
O1 Zr O1 75.77(14) 2_545 -2_565 n
O1 Zr O2 89.81(16) 2_545 1_545 n
O1 Zr O2 145.60(16) 2_545 2_645 n
O1 Zr O2 139.46(16) 2_545 -1_666 n
O1 Zr O2 90.52(18) 2_545 -2_565 n
O1 Zr O2 152.88(14) -2_565 1_545 n
O1 Zr O2 70.85(14) -2_565 2_645 n
O1 Zr O2 132.89(13) -2_565 -1_666 n
O1 Zr O2 82.70(15) -2_565 -2_565 n
O2 Zr O2 116.82(14) 1_545 2_645 n
O2 Zr O2 72.15(15) 1_545 -1_666 n
O2 Zr O2 74.46(11) 1_545 -2_565 n
O2 Zr O2 73.03(10) 2_645 -1_666 n
O2 Zr O2 77.39(13) 2_645 -2_565 n
O2 Zr O2 117.47(14) -1_666 -2_565 n
Zr O1 Zr 145.38(19) 1_555 2_555 n
Zr O1 Zr 108.17(18) 1_555 -2_555 n
Zr O1 Zr 104.23(14) 2_555 -2_555 n
Zr O2 Zr 105.21(17) 1_565 2_655 n
Zr O2 Zr 107.85(15) 1_565 -1_666 n
Zr O2 Zr 133.58(21) 1_565 -2_555 n
Zr O2 Zr 101.79(14) 2_655 -1_666 n
Zr O2 Zr 102.61(13) 2_655 -2_555 n
Zr O2 Zr 101.81(13) -1_666 -2_555 n
loop_
_geom_bond_atom_site_label_1
_geom_bond_atom_site_label_2
_geom_bond_distance
_geom_bond_site_symmetry_2
_geom_bond_publ_flag
Zr Zr 3.4394(34) 2_645 n
Zr Zr 3.4394(34) 2_655 n
Zr Zr 3.339(5) -1_555 n
Zr Zr 3.432(5) -1_655 n
Zr Zr 3.528(5) -1_656 n
Zr Zr 3.4277(33) -2_554 n
Zr Zr 3.4277(33) -2_555 n
Zr O1 2.052(5) 1_555 n
Zr O1 2.050(4) 2_545 n
Zr O1 2.179(5) -2_554 n
Zr O2 2.138(4) 1_545 n
Zr O2 2.191(4) 2_645 n
Zr O2 2.226(4) -1_666 n
Zr O2 2.206(5) -2_554 n
O1 Zr 2.052(5) 1_555 n
O1 Zr 2.050(4) 2_555 n
O1 Zr 2.179(5) -2_555 n
O2 Zr 2.138(4) 1_565 n
O2 Zr 2.191(4) 2_655 n
O2 Zr 2.226(4) -1_666 n
O2 Zr 2.206(5) -2_555 n
loop_
_pd_meas_time_of_flight
_pd_proc_d_spacing
_pd_meas_intensity_total
_pd_proc_ls_weight
_pd_proc_intensity_bkg_calc
_pd_calc_intensity_total
2855.00 . 0.1743(27) . . .
2865.00 . 0.1732(26) . . .
2875.00 . 0.1744(26) . . .
2885.00 . 0.1722(26) . . .
2895.00 . 0.1714(26) . . .
2905.00 . 0.1721(26) . . .
2915.00 . 0.1706(26) . . .
2925.00 . 0.1702(26) . . .
2935.00 . 0.1655(25) . . .
2945.00 . 0.1704(25) . . .
2955.00 . 0.1674(25) . . .
2965.00 . 0.1681(25) . . .
2975.00 . 0.1661(25) . . .
2985.00 . 0.1650(25) . . .
2995.00 . 0.1659(25) . . .
3005.00 . 0.1667(25) . . .
3015.00 . 0.1646(24) . . .
3025.00 . 0.1631(24) . . .
3035.00 . 0.1619(24) . . .
3045.00 . 0.1633(24) . . .
3055.00 . 0.1658(24) . . .
3065.00 . 0.1647(24) . . .
3075.00 . 0.1646(24) . . .
3085.00 . 0.1664(24) . . .
3095.00 . 0.1576(23) . . .
3105.00 . 0.1544(23) . . .
3115.00 . 0.1586(23) . . .
3125.00 . 0.1639(23) . . .
3135.00 . 0.1652(23) . . .
3145.00 . 0.1657(23) . . .
3155.00 . 0.1645(23) . . .
3165.00 . 0.1692(23) . . .
3175.00 . 0.1610(23) . . .
3185.00 . 0.1569(23) . . .
3195.00 . 0.1540(22) . . .
3205.00 . 0.1620(23) . . .
3215.00 . 0.1616(23) . . .
3225.00 . 0.1597(22) . . .
3235.00 . 0.1586(22) . . .
3245.00 . 0.1629(22) . . .
3255.00 . 0.1605(22) . . .
3265.00 . 0.1571(22) . . .
3275.00 . 0.1563(22) . . .
3285.00 . 0.1596(22) . . .
3295.00 . 0.1603(22) . . .
3305.00 . 0.1645(22) . . .
3315.00 . 0.1625(22) . . .
3325.00 . 0.1568(22) . . .
3335.00 . 0.1570(22) . . .
3345.00 . 0.1608(22) . . .
3355.00 . 0.1622(22) . . .
3365.00 . 0.1639(22) . . .
3375.00 . 0.1675(22) . . .
3385.00 . 0.1592(21) . . .
3395.00 . 0.1558(21) . . .
3405.00 . 0.1522(21) . . .
3415.00 . 0.1522(21) . . .
3425.00 . 0.1508(21) . . .
3435.00 . 0.1546(21) . . .
3445.00 . 0.1518(21) . . .
3455.00 . 0.1527(21) . . .
3465.00 . 0.1463(20) . . .
3475.00 . 0.1461(20) . . .
3485.00 . 0.1452(20) . . .
3495.00 . 0.1477(20) . . .
3505.00 . 0.1496(20) . . .
3515.0 . 0.1496(20) . . .
3525.0 . 0.1523(20) . . .
3535.0 . 0.1501(20) . . .
3545.0 . 0.1435(20) . . .
3555.0 . 0.1515(20) . . .
3565.0 . 0.1522(20) . . .
3575.0 . 0.1557(20) . . .
3585.0 . 0.1538(20) . . .
3595.0 . 0.1504(20) . . .
3605.0 . 0.1501(20) . . .
3615.0 . 0.1485(20) . . .
3625.0 . 0.1540(20) . . .
3635.0 . 0.1446(19) . . .
3645.0 . 0.1506(19) . . .
3655.0 . 0.1515(19) . . .
3665.0 . 0.1535(20) . . .
3675.0 . 0.1527(19) . . .
3685.0 . 0.1503(19) . . .
3695.0 . 0.1504(19) . . .
3705.0 . 0.1554(19) . . .
3715.0 . 0.1517(19) . . .
3725.0 . 0.1577(19) . . .
3735.0 . 0.1525(19) . . .
3745.0 . 0.1555(19) . . .
3755.0 . 0.1540(19) . . .
3765.0 . 0.1541(19) . . .
3775.0 . 0.1604(19) . . .
3785.0 . 0.1579(19) . . .
3795.0 . 0.1568(19) . . .
3805.0 . 0.1573(19) . . .
3815.0 . 0.1581(19) . . .
3825.0 . 0.1567(19) . . .
3835.0 . 0.1533(19) . . .
3845.0 . 0.1593(19) . . .
3855.0 . 0.1589(19) . . .
3865.0 . 0.1586(19) . . .
3875.0 . 0.1605(19) . . .
3885.0 . 0.1576(19) . . .
3895.0 . 0.1578(19) . . .
3905.0 . 0.1555(19) . . .
3915.0 . 0.1521(18) . . .
3925.0 . 0.1526(18) . . .
3935.0 . 0.1542(18) . . .
3945.0 . 0.1595(19) . . .
3955.0 . 0.1584(19) . . .
3965.0 . 0.1576(18) . . .
3975.0 . 0.1574(18) . . .
3985.0 . 0.1550(18) . . .
3995.0 . 0.1578(18) . . .
4005.0 . 0.1523(18) . . .
4015.0 . 0.1554(18) . . .
4025.0 . 0.1566(18) . . .
4035.0 . 0.1582(18) . . .
4045.0 . 0.1561(18) . . .
4055.0 . 0.1538(18) . . .
4065.0 . 0.1538(18) . . .
4075.0 . 0.1556(18) . . .
4085.0 . 0.1552(18) . . .
4095.0 . 0.1582(18) . . .
4105.0 . 0.1540(18) . . .
4115.0 . 0.1513(18) . . .
4125.0 . 0.1536(18) . . .
4135.0 . 0.1497(18) . . .
4145.0 . 0.1521(18) . . .
4155.0 . 0.1558(18) . . .
4165.0 . 0.1546(18) . . .
4175.0 . 0.1522(18) . . .
4185.0 . 0.1580(18) . . .
4195.0 . 0.1530(18) . . .
4205.0 . 0.1559(18) . . .
4215.0 . 0.1572(18) . . .
4225.0 . 0.1572(18) . . .
4235.0 . 0.1553(18) . . .
4245.0 . 0.1515(18) . . .
4255.0 . 0.1528(18) . . .
4265.0 . 0.1523(18) . . .
4275.0 . 0.1539(18) . . .
4285.0 . 0.1536(18) . . .
4295.0 . 0.1513(18) . . .
4305.0 . 0.1565(18) . . .
4315.0 . 0.1609(18) . . .
4325.0 . 0.1622(18) . . .
4335.0 . 0.1600(18) . . .
4345.0 . 0.1581(18) . . .
4355.0 . 0.1609(18) . . .
4365.0 . 0.1611(18) . . .
4375.0 . 0.1592(18) . . .
4385.0 . 0.1582(18) . . .
4395.0 . 0.1535(18) . . .
4405.0 . 0.1557(18) . . .
4415.0 . 0.1566(18) . . .
4425.0 . 0.1598(18) . . .
4435.0 . 0.1614(18) . . .
4445.0 . 0.1625(18) . . .
4455.0 . 0.1619(18) . . .
4465.0 . 0.1652(18) . . .
4475.0 . 0.1683(18) . . .
4485.0 . 0.1696(18) . . .
4495.0 . 0.1659(18) . . .
4505.0 . 0.1623(18) . . .
4515.0 . 0.1608(18) . . .
4525.0 . 0.1624(18) . . .
4535.0 . 0.1639(18) . . .
4545.0 . 0.1705(19) . . .
4555.0 . 0.1732(19) . . .
4565.0 . 0.1696(18) . . .
4575.0 . 0.1701(19) . . .
4585.0 . 0.1697(19) . . .
4595.0 . 0.1691(18) . . .
4605.0 . 0.1662(18) . . .
4615.0 . 0.1652(18) . . .
4625.0 . 0.1632(18) . . .
4635.0 . 0.1629(18) . . .
4645.0 . 0.1622(18) . . .
4655.0 . 0.1605(18) . . .
4665.0 . 0.1626(18) . . .
4675.0 . 0.1655(18) . . .
4685.0 . 0.1657(18) . . .
4695.0 . 0.1633(18) . . .
4705.0 . 0.1626(18) . . .
4715.0 . 0.1660(19) . . .
4725.0 . 0.1613(18) . . .
4735.0 . 0.1621(18) . . .
4745.0 . 0.1598(18) . . .
4755.0 . 0.1583(18) . . .
4765.0 . 0.1545(18) . . .
4775.0 . 0.1553(18) . . .
4785.0 . 0.1557(18) . . .
4795.0 . 0.1602(18) . . .
4805.0 . 0.1644(19) . . .
4815.0 . 0.1637(19) . . .
4825.0 . 0.1678(19) . . .
4835.0 . 0.1670(19) . . .
4845.0 . 0.1694(19) . . .
4855.0 . 0.1657(19) . . .
4865.0 . 0.1689(19) . . .
4875.0 . 0.1677(19) . . .
4885.0 . 0.1631(19) . . .
4895.0 . 0.1641(19) . . .
4905.0 . 0.1672(19) . . .
4915.0 . 0.1634(19) . . .
4925.0 . 0.1669(19) . . .
4935.0 . 0.1678(19) . . .
4945.0 . 0.1657(19) . . .
4955.0 . 0.1623(19) . . .
4965.0 . 0.1675(19) . . .
4975.0 . 0.1654(19) . . .
4985.0 . 0.1616(19) . . .
4995.0 . 0.1588(19) . . .
5005.0 . 0.1553(19) . . .
5015.0 . 0.1555(19) . . .
5025.0 . 0.1558(19) . . .
5035.0 . 0.1573(19) . . .
5045.0 . 0.1603(19) . . .
5055.0 . 0.1610(19) . . .
5065.0 . 0.1614(19) . . .
5075.0 . 0.1628(19) . . .
5085.0 . 0.1582(19) . . .
5095.0 . 0.1622(19) . . .
5105.0 . 0.1611(19) . . .
5115.0 . 0.1611(19) . . .
5125.0 . 0.1573(19) . . .
5135.0 . 0.1567(19) . . .
5145.0 . 0.1583(19) . . .
5155.0 . 0.1597(19) . . .
5165.0 . 0.1665(20) . . .
5175.0 . 0.1686(20) . . .
5185.0 . 0.1677(20) . . .
5195.0 . 0.1607(19) . . .
5205.0 . 0.1601(19) . . .
5215.0 . 0.1592(19) . . .
5225.0 . 0.1538(19) . . .
5235.0 . 0.1591(20) . . .
5245.0 . 0.1588(20) . . .
5255.0 . 0.1632(20) . . .
5265.0 . 0.1656(20) . . .
5275.0 . 0.1608(20) . . .
5285.0 . 0.1616(20) . . .
5295.0 . 0.1605(20) . . .
5305.0 . 0.1590(20) . . .
5315.0 . 0.1620(20) . . .
5325.0 . 0.1588(20) . . .
5335.0 . 0.1581(20) . . .
5345.0 . 0.1586(20) . . .
5355.0 . 0.1630(20) . . .
5365.0 . 0.1589(20) . . .
5375.0 . 0.1600(20) . . .
5385.0 . 0.1620(20) . . .
5395.0 . 0.1601(20) . . .
5405.0 . 0.1567(20) . . .
5415.0 . 0.1574(20) . . .
5425.0 . 0.1605(20) . . .
5435.0 . 0.1574(20) . . .
5445.0 . 0.1534(20) . . .
5455.0 . 0.1544(20) . . .
5465.0 . 0.1513(20) . . .
5475.0 . 0.1544(20) . . .
5485.0 . 0.1503(20) . . .
5495.0 . 0.1543(20) . . .
5505.0 . 0.1520(20) . . .
5515.0 . 0.1563(20) . . .
5525.0 . 0.1581(21) . . .
5535.0 . 0.1570(20) . . .
5545.0 . 0.1581(21) . . .
5555.0 . 0.1584(21) . . .
5565.0 . 0.1640(21) . . .
5575.0 . 0.1579(21) . . .
5585.0 . 0.1603(21) . . .
5595.0 . 0.1614(21) . . .
5605.0 . 0.1641(21) . . .
5615.0 . 0.1657(21) . . .
5625.0 . 0.1681(21) . . .
5635.0 . 0.1647(21) . . .
5645.0 . 0.1682(21) . . .
5655.0 . 0.1762(22) . . .
5665.0 . 0.1751(22) . . .
5675.0 . 0.1731(22) . . .
5685.0 . 0.1698(22) . . .
5695.0 . 0.1683(22) . . .
5705.0 . 0.1657(21) . . .
5715.0 . 0.1647(21) . . .
5725.0 . 0.1642(21) . . .
5735.0 . 0.1645(22) . . .
5745.0 . 0.1636(21) . . .
5755.0 . 0.1680(22) . . .
5765.0 . 0.1644(22) . . .
5775.0 . 0.1679(22) . . .
5785.0 . 0.1641(22) . . .
5795.0 . 0.1644(22) . . .
5805.0 . 0.1636(22) . . .
5815.0 . 0.1640(22) . . .
5825.0 . 0.1656(22) . . .
5835.0 . 0.1612(22) . . .
5845.0 . 0.1628(22) . . .
5855.0 . 0.1633(22) . . .
5865.0 . 0.1678(22) . . .
5875.0 . 0.1632(22) . . .
5885.0 . 0.1638(22) . . .
5895.0 . 0.1718(22) . . .
5905.0 . 0.1742(23) . . .
5915.0 . 0.1704(22) . . .
5925.0 . 0.1802(23) . . .
5935.0 . 0.1799(23) . . .
5945.0 . 0.1830(23) . . .
5955.0 . 0.1894(24) . . .
5965.0 . 0.1885(24) . . .
5975.0 . 0.1805(23) . . .
5985.0 . 0.1773(23) . . .
5995.0 . 0.1779(23) . . .
6005.0 . 0.1753(23) . . .
6015.0 . 0.1710(23) . . .
6025.0 . 0.1662(23) . . .
6035.0 . 0.1720(23) . . .
6045.0 . 0.1640(22) . . .
6055.0 . 0.1656(23) . . .
6065.0 . 0.1698(23) . . .
6075.0 . 0.1679(23) . . .
6085.0 . 0.1712(23) . . .
6095.0 . 0.1774(23) . . .
6105.0 . 0.1852(24) . . .
6115.0 . 0.1820(24) . . .
6125.0 . 0.1888(24) . . .
6135.0 . 0.1836(24) . . .
6145.0 . 0.1871(24) . . .
6155.0 . 0.1898(24) . . .
6165.0 . 0.1843(24) . . .
6175.0 . 0.1895(24) . . .
6185.0 . 0.1837(24) . . .
6195.0 . 0.1856(24) . . .
6205.0 . 0.1753(24) . . .
6215.0 . 0.1769(24) . . .
6225.0 . 0.1743(24) . . .
6235.0 . 0.1791(24) . . .
6245.0 . 0.1836(24) . . .
6255.0 . 0.1836(24) . . .
6265.0 . 0.1894(25) . . .
6275.0 . 0.1834(24) . . .
6285.0 . 0.1859(25) . . .
6295.0 . 0.1838(24) . . .
6305.0 . 0.1841(25) . . .
6315.0 . 0.1808(24) . . .
6325.0 . 0.1820(24) . . .
6335.0 . 0.1741(24) . . .
6345.0 . 0.1729(24) . . .
6355.0 . 0.1697(24) . . .
6365.0 . 0.1728(24) . . .
6375.0 . 0.1705(24) . . .
6385.0 . 0.1734(24) . . .
6395.0 . 0.1756(24) . . .
6405.0 . 0.1836(25) . . .
6415.0 . 0.1883(25) . . .
6425.0 . 0.1841(25) . . .
6435.0 . 0.1861(25) . . .
6445.0 . 0.1864(25) . . .
6455.0 . 0.1877(25) . . .
6465.0 . 0.1869(25) . . .
6475.0 . 0.1881(25) . . .
6485.0 . 0.1847(25) . . .
6495.0 . 0.1791(25) . . .
6505.0 . 0.1752(25) . . .
6515.0 . 0.1721(25) . . .
6525.0 . 0.1676(24) . . .
6535.0 . 0.1718(25) . . .
6545.0 . 0.1772(25) . . .
6555.0 . 0.1746(25) . . .
6565.0 . 0.1772(25) . . .
6575.0 . 0.1821(25) . . .
6585.0 . 0.1859(26) . . .
6595.0 0.69726 0.1847(25) 0.0 0.15757 .
6605.0 0.69832 0.1868(26) 0.0 0.15762 .
6615.0 0.69938 0.1841(25) 153813. 0.15768 0.18838
6625.0 0.70044 0.1871(26) 151156. 0.15774 0.18878
6635.0 0.70150 0.1901(26) 148917. 0.15782 0.18935
6645.0 0.70256 0.1887(26) 149611. 0.15791 0.18935
6655.0 0.70362 0.1861(26) 150731. 0.15800 0.18834
6665.0 0.70467 0.1860(26) 150614. 0.15810 0.18577
6675.0 0.70573 0.1808(25) 153868. 0.15821 0.18152
6685.0 0.70679 0.1738(25) 158515. 0.15833 0.17694
6695.0 0.70785 0.1747(25) 157657. 0.15846 0.17380
6705.0 0.70891 0.1753(25) 156952. 0.15860 0.17342
6715.0 0.70997 0.1755(25) 156452. 0.15874 0.17629
6725.0 0.71102 0.1828(26) 150961. 0.15889 0.18202
6735.0 0.71208 0.1915(26) 145011. 0.15905 0.18911
6745.0 0.71314 0.1945(26) 142771. 0.15921 0.19501
6755.0 0.71420 0.1945(26) 142488. 0.15938 0.19757
6765.0 0.71526 0.1906(26) 144425. 0.15956 0.19637
6775.0 0.71632 0.1923(26) 142829. 0.15974 0.19287
6785.0 0.71738 0.1865(26) 146229. 0.15993 0.18891
6795.0 0.71843 0.1887(26) 144400. 0.16012 0.18606
6805.0 0.71949 0.1869(26) 145208. 0.16032 0.18477
6815.0 0.72055 0.1870(26) 144791. 0.16052 0.18464
6825.0 0.72161 0.1848(26) 146252. 0.16073 0.18533
6835.0 0.72267 0.1841(26) 146431. 0.16095 0.18627
6845.0 0.72373 0.1881(26) 143563. 0.16116 0.18646
6855.0 0.72479 0.1886(26) 142890. 0.16139 0.18518
6865.0 0.72584 0.1863(26) 143756. 0.16161 0.18264
6875.0 0.72690 0.1807(26) 147364. 0.16184 0.17941
6885.0 0.72796 0.1811(26) 146740. 0.16208 0.17616
6895.0 0.72902 0.1722(26) 152720. 0.16232 0.17391
6905.0 0.73008 0.1743(26) 150884. 0.16256 0.17352
6915.0 0.73114 0.1817(26) 145464. 0.16280 0.17545
6925.0 0.73220 0.1877(27) 141147. 0.16305 0.17962
6935.0 0.73325 0.1848(26) 142757. 0.16330 0.18498
6945.0 0.73431 0.1885(27) 140061. 0.16356 0.18923
6955.0 0.73537 0.1816(26) 144186. 0.16381 0.18989
6965.0 0.73643 0.1895(27) 138851. 0.16407 0.18653
6975.0 0.73749 0.1794(26) 144987. 0.16434 0.18126
6985.0 0.73855 0.1792(26) 144697. 0.16460 0.17652
6995.0 0.73960 0.1706(26) 150469. 0.16487 0.17339
7005.0 0.74066 0.1748(26) 147254. 0.16513 0.17195
7015.0 0.74172 0.1750(26) 147219. 0.16540 0.17195
7025.0 0.74278 0.1722(26) 148699. 0.16567 0.17310
7035.0 0.74384 0.1778(26) 144615. 0.16595 0.17526
7045.0 0.74490 0.1785(26) 143759. 0.16622 0.17814
7055.0 0.74596 0.1782(26) 143750. 0.16650 0.18102
7065.0 0.74701 0.1795(26) 142592. 0.16677 0.18288
7075.0 0.74807 0.1855(27) 138486. 0.16705 0.18374
7085.0 0.74913 0.1870(27) 137344. 0.16733 0.18495
7095.0 0.75019 0.1895(27) 135526. 0.16761 0.18747
7105.0 0.75125 0.1910(27) 134523. 0.16789 0.19107
7115.0 0.75231 0.1897(27) 135138. 0.16817 0.19438
7125.0 0.75337 0.1972(28) 130471. 0.16845 0.19628
7135.0 0.75442 0.1985(28) 129519. 0.16873 0.19746
7145.0 0.75548 0.1981(28) 129385. 0.16902 0.19872
7155.0 0.75654 0.1973(28) 129741. 0.16930 0.19920
7165.0 0.75760 0.1950(28) 130904. 0.16958 0.19752
7175.0 0.75866 0.1929(28) 131733. 0.16986 0.19407
7185.0 0.75972 0.1894(27) 133451. 0.17014 0.19051
7195.0 0.76078 0.1807(27) 138681. 0.17042 0.18775
7205.0 0.76183 0.1824(27) 137154. 0.17071 0.18585
7215.0 0.76289 0.1824(27) 136902. 0.17099 0.18459
7225.0 0.76395 0.1831(27) 135993. 0.17127 0.18396
7235.0 0.76501 0.1878(27) 132840. 0.17155 0.18427
7245.0 0.76607 0.1819(27) 136054. 0.17183 0.18549
7255.0 0.76713 0.1850(27) 133884. 0.17211 0.18740
7265.0 0.76819 0.1893(28) 131078. 0.17238 0.18961
7275.0 0.76924 0.1909(28) 129951. 0.17266 0.19204
7285.0 0.77030 0.2002(28) 124467. 0.17294 0.19465
7295.0 0.77136 0.1975(28) 125566. 0.17321 0.19706
7305.0 0.77242 0.1982(28) 125037. 0.17348 0.19877
7315.0 0.77348 0.2001(28) 124057. 0.17376 0.19889
7325.0 0.77454 0.2021(29) 122794. 0.17403 0.19678
7335.0 0.77560 0.1939(28) 127024. 0.17430 0.19312
7345.0 0.77665 0.1877(28) 130586. 0.17457 0.18921
7355.0 0.77771 0.1836(27) 132925. 0.17483 0.18610
7365.0 0.77877 0.1822(27) 133277. 0.17510 0.18421
7375.0 0.77983 0.1827(27) 132846. 0.17537 0.18343
7385.0 0.78089 0.1834(28) 132041. 0.17563 0.18325
7395.0 0.78195 0.1870(28) 129751. 0.17589 0.18304
7405.0 0.78300 0.1818(27) 132399. 0.17615 0.18255
7415.0 0.78406 0.1800(27) 133271. 0.17641 0.18204
7425.0 0.78512 0.1819(28) 131651. 0.17666 0.18195
7435.0 0.78618 0.1843(28) 130034. 0.17692 0.18247
7445.0 0.78724 0.1796(27) 132929. 0.17717 0.18369
7455.0 0.78830 0.1881(28) 127565. 0.17742 0.18545
7465.0 0.78936 0.1896(28) 126363. 0.17767 0.18752
7475.0 0.79041 0.1896(28) 126070. 0.17792 0.18981
7485.0 0.79147 0.1905(28) 125674. 0.17816 0.19242
7495.0 0.79253 0.1961(29) 122259. 0.17840 0.19523
7505.0 0.79359 0.2003(29) 119804. 0.17864 0.19773
7515.0 0.79465 0.1966(29) 121514. 0.17888 0.19940
7525.0 0.79571 0.2022(29) 118504. 0.17912 0.20038
7535.0 0.79677 0.1985(29) 120023. 0.17935 0.20079
7545.0 0.79782 0.1951(29) 121534. 0.17958 0.20080
7555.0 0.79888 0.2017(29) 117838. 0.17981 0.20115
7565.0 0.79994 0.2024(29) 117117. 0.18004 0.20217
7575.0 0.80100 0.2039(29) 115832. 0.18026 0.20335
7585.0 0.80206 0.2032(29) 115760. 0.18049 0.20420
7595.0 0.80312 0.2088(30) 112953. 0.18071 0.20455
7605.0 0.80418 0.2070(30) 113619. 0.18092 0.20436
7615.0 0.80523 0.2011(29) 116283. 0.18114 0.20385
7625.0 0.80629 0.2054(30) 114038. 0.18135 0.20354
7635.0 0.80735 0.2048(30) 114110. 0.18156 0.20357
7645.0 0.80841 0.2056(30) 113490. 0.18177 0.20365
7655.0 0.80947 0.2028(30) 114626. 0.18198 0.20388
7665.0 0.81053 0.2059(30) 113014. 0.18218 0.20495
7675.0 0.81159 0.2113(30) 110347. 0.18238 0.20713
7685.0 0.81264 0.2160(30) 108190. 0.18258 0.21001
7695.0 0.81370 0.2158(30) 108161. 0.18277 0.21320
7705.0 0.81476 0.2196(31) 106215. 0.18297 0.21635
7715.0 0.81582 0.2226(31) 104741. 0.18316 0.21887
7725.0 0.81688 0.2236(31) 104120. 0.18335 0.22024
7735.0 0.81794 0.2246(31) 103571. 0.18353 0.22059
7745.0 0.81900 0.2251(31) 103147. 0.18371 0.22088
7755.0 0.82005 0.2242(31) 103448. 0.18389 0.22152
7765.0 0.82111 0.2189(31) 105582. 0.18407 0.22204
7775.0 0.82217 0.2210(31) 104757. 0.18425 0.22169
7785.0 0.82323 0.2175(31) 106072. 0.18442 0.22003
7795.0 0.82429 0.2229(31) 103598. 0.18459 0.21766
7805.0 0.82535 0.2194(31) 104914. 0.18475 0.21581
7815.0 0.82641 0.2225(31) 103491. 0.18492 0.21512
7825.0 0.82746 0.2216(31) 103597. 0.18508 0.21523
7835.0 0.82852 0.2158(31) 105845. 0.18524 0.21529
7845.0 0.82958 0.2093(30) 108509. 0.18539 0.21421
7855.0 0.83064 0.2084(30) 108829. 0.18555 0.21150
7865.0 0.83170 0.2063(30) 109463. 0.18570 0.20801
7875.0 0.83276 0.2100(30) 107632. 0.18585 0.20493
7885.0 0.83382 0.2048(30) 110110. 0.18599 0.20292
7895.0 0.83488 0.2018(30) 111304. 0.18614 0.20224
7905.0 0.83593 0.2076(30) 108316. 0.18628 0.20319
7915.0 0.83699 0.2158(31) 104579. 0.18642 0.20592
7925.0 0.83805 0.2127(31) 105593. 0.18655 0.20988
7935.0 0.83911 0.2151(31) 104486. 0.18668 0.21360
7945.0 0.84017 0.2143(31) 104714. 0.18681 0.21527
7955.0 0.84123 0.2205(31) 102193. 0.18694 0.21404
7965.0 0.84229 0.2143(31) 104710. 0.18707 0.21064
7975.0 0.84334 0.2100(31) 106198. 0.18719 0.20673
7985.0 0.84440 0.2039(30) 108773. 0.18731 0.20376
7995.0 0.84546 0.2050(30) 108567. 0.18743 0.20232
8005.0 0.84652 0.2122(31) 105490. 0.18754 0.20219
8015.0 0.84758 0.2024(30) 109612. 0.18765 0.20289
8025.0 0.84864 0.2108(31) 105647. 0.18776 0.20400
8035.0 0.84970 0.2087(31) 106646. 0.18787 0.20553
8045.0 0.85075 0.2097(31) 106140. 0.18797 0.20787
8055.0 0.85181 0.2129(31) 104627. 0.18808 0.21136
8065.0 0.85287 0.2137(31) 104224. 0.18817 0.21590
8075.0 0.85393 0.2214(31) 100999. 0.18827 0.22083
8085.0 0.85499 0.2255(32) 99333. 0.18837 0.22478
8095.0 0.85605 0.2301(32) 97556. 0.18846 0.22629
8105.0 0.85711 0.2221(32) 100533. 0.18855 0.22516
8115.0 0.85816 0.2206(31) 101172. 0.18863 0.22220
8125.0 0.85922 0.2177(31) 102403. 0.18872 0.21844
8135.0 0.86028 0.2127(31) 104378. 0.18880 0.21491
8145.0 0.86134 0.2179(31) 102308. 0.18888 0.21212
8155.0 0.86240 0.2131(31) 104319. 0.18896 0.21013
8165.0 0.86346 0.2067(31) 107233. 0.18903 0.20864
8175.0 0.86452 0.2077(31) 106623. 0.18911 0.20726
8185.0 0.86557 0.2013(30) 109815. 0.18918 0.20579
8195.0 0.86663 0.2010(30) 109749. 0.18925 0.20454
8205.0 0.86769 0.2058(30) 107647. 0.18931 0.20418
8215.0 0.86875 0.1996(30) 110459. 0.18938 0.20513
8225.0 0.86981 0.2091(31) 106191. 0.18944 0.20738
8235.0 0.87087 0.2076(31) 106781. 0.18950 0.21036
8245.0 0.87193 0.2145(31) 103717. 0.18955 0.21321
8255.0 0.87298 0.2135(31) 104185. 0.18961 0.21545
8265.0 0.87404 0.2156(31) 103388. 0.18966 0.21761
8275.0 0.87510 0.2132(31) 104306. 0.18971 0.22013
8285.0 0.87616 0.2184(31) 102221. 0.18976 0.22283
8295.0 0.87722 0.2203(31) 101410. 0.18980 0.22513
8305.0 0.87828 0.2218(31) 100807. 0.18985 0.22690
8315.0 0.87934 0.2260(32) 99281. 0.18989 0.22876
8325.0 0.88040 0.2250(32) 99744. 0.18993 0.23147
8335.0 0.88145 0.2336(32) 96517. 0.18997 0.23554
8345.0 0.88251 0.2312(32) 97284. 0.19000 0.24095
8355.0 0.88357 0.2483(33) 91128. 0.19004 0.24661
8365.0 0.88463 0.2478(33) 91209. 0.19007 0.24993
8375.0 0.88569 0.2455(33) 91754. 0.19010 0.24790
8385.0 0.88675 0.2382(33) 94257. 0.19013 0.24064
8395.0 0.88781 0.2242(32) 99181. 0.19015 0.23152
8405.0 0.88886 0.2189(31) 101371. 0.19017 0.22382
8415.0 0.88992 0.2128(31) 103785. 0.19020 0.21934
8425.0 0.89098 0.2187(31) 101312. 0.19022 0.21819
8435.0 0.89204 0.2151(31) 102765. 0.19023 0.21932
8445.0 0.89310 0.2166(31) 101954. 0.19025 0.22101
8455.0 0.89416 0.2199(31) 100796. 0.19027 0.22163
8465.0 0.89522 0.2181(31) 101577. 0.19028 0.22057
8475.0 0.89627 0.2145(31) 103058. 0.19029 0.21826
8485.0 0.89733 0.2088(31) 105477. 0.19030 0.21523
8495.0 0.89839 0.2004(30) 109382. 0.19031 0.21173
8505.0 0.89945 0.2107(31) 104676. 0.19031 0.20829
8515.0 0.90051 0.2069(31) 106538. 0.19032 0.20554
8525.0 0.90157 0.2077(31) 106171. 0.19032 0.20385
8535.0 0.90263 0.2011(30) 109221. 0.19032 0.20311
8545.0 0.90369 0.1984(30) 110248. 0.19032 0.20302
8555.0 0.90474 0.1955(30) 111604. 0.19031 0.20322
8565.0 0.90580 0.1965(30) 110898. 0.19031 0.20341
8575.0 0.90686 0.2007(30) 108832. 0.19031 0.20356
8585.0 0.90792 0.1936(30) 111949. 0.19030 0.20388
8595.0 0.90898 0.2026(30) 107562. 0.19029 0.20449
8605.0 0.91004 0.1989(30) 109170. 0.19028 0.20520
8615.0 0.91110 0.2013(30) 108196. 0.19027 0.20571
8625.0 0.91215 0.1995(30) 108852. 0.19025 0.20600
8635.0 0.91321 0.2027(31) 107386. 0.19024 0.20670
8645.0 0.91427 0.2027(31) 107289. 0.19022 0.20882
8655.0 0.91533 0.2068(31) 105364. 0.19021 0.21317
8665.0 0.91639 0.2170(31) 100923. 0.19019 0.22009
8675.0 0.91745 0.2192(32) 99927. 0.19017 0.22912
8685.0 0.91851 0.2273(32) 96660. 0.19015 0.23880
8695.0 0.91956 0.2417(33) 91522. 0.19012 0.24710
8705.0 0.92062 0.2454(33) 90312. 0.19010 0.25249
8715.0 0.92168 0.2500(34) 88625. 0.19007 0.25424
8725.0 0.92274 0.2442(33) 90305. 0.19005 0.25215
8735.0 0.92380 0.2455(33) 89781. 0.19002 0.24698
8745.0 0.92486 0.2393(33) 91697. 0.18999 0.24068
8755.0 0.92592 0.2288(32) 95517. 0.18996 0.23535
8765.0 0.92698 0.2314(33) 94613. 0.18993 0.23191
8775.0 0.92803 0.2295(32) 95274. 0.18990 0.23007
8785.0 0.92909 0.2258(32) 96595. 0.18986 0.22915
8795.0 0.93015 0.2294(32) 95215. 0.18983 0.22832
8805.0 0.93121 0.2239(32) 97153. 0.18979 0.22646
8815.0 0.93227 0.2190(32) 98830. 0.18975 0.22295
8825.0 0.93333 0.2209(32) 97987. 0.18972 0.21851
8835.0 0.93439 0.2174(32) 99253. 0.18968 0.21436
8845.0 0.93544 0.2126(31) 101229. 0.18964 0.21138
8855.0 0.93650 0.2040(31) 104646. 0.18960 0.20989
8865.0 0.93756 0.2052(31) 104027. 0.18956 0.21000
8875.0 0.93862 0.2107(31) 101600. 0.18951 0.21145
8885.0 0.93968 0.2147(32) 99908. 0.18947 0.21364
8895.0 0.94074 0.2204(32) 97465. 0.18942 0.21568
8905.0 0.94180 0.2115(31) 100937. 0.18938 0.21651
8915.0 0.94286 0.2135(32) 99923. 0.18933 0.21547
8925.0 0.94391 0.2095(31) 101357. 0.18929 0.21280
8935.0 0.94497 0.2102(31) 101065. 0.18924 0.20948
8945.0 0.94603 0.2092(31) 101334. 0.18919 0.20620
8955.0 0.94709 0.2060(31) 102622. 0.18914 0.20326
8965.0 0.94815 0.2015(31) 104519. 0.18909 0.20078
8975.0 0.94921 0.2000(31) 105006. 0.18904 0.19894
8985.0 0.95027 0.1971(31) 106230. 0.18899 0.19782
8995.0 0.95132 0.2000(31) 104740. 0.18893 0.19763
9005.0 0.95238 0.1963(31) 106347. 0.18888 0.19852
9015.0 0.95344 0.2005(31) 104520. 0.18883 0.20062
9025.0 0.95450 0.2092(32) 100625. 0.18877 0.20397
9035.0 0.95556 0.2139(32) 98523. 0.18872 0.20833
9045.0 0.95662 0.2181(32) 96757. 0.18866 0.21309
9055.0 0.95768 0.2179(32) 96748. 0.18861 0.21733
9065.0 0.95874 0.2198(32) 95936. 0.18855 0.22009
9075.0 0.95979 0.2289(33) 92299. 0.18849 0.22105
9085.0 0.96085 0.2186(32) 96210. 0.18843 0.22087
9095.0 0.96191 0.2266(33) 93154. 0.18838 0.22068
9105.0 0.96297 0.2230(33) 94321. 0.18832 0.22112
9115.0 0.96403 0.2269(33) 92673. 0.18826 0.22202
9125.0 0.96509 0.2263(33) 92903. 0.18820 0.22257
9135.0 0.96615 0.2246(33) 93666. 0.18814 0.22178
9145.0 0.96720 0.2193(32) 95792. 0.18808 0.21918
9155.0 0.96826 0.2186(32) 96171. 0.18801 0.21556
9165.0 0.96932 0.2143(32) 97801. 0.18795 0.21221
9175.0 0.97038 0.2129(32) 98265. 0.18789 0.21024
9185.0 0.97144 0.2113(32) 98913. 0.18783 0.21023
9195.0 0.97250 0.2162(32) 96962. 0.18777 0.21216
9205.0 0.97356 0.2198(32) 95410. 0.18770 0.21536
9215.0 0.97462 0.2198(32) 95357. 0.18764 0.21855
9225.0 0.97567 0.2176(32) 96002. 0.18758 0.22016
9235.0 0.97673 0.2162(32) 96374. 0.18751 0.21944
9245.0 0.97779 0.2180(32) 95730. 0.18745 0.21682
9255.0 0.97885 0.2114(32) 98422. 0.18738 0.21329
9265.0 0.97991 0.2075(32) 100133. 0.18732 0.20987
9275.0 0.98097 0.2129(32) 97916. 0.18725 0.20725
9285.0 0.98203 0.2110(32) 98648. 0.18719 0.20566
9295.0 0.98309 0.2057(31) 100800. 0.18712 0.20501
9305.0 0.98414 0.2055(31) 100977. 0.18706 0.20534
9315.0 0.98520 0.2109(32) 98858. 0.18699 0.20703
9325.0 0.98626 0.2107(32) 99147. 0.18692 0.21058
9335.0 0.98732 0.2228(33) 94459. 0.18686 0.21618
9345.0 0.98838 0.2281(33) 92499. 0.18679 0.22349
9355.0 0.98944 0.2392(34) 88802. 0.18672 0.23141
9365.0 0.99050 0.2478(34) 86251. 0.18666 0.23824
9375.0 0.99155 0.2490(34) 85870. 0.18659 0.24229
9385.0 0.99261 0.2474(34) 86406. 0.18652 0.24236
9395.0 0.99367 0.2443(34) 87505. 0.18646 0.23834
9405.0 0.99473 0.2355(33) 90540. 0.18639 0.23145
9415.0 0.99579 0.2270(33) 93384. 0.18632 0.22374
9425.0 0.99685 0.2118(32) 99311. 0.18626 0.21680
9435.0 0.99791 0.2103(32) 99973. 0.18619 0.21163
9445.0 0.99897 0.2064(31) 101725. 0.18612 0.20858
9455.0 1.00002 0.2092(32) 100485. 0.18606 0.20770
9465.0 1.00108 0.2112(32) 99728. 0.18599 0.20868
9475.0 1.00214 0.2078(31) 101117. 0.18592 0.21092
9485.0 1.00320 0.2161(32) 97691. 0.18585 0.21366
9495.0 1.00426 0.2174(32) 97326. 0.18579 0.21597
9505.0 1.00532 0.2188(32) 96594. 0.18572 0.21712
9515.0 1.00638 0.2221(32) 95467. 0.18565 0.21672
9525.0 1.00744 0.2123(32) 99193. 0.18559 0.21492
9535.0 1.00849 0.2230(32) 95061. 0.18552 0.21215
9545.0 1.00955 0.2187(32) 96841. 0.18545 0.20906
9555.0 1.01061 0.2106(32) 100279. 0.18539 0.20637
9565.0 1.01167 0.2161(32) 98038. 0.18532 0.20480
9575.0 1.01273 0.2108(32) 100329. 0.18526 0.20471
9585.0 1.01379 0.2135(32) 99300. 0.18519 0.20610
9595.0 1.01485 0.2231(32) 95537. 0.18512 0.20858
9605.0 1.01591 0.2102(32) 100657. 0.18506 0.21159
9615.0 1.01696 0.2184(32) 97394. 0.18499 0.21460
9625.0 1.01802 0.2161(32) 98397. 0.18493 0.21736
9635.0 1.01908 0.2186(32) 97490. 0.18486 0.22010
9645.0 1.02014 0.2290(33) 93576. 0.18480 0.22350
9655.0 1.02120 0.2274(33) 94242. 0.18473 0.22814
9665.0 1.02226 0.2312(33) 92893. 0.18467 0.23386
9675.0 1.02332 0.2411(33) 89592. 0.18460 0.23968
9685.0 1.02437 0.2453(34) 88099. 0.18454 0.24410
9695.0 1.02543 0.2499(34) 86742. 0.18447 0.24600
9705.0 1.02649 0.2504(34) 86834. 0.18441 0.24509
9715.0 1.02755 0.2397(33) 90269. 0.18435 0.24177
9725.0 1.02861 0.2412(33) 89800. 0.18428 0.23644
9735.0 1.02967 0.2298(33) 93596. 0.18422 0.22954
9745.0 1.03073 0.2223(32) 96336. 0.18416 0.22189
9755.0 1.03179 0.2091(31) 101666. 0.18410 0.21451
9765.0 1.03284 0.2099(31) 101275. 0.18403 0.20835
9775.0 1.03390 0.2038(31) 103968. 0.18397 0.20391
9785.0 1.03496 0.2057(31) 103056. 0.18391 0.20130
9795.0 1.03602 0.2056(31) 103291. 0.18385 0.20024
9805.0 1.03708 0.2024(31) 104607. 0.18379 0.20018
9815.0 1.03814 0.2063(31) 103030. 0.18373 0.20047
9825.0 1.03920 0.2013(31) 105419. 0.18367 0.20044
9835.0 1.04026 0.2023(31) 104844. 0.18361 0.19978
9845.0 1.04131 0.1991(31) 106139. 0.18355 0.19863
9855.0 1.04237 0.1987(31) 106400. 0.18349 0.19752
9865.0 1.04343 0.2009(31) 105308. 0.18343 0.19701
9875.0 1.04449 0.1944(30) 108350. 0.18337 0.19751
9885.0 1.04555 0.1989(31) 106098. 0.18331 0.19922
9895.0 1.04661 0.2034(31) 104086. 0.18326 0.20204
9905.0 1.04767 0.2013(31) 105135. 0.18320 0.20564
9915.0 1.04873 0.2150(32) 99417. 0.18314 0.20930
9925.0 1.04978 0.2129(32) 100115. 0.18308 0.21216
9935.0 1.05084 0.2196(32) 97437. 0.18303 0.21339
9945.0 1.05190 0.2173(32) 98486. 0.18297 0.21262
9955.0 1.05296 0.2102(31) 101688. 0.18292 0.21034
9965.0 1.05402 0.2046(31) 104291. 0.18286 0.20748
9975.0 1.05508 0.2013(31) 105904. 0.18281 0.20486
9985.0 1.05614 0.2002(31) 106219. 0.18275 0.20278
9995.0 1.05720 0.2040(31) 104390. 0.18270 0.20120
10005.0 1.05825 0.2006(31) 105799. 0.18264 0.19994
10015.0 1.05931 0.1972(31) 107205. 0.18259 0.19899
10025.0 1.06037 0.1994(31) 105947. 0.18254 0.19847
10035.0 1.06143 0.1978(31) 106689. 0.18249 0.19841
10045.0 1.06249 0.1988(31) 106249. 0.18243 0.19865
10055.0 1.06355 0.2033(31) 104329. 0.18238 0.19883
10065.0 1.06461 0.2026(31) 104568. 0.18233 0.19842
10075.0 1.06567 0.1936(30) 108758. 0.18228 0.19727
10085.0 1.06672 0.1940(30) 108584. 0.18223 0.19558
10095.0 1.06778 0.1950(30) 108142. 0.18218 0.19380
10105.0 1.06884 0.1974(31) 107001. 0.18213 0.19235
10115.0 1.06990 0.1910(30) 109971. 0.18208 0.19151
10125.0 1.07096 0.1906(30) 110128. 0.18203 0.19150
10135.0 1.07202 0.1982(31) 106311. 0.18199 0.19244
10145.0 1.07308 0.2001(31) 105539. 0.18194 0.19437
10155.0 1.07414 0.1990(31) 106140. 0.18189 0.19723
10165.0 1.07519 0.1972(31) 106923. 0.18185 0.20079
10175.0 1.07625 0.2088(31) 101711. 0.18180 0.20479
10185.0 1.07731 0.2098(31) 101373. 0.18175 0.20876
10195.0 1.07837 0.2130(32) 99814. 0.18171 0.21236
10205.0 1.07943 0.2184(32) 97747. 0.18166 0.21564
10215.0 1.08049 0.2153(32) 98845. 0.18162 0.21913
10225.0 1.08155 0.2252(32) 94938. 0.18157 0.22348
10235.0 1.08261 0.2236(32) 95503. 0.18153 0.22883
10245.0 1.08366 0.2397(33) 89798. 0.18149 0.23458
10255.0 1.08472 0.2445(34) 88063. 0.18145 0.23934
10265.0 1.08578 0.2445(34) 87869. 0.18140 0.24151
10275.0 1.08684 0.2406(34) 89049. 0.18136 0.24037
10285.0 1.08790 0.2378(33) 89855. 0.18132 0.23634
10295.0 1.08896 0.2332(33) 91269. 0.18128 0.23058
10305.0 1.09002 0.2217(32) 95468. 0.18124 0.22453
10315.0 1.09108 0.2189(32) 96423. 0.18120 0.21967
10325.0 1.09213 0.2159(32) 97482. 0.18116 0.21714
10335.0 1.09319 0.2194(32) 96109. 0.18112 0.21743
10345.0 1.09425 0.2181(32) 96589. 0.18108 0.22035
10355.0 1.09531 0.2270(33) 93171. 0.18105 0.22499
10365.0 1.09637 0.2304(33) 91776. 0.18101 0.22989
10375.0 1.09743 0.2352(33) 90168. 0.18097 0.23326
10385.0 1.09849 0.2339(33) 90502. 0.18094 0.23360
10395.0 1.09955 0.2325(33) 90995. 0.18090 0.23038
10405.0 1.10060 0.2265(33) 93076. 0.18086 0.22426
10415.0 1.10166 0.2161(32) 96860. 0.18083 0.21678
10425.0 1.10272 0.2081(32) 99908. 0.18079 0.20939
10435.0 1.10378 0.2038(31) 102007. 0.18076 0.20319
10445.0 1.10484 0.2059(31) 101120. 0.18073 0.19874
10455.0 1.10590 0.1948(31) 106310. 0.18069 0.19629
10465.0 1.10696 0.1986(31) 104620. 0.18066 0.19588
10475.0 1.10802 0.1978(31) 104845. 0.18063 0.19740
10485.0 1.10907 0.2024(31) 102960. 0.18060 0.20063
10495.0 1.11013 0.2087(32) 100244. 0.18056 0.20520
10505.0 1.11119 0.2093(32) 99974. 0.18053 0.21051
10515.0 1.11225 0.2143(32) 97995. 0.18050 0.21572
10525.0 1.11331 0.2150(32) 97695. 0.18047 0.21976
10535.0 1.11437 0.2180(32) 96619. 0.18044 0.22172
10545.0 1.11543 0.2166(32) 97177. 0.18041 0.22110
10555.0 1.11649 0.2118(32) 99215. 0.18039 0.21802
10565.0 1.11755 0.2146(32) 98013. 0.18036 0.21314
10575.0 1.11860 0.2011(31) 103806. 0.18033 0.20737
10585.0 1.11966 0.1986(31) 104935. 0.18030 0.20160
10595.0 1.12072 0.1903(30) 108978. 0.18028 0.19648
10605.0 1.12178 0.1885(30) 109767. 0.18025 0.19234
10615.0 1.12284 0.1930(31) 107318. 0.18022 0.18926
10625.0 1.12390 0.1868(30) 110363. 0.18020 0.18712
10635.0 1.12496 0.1859(30) 110932. 0.18017 0.18576
10645.0 1.12602 0.1784(29) 115061. 0.18015 0.18499
10655.0 1.12707 0.1801(30) 114121. 0.18012 0.18470
10665.0 1.12813 0.1835(30) 112191. 0.18010 0.18474
10675.0 1.12919 0.1816(30) 113192. 0.18008 0.18515
10685.0 1.13025 0.1884(30) 109581. 0.18005 0.18576
10695.0 1.13131 0.1848(30) 111528. 0.18003 0.18655
10705.0 1.13237 0.1837(30) 112191. 0.18001 0.18742
10715.0 1.13343 0.1873(30) 110325. 0.17999 0.18824
10725.0 1.13449 0.1864(30) 110654. 0.17996 0.18885
10735.0 1.13554 0.1853(30) 111305. 0.17994 0.18925
10745.0 1.13660 0.1889(30) 109558. 0.17992 0.18954
10755.0 1.13766 0.1889(30) 109859. 0.17990 0.18997
10765.0 1.13872 0.1831(30) 112684. 0.17988 0.19075
10775.0 1.13978 0.1890(30) 109565. 0.17986 0.19201
10785.0 1.14084 0.1936(31) 107127. 0.17984 0.19371
10795.0 1.14190 0.1925(31) 107406. 0.17983 0.19568
10805.0 1.14296 0.1973(31) 105024. 0.17981 0.19767
10815.0 1.14402 0.2010(31) 103211. 0.17979 0.19934
10825.0 1.14507 0.1992(31) 103932. 0.17977 0.20052
10835.0 1.14613 0.2030(31) 102218. 0.17975 0.20138
10845.0 1.14719 0.2076(32) 100135. 0.17974 0.20230
10855.0 1.14825 0.2019(31) 102550. 0.17972 0.20361
10865.0 1.14931 0.2083(32) 99584. 0.17971 0.20544
10875.0 1.15037 0.2060(32) 100672. 0.17969 0.20759
10885.0 1.15143 0.2095(32) 99087. 0.17968 0.20955
10895.0 1.15249 0.2144(32) 97036. 0.17966 0.21068
10905.0 1.15354 0.2175(32) 95775. 0.17965 0.21066
10915.0 1.15460 0.2124(32) 97858. 0.17963 0.20978
10925.0 1.15566 0.2146(32) 96894. 0.17962 0.20880
10935.0 1.15672 0.2071(32) 99835. 0.17960 0.20841
10945.0 1.15778 0.2080(32) 99526. 0.17959 0.20893
10955.0 1.15884 0.2099(32) 98693. 0.17958 0.21037
10965.0 1.15990 0.2126(32) 97572. 0.17957 0.21231
10975.0 1.16096 0.2177(32) 95599. 0.17955 0.21385
10985.0 1.16201 0.2162(32) 96110. 0.17954 0.21408
10995.0 1.16307 0.2106(32) 98303. 0.17953 0.21245
11005.0 1.16413 0.2107(32) 98286. 0.17952 0.20912
11015.0 1.16519 0.2038(31) 101187. 0.17951 0.20473
11025.0 1.16625 0.2011(31) 102351. 0.17950 0.20005
11035.0 1.16731 0.1950(31) 105281. 0.17949 0.19566
11045.0 1.16837 0.1920(31) 106579. 0.17948 0.19194
11055.0 1.16943 0.1864(30) 109399. 0.17947 0.18898
11065.0 1.17049 0.1840(30) 110718. 0.17946 0.18680
11075.0 1.17154 0.1806(30) 112553. 0.17945 0.18522
11085.0 1.17260 0.1849(30) 110197. 0.17944 0.18410
11095.0 1.17366 0.1836(30) 110962. 0.17943 0.18331
11105.0 1.17472 0.1872(30) 109259. 0.17943 0.18275
11115.0 1.17578 0.1810(30) 112374. 0.17942 0.18235
11125.0 1.17684 0.1753(29) 115533. 0.17941 0.18208
11135.0 1.17790 0.1863(30) 109665. 0.17940 0.18188
11145.0 1.17896 0.1783(30) 113845. 0.17940 0.18175
11155.0 1.18001 0.1829(30) 111541. 0.17939 0.18169
11165.0 1.18107 0.1873(30) 109406. 0.17938 0.18167
11175.0 1.18213 0.1773(30) 114663. 0.17938 0.18172
11185.0 1.18319 0.1857(30) 110125. 0.17937 0.18178
11195.0 1.18425 0.1804(30) 112955. 0.17937 0.18190
11205.0 1.18531 0.1840(30) 110703. 0.17936 0.18202
11215.0 1.18637 0.1850(30) 110179. 0.17936 0.18213
11225.0 1.18743 0.1811(30) 112144. 0.17935 0.18219
11235.0 1.18849 0.1787(30) 113463. 0.17935 0.18222
11245.0 1.18954 0.1758(29) 115247. 0.17934 0.18224
11255.0 1.19060 0.1827(30) 111742. 0.17934 0.18231
11265.0 1.19166 0.1815(30) 112360. 0.17933 0.18248
11275.0 1.19272 0.1783(30) 114155. 0.17933 0.18281
11285.0 1.19378 0.1845(30) 110720. 0.17933 0.18333
11295.0 1.19484 0.1793(30) 113515. 0.17932 0.18407
11305.0 1.19590 0.1789(30) 114022. 0.17932 0.18503
11315.0 1.19696 0.1889(30) 108634. 0.17932 0.18618
11325.0 1.19802 0.1904(30) 107885. 0.17932 0.18749
11335.0 1.19907 0.1911(30) 107586. 0.17931 0.18886
11345.0 1.20013 0.1909(30) 107861. 0.17931 0.19023
11355.0 1.20119 0.1939(31) 106434. 0.17931 0.19157
11365.0 1.20225 0.1922(31) 107267. 0.17931 0.19299
11375.0 1.20331 0.1928(31) 106996. 0.17931 0.19465
11385.0 1.20437 0.2017(31) 102810. 0.17930 0.19659
11395.0 1.20543 0.2020(31) 102866. 0.17930 0.19877
11405.0 1.20649 0.2061(31) 100978. 0.17930 0.20093
11415.0 1.20754 0.1983(31) 104508. 0.17930 0.20266
11425.0 1.20860 0.2036(31) 102384. 0.17930 0.20352
11435.0 1.20966 0.2035(31) 102406. 0.17930 0.20331
11445.0 1.21072 0.2022(31) 103160. 0.17930 0.20214
11455.0 1.21178 0.1978(31) 105091. 0.17930 0.20035
11465.0 1.21284 0.1986(31) 104791. 0.17930 0.19834
11475.0 1.21390 0.1949(31) 106422. 0.17930 0.19650
11485.0 1.21496 0.1929(30) 107665. 0.17930 0.19521
11495.0 1.21602 0.1953(31) 106681. 0.17930 0.19485
11505.0 1.21707 0.1962(31) 106335. 0.17930 0.19571
11515.0 1.21813 0.1987(31) 105288. 0.17930 0.19805
11525.0 1.21919 0.2018(31) 104093. 0.17930 0.20198
11535.0 1.22025 0.2072(31) 101631. 0.17930 0.20740
11545.0 1.22131 0.2170(32) 97536. 0.17931 0.21398
11555.0 1.22237 0.2246(32) 94814. 0.17931 0.22105
11565.0 1.22343 0.2262(33) 94359. 0.17931 0.22764
11575.0 1.22449 0.2351(33) 91261. 0.17931 0.23248
11585.0 1.22555 0.2354(33) 91330. 0.17931 0.23443
11595.0 1.22660 0.2330(33) 92287. 0.17931 0.23307
11605.0 1.22766 0.2330(33) 92174. 0.17932 0.22905
11615.0 1.22872 0.2256(32) 94838. 0.17932 0.22358
11625.0 1.22978 0.2192(32) 97658. 0.17932 0.21782
11635.0 1.23084 0.2146(32) 99579. 0.17932 0.21255
11645.0 1.23190 0.2076(31) 102701. 0.17932 0.20812
11655.0 1.23296 0.1996(31) 106645. 0.17933 0.20449
11665.0 1.23402 0.1948(30) 108997. 0.17933 0.20143
11675.0 1.23508 0.1974(30) 107779. 0.17933 0.19866
11685.0 1.23613 0.1913(30) 110789. 0.17933 0.19606
11695.0 1.23719 0.1924(30) 110236. 0.17934 0.19362
11705.0 1.23825 0.1831(29) 115435. 0.17934 0.19142
11715.0 1.23931 0.1880(30) 112943. 0.17934 0.18950
11725.0 1.24037 0.1851(30) 114758. 0.17935 0.18794
11735.0 1.24143 0.1840(29) 115776. 0.17935 0.18674
11745.0 1.24249 0.1856(30) 114888. 0.17935 0.18589
11755.0 1.24355 0.1812(29) 117472. 0.17936 0.18537
11765.0 1.24460 0.1777(29) 119462. 0.17936 0.18515
11775.0 1.24566 0.1836(29) 116237. 0.17936 0.18520
11785.0 1.24672 0.1873(30) 114338. 0.17937 0.18553
11795.0 1.24778 0.1870(30) 114630. 0.17937 0.18619
11805.0 1.24884 0.1830(29) 116778. 0.17937 0.18734
11815.0 1.24990 0.1819(29) 117656. 0.17938 0.18917
11825.0 1.25096 0.1933(30) 111879. 0.17938 0.19193
11835.0 1.25202 0.1989(30) 109367. 0.17938 0.19594
11845.0 1.25308 0.1981(30) 109919. 0.17939 0.20149
11855.0 1.25413 0.2104(31) 104282. 0.17939 0.20885
11865.0 1.25519 0.2185(32) 100637. 0.17940 0.21804
11875.0 1.25625 0.2337(32) 94834. 0.17940 0.22879
11885.0 1.25731 0.2361(33) 94062. 0.17940 0.24043
11895.0 1.25837 0.2489(33) 89850. 0.17941 0.25185
11905.0 1.25943 0.2578(34) 87163. 0.17941 0.26155
11915.0 1.26049 0.2632(34) 85573. 0.17942 0.26795
11925.0 1.26155 0.2658(34) 84860. 0.17942 0.26996
11935.0 1.26261 0.2678(34) 84203. 0.17942 0.26733
11945.0 1.26366 0.2598(34) 86614. 0.17943 0.26072
11955.0 1.26472 0.2505(33) 89693. 0.17943 0.25143
11965.0 1.26578 0.2378(33) 94089. 0.17944 0.24092
11975.0 1.26684 0.2325(32) 95850. 0.17944 0.23045
11985.0 1.26790 0.2228(32) 99494. 0.17944 0.22087
11995.0 1.26896 0.2102(31) 104974. 0.17945 0.21273
12005.0 1.27002 0.2016(30) 109103. 0.17945 0.20627
12015.0 1.27108 0.1904(30) 114869. 0.17946 0.20153
12025.0 1.27214 0.1927(30) 113751. 0.17946 0.19840
12035.0 1.27319 0.1938(30) 113215. 0.17947 0.19671
12045.0 1.27425 0.1914(30) 114815. 0.17947 0.19625
12055.0 1.27531 0.1929(30) 114043. 0.17947 0.19679
12065.0 1.27637 0.1943(30) 113357. 0.17948 0.19806
12075.0 1.27743 0.1931(30) 114116. 0.17948 0.19972
12085.0 1.27849 0.1988(30) 111309. 0.17949 0.20137
12095.0 1.27955 0.2002(30) 110671. 0.17949 0.20252
12105.0 1.28061 0.1986(30) 111607. 0.17949 0.20276
12115.0 1.28167 0.1957(30) 113486. 0.17950 0.20191
12125.0 1.28272 0.1985(30) 112147. 0.17950 0.20012
12135.0 1.28378 0.1918(29) 115771. 0.17951 0.19777
12145.0 1.28484 0.1884(29) 117608. 0.17951 0.19525
12155.0 1.28590 0.1870(29) 118405. 0.17951 0.19290
12165.0 1.28696 0.1890(29) 117245. 0.17952 0.19097
12175.0 1.28802 0.1852(29) 119275. 0.17952 0.18960
12185.0 1.28908 0.1895(29) 117112. 0.17953 0.18888
12195.0 1.29014 0.1875(29) 118228. 0.17953 0.18883
12205.0 1.29120 0.1918(29) 115938. 0.17953 0.18944
12215.0 1.29226 0.1883(29) 117807. 0.17954 0.19067
12225.0 1.29331 0.1853(29) 119534. 0.17954 0.19248
12235.0 1.29437 0.1894(29) 117395. 0.17955 0.19481
12245.0 1.29543 0.1967(30) 113458. 0.17955 0.19753
12255.0 1.29649 0.1982(30) 112642. 0.17955 0.20055
12265.0 1.29755 0.1940(29) 114982. 0.17956 0.20374
12275.0 1.29861 0.1994(30) 112535. 0.17956 0.20703
12285.0 1.29967 0.2035(30) 110547. 0.17957 0.21041
12295.0 1.30073 0.2152(31) 105202. 0.17957 0.21389
12305.0 1.30179 0.2141(31) 105551. 0.17957 0.21735
12315.0 1.30284 0.2102(31) 107305. 0.17958 0.22052
12325.0 1.30390 0.2155(31) 105031. 0.17958 0.22304
12335.0 1.30496 0.2191(31) 103484. 0.17958 0.22443
12345.0 1.30602 0.2207(31) 102862. 0.17959 0.22418
12355.0 1.30708 0.2179(31) 104106. 0.17959 0.22204
12365.0 1.30814 0.2092(30) 108003. 0.17959 0.21826
12375.0 1.30920 0.2105(31) 107371. 0.17960 0.21346
12385.0 1.31026 0.2084(30) 108289. 0.17960 0.20835
12395.0 1.31132 0.1963(30) 114205. 0.17960 0.20353
12405.0 1.31237 0.2056(30) 109593. 0.17961 0.19941
12415.0 1.31343 0.1973(30) 113525. 0.17961 0.19624
12425.0 1.31449 0.1990(30) 112641. 0.17961 0.19410
12435.0 1.31555 0.1953(30) 114821. 0.17962 0.19298
12445.0 1.31661 0.1940(29) 115629. 0.17962 0.19274
12455.0 1.31767 0.1964(30) 114476. 0.17962 0.19329
12465.0 1.31873 0.1982(30) 113580. 0.17962 0.19441
12475.0 1.31979 0.2009(30) 112337. 0.17963 0.19588
12485.0 1.32085 0.2002(30) 112722. 0.17963 0.19753
12495.0 1.32190 0.2047(30) 110423. 0.17963 0.19920
12505.0 1.32296 0.2020(30) 111907. 0.17964 0.20080
12515.0 1.32402 0.2025(30) 111619. 0.17964 0.20216
12525.0 1.32508 0.2017(30) 112258. 0.17964 0.20309
12535.0 1.32614 0.2045(30) 110698. 0.17964 0.20333
12545.0 1.32720 0.2033(30) 111399. 0.17965 0.20267
12555.0 1.32826 0.2006(30) 112831. 0.17965 0.20114
12565.0 1.32932 0.2022(30) 112169. 0.17965 0.19898
12575.0 1.33038 0.1962(29) 115172. 0.17965 0.19655
12585.0 1.33144 0.1962(29) 115183. 0.17965 0.19417
12595.0 1.33249 0.1910(29) 118144. 0.17966 0.19211
12605.0 1.33355 0.1954(29) 115626. 0.17966 0.19052
12615.0 1.33461 0.1946(29) 116094. 0.17966 0.18948
12625.0 1.33567 0.1911(29) 117998. 0.17966 0.18899
12635.0 1.33673 0.1907(29) 118393. 0.17967 0.18899
12645.0 1.33779 0.1912(29) 117706. 0.17967 0.18937
12655.0 1.33885 0.1924(29) 116866. 0.17967 0.18998
12665.0 1.33991 0.1884(29) 118849. 0.17967 0.19068
12675.0 1.34097 0.1948(29) 115476. 0.17967 0.19131
12685.0 1.34202 0.1997(30) 113108. 0.17967 0.19182
12695.0 1.34308 0.1965(30) 114642. 0.17968 0.19223
12705.0 1.34414 0.1928(29) 116343. 0.17968 0.19257
12715.0 1.34520 0.1989(30) 113299. 0.17968 0.19290
12725.0 1.34626 0.1922(29) 116441. 0.17968 0.19319
12735.0 1.34732 0.1976(30) 113682. 0.17968 0.19337
12745.0 1.34838 0.2016(30) 111827. 0.17968 0.19333
12755.0 1.34944 0.1962(30) 114466. 0.17968 0.19300
12765.0 1.35050 0.1967(30) 114239. 0.17969 0.19239
12775.0 1.35156 0.1905(29) 117469. 0.17969 0.19166
12785.0 1.35261 0.1948(29) 115233. 0.17969 0.19081
12795.0 1.35367 0.1974(30) 113792. 0.17969 0.18998
12805.0 1.35473 0.1916(29) 117035. 0.17969 0.18919
12815.0 1.35579 0.1918(29) 116763. 0.17969 0.18844
12825.0 1.35685 0.1891(29) 118546. 0.17969 0.18766
12835.0 1.35791 0.1918(29) 117218. 0.17969 0.18684
12845.0 1.35897 0.1852(29) 121176. 0.17969 0.18594
12855.0 1.36003 0.1911(29) 117634. 0.17970 0.18509
12865.0 1.36109 0.1884(29) 119183. 0.17970 0.18425
12875.0 1.36214 0.1857(29) 120525. 0.17970 0.18351
12885.0 1.36320 0.1788(28) 124713. 0.17970 0.18286
12895.0 1.36426 0.1864(29) 120373. 0.17970 0.18232
12905.0 1.36532 0.1811(28) 123618. 0.17970 0.18188
12915.0 1.36638 0.1795(28) 124606. 0.17970 0.18155
12925.0 1.36744 0.1827(28) 123149. 0.17970 0.18129
12935.0 1.36850 0.1859(29) 121536. 0.17970 0.18111
12945.0 1.36956 0.1866(29) 121355. 0.17970 0.18098
12955.0 1.37062 0.1826(28) 123770. 0.17970 0.18088
12965.0 1.37168 0.1793(28) 125792. 0.17970 0.18082
12975.0 1.37273 0.1811(28) 124693. 0.17970 0.18077
12985.0 1.37379 0.1809(28) 124833. 0.17970 0.18074
12995.0 1.37485 0.1863(29) 121727. 0.17970 0.18072
13005.0 1.37591 0.1840(29) 123042. 0.17970 0.18070
13015.0 1.37697 0.1855(29) 122353. 0.17970 0.18069
13025.0 1.37803 0.1854(29) 122544. 0.17971 0.18066
13035.0 1.37909 0.1820(28) 124708. 0.17971 0.18066
13045.0 1.38015 0.1828(28) 124195. 0.17971 0.18066
13055.0 1.38121 0.1714(28) 131214. 0.17971 0.18067
13065.0 1.38226 0.1831(28) 123716. 0.17971 0.18068
13075.0 1.38332 0.1765(28) 127728. 0.17971 0.18069
13085.0 1.38438 0.1827(28) 124083. 0.17971 0.18071
13095.0 1.38544 0.1782(28) 127043. 0.17971 0.18073
13105.0 1.38650 0.1815(28) 125028. 0.17971 0.18076
13115.0 1.38756 0.1836(28) 123898. 0.17971 0.18079
13125.0 1.38862 0.1834(28) 123907. 0.17971 0.18083
13135.0 1.38968 0.1818(28) 124885. 0.17971 0.18088
13145.0 1.39074 0.1880(29) 121492. 0.17971 0.18093
13155.0 1.39180 0.1785(28) 127221. 0.17971 0.18099
13165.0 1.39285 0.1812(28) 125732. 0.17971 0.18107
13175.0 1.39391 0.1836(28) 124493. 0.17971 0.18116
13185.0 1.39497 0.1812(28) 126201. 0.17971 0.18128
13195.0 1.39603 0.1854(28) 123769. 0.17971 0.18149
13205.0 1.39709 0.1796(28) 127596. 0.17971 0.18170
13215.0 1.39815 0.1857(28) 123894. 0.17971 0.18198
13225.0 1.39921 0.1863(28) 123694. 0.17971 0.18238
13235.0 1.40027 0.1807(28) 126985. 0.17971 0.18294
13245.0 1.40133 0.1826(28) 125934. 0.17971 0.18372
13255.0 1.40239 0.1834(28) 125681. 0.17971 0.18478
13265.0 1.40344 0.1861(28) 124367. 0.17971 0.18619
13275.0 1.40450 0.1925(29) 120663. 0.17971 0.18794
13285.0 1.40556 0.1885(28) 123170. 0.17971 0.19013
13295.0 1.40662 0.1924(29) 121119. 0.17971 0.19267
13305.0 1.40768 0.1938(29) 120350. 0.17971 0.19546
13315.0 1.40874 0.1998(29) 117201. 0.17971 0.19834
13325.0 1.40980 0.2002(29) 117208. 0.17971 0.20106
13335.0 1.41086 0.2059(30) 114320. 0.17971 0.20332
13345.0 1.41192 0.2062(30) 113889. 0.17971 0.20480
13355.0 1.41298 0.2077(30) 113346. 0.17971 0.20529
13365.0 1.41403 0.2084(30) 113023. 0.17971 0.20475
13375.0 1.41509 0.2081(30) 113410. 0.17971 0.20338
13385.0 1.41615 0.2017(29) 116652. 0.17971 0.20148
13395.0 1.41721 0.2045(29) 115575. 0.17971 0.19941
13405.0 1.41827 0.1972(29) 119572. 0.17971 0.19734
13415.0 1.41933 0.1929(29) 121931. 0.17971 0.19552
13425.0 1.42039 0.1923(29) 122348. 0.17971 0.19406
13435.0 1.42145 0.1917(29) 122717. 0.17971 0.19307
13445.0 1.42251 0.1921(29) 122713. 0.17971 0.19261
13455.0 1.42357 0.1946(29) 121347. 0.17971 0.19273
13465.0 1.42462 0.1947(29) 121306. 0.17972 0.19340
13475.0 1.42568 0.1970(29) 120257. 0.17972 0.19461
13485.0 1.42674 0.1979(29) 119938. 0.17972 0.19626
13495.0 1.42780 0.1987(29) 119459. 0.17972 0.19820
13505.0 1.42886 0.1989(29) 119350. 0.17972 0.20026
13515.0 1.42992 0.2033(29) 117102. 0.17972 0.20223
13525.0 1.43098 0.2087(30) 114449. 0.17972 0.20395
13535.0 1.43204 0.2056(29) 116050. 0.17972 0.20527
13545.0 1.43310 0.2049(29) 116498. 0.17972 0.20610
13555.0 1.43416 0.2066(29) 115931. 0.17972 0.20640
13565.0 1.43521 0.2072(29) 115754. 0.17973 0.20604
13575.0 1.43627 0.2065(29) 116319. 0.17973 0.20501
13585.0 1.43733 0.1990(29) 120419. 0.17973 0.20343
13595.0 1.43839 0.2033(29) 118226. 0.17973 0.20142
13605.0 1.43945 0.1968(29) 121863. 0.17973 0.19928
13615.0 1.44051 0.1952(29) 122951. 0.17973 0.19709
13625.0 1.44157 0.1961(29) 122475. 0.17974 0.19497
13635.0 1.44263 0.1961(29) 122698. 0.17974 0.19299
13645.0 1.44369 0.1879(28) 127594. 0.17974 0.19122
13655.0 1.44475 0.1915(28) 125417. 0.17974 0.18974
13665.0 1.44580 0.1902(28) 126295. 0.17974 0.18856
13675.0 1.44686 0.1922(28) 125203. 0.17975 0.18771
13685.0 1.44792 0.1893(28) 126996. 0.17975 0.18721
13695.0 1.44898 0.1924(28) 125164. 0.17975 0.18707
13705.0 1.45004 0.1904(28) 126246. 0.17975 0.18730
13715.0 1.45110 0.1929(28) 124838. 0.17976 0.18794
13725.0 1.45216 0.1920(28) 125616. 0.17976 0.18900
13735.0 1.45322 0.1918(28) 125476. 0.17976 0.19053
13745.0 1.45428 0.1957(28) 123274. 0.17976 0.19255
13755.0 1.45534 0.1926(28) 124891. 0.17977 0.19509
13765.0 1.45639 0.2019(29) 119631. 0.17977 0.19814
13775.0 1.45745 0.2009(29) 120144. 0.17977 0.20172
13785.0 1.45851 0.2033(29) 118957. 0.17978 0.20576
13795.0 1.45957 0.2041(29) 118604. 0.17978 0.21020
13805.0 1.46063 0.2029(29) 119511. 0.17978 0.21493
13815.0 1.46169 0.2150(30) 113407. 0.17979 0.21987
13825.0 1.46275 0.2197(30) 111082. 0.17979 0.22499
13835.0 1.46381 0.2278(30) 107685. 0.17980 0.23031
13845.0 1.46487 0.2331(31) 105644. 0.17980 0.23575
13855.0 1.46593 0.2426(31) 101773. 0.17980 0.24109
13865.0 1.46698 0.2486(32) 99530. 0.17981 0.24590
13875.0 1.46804 0.2468(32) 100343. 0.17981 0.24957
13885.0 1.46910 0.2529(32) 98243. 0.17982 0.25146
13895.0 1.47016 0.2499(32) 99473. 0.17982 0.25090
13905.0 1.47122 0.2465(32) 100589. 0.17983 0.24828
13915.0 1.47228 0.2502(32) 99299. 0.17983 0.24383
13925.0 1.47334 0.2378(31) 104140. 0.17984 0.23819
13935.0 1.47440 0.2406(31) 103215. 0.17984 0.23205
13945.0 1.47546 0.2221(30) 111076. 0.17985 0.22592
13955.0 1.47652 0.2157(30) 114206. 0.17986 0.22012
13965.0 1.47758 0.2062(29) 118957. 0.17986 0.21481
13975.0 1.47863 0.2133(29) 115139. 0.17987 0.21000
13985.0 1.47969 0.2064(29) 118591. 0.17987 0.20573
13995.0 1.48075 0.1979(28) 123249. 0.17988 0.20194
14005.0 1.48181 0.1929(28) 126395. 0.17989 0.19863
14015.0 1.48287 0.2036(29) 120339. 0.17989 0.19581
14025.0 1.48393 0.1914(28) 127232. 0.17990 0.19344
14035.0 1.48499 0.1918(28) 127132. 0.17991 0.19152
14045.0 1.48605 0.1921(28) 127058. 0.17992 0.19002
14055.0 1.48711 0.1878(28) 129687. 0.17992 0.18892
14065.0 1.48817 0.1844(28) 131893. 0.17993 0.18819
14075.0 1.48922 0.1871(28) 129942. 0.17994 0.18780
14085.0 1.49028 0.1832(27) 132407. 0.17995 0.18772
14095.0 1.49134 0.1868(28) 130138. 0.17995 0.18791
14105.0 1.49240 0.1869(28) 130174. 0.17996 0.18832
14115.0 1.49346 0.1861(28) 130835. 0.17997 0.18887
14125.0 1.49452 0.1875(28) 130008. 0.17998 0.18951
14135.0 1.49558 0.1907(28) 128112. 0.17999 0.19015
14145.0 1.49664 0.1914(28) 127824. 0.18000 0.19067
14155.0 1.49770 0.1870(28) 130453. 0.18001 0.19103
14165.0 1.49876 0.1864(28) 130800. 0.18002 0.19118
14175.0 1.49981 0.1917(28) 127336. 0.18003 0.19105
14185.0 1.50087 0.1849(28) 131472. 0.18004 0.19072
14195.0 1.50193 0.1876(28) 129588. 0.18005 0.19027
14205.0 1.50299 0.1870(28) 130374. 0.18006 0.18981
14215.0 1.50405 0.1909(28) 127916. 0.18007 0.18942
14225.0 1.50511 0.1944(28) 125716. 0.18008 0.18921
14235.0 1.50617 0.1907(28) 127927. 0.18009 0.18927
14245.0 1.50723 0.1877(28) 129597. 0.18010 0.18976
14255.0 1.50829 0.1949(28) 125363. 0.18011 0.19075
14265.0 1.50935 0.1981(28) 123376. 0.18013 0.19233
14275.0 1.51041 0.2060(29) 119082. 0.18014 0.19470
14285.0 1.51146 0.2024(29) 120880. 0.18015 0.19802
14295.0 1.51252 0.2066(29) 118765. 0.18016 0.20243
14305.0 1.51358 0.2135(29) 115668. 0.18018 0.20802
14315.0 1.51464 0.2265(30) 109539. 0.18019 0.21481
14325.0 1.51570 0.2299(30) 108067. 0.18020 0.22270
14335.0 1.51676 0.2339(31) 106374. 0.18022 0.23145
14345.0 1.51782 0.2425(31) 102906. 0.18023 0.24061
14355.0 1.51888 0.2456(31) 101822. 0.18024 0.24937
14365.0 1.51994 0.2489(31) 100912. 0.18026 0.25734
14375.0 1.52100 0.2578(32) 97580. 0.18027 0.26337
14385.0 1.52206 0.2513(32) 100037. 0.18029 0.26667
14395.0 1.52311 0.2503(32) 100473. 0.18030 0.26673
14405.0 1.52417 0.2596(32) 97255. 0.18032 0.26364
14415.0 1.52523 0.2515(32) 99980. 0.18033 0.25798
14425.0 1.52629 0.2421(31) 103584. 0.18035 0.25072
14435.0 1.52735 0.2458(31) 102174. 0.18036 0.24281
14445.0 1.52841 0.2352(31) 106598. 0.18038 0.23510
14455.0 1.52947 0.2365(31) 106001. 0.18040 0.22833
14465.0 1.53053 0.2312(30) 108193. 0.18041 0.22304
14475.0 1.53159 0.2305(30) 108639. 0.18043 0.21964
14485.0 1.53265 0.2263(30) 110570. 0.18045 0.21834
14495.0 1.53370 0.2327(30) 107675. 0.18047 0.21927
14505.0 1.53476 0.2342(31) 107031. 0.18048 0.22236
14515.0 1.53582 0.2337(31) 107155. 0.18050 0.22744
14525.0 1.53688 0.2450(31) 102683. 0.18052 0.23415
14535.0 1.53794 0.2464(31) 102178. 0.18054 0.24202
14545.0 1.53900 0.2519(32) 100149. 0.18056 0.25017
14555.0 1.54006 0.2617(32) 96665. 0.18058 0.25820
14565.0 1.54112 0.2673(32) 94788. 0.18060 0.26504
14575.0 1.54218 0.2708(33) 93717. 0.18062 0.26958
14585.0 1.54324 0.2694(33) 94200. 0.18064 0.27112
14595.0 1.54430 0.2770(33) 91825. 0.18066 0.26936
14605.0 1.54535 0.2698(33) 94180. 0.18068 0.26455
14615.0 1.54641 0.2634(32) 96315. 0.18070 0.25736
14625.0 1.54747 0.2462(31) 102660. 0.18072 0.24870
14635.0 1.54853 0.2489(31) 101632. 0.18074 0.23938
14645.0 1.54959 0.2307(30) 109013. 0.18076 0.23016
14655.0 1.55065 0.2270(30) 110717. 0.18079 0.22153
14665.0 1.55171 0.2219(30) 113131. 0.18081 0.21385
14675.0 1.55277 0.2113(29) 118268. 0.18083 0.20730
14685.0 1.55383 0.2050(29) 121488. 0.18085 0.20191
14695.0 1.55489 0.2005(28) 124143. 0.18088 0.19765
14705.0 1.55595 0.2044(29) 122034. 0.18090 0.19438
14715.0 1.55700 0.1938(28) 128085. 0.18093 0.19195
14725.0 1.55806 0.1956(28) 126928. 0.18095 0.19018
14735.0 1.55912 0.1941(28) 127791. 0.18097 0.18894
14745.0 1.56018 0.1927(28) 128634. 0.18100 0.18808
14755.0 1.56124 0.1894(28) 130805. 0.18102 0.18749
14765.0 1.56230 0.1902(28) 130425. 0.18105 0.18712
14775.0 1.56336 0.1923(28) 129257. 0.18108 0.18688
14785.0 1.56442 0.1830(27) 135222. 0.18110 0.18674
14795.0 1.56548 0.1914(28) 130077. 0.18113 0.18667
14805.0 1.56654 0.1842(27) 134933. 0.18116 0.18665
14815.0 1.56760 0.1896(28) 131579. 0.18118 0.18665
14825.0 1.56865 0.1886(27) 132416. 0.18121 0.18667
14835.0 1.56971 0.1872(27) 133227. 0.18124 0.18670
14845.0 1.57077 0.1909(28) 131020. 0.18127 0.18673
14855.0 1.57183 0.1930(28) 129739. 0.18129 0.18678
14865.0 1.57289 0.1924(28) 130074. 0.18132 0.18687
14875.0 1.57395 0.1951(28) 128779. 0.18135 0.18701
14885.0 1.57501 0.1903(28) 132124. 0.18138 0.18726
14895.0 1.57607 0.1877(27) 133763. 0.18141 0.18765
14905.0 1.57713 0.1874(27) 134227. 0.18144 0.18821
14915.0 1.57819 0.1918(28) 131469. 0.18147 0.18898
14925.0 1.57925 0.1872(27) 134591. 0.18150 0.18999
14935.0 1.58030 0.1929(28) 130849. 0.18153 0.19128
14945.0 1.58136 0.1928(28) 131012. 0.18157 0.19291
14955.0 1.58242 0.1961(28) 128893. 0.18160 0.19482
14965.0 1.58348 0.2031(28) 125013. 0.18163 0.19717
14975.0 1.58454 0.2003(28) 126713. 0.18166 0.19991
14985.0 1.58560 0.2064(28) 123294. 0.18169 0.20301
14995.0 1.58666 0.2074(28) 123181. 0.18173 0.20643
15005.0 1.58772 0.2080(28) 123140. 0.18176 0.21010
15015.0 1.58878 0.2135(29) 120558. 0.18179 0.21390
15025.0 1.58984 0.2168(29) 118992. 0.18183 0.21783
15035.0 1.59090 0.2259(30) 114435. 0.18186 0.22178
15045.0 1.59196 0.2299(30) 113045. 0.18190 0.22561
15055.0 1.59301 0.2272(30) 114680. 0.18193 0.22916
15065.0 1.59407 0.2278(30) 114331. 0.18197 0.23215
15075.0 1.59513 0.2271(30) 114593. 0.18201 0.23422
15085.0 1.59619 0.2316(30) 112613. 0.18204 0.23508
15095.0 1.59725 0.2306(30) 113033. 0.18208 0.23449
15105.0 1.59831 0.2251(29) 115662. 0.18211 0.23248
15115.0 1.59937 0.2276(30) 114515. 0.18215 0.22923
15125.0 1.60043 0.2185(29) 119007. 0.18219 0.22509
15135.0 1.60149 0.2177(29) 119576. 0.18223 0.22043
15145.0 1.60255 0.2120(29) 122456. 0.18227 0.21561
15155.0 1.60361 0.2049(28) 126394. 0.18230 0.21091
15165.0 1.60466 0.2088(28) 124198. 0.18234 0.20656
15175.0 1.60572 0.2028(28) 127655. 0.18238 0.20269
15185.0 1.60678 0.2015(28) 128495. 0.18242 0.19940
15195.0 1.60784 0.1948(27) 132578. 0.18246 0.19670
15205.0 1.60890 0.1936(27) 133364. 0.18250 0.19456
15215.0 1.60996 0.1902(27) 135719. 0.18254 0.19295
15225.0 1.61102 0.1889(27) 136700. 0.18259 0.19178
15235.0 1.61208 0.1905(27) 135515. 0.18263 0.19099
15245.0 1.61314 0.1878(27) 137752. 0.18267 0.19052
15255.0 1.61420 0.1896(27) 136597. 0.18271 0.19032
15265.0 1.61526 0.1881(27) 137332. 0.18275 0.19036
15275.0 1.61631 0.1962(27) 132491. 0.18280 0.19062
15285.0 1.61737 0.1907(27) 135946. 0.18284 0.19112
15295.0 1.61843 0.1907(27) 136026. 0.18288 0.19188
15305.0 1.61949 0.1885(27) 137712. 0.18293 0.19294
15315.0 1.62055 0.1917(27) 135346. 0.18297 0.19439
15325.0 1.62161 0.1925(27) 135046. 0.18302 0.19635
15335.0 1.62267 0.1980(28) 131738. 0.18306 0.19877
15345.0 1.62373 0.2004(28) 130322. 0.18311 0.20185
15355.0 1.62479 0.1998(28) 130829. 0.18315 0.20564
15365.0 1.62585 0.2105(28) 124656. 0.18320 0.21021
15375.0 1.62691 0.2126(28) 123566. 0.18324 0.21561
15385.0 1.62797 0.2220(29) 118640. 0.18329 0.22185
15395.0 1.62902 0.2316(30) 114157. 0.18334 0.22891
15405.0 1.63008 0.2375(30) 111717. 0.18339 0.23666
15415.0 1.63114 0.2426(30) 109336. 0.18343 0.24495
15425.0 1.63220 0.2455(30) 108311. 0.18348 0.25359
15435.0 1.63326 0.2630(31) 101468. 0.18353 0.26231
15445.0 1.63432 0.2665(32) 100252. 0.18358 0.27088
15455.0 1.63538 0.2805(32) 95733. 0.18363 0.27916
15465.0 1.63644 0.2891(33) 93083. 0.18368 0.28701
15475.0 1.63750 0.2888(33) 93245. 0.18373 0.29423
15485.0 1.63856 0.2974(33) 90553. 0.18378 0.30052
15495.0 1.63962 0.3072(34) 87916. 0.18383 0.30539
15505.0 1.64068 0.3033(34) 89022. 0.18388 0.30839
15515.0 1.64173 0.3018(33) 89423. 0.18393 0.30871
15525.0 1.64279 0.3007(33) 89669. 0.18398 0.30621
15535.0 1.64385 0.3044(34) 88406. 0.18404 0.30092
15545.0 1.64491 0.2985(33) 90128. 0.18409 0.29349
15555.0 1.64597 0.2871(33) 93464. 0.18414 0.28458
15565.0 1.64703 0.2748(32) 97365. 0.18420 0.27495
15575.0 1.64809 0.2662(32) 100246. 0.18425 0.26529
15585.0 1.64915 0.2591(31) 102946. 0.18430 0.25611
15595.0 1.65021 0.2555(31) 104174. 0.18436 0.24777
15605.0 1.65127 0.2445(30) 108351. 0.18441 0.24044
15615.0 1.65233 0.2348(30) 112330. 0.18447 0.23416
15625.0 1.65338 0.2347(30) 112486. 0.18452 0.22883
15635.0 1.65444 0.2292(30) 114601. 0.18458 0.22431
15645.0 1.65550 0.2197(29) 119312. 0.18463 0.22042
15655.0 1.65656 0.2194(29) 119514. 0.18469 0.21704
15665.0 1.65762 0.2211(29) 118650. 0.18475 0.21409
15675.0 1.65868 0.2094(28) 124634. 0.18480 0.21155
15685.0 1.65974 0.2094(28) 124712. 0.18486 0.20942
15695.0 1.66080 0.2071(28) 126180. 0.18492 0.20784
15705.0 1.66186 0.2070(28) 126289. 0.18498 0.20655
15715.0 1.66292 0.2014(28) 129589. 0.18504 0.20567
15725.0 1.66398 0.1996(28) 130592. 0.18509 0.20513
15735.0 1.66504 0.2032(28) 128522. 0.18515 0.20509
15745.0 1.66609 0.2082(28) 125907. 0.18521 0.20545
15755.0 1.66715 0.2009(28) 130124. 0.18527 0.20618
15765.0 1.66821 0.2064(28) 126964. 0.18533 0.20727
15775.0 1.66927 0.2052(28) 127365. 0.18539 0.20874
15785.0 1.67033 0.2098(28) 124734. 0.18545 0.21060
15795.0 1.67139 0.2114(28) 124029. 0.18552 0.21296
15805.0 1.67245 0.2152(29) 122183. 0.18558 0.21593
15815.0 1.67351 0.2186(29) 120253. 0.18564 0.21961
15825.0 1.67457 0.2219(29) 118563. 0.18570 0.22410
15835.0 1.67563 0.2262(29) 116396. 0.18576 0.22943
15845.0 1.67669 0.2366(30) 111814. 0.18583 0.23552
15855.0 1.67775 0.2382(30) 110984. 0.18589 0.24222
15865.0 1.67880 0.2474(31) 107178. 0.18595 0.24935
15875.0 1.67986 0.2549(31) 104111. 0.18602 0.25631
15885.0 1.68092 0.2590(31) 102570. 0.18608 0.26265
15895.0 1.68198 0.2691(32) 98855. 0.18615 0.26779
15905.0 1.68304 0.2719(32) 98065. 0.18621 0.27114
15915.0 1.68410 0.2675(32) 99639. 0.18628 0.27223
15925.0 1.68516 0.2693(32) 98902. 0.18634 0.27089
15935.0 1.68622 0.2625(31) 101274. 0.18641 0.26727
15945.0 1.68728 0.2618(31) 101565. 0.18647 0.26176
15955.0 1.68834 0.2539(31) 104676. 0.18654 0.25492
15965.0 1.68940 0.2443(30) 108693. 0.18661 0.24733
15975.0 1.69046 0.2344(30) 113085. 0.18667 0.23949
15985.0 1.69151 0.2312(30) 114530. 0.18674 0.23185
15995.0 1.69257 0.2300(29) 114973. 0.18681 0.22472
16005.0 1.69363 0.2194(29) 120206. 0.18688 0.21830
16015.0 1.69469 0.2104(28) 124817. 0.18694 0.21273
16025.0 1.69575 0.2065(28) 127079. 0.18701 0.20803
16035.0 1.69681 0.2108(28) 124480. 0.18708 0.20418
16045.0 1.69787 0.2047(28) 127684. 0.18715 0.20111
16055.0 1.69893 0.1948(27) 133523. 0.18722 0.19872
16065.0 1.69999 0.1948(27) 133461. 0.18729 0.19690
16075.0 1.70105 0.1964(27) 132455. 0.18736 0.19553
16085.0 1.70211 0.1921(27) 135279. 0.18743 0.19452
16095.0 1.70317 0.1888(27) 137779. 0.18750 0.19378
16105.0 1.70423 0.1924(27) 135231. 0.18757 0.19324
16115.0 1.70528 0.1950(27) 133542. 0.18764 0.19284
16125.0 1.70634 0.1952(27) 133503. 0.18772 0.19255
16135.0 1.70740 0.1904(27) 136324. 0.18779 0.19234
16145.0 1.70846 0.1941(27) 133917. 0.18786 0.19218
16155.0 1.70952 0.1911(27) 135648. 0.18793 0.19206
16165.0 1.71058 0.1869(27) 138424. 0.18800 0.19197
16175.0 1.71164 0.1913(27) 135342. 0.18808 0.19191
16185.0 1.71270 0.1918(27) 135044. 0.18815 0.19186
16195.0 1.71376 0.1931(27) 134310. 0.18822 0.19183
16205.0 1.71482 0.1839(27) 140607. 0.18830 0.19182
16215.0 1.71588 0.1860(27) 139362. 0.18837 0.19182
16225.0 1.71694 0.1884(27) 137794. 0.18845 0.19183
16235.0 1.71799 0.1830(27) 141442. 0.18852 0.19184
16245.0 1.71905 0.1863(27) 139317. 0.18860 0.19187
16255.0 1.72011 0.1874(27) 138337. 0.18867 0.19190
16265.0 1.72117 0.1885(27) 137721. 0.18875 0.19195
16275.0 1.72223 0.1911(27) 135868. 0.18882 0.19201
16285.0 1.72329 0.1917(27) 135026. 0.18890 0.19207
16295.0 1.72435 0.1885(27) 137137. 0.18898 0.19214
16305.0 1.72541 0.1886(27) 137063. 0.18905 0.19221
16315.0 1.72647 0.1918(27) 135005. 0.18913 0.19225
16325.0 1.72753 0.1905(27) 136048. 0.18921 0.19234
16335.0 1.72859 0.1913(27) 135586. 0.18928 0.19244
16345.0 1.72965 0.1866(27) 138740. 0.18936 0.19254
16355.0 1.73071 0.1883(27) 137644. 0.18944 0.19265
16365.0 1.73176 0.1921(27) 135109. 0.18952 0.19277
16375.0 1.73282 0.1922(27) 134903. 0.18960 0.19289
16385.0 1.73388 0.1884(27) 137375. 0.18968 0.19302
16395.0 1.73494 0.1879(27) 137655. 0.18975 0.19316
16405.0 1.73600 0.1845(27) 139658. 0.18983 0.19330
16415.0 1.73706 0.1916(27) 135045. 0.18991 0.19345
16425.0 1.73812 0.1839(27) 140313. 0.18999 0.19362
16435.0 1.73918 0.1883(27) 137342. 0.19007 0.19379
16445.0 1.74024 0.1933(27) 134020. 0.19015 0.19397
16455.0 1.74130 0.1941(27) 133395. 0.19023 0.19416
16465.0 1.74236 0.1881(27) 137557. 0.19031 0.19436
16475.0 1.74342 0.1855(27) 139290. 0.19039 0.19458
16485.0 1.74448 0.1898(27) 136387. 0.19048 0.19481
16495.0 1.74553 0.1902(27) 136020. 0.19056 0.19505
16505.0 1.74659 0.1864(27) 138333. 0.19064 0.19532
16515.0 1.74765 0.1948(27) 133240. 0.19072 0.19561
16525.0 1.74871 0.1955(27) 132741. 0.19080 0.19593
16535.0 1.74977 0.1917(27) 135164. 0.19088 0.19630
16545.0 1.75083 0.1903(27) 136452. 0.19097 0.19671
16555.0 1.75189 0.1933(27) 134428. 0.19105 0.19720
16565.0 1.75295 0.1937(27) 134092. 0.19113 0.19778
16575.0 1.75401 0.1935(27) 134053. 0.19122 0.19848
16585.0 1.75507 0.1947(27) 133184. 0.19130 0.19935
16595.0 1.75613 0.1929(27) 134251. 0.19138 0.20044
16605.0 1.75719 0.1941(27) 133618. 0.19147 0.20179
16615.0 1.75824 0.1969(28) 131905. 0.19155 0.20347
16625.0 1.75930 0.2013(28) 129091. 0.19163 0.20556
16635.0 1.76036 0.2042(28) 127111. 0.19172 0.20810
16645.0 1.76142 0.2049(28) 126982. 0.19180 0.21115
16655.0 1.76248 0.2128(29) 122309. 0.19189 0.21471
16665.0 1.76354 0.2138(29) 121413. 0.19197 0.21886
16675.0 1.76460 0.2239(29) 116149. 0.19206 0.22353
16685.0 1.76566 0.2245(29) 115830. 0.19214 0.22865
16695.0 1.76672 0.2320(30) 112368. 0.19223 0.23410
16705.0 1.76778 0.2402(30) 108821. 0.19231 0.23972
16715.0 1.76884 0.2411(30) 108563. 0.19240 0.24527
16725.0 1.76990 0.2498(31) 104808. 0.19248 0.25051
16735.0 1.77096 0.2528(31) 103454. 0.19257 0.25510
16745.0 1.77201 0.2610(32) 100360. 0.19266 0.25883
16755.0 1.77307 0.2529(31) 103467. 0.19274 0.26161
16765.0 1.77413 0.2600(32) 100704. 0.19283 0.26337
16775.0 1.77519 0.2650(32) 98751. 0.19292 0.26431
16785.0 1.77625 0.2651(32) 98629. 0.19300 0.26478
16795.0 1.77731 0.2657(32) 98525. 0.19309 0.26521
16805.0 1.77837 0.2639(32) 99185. 0.19318 0.26608
16815.0 1.77943 0.2671(32) 98080. 0.19326 0.26783
16825.0 1.78049 0.2722(32) 96101. 0.19335 0.27084
16835.0 1.78155 0.2689(32) 97186. 0.19344 0.27535
16845.0 1.78261 0.2772(33) 94489. 0.19353 0.28147
16855.0 1.78367 0.2924(33) 89731. 0.19362 0.28916
16865.0 1.78473 0.2936(33) 89582. 0.19370 0.29825
16875.0 1.78579 0.3017(34) 87322. 0.19379 0.30835
16885.0 1.78684 0.3174(35) 83024. 0.19388 0.31893
16895.0 1.78790 0.3235(35) 81513. 0.19397 0.32927
16905.0 1.78896 0.336(4) 78683. 0.1941 0.3386
16915.0 1.79002 0.348(4) 75993. 0.1941 0.3460
16925.0 1.79108 0.354(4) 74736. 0.1942 0.3508
16935.0 1.79214 0.346(4) 76312. 0.1943 0.3526
16945.0 1.79320 0.346(4) 76103. 0.1944 0.3512
16955.0 1.79426 0.335(4) 78495. 0.1945 0.3471
16965.0 1.79532 0.344(4) 76508. 0.1946 0.3408
16975.0 1.79638 0.336(4) 77864. 0.1947 0.3334
16985.0 1.79744 0.324(4) 80542. 0.1948 0.3257
16995.0 1.79850 0.3148(35) 82670. 0.19486 0.31861
17005.0 1.79956 0.3013(34) 86196. 0.19495 0.31285
17015.0 1.80061 0.3026(34) 85686. 0.19504 0.30900
17025.0 1.80167 0.2986(34) 86551. 0.19513 0.30747
17035.0 1.80273 0.3013(34) 85602. 0.19522 0.30845
17045.0 1.80379 0.3136(35) 82346. 0.19531 0.31192
17055.0 1.80485 0.3171(35) 81352. 0.19540 0.31765
17065.0 1.80591 0.330(4) 78130. 0.1955 0.3252
17075.0 1.80697 0.342(4) 75516. 0.1956 0.3339
17085.0 1.80803 0.353(4) 72988. 0.1957 0.3431
17095.0 1.80909 0.360(4) 71654. 0.1958 0.3517
17105.0 1.81015 0.377(4) 68451. 0.1959 0.3587
17115.0 1.81121 0.374(4) 68861. 0.1959 0.3633
17125.0 1.81227 0.373(4) 68861. 0.1960 0.3648
17135.0 1.81333 0.380(4) 67565. 0.1961 0.3628
17145.0 1.81439 0.370(4) 69170. 0.1962 0.3574
17155.0 1.81544 0.362(4) 70653. 0.1963 0.3492
17165.0 1.81650 0.350(4) 72807. 0.1964 0.3387
17175.0 1.81756 0.344(4) 73799. 0.1965 0.3269
17185.0 1.81862 0.317(4) 79763. 0.1966 0.3146
17195.0 1.81968 0.3067(35) 82004. 0.19667 0.30243
17205.0 1.82074 0.2938(34) 85305. 0.19677 0.29116
17215.0 1.82180 0.2774(33) 89888. 0.19686 0.28118
17225.0 1.82286 0.2688(33) 92529. 0.19695 0.27309
17235.0 1.82392 0.2696(33) 92069. 0.19704 0.26709
17245.0 1.82498 0.2642(33) 93714. 0.19713 0.26340
17255.0 1.82604 0.2552(32) 96582. 0.19722 0.26211
17265.0 1.82710 0.2588(32) 95097. 0.19732 0.26324
17275.0 1.82816 0.2648(33) 93004. 0.19741 0.26670
17285.0 1.82921 0.2736(33) 90022. 0.19750 0.27232
17295.0 1.83027 0.2821(34) 87478. 0.19759 0.27985
17305.0 1.83133 0.2970(35) 83214. 0.19768 0.28894
17315.0 1.83239 0.309(4) 80087. 0.1978 0.2992
17325.0 1.83345 0.320(4) 77097. 0.1979 0.3099
17335.0 1.83451 0.330(4) 74969. 0.1980 0.3207
17345.0 1.83557 0.342(4) 72172. 0.1981 0.3306
17355.0 1.83663 0.343(4) 71803. 0.1981 0.3389
17365.0 1.83769 0.355(4) 69620. 0.1982 0.3449
17375.0 1.83875 0.355(4) 69456. 0.1983 0.3481
17385.0 1.83981 0.351(4) 70137. 0.1984 0.3480
17395.0 1.84087 0.350(4) 70212. 0.1985 0.3445
17405.0 1.84193 0.341(4) 71889. 0.1986 0.3381
17415.0 1.84299 0.331(4) 74133. 0.1987 0.3293
17425.0 1.84404 0.322(4) 75833. 0.1988 0.3187
17435.0 1.84510 0.303(4) 80280. 0.1989 0.3070
17445.0 1.84616 0.301(4) 80585. 0.1990 0.2949
17455.0 1.84722 0.2841(34) 85138. 0.19906 0.28290
17465.0 1.84828 0.2708(34) 88915. 0.19915 0.27141
17475.0 1.84934 0.2590(33) 92470. 0.19925 0.26076
17485.0 1.85040 0.2502(32) 95460. 0.19934 0.25116
17495.0 1.85146 0.2460(32) 96752. 0.19943 0.24273
17505.0 1.85252 0.2396(32) 99037. 0.19952 0.23549
17515.0 1.85358 0.2374(32) 99783. 0.19961 0.22941
17525.0 1.85464 0.2300(31) 102747. 0.19971 0.22440
17535.0 1.85570 0.2222(31) 106146. 0.19980 0.22035
17545.0 1.85676 0.2204(31) 106734. 0.19989 0.21713
17555.0 1.85782 0.2171(30) 108018. 0.19998 0.21459
17565.0 1.85887 0.2182(31) 107270. 0.20007 0.21262
17575.0 1.85993 0.2160(30) 108168. 0.20017 0.21110
17585.0 1.86099 0.2128(30) 109476. 0.20026 0.20992
17595.0 1.86205 0.2166(30) 107501. 0.20035 0.20901
17605.0 1.86311 0.2143(30) 108643. 0.20044 0.20831
17615.0 1.86417 0.2104(30) 110276. 0.20053 0.20775
17625.0 1.86523 0.2146(30) 108171. 0.20062 0.20731
17635.0 1.86629 0.2100(30) 110532. 0.20072 0.20695
17645.0 1.86735 0.2040(30) 113429. 0.20081 0.20666
17655.0 1.86841 0.2122(30) 109108. 0.20090 0.20642
17665.0 1.86947 0.2181(31) 106291. 0.20099 0.20621
17675.0 1.87053 0.2142(30) 107896. 0.20108 0.20604
17685.0 1.87159 0.2132(30) 108350. 0.20117 0.20589
17695.0 1.87265 0.2118(30) 108869. 0.20126 0.20576
17705.0 1.87371 0.2164(31) 106461. 0.20135 0.20565
17715.0 1.87476 0.2227(31) 103529. 0.20145 0.20556
17725.0 1.87582 0.2186(31) 105493. 0.20154 0.20548
17735.0 1.87688 0.2204(31) 104648. 0.20163 0.20542
17745.0 1.87794 0.2171(31) 105741. 0.20172 0.20536
17755.0 1.87900 0.2171(31) 105696. 0.20181 0.20532
17765.0 1.88006 0.2186(31) 104964. 0.20190 0.20528
17775.0 1.88112 0.2169(31) 105565. 0.20199 0.20525
17785.0 1.88218 0.2211(31) 103402. 0.20208 0.20524
17795.0 1.88324 0.2154(31) 105745. 0.20217 0.20523
17805.0 1.88430 0.2120(31) 107305. 0.20226 0.20523
17815.0 1.88536 0.2141(31) 106027. 0.20235 0.20523
17825.0 1.88642 0.2140(31) 105904. 0.20244 0.20523
17835.0 1.88748 0.2101(30) 107538. 0.20253 0.20524
17845.0 1.88854 0.2129(31) 106062. 0.20262 0.20526
17855.0 1.88959 0.2102(31) 107082. 0.20271 0.20528
17865.0 1.89065 0.2074(30) 108344. 0.20280 0.20530
17875.0 1.89171 0.2035(30) 110040. 0.20289 0.20533
17885.0 1.89277 0.2013(30) 111181. 0.20298 0.20536
17895.0 1.89383 0.2061(30) 108886. 0.20307 0.20540
17905.0 1.89489 0.2029(30) 110268. 0.20316 0.20544
17915.0 1.89595 0.2005(30) 111248. 0.20325 0.20548
17925.0 1.89701 0.2051(30) 108569. 0.20334 0.20552
17935.0 1.89807 0.2064(30) 107580. 0.20343 0.20557
17945.0 1.89913 0.2090(31) 106208. 0.20352 0.20562
17955.0 1.90019 0.2038(30) 108541. 0.20361 0.20567
17965.0 1.90125 0.1993(30) 110693. 0.20369 0.20573
17975.0 1.90231 0.2002(30) 110418. 0.20378 0.20578
17985.0 1.90337 0.2014(30) 109406. 0.20387 0.20584
17995.0 1.90443 0.2017(30) 109243. 0.20396 0.20590
18005.0 1.90548 0.2072(31) 106351. 0.20405 0.20596
18015.0 1.90654 0.2039(30) 107776. 0.20414 0.20603
18025.0 1.90760 0.2050(31) 106920. 0.20422 0.20609
18035.0 1.90866 0.2009(30) 108659. 0.20431 0.20616
18045.0 1.90972 0.2040(31) 106704. 0.20440 0.20623
18055.0 1.91078 0.2002(30) 108542. 0.20449 0.20630
18065.0 1.91184 0.2017(30) 107693. 0.20457 0.20637
18075.0 1.91290 0.2013(30) 107833. 0.20466 0.20645
18085.0 1.91396 0.2051(31) 105578. 0.20475 0.20652
18095.0 1.91502 0.2002(30) 107677. 0.20484 0.20660
18105.0 1.91608 0.2019(31) 106355. 0.20492 0.20668
18115.0 1.91714 0.2120(31) 101526. 0.20501 0.20676
18125.0 1.91820 0.2049(31) 104346. 0.20510 0.20684
18135.0 1.91926 0.1977(30) 107690. 0.20518 0.20687
18145.0 1.92032 0.2027(31) 105080. 0.20527 0.20696
18155.0 1.92137 0.2059(31) 103460. 0.20535 0.20704
18165.0 1.92243 0.2054(31) 103602. 0.20544 0.20713
18175.0 1.92349 0.2028(31) 104583. 0.20553 0.20722
18185.0 1.92455 0.2112(32) 100481. 0.20561 0.20731
18195.0 1.92561 0.2046(31) 103230. 0.20570 0.20741
18205.0 1.92667 0.2061(31) 102342. 0.20578 0.20750
18215.0 1.92773 0.2036(31) 103255. 0.20587 0.20760
18225.0 1.92879 0.2084(31) 100787. 0.20595 0.20770
18235.0 1.92985 0.2045(31) 102257. 0.20604 0.20780
18245.0 1.93091 0.2044(31) 102072. 0.20612 0.20791
18255.0 1.93197 0.2041(31) 102073. 0.20621 0.20801
18265.0 1.93303 0.2026(31) 102613. 0.20629 0.20812
18275.0 1.93409 0.1997(31) 103683. 0.20637 0.20823
18285.0 1.93515 0.2117(32) 97880. 0.20646 0.20835
18295.0 1.93621 0.2008(31) 102646. 0.20654 0.20847
18305.0 1.93726 0.2112(32) 97806. 0.20663 0.20859
18315.0 1.93832 0.2087(32) 98686. 0.20671 0.20858
18325.0 1.93938 0.2046(32) 100421. 0.20679 0.20871
18335.0 1.94044 0.2064(32) 99236. 0.20688 0.20886
18345.0 1.94150 0.2102(32) 97406. 0.20696 0.20901
18355.0 1.94256 0.2139(32) 95709. 0.20704 0.20918
18365.0 1.94362 0.2050(32) 99469. 0.20712 0.20936
18375.0 1.94468 0.2098(32) 97019. 0.20721 0.20956
18385.0 1.94574 0.2098(32) 96726. 0.20729 0.20978
18395.0 1.94680 0.2084(32) 97057. 0.20737 0.21003
18405.0 1.94786 0.2112(32) 95619. 0.20745 0.21033
18415.0 1.94892 0.2084(32) 96659. 0.20753 0.21067
18425.0 1.94998 0.2093(32) 96178. 0.20761 0.21107
18435.0 1.95104 0.2092(32) 96106. 0.20769 0.21153
18445.0 1.95210 0.2111(32) 95014. 0.20778 0.21207
18455.0 1.95316 0.2076(32) 96434. 0.20786 0.21269
18465.0 1.95421 0.2132(33) 93857. 0.20794 0.21341
18475.0 1.95527 0.2154(33) 92744. 0.20802 0.21423
18485.0 1.95633 0.2152(33) 92515. 0.20810 0.21515
18495.0 1.95739 0.2165(33) 91719. 0.20818 0.21617
18505.0 1.95845 0.2142(33) 92413. 0.20826 0.21712
18515.0 1.95951 0.2194(33) 90319. 0.20834 0.21832
18525.0 1.96057 0.2154(33) 91684. 0.20842 0.21959
18535.0 1.96163 0.2151(33) 91663. 0.20849 0.22090
18545.0 1.96269 0.2255(34) 87395. 0.20857 0.22224
18555.0 1.96375 0.2163(33) 90803. 0.20865 0.22356
18565.0 1.96481 0.2281(34) 86162. 0.20873 0.22483
18575.0 1.96587 0.2168(33) 90221. 0.20881 0.22603
18585.0 1.96693 0.2181(33) 89611. 0.20889 0.22713
18595.0 1.96799 0.2243(34) 87167. 0.20896 0.22812
18605.0 1.96905 0.2270(34) 86023. 0.20904 0.22900
18615.0 1.97011 0.2276(34) 85586. 0.20912 0.22980
18625.0 1.97116 0.2225(34) 87280. 0.20920 0.23054
18635.0 1.97222 0.2269(34) 85332. 0.20927 0.23127
18645.0 1.97328 0.2305(35) 83764. 0.20935 0.23199
18655.0 1.97434 0.2368(35) 81533. 0.20943 0.23274
18665.0 1.97540 0.2342(35) 82224. 0.20950 0.23352
18675.0 1.97646 0.2322(35) 82806. 0.20958 0.23432
18685.0 1.97752 0.237(4) 80889. 0.2097 0.2351
18695.0 1.97858 0.2348(35) 81512. 0.20973 0.23583
18705.0 1.97964 0.2330(35) 81970. 0.20980 0.23647
18715.0 1.98070 0.236(4) 80914. 0.2099 0.2370
18725.0 1.98176 0.240(4) 79515. 0.2100 0.2373
18735.0 1.98282 0.237(4) 80307. 0.2100 0.2374
18745.0 1.98388 0.236(4) 80576. 0.2101 0.2375
18755.0 1.98494 0.243(4) 78302. 0.2102 0.2374
18765.0 1.98600 0.241(4) 78587. 0.2103 0.2373
18775.0 1.98706 0.237(4) 79460. 0.2103 0.2373
18785.0 1.98811 0.241(4) 78351. 0.2104 0.2375
18795.0 1.98917 0.241(4) 77981. 0.2105 0.2381
18805.0 1.99023 0.247(4) 76184. 0.2105 0.2392
18815.0 1.99129 0.246(4) 76469. 0.2106 0.2409
18825.0 1.99235 0.244(4) 76996. 0.2107 0.2433
18835.0 1.99341 0.240(4) 78051. 0.2108 0.2466
18845.0 1.99447 0.253(4) 74119. 0.2108 0.2508
18855.0 1.99553 0.262(4) 71627. 0.2109 0.2559
18865.0 1.99659 0.263(4) 71249. 0.2110 0.2621
18875.0 1.99765 0.271(4) 69250. 0.2110 0.2692
18885.0 1.99871 0.286(4) 65633. 0.2111 0.2771
18895.0 1.99977 0.293(4) 64286. 0.2112 0.2857
18905.0 2.00083 0.297(4) 63311. 0.2113 0.2948
18915.0 2.00189 0.303(4) 61863. 0.2113 0.3040
18925.0 2.00295 0.326(4) 57644. 0.2114 0.3130
18935.0 2.00401 0.326(4) 57529. 0.2115 0.3215
18945.0 2.00506 0.330(4) 56881. 0.2115 0.3289
18955.0 2.00612 0.342(4) 54745. 0.2116 0.3348
18965.0 2.00718 0.335(4) 55724. 0.2117 0.3388
18975.0 2.00824 0.356(4) 52414. 0.2117 0.3407
18985.0 2.00930 0.347(4) 53682. 0.2118 0.3402
18995.0 2.01036 0.340(4) 54770. 0.2119 0.3375
19005.0 2.01142 0.335(4) 55296. 0.2120 0.3327
19015.0 2.01248 0.332(4) 55806. 0.2120 0.3262
19025.0 2.01354 0.327(4) 56512. 0.2121 0.3184
19035.0 2.01460 0.316(4) 58411. 0.2122 0.3097
19045.0 2.01566 0.300(4) 61421. 0.2122 0.3005
19055.0 2.01672 0.294(4) 62520. 0.2123 0.2911
19065.0 2.01778 0.288(4) 63584. 0.2124 0.2819
19075.0 2.01884 0.276(4) 66124. 0.2124 0.2731
19085.0 2.01990 0.266(4) 68522. 0.2125 0.2649
19095.0 2.02096 0.255(4) 71169. 0.2126 0.2574
19105.0 2.02202 0.256(4) 70690. 0.2126 0.2507
19115.0 2.02307 0.243(4) 73792. 0.2127 0.2448
19125.0 2.02413 0.241(4) 74137. 0.2128 0.2398
19135.0 2.02519 0.238(4) 75215. 0.2128 0.2355
19145.0 2.02625 0.241(4) 74268. 0.2129 0.2319
19155.0 2.02731 0.231(4) 77384. 0.2129 0.2289
19165.0 2.02837 0.232(4) 77040. 0.2130 0.2265
19175.0 2.02943 0.227(4) 78415. 0.2131 0.2246
19185.0 2.03049 0.225(4) 78825. 0.2131 0.2231
19195.0 2.03155 0.221(4) 80271. 0.2132 0.2219
19205.0 2.03261 0.225(4) 78452. 0.2133 0.2209
19215.0 2.03367 0.226(4) 78093. 0.2133 0.2202
19225.0 2.03473 0.219(4) 80203. 0.2134 0.2197
19235.0 2.03579 0.223(4) 78806. 0.2135 0.2192
19245.0 2.03685 0.221(4) 79393. 0.2135 0.2189
19255.0 2.03791 0.2115(35) 82441. 0.21358 0.21868
19265.0 2.03897 0.221(4) 78926. 0.2136 0.2185
19275.0 2.04003 0.220(4) 79209. 0.2137 0.2184
19285.0 2.04109 0.219(4) 79411. 0.2138 0.2184
19295.0 2.04214 0.224(4) 77784. 0.2138 0.2185
19305.0 2.04320 0.215(4) 80384. 0.2139 0.2186
19315.0 2.04426 0.230(4) 75661. 0.2139 0.2187
19325.0 2.04532 0.217(4) 79724. 0.2140 0.2189
19335.0 2.04638 0.218(4) 79197. 0.2141 0.2192
19345.0 2.04744 0.228(4) 75984. 0.2141 0.2196
19355.0 2.04850 0.225(4) 76814. 0.2142 0.2200
19365.0 2.04956 0.219(4) 78846. 0.2142 0.2205
19375.0 2.05062 0.232(4) 74216. 0.2143 0.2210
19385.0 2.05168 0.224(4) 76712. 0.2144 0.2216
19395.0 2.05274 0.229(4) 74871. 0.2144 0.2223
19405.0 2.05380 0.227(4) 75462. 0.2145 0.2229
19415.0 2.05486 0.228(4) 74920. 0.2145 0.2235
19425.0 2.05592 0.226(4) 75301. 0.2146 0.2242
19435.0 2.05698 0.224(4) 75879. 0.2147 0.2247
19445.0 2.05804 0.216(4) 78273. 0.2147 0.2252
19455.0 2.05910 0.233(4) 72963. 0.2148 0.2256
19465.0 2.06015 0.232(4) 73041. 0.2148 0.2259
19475.0 2.06121 0.227(4) 74246. 0.2149 0.2260
19485.0 2.06227 0.239(4) 70778. 0.2149 0.2259
19495.0 2.06333 0.230(4) 73303. 0.2150 0.2257
19505.0 2.06439 0.228(4) 73661. 0.2150 0.2254
19515.0 2.06545 0.223(4) 75254. 0.2151 0.2249
19525.0 2.06651 0.229(4) 73181. 0.2152 0.2244
19535.0 2.06757 0.220(4) 75919. 0.2152 0.2238
19545.0 2.06863 0.218(4) 76367. 0.2153 0.2232
19555.0 2.06969 0.217(4) 76664. 0.2153 0.2226
19565.0 2.07075 0.220(4) 75342. 0.2154 0.2220
19575.0 2.07181 0.213(4) 77542. 0.2154 0.2215
19585.0 2.07287 0.221(4) 74606. 0.2155 0.2209
19595.0 2.07393 0.223(4) 73839. 0.2155 0.2204
19605.0 2.07499 0.219(4) 75013. 0.2156 0.2200
19615.0 2.07605 0.220(4) 74420. 0.2156 0.2196
19625.0 2.07711 0.215(4) 75857. 0.2157 0.2193
19635.0 2.07817 0.222(4) 73800. 0.2158 0.2190
19645.0 2.07922 0.217(4) 75202. 0.2158 0.2188
19655.0 2.08028 0.228(4) 71395. 0.2159 0.2186
19665.0 2.08134 0.215(4) 75307. 0.2159 0.2184
19675.0 2.08240 0.211(4) 76655. 0.2160 0.2183
19685.0 2.08346 0.215(4) 74984. 0.2160 0.2183
19695.0 2.08452 0.219(4) 73370. 0.2161 0.2182
19705.0 2.08558 0.215(4) 74339. 0.2161 0.2182
19715.0 2.08664 0.214(4) 74579. 0.2162 0.2182
19725.0 2.08770 0.219(4) 73192. 0.2162 0.2182
19735.0 2.08876 0.220(4) 72679. 0.2163 0.2182
19745.0 2.08982 0.219(4) 72719. 0.2163 0.2182
19755.0 2.09088 0.217(4) 73192. 0.2164 0.2182
19765.0 2.09194 0.214(4) 74176. 0.2164 0.2183
19775.0 2.09300 0.224(4) 70929. 0.2165 0.2183
19785.0 2.09406 0.216(4) 72975. 0.2165 0.2183
19795.0 2.09512 0.217(4) 72468. 0.2166 0.2184
19805.0 2.09618 0.217(4) 72178. 0.2166 0.2184
19815.0 2.09724 0.217(4) 72046. 0.2167 0.2185
19825.0 2.09829 0.222(4) 70190. 0.2167 0.2185
19835.0 2.09935 0.220(4) 70602. 0.2168 0.2186
19845.0 2.10041 0.223(4) 69726. 0.2168 0.2186
19855.0 2.10147 0.217(4) 71319. 0.2169 0.2187
19865.0 2.10253 0.221(4) 70048. 0.2169 0.2188
19875.0 2.10359 0.214(4) 72452. 0.2170 0.2188
19885.0 2.10465 0.210(4) 73435. 0.2170 0.2189
19895.0 2.10571 0.215(4) 71367. 0.2170 0.2190
19905.0 2.10677 0.225(4) 68466. 0.2171 0.2190
19915.0 2.10783 0.220(4) 69600. 0.2171 0.2191
19925.0 2.10889 0.221(4) 69125. 0.2172 0.2192
19935.0 2.10995 0.218(4) 69880. 0.2172 0.2193
19945.0 2.11101 0.225(4) 67963. 0.2173 0.2194
19955.0 2.11207 0.222(4) 68825. 0.2173 0.2194
19965.0 2.11313 0.218(4) 69740. 0.2174 0.2195
19975.0 2.11419 0.221(4) 69062. 0.2174 0.2196
19985.0 2.11525 0.221(4) 68832. 0.2175 0.2197
19995.0 2.11631 0.222(4) 68790. 0.2175 0.2198
20005.0 2.11737 0.223(4) 68341. 0.2176 0.2199
20015.0 2.11842 0.214(4) 70977. 0.2176 0.2200
20025.0 2.11948 0.220(4) 68987. 0.2176 0.2201
20035.0 2.12054 0.220(4) 68824. 0.2177 0.2202
20045.0 2.12160 0.223(4) 67962. 0.2177 0.2203
20055.0 2.12266 0.224(4) 67471. 0.2178 0.2204
20065.0 2.12372 0.213(4) 70741. 0.2178 0.2205
20075.0 2.12478 0.217(4) 69245. 0.2179 0.2207
20085.0 2.12584 0.221(4) 68255. 0.2179 0.2208
20095.0 2.12690 0.219(4) 68590. 0.2180 0.2209
20105.0 2.12796 0.226(4) 66571. 0.2180 0.2211
20115.0 2.12902 0.223(4) 67368. 0.2180 0.2212
20125.0 2.13008 0.223(4) 67214. 0.2181 0.2214
20135.0 2.13114 0.219(4) 68077. 0.2181 0.2215
20145.0 2.13220 0.225(4) 66606. 0.2182 0.2217
20155.0 2.13326 0.221(4) 67588. 0.2182 0.2219
20165.0 2.13432 0.223(4) 66686. 0.2182 0.2221
20175.0 2.13538 0.216(4) 68743. 0.2183 0.2223
20185.0 2.13644 0.220(4) 67545. 0.2183 0.2225
20195.0 2.13750 0.222(4) 66976. 0.2184 0.2227
20205.0 2.13856 0.220(4) 67682. 0.2184 0.2230
20215.0 2.13961 0.223(4) 66721. 0.2185 0.2233
20225.0 2.14067 0.219(4) 67586. 0.2185 0.2236
20235.0 2.14173 0.223(4) 66243. 0.2185 0.2240
20245.0 2.14279 0.213(4) 68997. 0.2186 0.2244
20255.0 2.14385 0.215(4) 68304. 0.2186 0.2249
20265.0 2.14491 0.221(4) 66290. 0.2187 0.2254
20275.0 2.14597 0.227(4) 64462. 0.2187 0.2261
20285.0 2.14703 0.218(4) 66823. 0.2187 0.2269
20295.0 2.14809 0.224(4) 65050. 0.2188 0.2279
20305.0 2.14915 0.230(4) 63368. 0.2188 0.2291
20315.0 2.15021 0.225(4) 64366. 0.2189 0.2305
20325.0 2.15127 0.236(4) 61543. 0.2189 0.2322
20335.0 2.15233 0.236(4) 61402. 0.2189 0.2343
20345.0 2.15339 0.245(4) 59286. 0.2190 0.2369
20355.0 2.15445 0.237(4) 61098. 0.2190 0.2399
20365.0 2.15551 0.245(4) 59010. 0.2191 0.2434
20375.0 2.15657 0.249(4) 57754. 0.2191 0.2476
20385.0 2.15763 0.257(4) 56000. 0.2191 0.2524
20395.0 2.15869 0.263(4) 54871. 0.2192 0.2579
20405.0 2.15974 0.265(4) 54356. 0.2192 0.2642
20415.0 2.16080 0.282(4) 51080. 0.2192 0.2711
20425.0 2.16186 0.275(4) 52156. 0.2193 0.2786
20435.0 2.16292 0.294(5) 48864. 0.2193 0.2868
20445.0 2.16398 0.291(5) 49147. 0.2194 0.2955
20455.0 2.16504 0.310(5) 46107. 0.2194 0.3045
20465.0 2.16610 0.322(5) 44345. 0.2194 0.3137
20475.0 2.16716 0.325(5) 43769. 0.2195 0.3228
20485.0 2.16822 0.339(5) 42011. 0.2195 0.3316
20495.0 2.16928 0.353(5) 40342. 0.2195 0.3399
20505.0 2.17034 0.362(5) 39382. 0.2196 0.3472
20515.0 2.17140 0.362(5) 39331. 0.2196 0.3535
20525.0 2.17246 0.373(5) 38078. 0.2197 0.3583
20535.0 2.17352 0.371(5) 38148. 0.2197 0.3615
20545.0 2.17458 0.361(5) 39044. 0.2197 0.3632
20555.0 2.17564 0.371(5) 37979. 0.2198 0.3633
20565.0 2.17670 0.362(5) 38831. 0.2198 0.3619
20575.0 2.17776 0.364(5) 38478. 0.2198 0.3591
20585.0 2.17882 0.359(5) 38950. 0.2199 0.3551
20595.0 2.17988 0.354(5) 39435. 0.2199 0.3504
20605.0 2.18094 0.344(5) 40393. 0.2199 0.3450
20615.0 2.18199 0.333(5) 41593. 0.2200 0.3394
20625.0 2.18305 0.329(5) 42043. 0.2200 0.3337
20635.0 2.18411 0.330(5) 41828. 0.2201 0.3283
20645.0 2.18517 0.320(5) 43023. 0.2201 0.3232
20655.0 2.18623 0.303(5) 45156. 0.2201 0.3186
20665.0 2.18729 0.311(5) 43998. 0.2202 0.3146
20675.0 2.18835 0.312(5) 43787. 0.2202 0.3111
20685.0 2.18941 0.303(5) 45055. 0.2202 0.3082
20695.0 2.19047 0.295(5) 46064. 0.2203 0.3058
20705.0 2.19153 0.296(5) 45773. 0.2203 0.3038
20715.0 2.19259 0.307(5) 44223. 0.2203 0.3019
20725.0 2.19365 0.308(5) 43994. 0.2204 0.3001
20735.0 2.19471 0.294(5) 45955. 0.2204 0.2981
20745.0 2.19577 0.297(5) 45564. 0.2204 0.2959
20755.0 2.19683 0.288(5) 46903. 0.2205 0.2934
20765.0 2.19789 0.285(5) 47230. 0.2205 0.2905
20775.0 2.19895 0.284(5) 47274. 0.2205 0.2873
20785.0 2.20001 0.283(5) 47231. 0.2206 0.2837
20795.0 2.20107 0.270(5) 49361. 0.2206 0.2798
20805.0 2.20213 0.276(5) 48262. 0.2206 0.2757
20815.0 2.20319 0.262(4) 50629. 0.2207 0.2714
20825.0 2.20424 0.260(4) 50786. 0.2207 0.2672
20835.0 2.20530 0.256(4) 51373. 0.2207 0.2630
20845.0 2.20636 0.255(4) 51443. 0.2208 0.2589
20855.0 2.20742 0.247(4) 53006. 0.2208 0.2550
20865.0 2.20848 0.253(4) 51770. 0.2208 0.2514
20875.0 2.20954 0.243(4) 53596. 0.2209 0.2480
20885.0 2.21060 0.246(4) 52760. 0.2209 0.2449
20895.0 2.21166 0.244(4) 53045. 0.2210 0.2421
20905.0 2.21272 0.233(4) 55368. 0.2210 0.2396
20915.0 2.21378 0.230(4) 55859. 0.2210 0.2375
20925.0 2.21484 0.227(4) 56588. 0.2211 0.2356
20935.0 2.21590 0.223(4) 57422. 0.2211 0.2340
20945.0 2.21696 0.230(4) 55762. 0.2211 0.2326
20955.0 2.21802 0.236(4) 54418. 0.2212 0.2314
20965.0 2.21908 0.230(4) 55672. 0.2212 0.2305
20975.0 2.22014 0.230(4) 55414. 0.2212 0.2297
20985.0 2.22120 0.230(4) 55103. 0.2212 0.2291
20995.0 2.22226 0.219(4) 57520. 0.2213 0.2286
21005.0 2.22332 0.221(4) 57023. 0.2213 0.2281
21015.0 2.22438 0.221(4) 57107. 0.2213 0.2278
21025.0 2.22544 0.220(4) 57288. 0.2214 0.2276
21035.0 2.22650 0.227(4) 55536. 0.2214 0.2274
21045.0 2.22755 0.215(4) 58335. 0.2214 0.2272
21055.0 2.22861 0.220(4) 56955. 0.2215 0.2271
21065.0 2.22967 0.217(4) 57594. 0.2215 0.2270
21075.0 2.23073 0.222(4) 56287. 0.2215 0.2270
21085.0 2.23179 0.213(4) 58308. 0.2216 0.2270
21095.0 2.23285 0.231(4) 53889. 0.2216 0.2270
21105.0 2.23391 0.219(4) 56247. 0.2216 0.2270
21115.0 2.23497 0.219(4) 56158. 0.2217 0.2271
21125.0 2.23603 0.226(4) 54599. 0.2217 0.2272
21135.0 2.23709 0.223(4) 55056. 0.2217 0.2273
21145.0 2.23815 0.231(4) 53158. 0.2218 0.2274
21155.0 2.23921 0.221(4) 55397. 0.2218 0.2276
21165.0 2.24027 0.229(4) 53570. 0.2218 0.2279
21175.0 2.24133 0.225(4) 54276. 0.2219 0.2282
21185.0 2.24239 0.231(4) 52941. 0.2219 0.2286
21195.0 2.24345 0.223(4) 54518. 0.2219 0.2291
21205.0 2.24451 0.226(4) 53853. 0.2220 0.2297
21215.0 2.24557 0.230(4) 52927. 0.2220 0.2305
21225.0 2.24663 0.223(4) 54202. 0.2220 0.2314
21235.0 2.24769 0.217(4) 55446. 0.2221 0.2325
21245.0 2.24875 0.220(4) 54441. 0.2221 0.2339
21255.0 2.24981 0.229(4) 52164. 0.2221 0.2356
21265.0 2.25086 0.233(4) 51133. 0.2222 0.2376
21275.0 2.25192 0.231(4) 51415. 0.2222 0.2399
21285.0 2.25298 0.234(4) 50663. 0.2222 0.2427
21295.0 2.25404 0.243(5) 48843. 0.2223 0.2458
21305.0 2.25510 0.245(5) 48403. 0.2223 0.2494
21315.0 2.25616 0.256(5) 46229. 0.2223 0.2535
21325.0 2.25722 0.257(5) 46019. 0.2224 0.2580
21335.0 2.25828 0.258(5) 45598. 0.2224 0.2629
21345.0 2.25934 0.260(5) 45276. 0.2224 0.2682
21355.0 2.26040 0.268(5) 43874. 0.2225 0.2739
21365.0 2.26146 0.287(5) 41077. 0.2225 0.2799
21375.0 2.26252 0.289(5) 40656. 0.2225 0.2860
21385.0 2.26358 0.295(5) 39705. 0.2226 0.2921
21395.0 2.26464 0.298(5) 39319. 0.2226 0.2981
21405.0 2.26570 0.313(5) 37397. 0.2226 0.3039
21415.0 2.26676 0.311(5) 37503. 0.2227 0.3091
21425.0 2.26782 0.321(5) 36160. 0.2227 0.3137
21435.0 2.26888 0.330(5) 35108. 0.2227 0.3174
21445.0 2.26994 0.330(5) 35076. 0.2228 0.3201
21455.0 2.27100 0.323(5) 35789. 0.2228 0.3217
21465.0 2.27206 0.329(5) 35058. 0.2228 0.3220
21475.0 2.27312 0.323(5) 35554. 0.2229 0.3211
21485.0 2.27418 0.318(5) 36098. 0.2229 0.3191
21495.0 2.27524 0.320(5) 35721. 0.2229 0.3160
21505.0 2.27629 0.310(5) 36795. 0.2230 0.3120
21515.0 2.27735 0.299(5) 37907. 0.2230 0.3073
21525.0 2.27841 0.300(5) 37683. 0.2230 0.3020
21535.0 2.27947 0.299(5) 37563. 0.2231 0.2963
21545.0 2.28053 0.281(5) 39767. 0.2231 0.2905
21555.0 2.28159 0.284(5) 39332. 0.2231 0.2845
21565.0 2.28265 0.273(5) 40591. 0.2232 0.2787
21575.0 2.28371 0.271(5) 40770. 0.2232 0.2731
21585.0 2.28477 0.260(5) 42334. 0.2232 0.2677
21595.0 2.28583 0.255(5) 42987. 0.2233 0.2627
21605.0 2.28689 0.250(5) 43739. 0.2233 0.2581
21615.0 2.28795 0.247(5) 44084. 0.2233 0.2539
21625.0 2.28901 0.247(5) 43953. 0.2234 0.2502
21635.0 2.29007 0.244(5) 44236. 0.2234 0.2470
21645.0 2.29113 0.253(5) 42472. 0.2234 0.2442
21655.0 2.29219 0.241(5) 44317. 0.2235 0.2418
21665.0 2.29325 0.241(5) 44332. 0.2235 0.2399
21675.0 2.29431 0.231(5) 45961. 0.2235 0.2383
21685.0 2.29537 0.242(5) 44054. 0.2236 0.2371
21695.0 2.29643 0.235(5) 45348. 0.2236 0.2362
21705.0 2.29749 0.231(5) 46039. 0.2236 0.2356
21715.0 2.29855 0.237(5) 44803. 0.2237 0.2353
21725.0 2.29961 0.240(5) 44042. 0.2237 0.2352
21735.0 2.30067 0.240(5) 44117. 0.2237 0.2353
21745.0 2.30173 0.239(5) 44013. 0.2238 0.2357
21755.0 2.30278 0.237(5) 44217. 0.2238 0.2362
21765.0 2.30384 0.241(5) 43455. 0.2238 0.2369
21775.0 2.30490 0.241(5) 43482. 0.2239 0.2377
21785.0 2.30596 0.242(5) 43285. 0.2239 0.2386
21795.0 2.30702 0.236(5) 44041. 0.2239 0.2397
21805.0 2.30808 0.243(5) 42960. 0.2240 0.2408
21815.0 2.30914 0.236(5) 44189. 0.2240 0.2420
21825.0 2.31020 0.230(5) 45107. 0.2241 0.2433
21835.0 2.31126 0.240(5) 43451. 0.2241 0.2445
21845.0 2.31232 0.242(5) 42886. 0.2241 0.2457
21855.0 2.31338 0.250(5) 41551. 0.2242 0.2468
21865.0 2.31444 0.237(5) 43548. 0.2242 0.2479
21875.0 2.31550 0.253(5) 40939. 0.2242 0.2488
21885.0 2.31656 0.251(5) 41043. 0.2243 0.2496
21895.0 2.31762 0.258(5) 39930. 0.2243 0.2503
21905.0 2.31868 0.244(5) 41954. 0.2243 0.2508
21915.0 2.31974 0.250(5) 40875. 0.2244 0.2511
21925.0 2.32080 0.245(5) 41642. 0.2244 0.2512
21935.0 2.32186 0.244(5) 41804. 0.2244 0.2512
21945.0 2.32292 0.253(5) 40242. 0.2245 0.2510
21955.0 2.32398 0.243(5) 41739. 0.2245 0.2507
21965.0 2.32504 0.245(5) 41204. 0.2246 0.2501
21975.0 2.32610 0.251(5) 40120. 0.2246 0.2494
21985.0 2.32716 0.250(5) 40243. 0.2246 0.2486
21995.0 2.32822 0.246(5) 40709. 0.2247 0.2476
22005.0 2.32928 0.246(5) 40617. 0.2247 0.2465
22015.0 2.33033 0.243(5) 40938. 0.2247 0.2453
22025.0 2.33139 0.238(5) 41570. 0.2248 0.2441
22035.0 2.33245 0.246(5) 40219. 0.2248 0.2428
22045.0 2.33351 0.247(5) 40084. 0.2249 0.2415
22055.0 2.33457 0.246(5) 40129. 0.2249 0.2403
22065.0 2.33563 0.237(5) 41425. 0.2249 0.2390
22075.0 2.33669 0.233(5) 42088. 0.2250 0.2378
22085.0 2.33775 0.233(5) 42008. 0.2250 0.2366
22095.0 2.33881 0.229(5) 42631. 0.2251 0.2355
22105.0 2.33987 0.229(5) 42509. 0.2251 0.2345
22115.0 2.34093 0.232(5) 41899. 0.2251 0.2336
22125.0 2.34199 0.238(5) 40817. 0.2252 0.2328
22135.0 2.34305 0.224(5) 43009. 0.2252 0.2320
22145.0 2.34411 0.229(5) 42122. 0.2252 0.2313
22155.0 2.34517 0.235(5) 41060. 0.2253 0.2307
22165.0 2.34623 0.225(5) 42450. 0.2253 0.2302
22175.0 2.34729 0.232(5) 41113. 0.2254 0.2297
22185.0 2.34835 0.225(5) 42100. 0.2254 0.2293
22195.0 2.34941 0.222(5) 42489. 0.2254 0.2290
22205.0 2.35047 0.225(5) 41895. 0.2255 0.2287
22215.0 2.35153 0.233(5) 40523. 0.2255 0.2284
22225.0 2.35259 0.231(5) 40797. 0.2256 0.2282
22235.0 2.35365 0.233(5) 40094. 0.2256 0.2281
22245.0 2.35471 0.224(5) 41505. 0.2256 0.2279
22255.0 2.35577 0.231(5) 40274. 0.2257 0.2279
22265.0 2.35683 0.224(5) 41311. 0.2257 0.2277
22275.0 2.35789 0.236(5) 39227. 0.2258 0.2276
22285.0 2.35894 0.232(5) 39939. 0.2258 0.2276
22295.0 2.36000 0.228(5) 40399. 0.2258 0.2275
22305.0 2.36106 0.220(5) 41681. 0.2259 0.2274
22315.0 2.36212 0.232(5) 39597. 0.2259 0.2274
22325.0 2.36318 0.225(5) 40584. 0.2260 0.2274
22335.0 2.36424 0.232(5) 39378. 0.2260 0.2274
22345.0 2.36530 0.218(5) 41805. 0.2261 0.2274
22355.0 2.36636 0.229(5) 39982. 0.2261 0.2274
22365.0 2.36742 0.225(5) 40515. 0.2261 0.2274
22375.0 2.36848 0.230(5) 39646. 0.2262 0.2274
22385.0 2.36954 0.218(5) 41423. 0.2262 0.2274
22395.0 2.37060 0.225(5) 40148. 0.2263 0.2275
22405.0 2.37166 0.236(5) 38233. 0.2263 0.2275
22415.0 2.37272 0.229(5) 39311. 0.2264 0.2275
22425.0 2.37378 0.230(5) 38980. 0.2264 0.2275
22435.0 2.37484 0.236(5) 37880. 0.2264 0.2275
22445.0 2.37590 0.228(5) 38899. 0.2265 0.2276
22455.0 2.37696 0.233(5) 37915. 0.2265 0.2276
22465.0 2.37802 0.227(5) 38888. 0.2266 0.2276
22475.0 2.37908 0.227(5) 38752. 0.2266 0.2277
22485.0 2.38014 0.233(5) 37748. 0.2267 0.2277
22495.0 2.38120 0.223(5) 39338. 0.2267 0.2277
22505.0 2.38226 0.226(5) 38737. 0.2267 0.2277
22515.0 2.38332 0.228(5) 38287. 0.2268 0.2278
22525.0 2.38438 0.228(5) 38198. 0.2268 0.2278
22535.0 2.38544 0.222(5) 39050. 0.2269 0.2279
22545.0 2.38650 0.227(5) 38341. 0.2269 0.2279
22555.0 2.38756 0.225(5) 38510. 0.2270 0.2279
22565.0 2.38862 0.233(5) 37274. 0.2270 0.2280
22575.0 2.38967 0.232(5) 37256. 0.2271 0.2280
22585.0 2.39073 0.237(5) 36386. 0.2271 0.2280
22595.0 2.39179 0.230(5) 37326. 0.2272 0.2281
22605.0 2.39285 0.228(5) 37609. 0.2272 0.2281
22615.0 2.39391 0.232(5) 36812. 0.2273 0.2281
22625.0 2.39497 0.241(5) 35515. 0.2273 0.2282
22635.0 2.39603 0.238(5) 35909. 0.2273 0.2282
22645.0 2.39709 0.227(5) 37361. 0.2274 0.2283
22655.0 2.39815 0.227(5) 37396. 0.2274 0.2283
22665.0 2.39921 0.233(5) 36575. 0.2275 0.2284
22675.0 2.40027 0.228(5) 37159. 0.2275 0.2284
22685.0 2.40133 0.230(5) 36717. 0.2276 0.2285
22695.0 2.40239 0.241(5) 35117. 0.2276 0.2285
22705.0 2.40345 0.232(5) 36148. 0.2277 0.2286
22715.0 2.40451 0.232(5) 36138. 0.2277 0.2287
22725.0 2.40557 0.232(5) 36139. 0.2278 0.2287
22735.0 2.40663 0.234(5) 35569. 0.2278 0.2288
22745.0 2.40769 0.218(5) 37924. 0.2279 0.2288
22755.0 2.40875 0.227(5) 36440. 0.2279 0.2289
22765.0 2.40981 0.227(5) 36400. 0.2280 0.2290
22775.0 2.41087 0.225(5) 36778. 0.2280 0.2290
22785.0 2.41193 0.226(5) 36550. 0.2281 0.2291
22795.0 2.41299 0.228(5) 36309. 0.2281 0.2292
22805.0 2.41405 0.227(5) 36448. 0.2282 0.2292
22815.0 2.41511 0.231(5) 35667. 0.2282 0.2293
22825.0 2.41617 0.237(5) 34826. 0.2283 0.2294
22835.0 2.41723 0.234(5) 35149. 0.2283 0.2295
22845.0 2.41829 0.221(5) 36894. 0.2284 0.2295
22855.0 2.41935 0.230(5) 35455. 0.2284 0.2296
22865.0 2.42041 0.234(5) 34797. 0.2285 0.2297
22875.0 2.42147 0.227(5) 35784. 0.2285 0.2298
22885.0 2.42252 0.245(5) 33388. 0.2286 0.2299
22895.0 2.42358 0.226(5) 35931. 0.2286 0.2300
22905.0 2.42464 0.229(5) 35511. 0.2287 0.2300
22915.0 2.42570 0.227(5) 35732. 0.2287 0.2301
22925.0 2.42676 0.232(5) 34919. 0.2288 0.2302
22935.0 2.42782 0.236(5) 34227. 0.2288 0.2304
22945.0 2.42888 0.234(5) 34414. 0.2289 0.2305
22955.0 2.42994 0.225(5) 35633. 0.2289 0.2306
22965.0 2.43100 0.236(5) 34038. 0.2290 0.2307
22975.0 2.43206 0.229(5) 34894. 0.2290 0.2309
22985.0 2.43312 0.232(5) 34388. 0.2291 0.2310
22995.0 2.43418 0.226(5) 35253. 0.2292 0.2312
23005.0 2.43524 0.241(5) 33161. 0.2292 0.2314
23015.0 2.43630 0.225(5) 35229. 0.2293 0.2317
23025.0 2.43736 0.237(5) 33543. 0.2293 0.2319
23035.0 2.43842 0.242(6) 32798. 0.2294 0.2322
23045.0 2.43948 0.231(5) 34052. 0.2294 0.2326
23055.0 2.44054 0.240(6) 32760. 0.2295 0.2330
23065.0 2.44160 0.242(6) 32402. 0.2295 0.2335
23075.0 2.44266 0.245(6) 31989. 0.2296 0.2341
23085.0 2.44372 0.244(6) 32001. 0.2296 0.2347
23095.0 2.44478 0.244(6) 31988. 0.2297 0.2355
23105.0 2.44584 0.249(6) 31282. 0.2298 0.2364
23115.0 2.44690 0.251(6) 31033. 0.2298 0.2374
23125.0 2.44796 0.250(6) 31160. 0.2299 0.2385
23135.0 2.44902 0.249(6) 31153. 0.2299 0.2399
23145.0 2.45008 0.249(6) 31059. 0.2300 0.2413
23155.0 2.45114 0.251(6) 30781. 0.2300 0.2430
23165.0 2.45220 0.257(6) 29965. 0.2301 0.2448
23175.0 2.45326 0.263(6) 29397. 0.2302 0.2469
23185.0 2.45432 0.244(6) 31383. 0.2302 0.2491
23195.0 2.45538 0.259(6) 29781. 0.2303 0.2514
23205.0 2.45643 0.249(6) 30825. 0.2303 0.2539
23215.0 2.45749 0.262(6) 29294. 0.2304 0.2565
23225.0 2.45855 0.271(6) 28273. 0.2304 0.2593
23235.0 2.45961 0.258(6) 29610. 0.2305 0.2620
23245.0 2.46067 0.273(6) 28027. 0.2306 0.2648
23255.0 2.46173 0.269(6) 28290. 0.2306 0.2676
23265.0 2.46279 0.275(6) 27696. 0.2307 0.2702
23275.0 2.46385 0.280(6) 27172. 0.2307 0.2727
23285.0 2.46491 0.270(6) 28043. 0.2308 0.2750
23295.0 2.46597 0.266(6) 28414. 0.2309 0.2769
23305.0 2.46703 0.278(6) 27098. 0.2309 0.2785
23315.0 2.46809 0.277(6) 27184. 0.2310 0.2797
23325.0 2.46915 0.282(6) 26697. 0.2310 0.2804
23335.0 2.47021 0.287(6) 26264. 0.2311 0.2807
23345.0 2.47127 0.277(6) 27083. 0.2312 0.2805
23355.0 2.47233 0.282(6) 26524. 0.2312 0.2798
23365.0 2.47339 0.269(6) 27702. 0.2313 0.2787
23375.0 2.47445 0.275(6) 27057. 0.2313 0.2773
23385.0 2.47551 0.263(6) 28166. 0.2314 0.2755
23395.0 2.47657 0.271(6) 27351. 0.2315 0.2734
23405.0 2.47763 0.274(6) 27046. 0.2315 0.2711
23415.0 2.47869 0.273(6) 27088. 0.2316 0.2686
23425.0 2.47975 0.263(6) 28086. 0.2317 0.2661
23435.0 2.48081 0.272(6) 27195. 0.2317 0.2635
23445.0 2.48187 0.270(6) 27327. 0.2318 0.2609
23455.0 2.48293 0.265(6) 27727. 0.2318 0.2584
23465.0 2.48399 0.255(6) 28883. 0.2319 0.2559
23475.0 2.48505 0.253(6) 28982. 0.2320 0.2536
23485.0 2.48611 0.258(6) 28542. 0.2320 0.2514
23495.0 2.48717 0.254(6) 28828. 0.2321 0.2493
23505.0 2.48823 0.252(6) 28902. 0.2322 0.2474
23515.0 2.48929 0.256(6) 28476. 0.2322 0.2457
23525.0 2.49035 0.247(6) 29307. 0.2323 0.2442
23535.0 2.49141 0.248(6) 29305. 0.2324 0.2428
23545.0 2.49247 0.251(6) 28905. 0.2324 0.2416
23555.0 2.49353 0.247(6) 29238. 0.2325 0.2406
23565.0 2.49459 0.238(6) 30133. 0.2325 0.2396
23575.0 2.49564 0.240(6) 29794. 0.2326 0.2389
23585.0 2.49670 0.248(6) 28793. 0.2327 0.2382
23595.0 2.49776 0.236(6) 30074. 0.2327 0.2377
23605.0 2.49882 0.257(6) 27651. 0.2328 0.2372
23615.0 2.49988 0.245(6) 29067. 0.2329 0.2368
23625.0 2.50094 0.247(6) 28750. 0.2329 0.2365
23635.0 2.50200 0.244(6) 29018. 0.2330 0.2363
23645.0 2.50306 0.246(6) 28631. 0.2331 0.2361
23655.0 2.50412 0.240(6) 29418. 0.2332 0.2360
23665.0 2.50518 0.248(6) 28532. 0.2332 0.2359
23675.0 2.50624 0.260(6) 27313. 0.2333 0.2359
23685.0 2.50730 0.243(6) 29101. 0.2334 0.2359
23695.0 2.50836 0.245(6) 28759. 0.2334 0.2359
23705.0 2.50942 0.239(6) 29369. 0.2335 0.2359
23715.0 2.51048 0.246(6) 28576. 0.2336 0.2360
23725.0 2.51154 0.251(6) 27953. 0.2336 0.2361
23735.0 2.51260 0.245(6) 28536. 0.2337 0.2362
23745.0 2.51366 0.244(6) 28686. 0.2338 0.2363
23755.0 2.51472 0.253(6) 27749. 0.2338 0.2364
23765.0 2.51578 0.258(6) 27286. 0.2339 0.2365
23775.0 2.51684 0.246(6) 28400. 0.2340 0.2366
23785.0 2.51790 0.232(6) 29909. 0.2341 0.2367
23795.0 2.51896 0.249(6) 28001. 0.2341 0.2368
23805.0 2.52002 0.240(6) 28924. 0.2342 0.2369
23815.0 2.52108 0.249(6) 28082. 0.2343 0.2370
23825.0 2.52214 0.242(6) 28785. 0.2343 0.2371
23835.0 2.52320 0.242(6) 28663. 0.2344 0.2372
23845.0 2.52426 0.244(6) 28479. 0.2345 0.2372
23855.0 2.52532 0.240(6) 28861. 0.2346 0.2373
23865.0 2.52638 0.245(6) 28393. 0.2346 0.2373
23875.0 2.52744 0.237(6) 29271. 0.2347 0.2373
23885.0 2.52850 0.238(6) 29218. 0.2348 0.2373
23895.0 2.52956 0.229(6) 30174. 0.2348 0.2373
23905.0 2.53062 0.234(6) 29457. 0.2349 0.2373
23915.0 2.53168 0.237(6) 29053. 0.2350 0.2373
23925.0 2.53274 0.238(6) 28915. 0.2351 0.2373
23935.0 2.53380 0.240(6) 28808. 0.2351 0.2372
23945.0 2.53486 0.226(6) 30397. 0.2352 0.2372
23955.0 2.53592 0.243(6) 28280. 0.2353 0.2372
23965.0 2.53698 0.236(6) 29050. 0.2354 0.2372
23975.0 2.53803 0.256(6) 26925. 0.2354 0.2371
23985.0 2.53909 0.235(6) 29069. 0.2355 0.2371
23995.0 2.54015 0.238(6) 28640. 0.2356 0.2371
24005.0 2.54121 0.240(6) 28455. 0.2357 0.2371
24015.0 2.54227 0.246(6) 27707. 0.2357 0.2371
24025.0 2.54333 0.241(6) 28313. 0.2358 0.2371
24035.0 2.54439 0.242(6) 28093. 0.2359 0.2371
24045.0 2.54545 0.238(6) 28403. 0.2360 0.2372
24055.0 2.54651 0.241(6) 28092. 0.2360 0.2372
24065.0 2.54757 0.244(6) 27752. 0.2361 0.2372
24075.0 2.54863 0.238(6) 28453. 0.2362 0.2373
24085.0 2.54969 0.236(6) 28676. 0.2363 0.2373
24095.0 2.55075 0.241(6) 28102. 0.2364 0.2374
24105.0 2.55181 0.229(6) 29411. 0.2364 0.2375
24115.0 2.55287 0.240(6) 28075. 0.2365 0.2375
24125.0 2.55393 0.229(6) 29334. 0.2366 0.2376
24135.0 2.55499 0.244(6) 27613. 0.2367 0.2377
24145.0 2.55605 0.243(6) 27716. 0.2368 0.2378
24155.0 2.55711 0.233(6) 28751. 0.2368 0.2379
24165.0 2.55817 0.230(6) 29087. 0.2369 0.2380
24175.0 2.55923 0.247(6) 27252. 0.2370 0.2381
24185.0 2.56029 0.245(6) 27321. 0.2371 0.2382
24195.0 2.56135 0.227(6) 29407. 0.2372 0.2383
24205.0 2.56241 0.231(6) 28893. 0.2372 0.2385
24215.0 2.56347 0.235(6) 28423. 0.2373 0.2386
24225.0 2.56453 0.238(6) 27989. 0.2374 0.2388
24235.0 2.56559 0.249(6) 26718. 0.2375 0.2391
24245.0 2.56665 0.238(6) 27888. 0.2376 0.2393
24255.0 2.56771 0.234(6) 28318. 0.2376 0.2395
24265.0 2.56877 0.234(6) 28227. 0.2377 0.2398
24275.0 2.56983 0.237(6) 27908. 0.2378 0.2401
24285.0 2.57089 0.234(6) 28202. 0.2379 0.2404
24295.0 2.57195 0.244(6) 27018. 0.2380 0.2408
24305.0 2.57301 0.254(6) 26003. 0.2381 0.2413
24315.0 2.57407 0.240(6) 27402. 0.2381 0.2417
24325.0 2.57513 0.239(6) 27383. 0.2382 0.2423
24335.0 2.57619 0.252(6) 26132. 0.2383 0.2429
24345.0 2.57725 0.260(6) 25317. 0.2384 0.2435
24355.0 2.57831 0.242(6) 27061. 0.2385 0.2442
24365.0 2.57937 0.244(6) 26954. 0.2386 0.2450
24375.0 2.58043 0.247(6) 26538. 0.2386 0.2458
24385.0 2.58149 0.247(6) 26656. 0.2387 0.2467
24395.0 2.58255 0.244(6) 26891. 0.2388 0.2477
24405.0 2.58361 0.243(6) 26960. 0.2389 0.2487
24415.0 2.58467 0.241(6) 27141. 0.2390 0.2498
24425.0 2.58573 0.241(6) 27116. 0.2391 0.2509
24435.0 2.58678 0.249(6) 26378. 0.2392 0.2520
24445.0 2.58784 0.241(6) 27097. 0.2392 0.2531
24455.0 2.58890 0.244(6) 26645. 0.2393 0.2543
24465.0 2.58996 0.244(6) 26691. 0.2394 0.2554
24475.0 2.59102 0.241(6) 27019. 0.2395 0.2565
24485.0 2.59208 0.243(6) 26757. 0.2396 0.2575
24495.0 2.59314 0.248(6) 26220. 0.2397 0.2584
24505.0 2.59420 0.261(6) 24984. 0.2398 0.2593
24515.0 2.59526 0.254(6) 25631. 0.2399 0.2600
24525.0 2.59632 0.261(6) 24828. 0.2400 0.2606
24535.0 2.59738 0.251(6) 25678. 0.2400 0.2610
24545.0 2.59844 0.261(6) 24840. 0.2401 0.2613
24555.0 2.59950 0.268(6) 24148. 0.2402 0.2614
24565.0 2.60056 0.256(6) 25180. 0.2403 0.2614
24575.0 2.60162 0.259(6) 24930. 0.2404 0.2612
24585.0 2.60268 0.263(6) 24536. 0.2405 0.2609
24595.0 2.60374 0.259(6) 24843. 0.2406 0.2605
24605.0 2.60480 0.251(6) 25490. 0.2407 0.2599
24615.0 2.60586 0.252(6) 25344. 0.2408 0.2592
24625.0 2.60692 0.252(6) 25269. 0.2409 0.2585
24635.0 2.60798 0.263(6) 24196. 0.2409 0.2577
24645.0 2.60904 0.253(6) 25007. 0.2410 0.2568
24655.0 2.61010 0.246(6) 25638. 0.2411 0.2559
24665.0 2.61116 0.253(6) 24889. 0.2412 0.2550
24675.0 2.61222 0.258(6) 24373. 0.2413 0.2541
24685.0 2.61328 0.261(6) 23955. 0.2414 0.2532
24695.0 2.61434 0.259(6) 24021. 0.2415 0.2524
24705.0 2.61540 0.258(6) 24126. 0.2416 0.2515
24715.0 2.61646 0.242(6) 25478. 0.2417 0.2507
24725.0 2.61752 0.241(6) 25627. 0.2418 0.2500
24735.0 2.61858 0.247(6) 24995. 0.2419 0.2493
24745.0 2.61964 0.254(6) 24222. 0.2420 0.2487
24755.0 2.62070 0.252(6) 24416. 0.2421 0.2481
24765.0 2.62176 0.253(6) 24164. 0.2422 0.2475
24775.0 2.62282 0.248(6) 24629. 0.2423 0.2471
24785.0 2.62388 0.251(6) 24368. 0.2424 0.2467
24795.0 2.62494 0.250(6) 24503. 0.2425 0.2463
24805.0 2.62600 0.251(6) 24340. 0.2426 0.2460
24815.0 2.62706 0.255(6) 23995. 0.2427 0.2457
24825.0 2.62812 0.258(6) 23674. 0.2428 0.2455
24835.0 2.62918 0.249(6) 24556. 0.2429 0.2453
24845.0 2.63024 0.250(6) 24393. 0.2429 0.2451
24855.0 2.63130 0.261(7) 23458. 0.2430 0.2450
24865.0 2.63236 0.242(6) 25275. 0.2431 0.2449
24875.0 2.63342 0.234(6) 25938. 0.2432 0.2449
24885.0 2.63448 0.237(6) 25635. 0.2433 0.2448
24895.0 2.63554 0.236(6) 25804. 0.2434 0.2448
24905.0 2.63660 0.236(6) 25724. 0.2435 0.2448
24915.0 2.63766 0.242(6) 25116. 0.2436 0.2448
24925.0 2.63872 0.237(6) 25585. 0.2437 0.2448
24935.0 2.63978 0.245(6) 24766. 0.2438 0.2448
24945.0 2.64084 0.242(6) 25047. 0.2439 0.2449
24955.0 2.64190 0.249(6) 24463. 0.2440 0.2449
24965.0 2.64296 0.259(7) 23545. 0.2442 0.2450
24975.0 2.64402 0.245(6) 24762. 0.2443 0.2451
24985.0 2.64508 0.239(6) 25343. 0.2444 0.2451
24995.0 2.64613 0.236(6) 25645. 0.2445 0.2452
25005.0 2.64719 0.236(6) 25561. 0.2446 0.2453
25015.0 2.64825 0.249(6) 24440. 0.2447 0.2453
25025.0 2.64931 0.245(6) 24690. 0.2448 0.2454
25035.0 2.65037 0.243(6) 24874. 0.2449 0.2455
25045.0 2.65143 0.236(6) 25686. 0.2450 0.2456
25055.0 2.65249 0.236(6) 25636. 0.2451 0.2457
25065.0 2.65355 0.248(6) 24361. 0.2452 0.2458
25075.0 2.65461 0.241(6) 25134. 0.2453 0.2459
25085.0 2.65567 0.254(6) 23886. 0.2454 0.2460
25095.0 2.65673 0.248(6) 24244. 0.2455 0.2460
25105.0 2.65779 0.245(6) 24419. 0.2456 0.2461
25115.0 2.65885 0.245(6) 24457. 0.2457 0.2462
25125.0 2.65991 0.236(6) 25254. 0.2458 0.2463
25135.0 2.66097 0.255(7) 23390. 0.2459 0.2464
25145.0 2.66203 0.238(6) 24879. 0.2460 0.2465
25155.0 2.66309 0.246(6) 24005. 0.2461 0.2466
25165.0 2.66415 0.255(7) 23118. 0.2463 0.2467
25175.0 2.66521 0.245(6) 23906. 0.2464 0.2468
25185.0 2.66627 0.244(6) 24193. 0.2465 0.2469
25195.0 2.66733 0.242(6) 24427. 0.2466 0.2470
25205.0 2.66839 0.249(7) 23657. 0.2467 0.2471
25215.0 2.66945 0.240(6) 24543. 0.2468 0.2472
25225.0 2.67051 0.258(7) 22894. 0.2469 0.2473
25235.0 2.67157 0.241(6) 24378. 0.2470 0.2474
25245.0 2.67263 0.243(6) 24159. 0.2471 0.2476
25255.0 2.67369 0.248(7) 23581. 0.2472 0.2477
25265.0 2.67475 0.250(7) 23489. 0.2474 0.2478
25275.0 2.67581 0.247(6) 23710. 0.2475 0.2479
25285.0 2.67687 0.237(6) 24730. 0.2476 0.2480
25295.0 2.67793 0.246(6) 23858. 0.2477 0.2481
25305.0 2.67899 0.255(7) 23062. 0.2478 0.2482
25315.0 2.68005 0.251(7) 23433. 0.2479 0.2483
25325.0 2.68111 0.254(7) 23191. 0.2480 0.2484
25335.0 2.68217 0.253(7) 23270. 0.2481 0.2485
25345.0 2.68323 0.247(6) 23740. 0.2483 0.2486
25355.0 2.68429 0.246(6) 23754. 0.2484 0.2488
25365.0 2.68535 0.247(7) 23640. 0.2485 0.2489
25375.0 2.68641 0.250(7) 23361. 0.2486 0.2490
25385.0 2.68747 0.249(7) 23356. 0.2487 0.2491
25395.0 2.68853 0.248(7) 23312. 0.2488 0.2492
25405.0 2.68959 0.248(7) 23276. 0.2490 0.2493
25415.0 2.69065 0.252(7) 22913. 0.2491 0.2494
25425.0 2.69171 0.239(6) 24090. 0.2492 0.2496
25435.0 2.69277 0.249(7) 23116. 0.2493 0.2497
25445.0 2.69383 0.253(7) 22782. 0.2494 0.2498
25455.0 2.69489 0.261(7) 22010. 0.2495 0.2499
25465.0 2.69595 0.250(7) 23009. 0.2497 0.2500
25475.0 2.69701 0.261(7) 22131. 0.2498 0.2501
25485.0 2.69807 0.246(7) 23332. 0.2499 0.2502
25495.0 2.69913 0.246(7) 23282. 0.2500 0.2504
25505.0 2.70019 0.256(7) 22390. 0.2501 0.2505
25515.0 2.70125 0.249(7) 22965. 0.2503 0.2506
25525.0 2.70231 0.255(7) 22484. 0.2504 0.2507
25535.0 2.70337 0.254(7) 22627. 0.2505 0.2508
25545.0 2.70443 0.242(6) 23686. 0.2506 0.2510
25555.0 2.70549 0.245(7) 23418. 0.2508 0.2511
25565.0 2.70655 0.238(6) 24127. 0.2509 0.2512
25575.0 2.70761 0.253(7) 22657. 0.2510 0.2513
25585.0 2.70867 0.243(7) 23580. 0.2511 0.2515
25595.0 2.70973 0.248(7) 23037. 0.2512 0.2516
25605.0 2.71079 0.254(7) 22541. 0.2514 0.2517
25615.0 2.71185 0.244(7) 23386. 0.2515 0.2518
25625.0 2.71291 0.258(7) 22112. 0.2516 0.2520
25635.0 2.71397 0.242(7) 23463. 0.2517 0.2521
25645.0 2.71503 0.255(7) 22197. 0.2519 0.2522
25655.0 2.71609 0.244(7) 23133. 0.2520 0.2524
25665.0 2.71715 0.244(7) 23055. 0.2521 0.2525
25675.0 2.71821 0.249(7) 22800. 0.2522 0.2526
25685.0 2.71927 0.250(7) 22777. 0.2524 0.2527
25695.0 2.72033 0.251(7) 22578. 0.2525 0.2529
25705.0 2.72139 0.244(7) 23076. 0.2526 0.2530
25715.0 2.72245 0.260(7) 21626. 0.2528 0.2531
25725.0 2.72351 0.243(7) 23013. 0.2529 0.2533
25735.0 2.72456 0.246(7) 22717. 0.2530 0.2534
25745.0 2.72562 0.252(7) 22133. 0.2531 0.2535
25755.0 2.72668 0.255(7) 22034. 0.2533 0.2537
25765.0 2.72774 0.250(7) 22351. 0.2534 0.2538
25775.0 2.72880 0.265(7) 21068. 0.2535 0.2540
25785.0 2.72986 0.249(7) 22287. 0.2537 0.2541
25795.0 2.73092 0.249(7) 22314. 0.2538 0.2542
25805.0 2.73198 0.261(7) 21144. 0.2539 0.2544
25815.0 2.73304 0.252(7) 21814. 0.2541 0.2545
25825.0 2.73410 0.252(7) 21932. 0.2542 0.2547
25835.0 2.73516 0.255(7) 21743. 0.2543 0.2548
25845.0 2.73622 0.256(7) 21524. 0.2545 0.2549
25855.0 2.73728 0.246(7) 22499. 0.2546 0.2551
25865.0 2.73834 0.259(7) 21325. 0.2547 0.2552
25875.0 2.73940 0.253(7) 21863. 0.2549 0.2554
25885.0 2.74046 0.246(7) 22443. 0.2550 0.2555
25895.0 2.74152 0.255(7) 21787. 0.2551 0.2557
25905.0 2.74258 0.258(7) 21528. 0.2553 0.2558
25915.0 2.74364 0.246(7) 22522. 0.2554 0.2559
25925.0 2.74470 0.259(7) 21529. 0.2556 0.2561
25935.0 2.74576 0.248(7) 22418. 0.2557 0.2562
25945.0 2.74682 0.263(7) 21192. 0.2558 0.2564
25955.0 2.74788 0.262(7) 21252. 0.2560 0.2565
25965.0 2.74894 0.260(7) 21409. 0.2561 0.2567
25975.0 2.75000 0.250(7) 22278. 0.2563 0.2568
25985.0 2.75106 0.256(7) 21749. 0.2564 0.2570
25995.0 2.75212 0.244(7) 22704. 0.2565 0.2571
26005.0 2.75318 0.255(7) 21837. 0.2567 0.2573
26015.0 2.75424 0.250(7) 22216. 0.2568 0.2575
26025.0 2.75530 0.248(7) 22327. 0.2570 0.2576
26035.0 2.75636 0.255(7) 21799. 0.2571 0.2578
26045.0 2.75742 0.249(7) 22345. 0.2572 0.2579
26055.0 2.75848 0.248(7) 22464. 0.2574 0.2581
26065.0 2.75954 0.251(7) 22173. 0.2575 0.2583
26075.0 2.76060 0.261(7) 21297. 0.2577 0.2584
26085.0 2.76166 0.256(7) 21753. 0.2578 0.2586
26095.0 2.76272 0.257(7) 21537. 0.2580 0.2588
26105.0 2.76378 0.247(7) 22399. 0.2581 0.2589
26115.0 2.76484 0.255(7) 21802. 0.2583 0.2591
26125.0 2.76590 0.245(7) 22631. 0.2584 0.2593
26135.0 2.76696 0.253(7) 21914. 0.2585 0.2594
26145.0 2.76802 0.253(7) 21900. 0.2587 0.2596
26155.0 2.76908 0.258(7) 21528. 0.2588 0.2598
26165.0 2.77014 0.256(7) 21715. 0.2590 0.2600
26175.0 2.77120 0.264(7) 20956. 0.2591 0.2601
26185.0 2.77226 0.251(7) 21901. 0.2593 0.2603
26195.0 2.77332 0.255(7) 21558. 0.2594 0.2605
26205.0 2.77438 0.273(7) 20195. 0.2596 0.2607
26215.0 2.77544 0.258(7) 21294. 0.2597 0.2609
26225.0 2.77650 0.259(7) 21176. 0.2599 0.2611
26235.0 2.77756 0.255(7) 21528. 0.2600 0.2613
26245.0 2.77862 0.243(7) 22375. 0.2602 0.2615
26255.0 2.77968 0.261(7) 20967. 0.2603 0.2617
26265.0 2.78074 0.260(7) 21033. 0.2605 0.2619
26275.0 2.78180 0.263(7) 20658. 0.2606 0.2621
26285.0 2.78286 0.252(7) 21539. 0.2608 0.2623
26295.0 2.78392 0.257(7) 21126. 0.2609 0.2626
26305.0 2.78498 0.252(7) 21514. 0.2611 0.2628
26315.0 2.78604 0.255(7) 21205. 0.2613 0.2631
26325.0 2.78710 0.275(7) 19719. 0.2614 0.2634
26335.0 2.78816 0.256(7) 20982. 0.2616 0.2637
26345.0 2.78922 0.272(7) 19787. 0.2617 0.2640
26355.0 2.79028 0.261(7) 20537. 0.2619 0.2643
26365.0 2.79134 0.261(7) 20578. 0.2620 0.2647
26375.0 2.79240 0.260(7) 20608. 0.2622 0.2651
26385.0 2.79346 0.266(7) 20084. 0.2624 0.2656
26395.0 2.79452 0.258(7) 20689. 0.2625 0.2660
26405.0 2.79558 0.260(7) 20523. 0.2627 0.2666
26415.0 2.79664 0.275(7) 19367. 0.2628 0.2672
26425.0 2.79770 0.254(7) 20817. 0.2630 0.2678
26435.0 2.79876 0.268(7) 19727. 0.2632 0.2686
26445.0 2.79982 0.265(7) 19819. 0.2633 0.2694
26455.0 2.80088 0.264(7) 19905. 0.2635 0.2703
26465.0 2.80194 0.283(7) 18583. 0.2636 0.2713
26475.0 2.80300 0.268(7) 19528. 0.2638 0.2724
26485.0 2.80406 0.277(7) 18902. 0.2640 0.2736
26495.0 2.80512 0.280(7) 18723. 0.2641 0.2750
26505.0 2.80618 0.277(7) 18951. 0.2643 0.2764
26515.0 2.80724 0.272(7) 19256. 0.2645 0.2780
26525.0 2.80830 0.277(7) 18855. 0.2646 0.2797
26535.0 2.80936 0.283(7) 18353. 0.2648 0.2816
26545.0 2.81042 0.285(7) 18192. 0.2649 0.2836
26555.0 2.81148 0.273(7) 18913. 0.2651 0.2857
26565.0 2.81254 0.280(7) 18311. 0.2653 0.2879
26575.0 2.81360 0.294(8) 17560. 0.2654 0.2902
26585.0 2.81466 0.290(7) 17796. 0.2656 0.2926
26595.0 2.81572 0.303(8) 16990. 0.2658 0.2951
26605.0 2.81678 0.293(8) 17580. 0.2659 0.2977
26615.0 2.81784 0.314(8) 16378. 0.2661 0.3003
26625.0 2.81890 0.297(8) 17271. 0.2663 0.3029
26635.0 2.81996 0.306(8) 16713. 0.2665 0.3055
26645.0 2.82102 0.312(8) 16469. 0.2666 0.3080
26655.0 2.82208 0.307(8) 16708. 0.2668 0.3105
26665.0 2.82314 0.315(8) 16240. 0.2670 0.3128
26675.0 2.82420 0.328(8) 15605. 0.2671 0.3149
26685.0 2.82526 0.320(8) 15919. 0.2673 0.3169
26695.0 2.82632 0.319(8) 15949. 0.2675 0.3186
26705.0 2.82738 0.316(8) 15996. 0.2677 0.3201
26715.0 2.82844 0.317(8) 15978. 0.2678 0.3212
26725.0 2.82950 0.306(8) 16524. 0.2680 0.3220
26735.0 2.83056 0.318(8) 15890. 0.2682 0.3225
26745.0 2.83162 0.323(8) 15622. 0.2683 0.3226
26755.0 2.83268 0.303(8) 16610. 0.2685 0.3224
26765.0 2.83374 0.313(8) 16086. 0.2687 0.3219
26775.0 2.83480 0.312(8) 16093. 0.2689 0.3211
26785.0 2.83586 0.322(8) 15583. 0.2690 0.3200
26795.0 2.83692 0.332(8) 15120. 0.2692 0.3186
26805.0 2.83798 0.323(8) 15543. 0.2694 0.3170
26815.0 2.83904 0.322(8) 15513. 0.2696 0.3152
26825.0 2.84010 0.330(8) 15121. 0.2698 0.3135
26835.0 2.84116 0.308(8) 16121. 0.2699 0.3115
26845.0 2.84222 0.320(8) 15518. 0.2701 0.3094
26855.0 2.84328 0.324(8) 15303. 0.2703 0.3072
26865.0 2.84434 0.307(8) 16101. 0.2705 0.3050
26875.0 2.84540 0.303(8) 16410. 0.2707 0.3029
26885.0 2.84646 0.296(8) 16750. 0.2708 0.3007
26895.0 2.84752 0.296(8) 16789. 0.2710 0.2986
26905.0 2.84858 0.307(8) 16156. 0.2712 0.2966
26915.0 2.84964 0.303(8) 16296. 0.2714 0.2947
26925.0 2.85070 0.289(8) 17085. 0.2716 0.2929
26935.0 2.85176 0.285(8) 17274. 0.2717 0.2912
26945.0 2.85282 0.302(8) 16391. 0.2719 0.2896
26955.0 2.85388 0.283(8) 17391. 0.2721 0.2881
26965.0 2.85494 0.291(8) 16924. 0.2723 0.2867
26975.0 2.85600 0.288(8) 17138. 0.2725 0.2855
26985.0 2.85706 0.274(7) 17957. 0.2727 0.2844
26995.0 2.85812 0.276(7) 17896. 0.2728 0.2834
27005.0 2.85918 0.293(8) 16945. 0.2730 0.2825
27015.0 2.86024 0.270(7) 18358. 0.2732 0.2817
27025.0 2.86130 0.289(8) 17235. 0.2734 0.2810
27035.0 2.86236 0.280(8) 17754. 0.2736 0.2804
27045.0 2.86342 0.271(7) 18329. 0.2738 0.2799
27055.0 2.86448 0.286(8) 17415. 0.2740 0.2795
27065.0 2.86554 0.284(8) 17547. 0.2742 0.2792
27075.0 2.86660 0.275(7) 18091. 0.2743 0.2789
27085.0 2.86766 0.269(7) 18366. 0.2745 0.2787
27095.0 2.86872 0.272(7) 18167. 0.2747 0.2785
27105.0 2.86978 0.279(8) 17718. 0.2749 0.2783
27115.0 2.87084 0.275(7) 18021. 0.2751 0.2783
27125.0 2.87190 0.282(8) 17504. 0.2753 0.2782
27135.0 2.87296 0.275(7) 17922. 0.2755 0.2782
27145.0 2.87402 0.284(8) 17337. 0.2757 0.2782
27155.0 2.87508 0.286(8) 17312. 0.2759 0.2782
27165.0 2.87614 0.274(7) 18006. 0.2761 0.2783
27175.0 2.87720 0.266(7) 18518. 0.2762 0.2783
27185.0 2.87826 0.284(8) 17388. 0.2764 0.2784
27195.0 2.87932 0.282(8) 17511. 0.2766 0.2785
27205.0 2.88038 0.283(8) 17436. 0.2768 0.2786
27215.0 2.88144 0.279(8) 17631. 0.2770 0.2787
27225.0 2.88250 0.273(7) 17996. 0.2772 0.2789
27235.0 2.88356 0.276(7) 17842. 0.2774 0.2790
27245.0 2.88462 0.274(7) 17881. 0.2776 0.2791
27255.0 2.88568 0.267(7) 18428. 0.2778 0.2793
27265.0 2.88674 0.279(8) 17658. 0.2780 0.2794
27275.0 2.88780 0.284(8) 17322. 0.2782 0.2796
27285.0 2.88886 0.285(8) 17307. 0.2784 0.2797
27295.0 2.88992 0.261(7) 18785. 0.2786 0.2799
27305.0 2.89098 0.270(7) 18244. 0.2788 0.2801
27315.0 2.89204 0.274(7) 17924. 0.2790 0.2802
27325.0 2.89310 0.286(8) 17134. 0.2792 0.2804
27335.0 2.89416 0.276(8) 17763. 0.2794 0.2806
27345.0 2.89522 0.264(7) 18436. 0.2796 0.2807
27355.0 2.89628 0.274(7) 17812. 0.2798 0.2809
27365.0 2.89734 0.281(8) 17336. 0.2800 0.2811
27375.0 2.89840 0.267(7) 18118. 0.2802 0.2813
27385.0 2.89946 0.267(7) 18080. 0.2804 0.2814
27395.0 2.90052 0.274(8) 17585. 0.2806 0.2816
27405.0 2.90158 0.283(8) 17003. 0.2808 0.2818
27415.0 2.90264 0.289(8) 16660. 0.2810 0.2820
27425.0 2.90370 0.283(8) 16911. 0.2812 0.2822
27435.0 2.90476 0.282(8) 16895. 0.2814 0.2823
27445.0 2.90582 0.290(8) 16456. 0.2816 0.2825
27455.0 2.90688 0.280(8) 16972. 0.2818 0.2827
27465.0 2.90794 0.300(8) 15871. 0.2820 0.2829
27475.0 2.90900 0.298(8) 16058. 0.2822 0.2831
27485.0 2.91006 0.278(8) 17182. 0.2824 0.2833
27495.0 2.91112 0.282(8) 16955. 0.2826 0.2835
27505.0 2.91218 0.274(8) 17404. 0.2828 0.2837
27515.0 2.91324 0.293(8) 16247. 0.2830 0.2838
27525.0 2.91430 0.280(8) 16927. 0.2832 0.2840
27535.0 2.91536 0.275(8) 17192. 0.2834 0.2842
27545.0 2.91642 0.287(8) 16459. 0.2836 0.2844
27555.0 2.91748 0.290(8) 16245. 0.2838 0.2846
27565.0 2.91854 0.284(8) 16642. 0.2840 0.2848
27575.0 2.91960 0.291(8) 16185. 0.2842 0.2850
27585.0 2.92066 0.282(8) 16682. 0.2844 0.2852
27595.0 2.92172 0.285(8) 16486. 0.2846 0.2854
27605.0 2.92278 0.292(8) 16077. 0.2848 0.2856
27615.0 2.92384 0.295(8) 15809. 0.2850 0.2858
27625.0 2.92490 0.306(8) 15238. 0.2852 0.2860
27635.0 2.92596 0.278(8) 16729. 0.2854 0.2862
27645.0 2.92702 0.293(8) 15865. 0.2856 0.2864
27655.0 2.92808 0.286(8) 16248. 0.2858 0.2866
27665.0 2.92914 0.293(8) 15884. 0.2860 0.2868
27675.0 2.93020 0.293(8) 15879. 0.2862 0.2870
27685.0 2.93126 0.287(8) 16126. 0.2864 0.2872
27695.0 2.93232 0.293(8) 15709. 0.2866 0.2874
27705.0 2.93338 0.296(8) 15552. 0.2868 0.2876
27715.0 2.93444 0.286(8) 16049. 0.2870 0.2878
27725.0 2.93550 0.293(8) 15586. 0.2872 0.2880
27735.0 2.93656 0.303(8) 15138. 0.2874 0.2882
27745.0 2.93762 0.298(8) 15327. 0.2876 0.2884
27755.0 2.93868 0.290(8) 15735. 0.2878 0.2886
27765.0 2.93974 0.309(8) 14851. 0.2880 0.2888
27775.0 2.94080 0.299(8) 15306. 0.2882 0.2890
27785.0 2.94186 0.301(8) 15196. 0.2884 0.2892
27795.0 2.94292 0.285(8) 15989. 0.2887 0.2894
27805.0 2.94398 0.298(8) 15286. 0.2889 0.2896
27815.0 2.94504 0.293(8) 15431. 0.2891 0.2898
27825.0 2.94610 0.295(8) 15383. 0.2893 0.2900
27835.0 2.94716 0.309(8) 14680. 0.2895 0.2902
27845.0 2.94822 0.296(8) 15314. 0.2897 0.2904
27855.0 2.94928 0.284(8) 15850. 0.2899 0.2906
27865.0 2.95034 0.299(8) 15058. 0.2901 0.2908
27875.0 2.95140 0.296(8) 15126. 0.2903 0.2910
27885.0 2.95246 0.296(8) 15087. 0.2905 0.2913
27895.0 2.95352 0.285(8) 15522. 0.2907 0.2915
27905.0 2.95458 0.298(8) 14803. 0.2909 0.2917
27915.0 2.95564 0.305(8) 14451. 0.2911 0.2919
27925.0 2.95670 0.317(8) 13867. 0.2913 0.2921
27935.0 2.95776 0.293(8) 14945. 0.2915 0.2923
27945.0 2.95882 0.308(8) 14216. 0.2917 0.2925
27955.0 2.95988 0.303(8) 14347. 0.2919 0.2927
27965.0 2.96094 0.315(9) 13790. 0.2921 0.2929
27975.0 2.96200 0.322(9) 13466. 0.2923 0.2931
27985.0 2.96306 0.307(8) 14094. 0.2925 0.2933
27995.0 2.96412 0.318(9) 13598. 0.2927 0.2935
28005.0 2.96518 0.306(8) 14171. 0.2929 0.2937
28015.0 2.96624 0.298(8) 14555. 0.2931 0.2939
28025.0 2.96730 0.306(8) 14190. 0.2933 0.2941
28035.0 2.96836 0.292(8) 14815. 0.2935 0.2943
28045.0 2.96942 0.298(8) 14551. 0.2937 0.2946
28055.0 2.97048 0.301(8) 14364. 0.2939 0.2948
28065.0 2.97154 0.304(8) 14179. 0.2941 0.2950
28075.0 2.97260 0.298(8) 14435. 0.2943 0.2952
28085.0 2.97366 0.317(9) 13620. 0.2945 0.2954
28095.0 2.97472 0.302(8) 14282. 0.2947 0.2956
28105.0 2.97578 0.316(9) 13690. 0.2949 0.2958
28115.0 2.97684 0.310(8) 13996. 0.2951 0.2960
28125.0 2.97790 0.304(8) 14165. 0.2953 0.2962
28135.0 2.97896 0.314(9) 13693. 0.2955 0.2964
28145.0 2.98002 0.300(8) 14376. 0.2957 0.2966
28155.0 2.98108 0.319(9) 13556. 0.2959 0.2968
28165.0 2.98214 0.314(9) 13705. 0.2961 0.2970
28175.0 2.98320 0.313(9) 13770. 0.2963 0.2972
28185.0 2.98426 0.314(9) 13704. 0.2965 0.2974
28195.0 2.98532 0.309(8) 13932. 0.2967 0.2976
28205.0 2.98638 0.315(9) 13664. 0.2969 0.2978
28215.0 2.98744 0.314(9) 13621. 0.2971 0.2980
28225.0 2.98850 0.315(9) 13562. 0.2973 0.2982
28235.0 2.98956 0.317(9) 13497. 0.2975 0.2984
28245.0 2.99062 0.296(8) 14378. 0.2977 0.2987
28255.0 2.99168 0.306(8) 13883. 0.2979 0.2989
28265.0 2.99274 0.300(8) 14166. 0.2981 0.2991
28275.0 2.99380 0.300(8) 14154. 0.2983 0.2993
28285.0 2.99486 0.312(9) 13625. 0.2985 0.2995
28295.0 2.99592 0.309(9) 13749. 0.2987 0.2997
28305.0 2.99698 0.311(9) 13715. 0.2989 0.2999
28315.0 2.99804 0.311(9) 13726. 0.2991 0.3001
28325.0 2.99910 0.306(8) 13995. 0.2992 0.3003
28335.0 3.00016 0.318(9) 13461. 0.2994 0.3005
28345.0 3.00122 0.312(9) 13734. 0.2996 0.3007
28355.0 3.00228 0.307(8) 13920. 0.2998 0.3009
28365.0 3.00334 0.305(8) 13994. 0.3000 0.3011
28375.0 3.00440 0.283(8) 15133. 0.3002 0.3013
28385.0 3.00546 0.314(9) 13680. 0.3004 0.3015
28395.0 3.00652 0.290(8) 14802. 0.3006 0.3017
28405.0 3.00758 0.309(8) 13896. 0.3007 0.3019
28415.0 3.00864 0.305(8) 14122. 0.3009 0.3021
28425.0 3.00970 0.320(9) 13479. 0.3011 0.3023
28435.0 3.01076 0.307(8) 13925. 0.3013 0.3025
28445.0 3.01182 0.314(9) 13661. 0.3015 0.3027
28455.0 3.01288 0.305(8) 14102. 0.3017 0.3029
28465.0 3.01394 0.304(8) 14100. 0.3018 0.3031
28475.0 3.01500 0.305(8) 14117. 0.3020 0.3033
28485.0 3.01606 0.298(8) 14375. 0.3022 0.3035
28495.0 3.01712 0.299(8) 14266. 0.3024 0.3037
28505.0 3.01818 0.293(8) 14542. 0.3026 0.3039
28515.0 3.01924 0.308(9) 13838. 0.3027 0.3041
28525.0 3.02030 0.296(8) 14417. 0.3029 0.3043
28535.0 3.02136 0.316(9) 13549. 0.3031 0.3045
28545.0 3.02242 0.297(8) 14383. 0.3033 0.3046
28555.0 3.02348 0.282(8) 15164. 0.3034 0.3048
28565.0 3.02454 0.319(9) 13380. 0.3036 0.3050
28575.0 3.02560 0.310(9) 13803. 0.3038 0.3052
28585.0 3.02666 0.317(9) 13485. 0.3040 0.3054
28595.0 3.02772 0.305(8) 13961. 0.3041 0.3056
28605.0 3.02878 0.304(8) 14009. 0.3043 0.3058
28615.0 3.02984 0.308(9) 13793. 0.3045 0.3060
28625.0 3.03091 0.291(8) 14544. 0.3046 0.3062
28635.0 3.03197 0.299(8) 14157. 0.3048 0.3064
28645.0 3.03303 0.310(9) 13673. 0.3050 0.3066
28655.0 3.03409 0.310(9) 13721. 0.3051 0.3068
28665.0 3.03515 0.295(8) 14439. 0.3053 0.3070
28675.0 3.03621 0.301(8) 14127. 0.3055 0.3072
28685.0 3.03727 0.308(9) 13726. 0.3056 0.3074
28695.0 3.03833 0.292(8) 14501. 0.3058 0.3076
28705.0 3.03939 0.317(9) 13386. 0.3059 0.3077
28715.0 3.04045 0.308(9) 13698. 0.3061 0.3079
28725.0 3.04151 0.303(8) 13849. 0.3063 0.3081
28735.0 3.04257 0.309(9) 13534. 0.3064 0.3083
28745.0 3.04363 0.306(9) 13672. 0.3066 0.3085
28755.0 3.04469 0.298(8) 13964. 0.3067 0.3087
28765.0 3.04575 0.304(9) 13668. 0.3069 0.3089
28775.0 3.04681 0.307(9) 13571. 0.3070 0.3091
28785.0 3.04787 0.316(9) 13190. 0.3072 0.3093
28795.0 3.04893 0.310(9) 13440. 0.3073 0.3095
28805.0 3.04999 0.314(9) 13189. 0.3075 0.3097
28815.0 3.05105 0.303(9) 13612. 0.3076 0.3099
28825.0 3.05211 0.318(9) 12941. 0.3078 0.3100
28835.0 3.05317 0.305(9) 13487. 0.3079 0.3102
28845.0 3.05423 0.310(9) 13275. 0.3081 0.3104
28855.0 3.05529 0.327(9) 12585. 0.3082 0.3106
28865.0 3.05635 0.327(9) 12532. 0.3083 0.3108
28875.0 3.05741 0.316(9) 12965. 0.3085 0.3110
28885.0 3.05847 0.324(9) 12574. 0.3086 0.3112
28895.0 3.05953 0.322(9) 12616. 0.3087 0.3114
28905.0 3.06059 0.295(9) 13673. 0.3089 0.3116
28915.0 3.06165 0.317(9) 12812. 0.3090 0.3118
28925.0 3.06271 0.319(9) 12771. 0.3091 0.3120
28935.0 3.06377 0.311(9) 13079. 0.3093 0.3122
28945.0 3.06483 0.309(9) 13175. 0.3094 0.3124
28955.0 3.06589 0.311(9) 13130. 0.3095 0.3126
28965.0 3.06695 0.316(9) 12869. 0.3096 0.3128
28975.0 3.06801 0.317(9) 12899. 0.3098 0.3130
28985.0 3.06907 0.315(9) 13053. 0.3099 0.3132
28995.0 3.07013 0.327(9) 12538. 0.3100 0.3135
29005.0 3.07119 0.324(9) 12632. 0.3101 0.3137
29015.0 3.07225 0.326(9) 12499. 0.3103 0.3139
29025.0 3.07331 0.305(9) 13303. 0.3104 0.3141
29035.0 3.07437 0.309(9) 13175. 0.3105 0.3143
29045.0 3.07543 0.306(9) 13298. 0.3106 0.3146
29055.0 3.07649 0.316(9) 12824. 0.3107 0.3148
29065.0 3.07755 0.327(9) 12400. 0.3108 0.3151
29075.0 3.07861 0.314(9) 12834. 0.3109 0.3153
29085.0 3.07967 0.318(9) 12698. 0.3110 0.3156
29095.0 3.08073 0.300(9) 13422. 0.3111 0.3158
29105.0 3.08179 0.307(9) 13077. 0.3112 0.3161
29115.0 3.08285 0.319(9) 12573. 0.3113 0.3164
29125.0 3.08391 0.318(9) 12672. 0.3114 0.3167
29135.0 3.08497 0.318(9) 12686. 0.3115 0.3170
29145.0 3.08603 0.322(9) 12522. 0.3116 0.3174
29155.0 3.08709 0.325(9) 12464. 0.3117 0.3177
29165.0 3.08815 0.292(9) 13833. 0.3118 0.3181
29175.0 3.08921 0.311(9) 13021. 0.3119 0.3186
29185.0 3.09027 0.325(9) 12531. 0.3120 0.3190
29195.0 3.09133 0.316(9) 12877. 0.3121 0.3195
29205.0 3.09239 0.316(9) 12847. 0.3122 0.3200
29215.0 3.09345 0.315(9) 12883. 0.3122 0.3207
29225.0 3.09451 0.309(9) 13109. 0.3123 0.3213
29235.0 3.09557 0.328(9) 12309. 0.3124 0.3221
29245.0 3.09663 0.321(9) 12610. 0.3125 0.3230
29255.0 3.09769 0.310(9) 13011. 0.3125 0.3239
29265.0 3.09875 0.322(9) 12446. 0.3126 0.3250
29275.0 3.09981 0.316(9) 12705. 0.3127 0.3262
29285.0 3.10087 0.321(9) 12530. 0.3128 0.3276
29295.0 3.10193 0.323(9) 12440. 0.3128 0.3291
29305.0 3.10299 0.316(9) 12687. 0.3129 0.3308
29315.0 3.10405 0.332(9) 12123. 0.3129 0.3326
29325.0 3.10511 0.336(9) 11900. 0.3130 0.3347
29335.0 3.10617 0.323(9) 12348. 0.3131 0.3371
29345.0 3.10723 0.346(9) 11539. 0.3131 0.3397
29355.0 3.10829 0.345(9) 11633. 0.3132 0.3425
29365.0 3.10935 0.338(9) 11926. 0.3132 0.3457
29375.0 3.11041 0.339(9) 11806. 0.3133 0.3491
29385.0 3.11148 0.342(9) 11720. 0.3133 0.3529
29395.0 3.11254 0.360(9) 11144. 0.3134 0.3570
29405.0 3.11360 0.333(9) 11978. 0.3134 0.3615
29415.0 3.11466 0.344(9) 11588. 0.3134 0.3663
29425.0 3.11572 0.365(10) 10968. 0.3135 0.3715
29435.0 3.11678 0.365(10) 10947. 0.3135 0.3771
29445.0 3.11784 0.358(9) 11258. 0.3135 0.3830
29455.0 3.11890 0.384(10) 10513. 0.3136 0.3892
29465.0 3.11996 0.364(10) 11051. 0.3136 0.3958
29475.0 3.12102 0.378(10) 10642. 0.3136 0.4027
29485.0 3.12208 0.384(10) 10467. 0.3136 0.4099
29495.0 3.12314 0.405(10) 9924. 0.3137 0.4174
29505.0 3.12420 0.414(10) 9697. 0.3137 0.4251
29515.0 3.12526 0.411(10) 9820. 0.3137 0.4329
29525.0 3.12632 0.419(10) 9632. 0.3137 0.4409
29535.0 3.12738 0.438(10) 9234. 0.3137 0.4489
29545.0 3.12844 0.439(10) 9190. 0.3137 0.4570
29555.0 3.12950 0.452(11) 8880. 0.3137 0.4650
29565.0 3.13056 0.446(11) 8985. 0.3137 0.4728
29575.0 3.13162 0.479(11) 8391. 0.3137 0.4804
29585.0 3.13268 0.440(11) 9049. 0.3137 0.4876
29595.0 3.13374 0.468(11) 8501. 0.3137 0.4945
29605.0 3.13480 0.480(11) 8289. 0.3137 0.5008
29615.0 3.13586 0.483(11) 8239. 0.3137 0.5066
29625.0 3.13692 0.482(11) 8244. 0.3137 0.5117
29635.0 3.13798 0.498(11) 7967. 0.3137 0.5160
29645.0 3.13904 0.486(11) 8170. 0.3137 0.5195
29655.0 3.14010 0.512(11) 7711. 0.3137 0.5221
29665.0 3.14116 0.502(11) 7848. 0.3136 0.5238
29675.0 3.14222 0.505(11) 7758. 0.3136 0.5246
29685.0 3.14328 0.506(11) 7721. 0.3136 0.5244
29695.0 3.14434 0.503(11) 7771. 0.3136 0.5233
29705.0 3.14540 0.505(11) 7693. 0.3135 0.5212
29715.0 3.14646 0.472(11) 8226. 0.3135 0.5183
29725.0 3.14752 0.471(11) 8254. 0.3134 0.5145
29735.0 3.14858 0.477(11) 8112. 0.3134 0.5100
29745.0 3.14964 0.479(11) 8058. 0.3134 0.5048
29755.0 3.15070 0.460(11) 8360. 0.3133 0.4990
29765.0 3.15176 0.469(11) 8150. 0.3133 0.4926
29775.0 3.15282 0.453(11) 8408. 0.3132 0.4858
29785.0 3.15388 0.451(11) 8411. 0.3132 0.4786
29795.0 3.15494 0.436(11) 8719. 0.3131 0.4712
29805.0 3.15600 0.448(11) 8477. 0.3130 0.4635
29815.0 3.15706 0.440(11) 8618. 0.3130 0.4557
29825.0 3.15812 0.436(11) 8657. 0.3129 0.4478
29835.0 3.15918 0.417(11) 9000. 0.3128 0.4400
29845.0 3.16024 0.418(11) 8978. 0.3128 0.4322
29855.0 3.16130 0.398(10) 9390. 0.3127 0.4245
29865.0 3.16236 0.387(10) 9647. 0.3126 0.4170
29875.0 3.16342 0.408(10) 9143. 0.3125 0.4097
29885.0 3.16448 0.394(10) 9396. 0.3125 0.4026
29895.0 3.16554 0.395(10) 9282. 0.3124 0.3958
29905.0 3.16660 0.390(10) 9400. 0.3123 0.3893
29915.0 3.16766 0.364(10) 10057. 0.3122 0.3831
29925.0 3.16873 0.375(10) 9714. 0.3121 0.3773
29935.0 3.16979 0.368(10) 9826. 0.3120 0.3718
29945.0 3.17085 0.356(10) 10156. 0.3119 0.3666
29955.0 3.17191 0.373(10) 9697. 0.3118 0.3618
29965.0 3.17297 0.362(10) 9951. 0.3117 0.3573
29975.0 3.17403 0.345(10) 10422. 0.3116 0.3531
29985.0 3.17509 0.344(10) 10400. 0.3115 0.3492
29995.0 3.17615 0.352(10) 10166. 0.3113 0.3457
30005.0 3.17721 0.345(10) 10303. 0.3112 0.3424
30015.0 3.17827 0.343(10) 10329. 0.3111 0.3395
30025.0 3.17933 0.354(10) 9996. 0.3110 0.3368
30035.0 3.18039 0.346(10) 10186. 0.3109 0.3343
30045.0 3.18145 0.339(10) 10295. 0.3107 0.3320
30055.0 3.18251 0.335(10) 10392. 0.3106 0.3300
30065.0 3.18357 0.342(10) 10138. 0.3104 0.3282
30075.0 3.18463 0.342(10) 10124. 0.3103 0.3265
30085.0 3.18569 0.337(10) 10248. 0.3102 0.3250
30095.0 3.18675 0.346(10) 9959. 0.3100 0.3236
30105.0 3.18781 0.348(10) 9869. 0.3099 0.3224
30115.0 3.18887 0.335(10) 10286. 0.3097 0.3212
30125.0 3.18993 0.322(10) 10627. 0.3096 0.3202
30135.0 3.19099 0.324(10) 10532. 0.3094 0.3193
30145.0 3.19205 0.329(10) 10324. 0.3092 0.3184
30155.0 3.19311 0.359(10) 9462. 0.3091 0.3177
30165.0 3.19417 0.336(10) 10082. 0.3089 0.3169
30175.0 3.19523 0.346(10) 9786. 0.3087 0.3163
30185.0 3.19629 0.347(10) 9739. 0.3086 0.3157
30195.0 3.19735 0.322(10) 10467. 0.3084 0.3151
30205.0 3.19841 0.332(10) 10138. 0.3082 0.3146
30215.0 3.19947 0.351(10) 9595. 0.3080 0.3141
30225.0 3.20053 0.339(10) 9906. 0.3079 0.3136
30235.0 3.20159 0.326(10) 10292. 0.3077 0.3132
30245.0 3.20265 0.339(10) 9899. 0.3075 0.3127
30255.0 3.20371 0.321(10) 10391. 0.3073 0.3123
30265.0 3.20477 0.321(10) 10419. 0.3071 0.3119
30275.0 3.20583 0.334(10) 10013. 0.3069 0.3115
30285.0 3.20689 0.319(10) 10453. 0.3067 0.3112
30295.0 3.20795 0.326(10) 10223. 0.3065 0.3108
30305.0 3.20901 0.328(10) 10111. 0.3063 0.3104
30315.0 3.21007 0.335(10) 9891. 0.3061 0.3101
30325.0 3.21113 0.318(10) 10443. 0.3058 0.3097
30335.0 3.21219 0.310(10) 10697. 0.3056 0.3094
30345.0 3.21325 0.336(10) 9897. 0.3054 0.3091
30355.0 3.21431 0.338(10) 9823. 0.3052 0.3087
30365.0 3.21537 0.330(10) 10079. 0.3050 0.3084
30375.0 3.21643 0.308(10) 10760. 0.3047 0.3081
30385.0 3.21749 0.332(10) 9984. 0.3045 0.3077
30395.0 3.21856 0.318(10) 10411. 0.3043 0.3074
30405.0 3.21962 0.320(10) 10335. 0.3040 0.3071
30415.0 3.22068 0.331(10) 9962. 0.3038 0.3068
30425.0 3.22174 0.323(10) 10124. 0.3035 0.3065
30435.0 3.22280 0.330(10) 9925. 0.3033 0.3061
30445.0 3.22386 0.320(10) 10194. 0.3030 0.3058
30455.0 3.22492 0.336(10) 9729. 0.3028 0.3055
30465.0 3.22598 0.316(10) 10367. 0.3025 0.3052
30475.0 3.22704 0.306(10) 10706. 0.3023 0.3048
30485.0 3.22810 0.316(10) 10406. 0.3020 0.3045
30495.0 3.22916 0.305(10) 10752. 0.3018 0.3042
30505.0 3.23022 0.322(10) 10231. 0.3015 0.3039
30515.0 3.23128 0.307(10) 10704. 0.3012 0.3036
30525.0 3.23234 0.304(10) 10823. 0.3009 0.3032
30535.0 3.23340 0.318(10) 10347. 0.3007 0.3029
30545.0 3.23446 0.302(10) 10790. 0.3004 0.3026
30555.0 3.23552 0.291(9) 11250. 0.3001 0.3023
30565.0 3.23658 0.301(10) 10877. 0.2998 0.3019
30575.0 3.23764 0.310(10) 10591. 0.2996 0.3016
30585.0 3.23870 0.314(10) 10423. 0.2993 0.3013
30595.0 3.23976 0.303(10) 10835. 0.2990 0.3009
30605.0 3.24082 0.306(10) 10733. 0.2987 0.3006
30615.0 3.24188 0.302(10) 10833. 0.2984 0.3003
30625.0 3.24294 0.317(10) 10359. 0.2981 0.2999
30635.0 3.24400 0.307(10) 10700. 0.2978 0.2996
30645.0 3.24506 0.299(10) 11009. 0.2975 0.2993
30655.0 3.24612 0.320(10) 10285. 0.2972 0.2989
30665.0 3.24718 0.299(10) 10995. 0.2969 0.2986
30675.0 3.24824 0.290(9) 11271. 0.2966 0.2982
30685.0 3.24930 0.310(10) 10584. 0.2963 0.2979
30695.0 3.25036 0.312(10) 10525. 0.2959 0.2975
30705.0 3.25142 0.288(9) 11396. 0.2956 0.2972
30715.0 3.25248 0.296(9) 11104. 0.2953 0.2969
30725.0 3.25354 0.296(9) 11133. 0.2950 0.2965
30735.0 3.25460 0.294(9) 11234. 0.2947 0.2962
30745.0 3.25566 0.291(9) 11307. 0.2943 0.2958
30755.0 3.25672 0.301(10) 10949. 0.2940 0.2955
30765.0 3.25778 0.288(9) 11427. 0.2937 0.2951
30775.0 3.25884 0.299(10) 11013. 0.2934 0.2947
30785.0 3.25990 0.303(10) 10867. 0.2930 0.2944
30795.0 3.26097 0.305(10) 10854. 0.2927 0.2941
30805.0 3.26203 0.302(10) 10873. 0.2924 0.2937
30815.0 3.26309 0.292(9) 11273. 0.2920 0.2933
30825.0 3.26415 0.285(9) 11574. 0.2917 0.2930
30835.0 3.26521 0.293(9) 11282. 0.2913 0.2926
30845.0 3.26627 0.296(9) 11144. 0.2910 0.2922
30855.0 3.26733 0.287(9) 11487. 0.2907 0.2919
30865.0 3.26839 0.281(9) 11722. 0.2903 0.2915
30875.0 3.26945 0.285(9) 11509. 0.2900 0.2912
30885.0 3.27051 0.295(9) 11177. 0.2896 0.2908
30895.0 3.27157 0.289(9) 11428. 0.2893 0.2904
30905.0 3.27263 0.277(9) 11963. 0.2889 0.2900
30915.0 3.27369 0.286(9) 11615. 0.2886 0.2897
30925.0 3.27475 0.276(9) 12034. 0.2882 0.2893
30935.0 3.27581 0.291(9) 11473. 0.2878 0.2889
30945.0 3.27687 0.286(9) 11661. 0.2875 0.2886
30955.0 3.27793 0.265(9) 12562. 0.2871 0.2882
30965.0 3.27899 0.287(9) 11660. 0.2868 0.2878
30975.0 3.28005 0.275(9) 12103. 0.2864 0.2874
30985.0 3.28111 0.275(9) 12111. 0.2861 0.2871
30995.0 3.28217 0.276(9) 12020. 0.2857 0.2867
31005.0 3.28323 0.277(9) 11979. 0.2853 0.2863
31015.0 3.28429 0.285(9) 11651. 0.2850 0.2859
31025.0 3.28535 0.270(9) 12200. 0.2846 0.2856
31035.0 3.28641 0.278(9) 11821. 0.2842 0.2852
31045.0 3.28747 0.277(9) 11845. 0.2839 0.2848
31055.0 3.28853 0.263(9) 12443. 0.2835 0.2844
31065.0 3.28959 0.273(9) 11977. 0.2831 0.2840
31075.0 3.29065 0.288(9) 11309. 0.2828 0.2837
31085.0 3.29171 0.273(9) 11907. 0.2824 0.2833
31095.0 3.29277 0.273(9) 11884. 0.2820 0.2829
31105.0 3.29383 0.304(10) 10673. 0.2817 0.2825
31115.0 3.29489 0.291(9) 11123. 0.2813 0.2821
31125.0 3.29595 0.274(9) 11823. 0.2809 0.2818
31135.0 3.29701 0.281(9) 11516. 0.2806 0.2814
31145.0 3.29807 0.272(9) 11856. 0.2802 0.2810
31155.0 3.29914 0.272(9) 11906. 0.2798 0.2807
31165.0 3.30020 0.283(9) 11363. 0.2795 0.2803
31175.0 3.30126 0.269(9) 11911. 0.2791 0.2799
31185.0 3.30232 0.275(9) 11682. 0.2787 0.2796
31195.0 3.30338 0.284(9) 11268. 0.2784 0.2792
31205.0 3.30444 0.283(9) 11220. 0.2780 0.2788
31215.0 3.30550 0.273(9) 11627. 0.2776 0.2784
31225.0 3.30656 0.268(9) 11796. 0.2773 0.2781
31235.0 3.30762 0.262(9) 12027. 0.2769 0.2777
31245.0 3.30868 0.286(10) 11016. 0.2766 0.2773
31255.0 3.30974 0.291(10) 10767. 0.2762 0.2770
31265.0 3.31080 0.288(10) 10833. 0.2758 0.2766
31275.0 3.31186 0.269(9) 11602. 0.2755 0.2762
31285.0 3.31292 0.269(9) 11534. 0.2751 0.2759
31295.0 3.31398 0.272(9) 11399. 0.2748 0.2755
31305.0 3.31504 0.283(10) 10889. 0.2744 0.2751
31315.0 3.31610 0.274(9) 11210. 0.2741 0.2748
31325.0 3.31716 0.271(9) 11368. 0.2737 0.2744
31335.0 3.31822 0.277(9) 11114. 0.2734 0.2741
31345.0 3.31928 0.279(10) 11012. 0.2730 0.2737
31355.0 3.32034 0.281(10) 10978. 0.2727 0.2734
31365.0 3.32140 0.293(10) 10517. 0.2723 0.2730
31375.0 3.32246 0.268(9) 11525. 0.2720 0.2727
31385.0 3.32352 0.255(9) 12052. 0.2717 0.2723
31395.0 3.32458 0.277(9) 11149. 0.2713 0.2720
31405.0 3.32564 0.269(9) 11480. 0.2710 0.2717
31415.0 3.32670 0.270(9) 11434. 0.2707 0.2713
31425.0 3.32776 0.282(10) 10951. 0.2703 0.2710
31435.0 3.32882 0.262(9) 11792. 0.2700 0.2707
31445.0 3.32988 0.267(9) 11530. 0.2697 0.2703
31455.0 3.33094 0.271(9) 11405. 0.2694 0.2700
31465.0 3.33200 0.271(9) 11391. 0.2691 0.2697
31475.0 3.33306 0.258(9) 11960. 0.2688 0.2694
31485.0 3.33413 0.283(10) 10931. 0.2685 0.2691
31495.0 3.33519 0.261(9) 11780. 0.2682 0.2688
31505.0 3.33625 0.274(9) 11223. 0.2679 0.2685
31515.0 3.33731 0.274(9) 11179. 0.2676 0.2682
31525.0 3.33837 0.252(9) 12074. 0.2673 0.2679
31535.0 3.33943 0.264(9) 11567. 0.2670 0.2676
31545.0 3.34049 0.257(9) 11853. 0.2667 0.2673
31555.0 3.34155 0.259(9) 11764. 0.2664 0.2670
31565.0 3.34261 0.275(10) 11029. 0.2662 0.2668
31575.0 3.34367 0.252(9) 11928. 0.2659 0.2665
31585.0 3.34473 0.285(10) 10534. 0.2656 0.2662
31595.0 3.34579 0.240(9) 12396. 0.2654 0.2660
31605.0 3.34685 0.274(10) 10866. 0.2651 0.2657
31615.0 3.34791 0.264(9) 11218. 0.2649 0.2655
31625.0 3.34897 0.259(9) 11396. 0.2647 0.2652
31635.0 3.35003 0.265(9) 11133. 0.2644 0.2650
31645.0 3.35109 0.268(10) 11041. 0.2642 0.2648
31655.0 3.35215 0.256(9) 11610. 0.2640 0.2645
31665.0 3.35321 0.257(9) 11533. 0.2638 0.2643
31675.0 3.35427 0.272(10) 10918. 0.2636 0.2641
31685.0 3.35533 0.265(9) 11146. 0.2634 0.2639
31695.0 3.35639 0.248(9) 11895. 0.2632 0.2637
31705.0 3.35745 0.277(10) 10656. 0.2630 0.2635
31715.0 3.35851 0.268(10) 10925. 0.2628 0.2633
31725.0 3.35957 0.272(10) 10759. 0.2626 0.2631
31735.0 3.36063 0.262(9) 11099. 0.2625 0.2630
31745.0 3.36169 0.254(9) 11457. 0.2623 0.2628
31755.0 3.36275 0.280(10) 10398. 0.2621 0.2627
31765.0 3.36381 0.280(10) 10364. 0.2620 0.2625
31775.0 3.36487 0.265(10) 10958. 0.2619 0.2624
31785.0 3.36594 0.271(10) 10700. 0.2617 0.2623
31795.0 3.36700 0.270(10) 10689. 0.2616 0.2621
31805.0 3.36806 0.262(10) 10938. 0.2615 0.2620
31815.0 3.36912 0.266(10) 10794. 0.2614 0.2619
31825.0 3.37018 0.255(9) 11180. 0.2613 0.2618
31835.0 3.37124 0.271(10) 10538. 0.2613 0.2618
31845.0 3.37230 0.278(10) 10257. 0.2612 0.2617
31855.0 3.37336 0.269(10) 10594. 0.2611 0.2616
31865.0 3.37442 0.254(9) 11179. 0.2611 0.2616
31875.0 3.37548 0.266(10) 10666. 0.2610 0.2615
31885.0 3.37654 0.269(10) 10523. 0.2610 0.2615
31895.0 3.37760 0.246(9) 11391. 0.2610 0.2615
31905.0 3.37866 0.270(10) 10473. 0.2610 0.2615
31915.0 3.37972 0.280(10) 10101. 0.2610 0.2615
31925.0 3.38078 0.273(10) 10338. 0.2610 0.2615
31935.0 3.38184 0.258(10) 10873. 0.2610 0.2615
31945.0 3.38290 0.248(9) 11271. 0.2611 0.2616
31955.0 3.38396 0.248(9) 11197. 0.2611 0.2616
31965.0 3.38502 0.276(10) 10100. 0.2612 0.2617
31975.0 3.38608 0.257(10) 10817. 0.2613 0.2617
31985.0 3.38714 0.275(10) 10165. 0.2614 0.2618
31995.0 3.38820 0.253(10) 10970. 0.2615 0.2619
32005.0 3.38926 0.267(10) 10384. 0.2616 0.2620
32015.0 3.39032 0.262(10) 10564. 0.2617 0.2622
32025.0 3.39138 0.270(10) 10205. 0.2618 0.2623
32035.0 3.39244 0.267(10) 10381. 0.2620 0.2625
32045.0 3.39350 0.260(10) 10678. 0.2622 0.2626
32055.0 3.39456 0.265(10) 10421. 0.2624 0.2628
32065.0 3.39562 0.255(10) 10816. 0.2626 0.2630
32075.0 3.39669 0.248(10) 11049. 0.2628 0.2632
32085.0 3.39775 0.249(10) 11004. 0.2630 0.2635
32095.0 3.39881 0.265(10) 10320. 0.2632 0.2637
32105.0 . 0.263(10) . . .
32115.0 . 0.267(10) . . .
32125.0 . 0.259(10) . . .
32135.0 . 0.271(10) . . .
32145.0 . 0.258(10) . . .
32155.0 . 0.244(9) . . .
32165.0 . 0.253(10) . . .
32175.0 . 0.278(10) . . .
32185.0 . 0.258(10) . . .
32195.0 . 0.273(10) . . .
32205.0 . 0.261(10) . . .
32215.0 . 0.267(10) . . .
32225.0 . 0.256(10) . . .
32235.0 . 0.262(10) . . .
32245.0 . 0.260(10) . . .
32255.0 . 0.257(10) . . .
32265.0 . 0.263(10) . . .
32275.0 . 0.260(10) . . .
32285.0 . 0.248(10) . . .
32295.0 . 0.252(10) . . .
32305.0 . 0.250(10) . . .
32315.0 . 0.259(10) . . .
32325.0 . 0.243(10) . . .
32335.0 . 0.232(9) . . .
32345.0 . 0.255(10) . . .
32355.0 . 0.245(10) . . .
32365.0 . 0.268(10) . . .
32375.0 . 0.243(10) . . .
32385.0 . 0.241(10) . . .
32395.0 . 0.254(10) . . .
32405.0 . 0.257(10) . . .
32415.0 . 0.241(10) . . .
32425.0 . 0.240(10) . . .
32435.0 . 0.257(10) . . .
32445.0 . 0.242(10) . . .
32455.0 . 0.265(10) . . .
32465.0 . 0.249(10) . . .
32475.0 . 0.253(10) . . .
32485.0 . 0.235(9) . . .
32495.0 . 0.240(10) . . .
32505.0 . 0.242(10) . . .
32515.0 . 0.248(10) . . .
32525.0 . 0.257(10) . . .
32535.0 . 0.248(10) . . .
32545.0 . 0.235(9) . . .
32555.0 . 0.223(9) . . .
32565.0 . 0.247(10) . . .
32575.0 . 0.243(10) . . .
32585.0 . 0.242(10) . . .
32595.0 . 0.254(10) . . .
32605.0 . 0.240(10) . . .
32615.0 . 0.236(10) . . .
32625.0 . 0.252(10) . . .
32635.0 . 0.236(10) . . .
32645.0 . 0.253(10) . . .
32655.0 . 0.247(10) . . .
32665.0 . 0.249(10) . . .
32675.0 . 0.233(10) . . .
32685.0 . 0.246(10) . . .
32695.0 . 0.230(10) . . .
32705.0 . 0.270(10) . . .
32715.0 . 0.261(10) . . .
32725.0 . 0.241(10) . . .
32735.0 . 0.226(10) . . .
32745.0 . 0.253(10) . . .
32755.0 . 0.238(10) . . .
32765.0 . 0.254(10) . . .
32775.0 . 0.253(10) . . .
32785.0 . 0.242(10) . . .
32795.0 . 0.249(10) . . .
32805.0 . 0.231(10) . . .
32815.0 . 0.254(10) . . .
32825.0 . 0.251(10) . . .
32835.0 . 0.240(10) . . .
32845.0 . 0.252(10) . . .
32855.0 . 0.256(10) . . .
32865.0 . 0.231(10) . . .
32875.0 . 0.219(10) . . .
32885.0 . 0.264(10) . . .
32895.0 . 0.255(10) . . .
32905.0 . 0.223(10) . . .
32915.0 . 0.232(10) . . .
32925.0 . 0.262(10) . . .
32935.0 . 0.243(10) . . .
32945.0 . 0.250(10) . . .
32955.0 . 0.245(10) . . .
32965.0 . 0.237(10) . . .
32975.0 . 0.240(10) . . .
32985.0 . 0.237(10) . . .
32995.0 . 0.231(10) . . .
33005.0 . 0.220(10) . . .
33015.0 . 0.233(10) . . .
33025.0 . 0.247(10) . . .
33035.0 . 0.244(10) . . .
33045.0 . 0.247(10) . . .
33055.0 . 0.254(10) . . .
33065.0 . 0.271(11) . . .
33075.0 . 0.247(10) . . .
33085.0 . 0.249(10) . . .
33095.0 . 0.243(10) . . .
33105.0 . 0.233(10) . . .
33115.0 . 0.249(10) . . .
33125.0 . 0.241(10) . . .
33135.0 . 0.243(10) . . .
33145.0 . 0.226(10) . . .
33155.0 . 0.234(10) . . .
33165.0 . 0.236(10) . . .
33175.0 . 0.232(10) . . .
33185.0 . 0.218(10) . . .
33195.0 . 0.231(10) . . .
33205.0 . 0.226(10) . . .
33215.0 . 0.246(10) . . .
33225.0 . 0.239(10) . . .
33235.0 . 0.253(10) . . .
33245.0 . 0.251(10) . . .
33255.0 . 0.224(10) . . .
33265.0 . 0.231(10) . . .
33275.0 . 0.230(10) . . .
33285.0 . 0.239(10) . . .
33295.0 . 0.235(10) . . .
33305.0 . 0.231(10) . . .
33315.0 . 0.214(10) . . .
33325.0 . 0.224(10) . . .
33335.0 . 0.232(10) . . .
33345.0 . 0.233(10) . . .
33355.0 . 0.235(10) . . .
33365.0 . 0.229(10) . . .
33375.0 . 0.222(10) . . .
33385.0 . 0.218(10) . . .
33395.0 . 0.229(10) . . .
33405.0 . 0.233(10) . . .
33415.0 . 0.225(10) . . .
33425.0 . 0.235(10) . . .
33435.0 . 0.233(10) . . .
33445.0 . 0.225(10) . . .
33455.0 . 0.232(10) . . .
33465.0 . 0.210(10) . . .
33475.0 . 0.200(9) . . .
33485.0 . 0.242(10) . . .
33495.0 . 0.219(10) . . .
33505.0 . 0.234(10) . . .
33515.0 . 0.227(10) . . .
33525.0 . 0.233(10) . . .
33535.0 . 0.239(10) . . .
33545.0 . 0.217(10) . . .
33555.0 . 0.221(10) . . .
33565.0 . 0.212(10) . . .
33575.0 . 0.208(10) . . .
33585.0 . 0.214(10) . . .
33595.0 . 0.246(10) . . .
33605.0 . 0.228(10) . . .
33615.0 . 0.213(10) . . .
33625.0 . 0.217(10) . . .
33635.0 . 0.222(10) . . .
33645.0 . 0.230(10) . . .
33655.0 . 0.216(10) . . .
33665.0 . 0.230(10) . . .
33675.0 . 0.205(10) . . .
33685.0 . 0.220(10) . . .
33695.0 . 0.226(10) . . .
33705.0 . 0.226(10) . . .
33715.0 . 0.216(10) . . .
33725.0 . 0.230(10) . . .
33735.0 . 0.222(10) . . .
33745.0 . 0.222(10) . . .
33755.0 . 0.224(10) . . .
33765.0 . 0.231(10) . . .
33775.0 . 0.243(11) . . .
33785.0 . 0.228(10) . . .
33795.0 . 0.233(10) . . .
33805.0 . 0.240(11) . . .
33815.0 . 0.233(10) . . .
33825.0 . 0.233(11) . . .
33835.0 . 0.232(11) . . .
33845.0 . 0.231(10) . . .
33855.0 . 0.221(10) . . .
33865.0 . 0.238(11) . . .
33875.0 . 0.233(11) . . .
33885.0 . 0.256(11) . . .
33895.0 . 0.241(11) . . .
33905.0 . 0.223(10) . . .
33915.0 . 0.238(11) . . .
33925.0 . 0.230(11) . . .
33935.0 . 0.223(10) . . .
33945.0 . 0.233(11) . . .
33955.0 . 0.237(11) . . .
33965.0 . 0.233(11) . . .
33975.0 . 0.226(10) . . .
33985.0 . 0.239(11) . . .
33995.0 . 0.224(10) . . .
34005.0 . 0.231(11) . . .
34015.0 . 0.240(11) . . .
34025.0 . 0.229(11) . . .
34035.0 . 0.222(10) . . .
34045.0 . 0.243(11) . . .
34055.0 . 0.230(11) . . .
34065.0 . 0.244(11) . . .
34075.0 . 0.251(11) . . .
34085.0 . 0.234(11) . . .
34095.0 . 0.247(11) . . .
34105.0 . 0.242(11) . . .
34115.0 . 0.245(11) . . .
34125.0 . 0.236(11) . . .
34135.0 . 0.252(11) . . .
34145.0 . 0.233(11) . . .
34155.0 . 0.253(11) . . .
34165.0 . 0.223(11) . . .
34175.0 . 0.263(11) . . .
34185.0 . 0.256(11) . . .
34195.0 . 0.253(11) . . .
34205.0 . 0.247(11) . . .
34215.0 . 0.267(12) . . .
34225.0 . 0.259(11) . . .
34235.0 . 0.253(11) . . .
34245.0 . 0.257(11) . . .
34255.0 . 0.263(12) . . .
34265.0 . 0.255(11) . . .
34275.0 . 0.264(12) . . .
34285.0 . 0.236(11) . . .
34295.0 . 0.255(11) . . .
34305.0 . 0.259(11) . . .
34315.0 . 0.257(11) . . .
34325.0 . 0.255(11) . . .
34335.0 . 0.240(11) . . .
34345.0 . 0.230(11) . . .
34355.0 . 0.248(11) . . .
34365.0 . 0.242(11) . . .
34375.0 . 0.240(11) . . .
34385.0 . 0.248(11) . . .
34395.0 . 0.247(11) . . .
34405.0 . 0.247(11) . . .
34415.0 . 0.245(11) . . .
34425.0 . 0.254(11) . . .
34435.0 . 0.266(12) . . .
34445.0 . 0.219(11) . . .
34455.0 . 0.259(12) . . .
34465.0 . 0.246(11) . . .
34475.0 . 0.259(12) . . .
34485.0 . 0.260(12) . . .
34495.0 . 0.252(11) . . .
34505.0 . 0.264(12) . . .
34515.0 . 0.244(11) . . .
34525.0 . 0.256(12) . . .
34535.0 . 0.242(11) . . .
34545.0 . 0.271(12) . . .
34555.0 . 0.266(12) . . .
34565.0 . 0.259(12) . . .
34575.0 . 0.263(12) . . .
34585.0 . 0.255(12) . . .
34595.0 . 0.266(12) . . .
34605.0 . 0.259(12) . . .
34615.0 . 0.269(12) . . .
34625.0 . 0.265(12) . . .
34635.0 . 0.268(12) . . .
34645.0 . 0.293(13) . . .
34655.0 . 0.270(12) . . .
34665.0 . 0.283(12) . . .
34675.0 . 0.303(13) . . .
34685.0 . 0.291(13) . . .
34695.0 . 0.282(13) . . .
34705.0 . 0.289(13) . . .
34715.0 . 0.276(12) . . .
34725.0 . 0.271(12) . . .
34735.0 . 0.296(13) . . .
34745.0 . 0.252(12) . . .
34755.0 . 0.285(13) . . .
34765.0 . 0.295(13) . . .
34775.0 . 0.280(13) . . .
34785.0 . 0.297(13) . . .
34795.0 . 0.280(13) . . .
34805.0 . 0.290(13) . . .
34815.0 . 0.278(13) . . .
34825.0 . 0.300(13) . . .
34835.0 . 0.286(13) . . .
34845.0 . 0.270(13) . . .
34855.0 . 0.251(12) . . .
34865.0 . 0.274(13) . . .
34875.0 . 0.287(13) . . .
34885.0 . 0.287(13) . . .
34895.0 . 0.269(13) . . .
34905.0 . 0.290(13) . . .
34915.0 . 0.265(13) . . .
34925.0 . 0.281(13) . . .
34935.0 . 0.277(13) . . .
34945.0 . 0.262(12) . . .
34955.0 . 0.266(13) . . .
34965.0 . 0.243(12) . . .
34975.0 . 0.246(12) . . .
34985.0 . 0.267(13) . . .
34995.0 . 0.237(12) . . .
35005.0 . 0.242(12) . . .
35015.0 . 0.240(12) . . .
35025.0 . 0.227(12) . . .
35035.0 . 0.235(12) . . .
35045.0 . 0.255(12) . . .
35055.0 . 0.239(12) . . .
35065.0 . 0.235(12) . . .
35075.0 . 0.203(11) . . .
35085. . 0.234(12) . . .
35095. . 0.229(12) . . .
35105. . 0.227(11) . . .
35115. . 0.246(12) . . .
35125. . 0.215(11) . . .
35135. . 0.201(11) . . .
35145. . 0.228(12) . . .
35155. . 0.200(11) . . .
35165. . 0.208(11) . . .
35175. . 0.205(11) . . .
35185. . 0.226(12) . . .
35195. . 0.207(11) . . .
35205. . 0.217(11) . . .
35215. . 0.223(11) . . .
35225. . 0.204(11) . . .
35235. . 0.227(12) . . .
35245. . 0.208(11) . . .
35255. . 0.211(11) . . .
35265. . 0.195(11) . . .
35275. . 0.213(11) . . .
35285. . 0.200(11) . . .
35295. . 0.217(11) . . .
35305. . 0.204(11) . . .
35315. . 0.189(11) . . .
35325. . 0.193(11) . . .
35335. . 0.200(11) . . .
35345. . 0.191(11) . . .
35355. . 0.204(11) . . .
35365. . 0.201(11) . . .
35375. . 0.202(11) . . .
35385. . 0.225(11) . . .
35395. . 0.207(11) . . .
35405. . 0.207(11) . . .
35415. . 0.200(11) . . .
35425. . 0.186(10) . . .
35435. . 0.193(11) . . .
35445. . 0.205(11) . . .
35455. . 0.197(11) . . .
35465. . 0.204(11) . . .
35475. . 0.197(11) . . .
35485. . 0.183(10) . . .
35495. . 0.207(11) . . .
35505. . 0.205(11) . . .
35515. . 0.183(11) . . .
35525. . 0.219(12) . . .
35535. . 0.191(11) . . .
35545. . 0.175(10) . . .
35555. . 0.189(11) . . .
35565. . 0.211(11) . . .
35575. . 0.186(11) . . .
35585. . 0.200(11) . . .
35595. . 0.212(11) . . .
35605. . 0.193(11) . . .
35615. . 0.198(11) . . .
35625. . 0.210(11) . . .
35635. . 0.206(11) . . .
35645. . 0.205(11) . . .
35655. . 0.207(11) . . .
35665. . 0.195(11) . . .
35675. . 0.194(11) . . .
35685. . 0.186(11) . . .
35695. . 0.195(11) . . .
35705. . 0.184(11) . . .
35715. . 0.221(12) . . .
35725. . 0.189(11) . . .
35735. . 0.196(11) . . .
35745. . 0.189(11) . . .
35755. . 0.181(11) . . .
35765. . 0.179(11) . . .
35775. . 0.214(12) . . .
35785. . 0.197(11) . . .
35795. . 0.183(11) . . .
35805. . 0.192(11) . . .
35815. . 0.194(11) . . .
35825. . 0.181(11) . . .
35835. . 0.208(12) . . .
35845. . 0.185(11) . . .
35855. . 0.205(11) . . .
35865. . 0.183(11) . . .
35875. . 0.199(11) . . .
35885. . 0.204(12) . . .
35895. . 0.192(11) . . .
35905. . 0.181(11) . . .
35915. . 0.183(11) . . .
35925. . 0.165(10) . . .
35935. . 0.201(12) . . .
35945. . 0.197(11) . . .
35955. . 0.195(11) . . .
35965. . 0.209(12) . . .
35975. . 0.188(11) . . .
35985. . 0.192(11) . . .
35995. . 0.192(11) . . .
36005. . 0.196(11) . . .
36015. . 0.175(11) . . .
36025. . 0.180(11) . . .
36035. . 0.185(11) . . .
36045. . 0.189(11) . . .
36055. . 0.183(11) . . .
36065. . 0.183(11) . . .
36075. . 0.216(12) . . .
36085. . 0.178(11) . . .
36095. . 0.187(11) . . .
36105. . 0.171(11) . . .
36115. . 0.185(11) . . .
36125. . 0.188(11) . . .
36135. . 0.171(11) . . .
36145. . 0.195(11) . . .
36155. . 0.170(11) . . .
36165. . 0.169(11) . . .
36175. . 0.209(12) . . .
36185. . 0.191(11) . . .
36195. . 0.176(11) . . .
36205. . 0.183(11) . . .
36215. . 0.178(11) . . .
36225. . 0.184(11) . . .
36235. . 0.173(11) . . .
36245. . 0.158(10) . . .
36255. . 0.162(10) . . .
36265. . 0.159(10) . . .
36275. . 0.178(11) . . .
36285. . 0.190(11) . . .
36295. . 0.172(11) . . .
36305. . 0.179(11) . . .
36315. . 0.178(11) . . .
36325. . 0.189(11) . . .
36335. . 0.161(10) . . .
36345. . 0.175(11) . . .
36355. . 0.171(11) . . .
36365. . 0.170(11) . . .
36375. . 0.183(11) . . .
36385. . 0.181(11) . . .
36395. . 0.191(11) . . .
36405. . 0.180(11) . . .
36415. . 0.192(11) . . .
36425. . 0.177(11) . . .
36435. . 0.184(11) . . .
36445. . 0.156(10) . . .
36455. . 0.186(11) . . .
36465. . 0.179(11) . . .
36475. . 0.171(11) . . .
36485. . 0.190(11) . . .
36495. . 0.164(11) . . .
36505. . 0.180(11) . . .
36515. . 0.164(11) . . .
36525. . 0.169(11) . . .
36535. . 0.163(11) . . .
36545. . 0.177(11) . . .
36555. . 0.193(12) . . .
36565. . 0.177(11) . . .
36575. . 0.180(11) . . .
36585. . 0.190(12) . . .
36595. . 0.192(12) . . .
36605. . 0.185(11) . . .
36615. . 0.200(12) . . .
36625. . 0.169(11) . . .
36635. . 0.184(11) . . .
36645. . 0.168(11) . . .
36655. . 0.171(11) . . .
36665. . 0.174(11) . . .
36675. . 0.176(11) . . .
36685. . 0.194(12) . . .
36695. . 0.189(12) . . .
36705. . 0.170(11) . . .
36715. . 0.181(11) . . .
36725. . 0.193(12) . . .
36735. . 0.179(11) . . .
36745. . 0.177(11) . . .
36755. . 0.170(11) . . .
36765. . 0.181(11) . . .
36775. . 0.174(11) . . .
36785. . 0.179(11) . . .
36795. . 0.166(11) . . .
36805. . 0.170(11) . . .
36815. . 0.155(11) . . .
36825. . 0.170(11) . . .
36835. . 0.183(12) . . .
36845. . 0.174(11) . . .
36855. . 0.176(11) . . .
36865. . 0.172(11) . . .
36875. . 0.181(12) . . .
36885. . 0.185(12) . . .
36895. . 0.188(12) . . .
36905. . 0.166(11) . . .
36915. . 0.184(12) . . .
36925. . 0.131(10) . . .
36935. . 0.176(12) . . .
36945. . 0.175(12) . . .
36955. . 0.160(11) . . .
36965. . 0.197(12) . . .
36975. . 0.160(11) . . .
36985. . 0.174(12) . . .
36995. . 0.144(11) . . .
37005. . 0.189(12) . . .
37015. . 0.169(12) . . .
37025. . 0.182(12) . . .
37035. . 0.177(12) . . .
37045. . 0.170(12) . . .
37055. . 0.173(12) . . .
37065. . 0.187(12) . . .
37075. . 0.192(13) . . .
37085. . 0.185(12) . . .
37095. . 0.192(13) . . .
37105. . 0.174(12) . . .
37115. . 0.176(12) . . .
37125. . 0.189(13) . . .
37135. . 0.179(12) . . .
37145. . 0.195(13) . . .
37155. . 0.169(12) . . .
37165. . 0.194(13) . . .
37175. . 0.171(12) . . .
37185. . 0.159(12) . . .
37195. . 0.171(12) . . .
37205. . 0.153(12) . . .
37215. . 0.172(12) . . .
37225. . 0.171(12) . . .
37235. . 0.196(13) . . .
37245. . 0.170(12) . . .
37255. . 0.177(12) . . .
37265. . 0.192(13) . . .
37275. . 0.163(12) . . .
37285. . 0.174(12) . . .
37295. . 0.169(12) . . .
37305. . 0.176(12) . . .
37315. . 0.184(13) . . .
37325. . 0.183(13) . . .
37335. . 0.170(12) . . .
37345. . 0.186(13) . . .
37355. . 0.197(13) . . .
37365. . 0.193(13) . . .
37375. . 0.167(12) . . .
37385. . 0.177(12) . . .
37395. . 0.192(13) . . .
37405. . 0.168(12) . . .
37415. . 0.183(13) . . .
37425. . 0.173(12) . . .
37435. . 0.174(12) . . .
37445. . 0.192(13) . . .
37455. . 0.143(11) . . .
37465. . 0.164(12) . . .
37475. . 0.181(13) . . .
37485. . 0.201(13) . . .
37495. . 0.163(12) . . .
37505. . 0.181(13) . . .
37515. . 0.159(12) . . .
37525. . 0.166(12) . . .
37535. . 0.159(12) . . .
37545. . 0.162(12) . . .
37555. . 0.176(13) . . .
37565. . 0.178(13) . . .
37575. . 0.180(13) . . .
37585. . 0.155(12) . . .
37595. . 0.167(13) . . .
37605. . 0.170(13) . . .
37615. . 0.182(13) . . .
37625. . 0.163(13) . . .
37635. . 0.165(13) . . .
37645. . 0.176(13) . . .
37655. . 0.161(12) . . .
37665. . 0.202(14) . . .
37675. . 0.152(12) . . .
37685. . 0.166(13) . . .
37695. . 0.153(12) . . .
37705. . 0.173(13) . . .
37715. . 0.161(12) . . .
37725. . 0.162(12) . . .
37735. . 0.159(12) . . .
37745. . 0.188(13) . . .
37755. . 0.162(12) . . .
37765. . 0.152(12) . . .
37775. . 0.157(12) . . .
37785. . 0.189(13) . . .
37795. . 0.169(13) . . .
37805. . 0.186(13) . . .
37815. . 0.148(12) . . .
37825. . 0.153(12) . . .
37835. . 0.154(12) . . .
37845. . 0.159(12) . . .
37855. . 0.138(12) . . .
37865. . 0.159(12) . . .
37875. . 0.166(13) . . .
37885. . 0.154(12) . . .
37895. . 0.163(13) . . .
37905. . 0.147(12) . . .
37915. . 0.136(12) . . .
37925. . 0.163(13) . . .
37935. . 0.152(12) . . .
37945. . 0.184(14) . . .
37955. . 0.190(14) . . .
37965. . 0.159(13) . . .
37975. . 0.157(13) . . .
37985. . 0.153(13) . . .
37995. . 0.170(13) . . .
38005. . 0.137(12) . . .
38015. . 0.160(13) . . .
38025. . 0.148(13) . . .
38035. . 0.159(13) . . .
38045. . 0.157(13) . . .
38055. . 0.136(12) . . .
38065. . 0.172(14) . . .
38075. . 0.166(13) . . .
38085. . 0.163(13) . . .
38095. . 0.163(13) . . .
38105. . 0.141(13) . . .
38115. . 0.147(13) . . .
38125. . 0.149(13) . . .
38135. . 0.187(14) . . .
38145. . 0.152(13) . . .
38155. . 0.149(13) . . .
38165. . 0.152(13) . . .
38175. . 0.132(12) . . .
38185. . 0.153(13) . . .
38195. . 0.177(14) . . .
38205. . 0.177(14) . . .
38215. . 0.161(14) . . .
38225. . 0.157(14) . . .
38235. . 0.163(14) . . .
38245. . 0.152(13) . . .
38255. . 0.164(14) . . .
38265. . 0.154(14) . . .
38275. . 0.159(14) . . .
38285. . 0.158(14) . . .
38295. . 0.147(13) . . .
38305. . 0.159(14) . . .
38315. . 0.154(14) . . .
38325. . 0.165(14) . . .
38335. . 0.187(15) . . .
38345. . 0.177(15) . . .
38355. . 0.137(13) . . .
38365. . 0.159(14) . . .
38375. . 0.150(14) . . .
38385. . 0.162(14) . . .
38395. . 0.158(14) . . .
38405. . 0.177(15) . . .
38415. . 0.169(15) . . .
38425. . 0.166(15) . . .
38435. . 0.171(15) . . .
38445. . 0.135(13) . . .
38455. . 0.156(14) . . .
38465. . 0.178(15) . . .
38475. . 0.158(14) . . .
38485. . 0.165(15) . . .
38495. . 0.123(13) . . .
38505. . 0.146(14) . . .
38515. . 0.144(14) . . .
38525. . 0.163(14) . . .
38535. . 0.170(15) . . .
38545. . 0.144(14) . . .
38555. . 0.175(15) . . .
38565. . 0.171(15) . . .
38575. . 0.150(14) . . .
38585. . 0.155(14) . . .
38595. . 0.144(14) . . .
38605. . 0.147(14) . . .
38615. . 0.154(15) . . .
38625. . 0.157(15) . . .
38635. . 0.170(15) . . .
38645. . 0.154(15) . . .
38655. . 0.127(13) . . .
38665. . 0.156(15) . . .
38675. . 0.138(14) . . .
38685. . 0.138(14) . . .
38695. . 0.155(15) . . .
38705. . 0.161(15) . . .
38715. . 0.151(15) . . .
38725. . 0.153(15) . . .
38735. . 0.143(15) . . .
38745. . 0.177(16) . . .
38755. . 0.171(16) . . .
38765. . 0.140(14) . . .
38775. . 0.169(16) . . .
38785. . 0.140(14) . . .
38795. . 0.146(15) . . .
38805. . 0.145(15) . . .
38815. . 0.157(15) . . .
38825. . 0.142(15) . . .
38835. . 0.154(15) . . .
38845. . 0.147(15) . . .
38855. . 0.149(15) . . .
38865. . 0.153(15) . . .
38875. . 0.153(15) . . .
38885. . 0.151(15) . . .
38895. . 0.128(14) . . .
38905. . 0.130(14) . . .
38915. . 0.128(14) . . .
38925. . 0.158(15) . . .
38935. . 0.126(14) . . .
38945. . 0.162(16) . . .
38955. . 0.154(15) . . .
38965. . 0.148(15) . . .
38975. . 0.168(16) . . .
38985. . 0.128(14) . . .
38995. . 0.138(15) . . .
39005. . 0.133(14) . . .
39015. . 0.122(14) . . .
39025. . 0.120(14) . . .
39035. . 0.136(14) . . .
39045. . 0.134(14) . . .
39055. . 0.127(14) . . .
39065. . 0.134(14) . . .
39075. . 0.136(14) . . .
39085. . 0.115(13) . . .
39095. . 0.114(13) . . .
39105. . 0.141(15) . . .
39115. . 0.138(15) . . .
39125. . 0.102(13) . . .
39135. . 0.136(15) . . .
39145. . 0.129(14) . . .
39155. . 0.122(14) . . .
39165. . 0.127(14) . . .
39175. . 0.111(13) . . .
39185. . 0.158(16) . . .
39195. . 0.133(14) . . .
39205. . 0.108(13) . . .
39215. . 0.114(13) . . .
39225. . 0.129(14) . . .
39235. . 0.104(13) . . .
39245. . 0.104(13) . . .
39255. . 0.107(13) . . .
39265. . 0.126(14) . . .
39275. . 0.114(13) . . .
39285. . 0.115(13) . . .
39295. . 0.118(14) . . .
39305. . 0.114(14) . . .
39315. . 0.117(14) . . .
39325. . 0.099(13) . . .
39335. . 0.126(14) . . .
39345. . 0.099(13) . . .
39355. . 0.122(14) . . .
39365. . 0.116(14) . . .
39375. . 0.112(14) . . .
39385. . 0.100(13) . . .
39395. . 0.118(14) . . .
39405. . 0.081(12) . . .
39415. . 0.111(14) . . .
39425. . 0.147(16) . . .
39435. . 0.102(13) . . .
39445. . 0.097(13) . . .
39455. . 0.136(15) . . .
39465. . 0.087(13) . . .
39475. . 0.101(13) . . .
39485. . 0.124(15) . . .
39495. . 0.098(13) . . .
39505. . 0.132(15) . . .
39515. . 0.122(15) . . .
39525. . 0.128(15) . . .
39535. . 0.127(15) . . .
39545. . 0.118(15) . . .
39555. . 0.148(16) . . .
39565. . 0.132(16) . . .
39575. . 0.125(15) . . .
39585. . 0.104(14) . . .
39595. . 0.096(14) . . .
39605. . 0.133(16) . . .
39615. . 0.096(14) . . .
39625. . 0.131(16) . . .
39635. . 0.097(14) . . .
39645. . 0.129(16) . . .
39655. . 0.146(17) . . .
39665. . 0.124(16) . . .
39675. . 0.102(14) . . .
39685. . 0.119(15) . . .
39695. . 0.089(14) . . .
39705. . 0.121(16) . . .
39715. . 0.111(15) . . .
39725. . 0.133(17) . . .
39735. . 0.083(13) . . .
39745. . 0.124(16) . . .
39755. . 0.101(15) . . .
39765. . 0.136(17) . . .
39775. . 0.105(15) . . .
39785. . 0.131(17) . . .
39795. . 0.114(16) . . .
39805. . 0.100(15) . . .
39815. . 0.075(13) . . .
39825. . 0.122(17) . . .
39835. . 0.129(17) . . .
39845. . 0.132(17) . . .
39855. . 0.140(18) . . .
39865. . 0.131(17) . . .
39875. . 0.076(14) . . .
39885. . 0.131(18) . . .
39895. . 0.101(16) . . .
39905. . 0.100(16) . . .
39915. . 0.118(17) . . .
39925. . 0.122(17) . . .
39935. . 0.094(16) . . .
39945. . 0.118(17) . . .
39955. . 0.132(18) . . .
39965. . 0.129(18) . . .
loop_
_refln_index_h
_refln_index_k
_refln_index_l
_refln_observed_status
_refln_F_squared_meas
_refln_F_squared_calc
_refln_phase_calc
_refln_d_spacing
_gsas_i100_meas
1 1 -1 o 7.309 7.265 0.00 3.13883 100.00
1 1 1 o 2.239 2.420 180.00 2.82788 20.18
0 2 0 o 0.340 0.384 180.00 2.60414 1.10
0 0 2 o 1.586 2.009 180.00 2.59553 5.07
2 0 0 o 0.590 0.206 0.00 2.52219 1.68
1 0 -2 o 7.879 6.184 180.00 2.46790 20.60
0 2 1 o 0.333 0.354 0.00 2.32766 1.38
0 1 2 o 0.715 0.756 0.00 2.32305 2.94
1 2 0 o 0.960 1.002 0.00 2.31398 3.88
2 1 0 o 7.256 7.548 180.00 2.27002 27.16
1 1 -2 o 0.004 0.011 180.00 2.23020 0.01
2 1 -1 o 4.410 4.845 180.00 2.19464 14.42
1 0 2 o 9.266 9.317 180.00 2.17552 14.63
1 2 -1 o 7.494 7.440 180.00 2.17138 23.48
1 2 1 o 1.039 0.911 0.00 2.06003 2.64
1 1 2 o 14.098 13.466 0.00 2.00744 32.27
2 1 1 o 2.090 2.109 0.00 1.98138 4.54
2 0 -2 o 2.318 2.778 0.00 1.96670 2.44
2 1 -2 o 3.102 2.885 180.00 1.83989 5.01
0 2 2 o 17.361 16.231 180.00 1.83835 27.95
2 2 0 o 22.292 21.457 180.00 1.81174 33.85
1 2 -2 o 19.795 20.455 0.00 1.79130 28.73
2 2 -1 o 7.514 8.196 180.00 1.77271 10.46
2 0 2 o 26.028 27.314 0.00 1.68375 14.74
3 0 0 o 0.186 0.195 0.00 1.68146 0.10
1 2 2 o 1.457 1.559 0.00 1.66958 1.60
2 2 1 o 2.881 2.845 0.00 1.65450 3.04
0 3 1 o 0.037 0.036 180.00 1.64645 0.04
0 1 3 o 10.479 10.543 180.00 1.64210 10.74
1 3 0 o 7.928 7.992 180.00 1.64159 8.12
1 1 -3 o 6.821 7.055 180.00 1.63337 6.84
2 1 2 o 0.005 0.006 0.00 1.60211 0.00
3 1 0 o 0.431 0.457 0.00 1.60014 0.40
3 1 -1 o 8.176 8.504 180.00 1.59649 7.49
1 3 -1 o 2.296 2.196 0.00 1.58827 2.06
2 2 -2 o 0.293 0.209 0.00 1.56942 0.25
1 3 1 o 20.145 18.317 180.00 1.54309 16.10
3 0 -2 o 37.067 36.303 180.00 1.52236 14.03
1 1 3 o 1.420 1.590 0.00 1.49827 1.01
2 1 -3 o 2.501 2.575 0.00 1.47860 1.69
3 1 1 o 14.782 14.917 0.00 1.46965 9.72
3 1 -2 o 4.158 4.232 0.00 1.46122 2.67
0 3 2 o 0.002 0.002 180.00 1.44304 0.00
0 2 3 o 1.029 0.947 0.00 1.44121 0.63
1 2 -3 o 4.334 4.173 0.00 1.43529 2.59
2 3 0 o 2.768 2.632 0.00 1.43006 1.63
1 3 -2 o 0.803 0.761 0.00 1.41994 0.46
2 2 2 o 0.417 0.384 0.00 1.41394 0.23
3 2 0 o 6.027 5.538 0.00 1.41259 3.38
2 3 -1 o 0.009 0.008 0.00 1.41063 0.00
3 2 -1 o 0.323 0.296 180.00 1.41008 0.18
1 3 2 o 1.856 1.306 0.00 1.35698 0.89
2 3 1 o 3.747 2.858 180.00 1.34884 1.75
1 2 3 o 2.684 2.150 0.00 1.34102 1.22
3 0 2 o 0.763 0.674 0.00 1.32132 0.16
3 2 1 o 2.064 1.813 180.00 1.32039 0.88
2 2 -3 o 6.570 5.943 0.00 1.32687 2.87
3 2 -2 o 0.048 0.044 0.00 1.31426 0.02
1 0 -4 o 21.696 23.704 180.00 1.30637 4.45
0 4 0 o 4.128 4.776 0.00 1.30207 0.84
2 3 -2 o 0.118 0.137 180.00 1.30153 0.05
0 0 4 o 5.748 6.948 0.00 1.29777 1.15
2 1 3 o 0.044 0.053 0.00 1.29240 0.02
3 1 2 o 5.325 6.734 0.00 1.28074 2.02
3 1 -3 o 0.532 0.641 0.00 1.27146 0.20
1 1 -4 o 1.985 2.195 0.00 1.26712 0.72
0 4 1 o 12.212 12.909 180.00 1.26294 4.38
4 0 0 o 3.556 3.737 0.00 1.26110 0.63
1 4 0 o 13.957 14.659 180.00 1.26075 4.97
0 1 4 o 3.403 3.573 180.00 1.25926 1.21
1 4 -1 o 0.375 0.468 0.00 1.23610 0.12
4 1 -1 o 0.684 0.824 0.00 1.23498 0.22
2 0 -4 o 5.589 6.519 0.00 1.23395 0.91
4 1 0 o 19.030 19.060 180.00 1.22568 6.05
0 3 3 o 1.229 1.230 0.00 1.22557 0.39
1 3 -3 o 0.057 0.057 0.00 1.22193 0.02
1 4 1 o 0.601 0.618 180.00 1.21445 0.18
1 0 4 o 2.278 2.335 180.00 1.21254 0.35
4 0 -2 o 2.226 2.246 180.00 1.20998 0.34
2 3 2 o 5.930 5.909 0.00 1.20867 1.78
3 3 0 o 0.614 0.607 180.00 1.20782 0.18
3 3 -1 o 0.000 0.000 180.00 1.20625 0.00
2 1 -4 o 2.522 2.576 0.00 1.20071 0.74
2 2 3 o 0.347 0.429 0.00 1.18738 0.10
1 1 4 o 0.000 0.000 180.00 1.18096 0.00
4 1 -2 o 0.002 0.002 180.00 1.17860 0.00
3 2 2 o 0.030 0.030 0.00 1.17832 0.01
3 2 -3 o 0.367 0.411 0.00 1.17108 0.10
1 2 -4 o 0.000 0.000 0.00 1.16768 0.00
0 4 2 o 2.668 2.716 0.00 1.16383 0.69
1 3 3 o 11.360 11.363 0.00 1.16217 2.92
4 1 1 o 0.138 0.132 180.00 1.15481 0.03
0 2 4 o 0.158 0.157 180.00 1.16152 0.04
2 3 -3 o 11.783 11.281 0.00 1.15292 2.93
1 4 -2 o 0.021 0.020 0.00 1.15161 0.01
2 4 0 o 0.436 0.421 180.00 1.15699 0.11
3 3 1 o 0.026 0.025 180.00 1.14866 0.01
2 4 -1 o 0.678 0.683 180.00 1.14663 0.17
3 3 -2 o 5.596 5.877 180.00 1.14462 1.35
4 2 -1 o 0.403 0.452 0.00 1.14238 0.10
4 2 0 o 2.037 2.682 0.00 1.13501 0.48
1 4 2 o 4.819 5.439 180.00 1.11725 1.06
2 2 -4 o 8.903 9.688 180.00 1.11510 1.94
3 0 -4 o 6.924 7.349 0.00 1.11376 0.75
2 4 1 o 3.089 3.210 0.00 1.11270 0.67
1 2 4 o 17.798 17.418 0.00 1.09923 3.66
4 2 -2 o 1.868 1.839 180.00 1.09732 0.38
3 1 3 o 7.845 7.726 180.00 1.09730 1.60
3 1 -4 o 5.958 5.880 0.00 1.08913 1.18
2 0 4 o 10.544 10.355 180.00 1.08776 1.04
2 4 -2 o 21.822 21.330 0.00 1.08569 4.27
4 1 -3 o 5.347 5.130 180.00 1.07937 1.02
4 2 1 o 6.435 6.079 180.00 1.07804 1.22
4 0 2 o 0.234 0.208 180.00 1.07124 0.02
2 1 4 o 7.101 6.693 180.00 1.06479 1.29
2 3 3 o 5.259 5.224 0.00 1.05785 0.93
3 3 2 o 13.586 13.089 180.00 1.05143 2.34
4 1 2 o 3.384 3.245 180.00 1.04927 0.58
3 3 -3 o 0.332 0.319 0.00 1.04628 0.06
1 3 -4 o 0.027 0.025 180.00 1.04385 0.00
0 4 3 o 2.795 2.512 0.00 1.04041 0.46
0 3 4 o 4.141 3.686 0.00 1.03945 0.68
1 4 -3 o 1.398 1.236 0.00 1.03818 0.23
3 2 3 o 2.244 2.153 0.00 1.03081 0.36
2 4 2 o 5.772 5.558 0.00 1.03001 0.92
3 4 0 o 0.423 0.407 180.00 1.02949 0.07
1 1 -5 o 2.704 2.608 0.00 1.02867 0.43
3 4 -1 o 8.411 8.113 0.00 1.02852 1.33
4 3 -1 o 15.500 14.922 0.00 1.02566 2.42
3 2 -4 o 13.603 13.081 0.00 1.02403 2.11
0 5 1 o 0.051 0.049 180.00 1.02130 0.01
4 3 0 o 0.340 0.318 0.00 1.02032 0.05
1 5 0 o 0.747 0.698 180.00 1.02013 0.11
0 1 5 o 10.579 9.469 0.00 1.01818 1.60
4 2 -3 o 4.356 3.650 0.00 1.01590 0.65
5 0 0 o 14.469 12.010 180.00 1.00888 1.06
1 5 -1 o 2.539 2.217 0.00 1.00694 0.37
2 3 -4 o 9.132 8.208 0.00 1.00578 1.32
2 2 4 o 5.700 5.341 180.00 1.00372 0.82
1 5 1 o 0.019 0.018 180.00 0.99513 0.00
5 1 -1 o 0.001 0.001 0.00 1.00121 0.00
2 4 -3 o 0.136 0.128 180.00 0.99485 0.02
1 4 3 o 0.782 0.759 0.00 1.00078 0.11
1 3 4 o 9.560 8.872 180.00 0.99409 1.32
5 0 -2 o 4.618 4.250 0.00 0.99348 0.32
4 3 -2 o 18.598 16.946 0.00 0.99267 2.55
3 4 1 o 0.165 0.149 0.00 0.99211 0.02
2 1 -5 o 2.547 2.482 180.00 0.99798 0.36
4 2 2 o 11.971 10.727 180.00 0.99069 1.63
5 1 0 o 0.441 0.394 0.00 0.99047 0.06
3 4 -2 o 2.159 1.927 180.00 0.98951 0.29
4 0 -4 o 10.805 9.856 0.00 0.98335 0.71
4 3 1 o 4.945 4.770 180.00 0.97834 0.64
5 1 -2 o 17.876 17.187 0.00 0.97588 2.29
1 2 -5 o 0.061 0.057 180.00 0.97329 0.01
1 1 5 o 1.287 1.188 180.00 0.97002 0.16
0 5 2 o 12.871 11.865 180.00 0.96671 1.58
4 1 -4 o 5.645 5.201 180.00 0.96628 0.69
0 2 5 o 4.305 3.956 180.00 0.96440 0.52
2 5 0 o 1.719 1.577 0.00 0.96278 0.21
1 5 -2 o 13.030 11.869 0.00 0.95967 1.56
3 0 4 o 15.242 13.802 180.00 0.95838 0.91
2 5 -1 o 1.566 1.411 180.00 0.95678 0.18
5 2 -1 o 0.629 0.592 180.00 0.94994 0.07
2 2 -5 o 0.020 0.019 0.00 0.94717 0.00
5 1 1 o 3.881 3.712 180.00 0.94689 0.44
3 3 3 o 3.072 3.123 180.00 0.94263 0.34
3 1 4 o 11.501 11.699 0.00 0.94256 1.28
5 2 0 o 2.110 2.178 180.00 0.94075 0.23
1 5 2 o 1.884 1.963 0.00 0.93951 0.21
3 3 -4 o 0.814 0.856 180.00 0.93743 0.09
2 5 1 o 0.002 0.002 180.00 0.93680 0.00
4 1 3 o 0.056 0.058 0.00 0.93620 0.01
3 1 -5 o 2.705 2.822 0.00 0.93589 0.29
2 4 3 o 12.819 13.280 180.00 0.93183 1.36
4 3 -3 o 6.560 6.814 180.00 0.93118 0.70
5 2 -2 o 6.977 7.369 0.00 0.92822 0.73
3 4 2 o 4.113 4.368 180.00 0.92743 0.43
2 5 -2 o 6.624 7.691 180.00 0.92051 0.67
4 2 -4 o 4.567 5.371 180.00 0.91995 0.46
0 4 4 o 11.048 13.229 0.00 0.91918 1.11
3 4 -3 o 9.701 10.638 180.00 0.92389 1.00
1 2 5 o 9.668 10.702 180.00 0.92317 0.99
1 4 -4 o 11.672 13.112 180.00 0.92222 1.19
5 1 -3 o 0.919 1.039 0.00 0.92186 0.09
2 3 4 o 0.527 0.597 0.00 0.92177 0.05
4 3 2 o 4.934 7.142 0.00 0.91165 0.48
4 4 -1 o 0.808 1.218 0.00 0.90960 0.08
4 4 0 o 3.466 5.039 0.00 0.90587 0.33
5 2 1 o 1.670 2.077 180.00 0.90317 0.16
3 2 4 o 0.005 0.005 0.00 0.89941 0.00
2 1 5 o 5.695 6.589 180.00 0.89819 0.52
1 3 -5 o 2.925 3.387 180.00 0.89804 0.27
2 4 -4 o 0.936 1.080 0.00 0.89565 0.08
5 0 2 o 11.528 13.235 0.00 0.89491 0.52
4 2 3 o 10.079 11.500 0.00 0.89388 0.91
3 2 -5 o 0.067 0.076 0.00 0.89361 0.01
0 5 3 o 2.106 2.390 180.00 0.89243 0.19
0 3 5 o 1.132 1.282 0.00 0.89104 0.10
1 5 -3 o 0.052 0.058 180.00 0.89102 0.00
1 4 4 o 0.464 0.514 0.00 0.88736 0.04
4 4 -2 o 1.540 1.689 0.00 0.88636 0.13
2 5 2 o 9.207 10.064 180.00 0.88584 0.80
3 5 0 o 34.407 37.548 0.00 0.88551 2.98
3 5 -1 o 0.288 0.313 180.00 0.88489 0.02
5 1 2 o 4.733 5.219 0.00 0.88198 0.40
5 2 -3 o 4.818 5.336 0.00 0.88137 0.41
5 3 -1 o 7.338 8.220 0.00 0.87960 0.62
2 3 -5 o 12.322 13.884 180.00 0.87740 1.03
4 4 1 o 1.807 2.026 180.00 0.87610 0.15
1 0 -6 o 4.806 5.362 0.00 0.87551 0.20
5 3 0 o 12.765 13.819 180.00 0.87229 1.04
0 6 0 o 0.005 0.005 0.00 0.86805 0.00
1 5 3 o 0.960 1.043 0.00 0.86703 0.08
0 0 6 o 13.646 14.390 0.00 0.86518 0.54
5 0 -4 o 1.503 1.530 180.00 0.86363 0.06
1 1 -6 o 2.072 2.100 180.00 0.86340 0.16
2 5 -3 o 0.011 0.011 0.00 0.86317 0.00
5 3 -2 o 1.890 1.884 180.00 0.86227 0.15
3 5 1 o 2.223 2.203 0.00 0.86138 0.17
2 2 5 o 0.646 0.639 180.00 0.86062 0.05
2 0 -6 o 7.112 7.052 0.00 0.86007 0.27
3 5 -2 o 0.366 0.363 180.00 0.85967 0.03
1 3 5 o 2.051 2.038 180.00 0.85822 0.16
4 1 -5 o 9.699 9.636 0.00 0.85815 0.74
0 6 1 o 11.366 11.172 180.00 0.85616 0.86
4 3 -4 o 0.010 0.010 0.00 0.85563 0.00
1 6 0 o 13.614 13.298 0.00 0.85547 1.03
0 1 6 o 3.181 3.018 180.00 0.85348 0.24
5 1 -4 o 3.384 3.100 0.00 0.85199 0.25
3 4 3 o 2.381 2.076 180.00 0.85018 0.18
2 1 -6 o 6.579 5.553 180.00 0.84858 0.48
5 3 1 o 4.758 4.169 180.00 0.84208 0.34
4 0 4 o 0.871 0.764 0.00 0.84187 0.03
1 6 -1 o 0.150 0.126 180.00 0.84765 0.01
4 4 -3 o 4.844 4.250 180.00 0.84176 0.34
6 0 0 o 21.586 18.961 180.00 0.84073 0.76
1 6 1 o 1.145 1.005 180.00 0.84057 0.08
3 4 -4 o 2.738 2.295 180.00 0.84637 0.20
5 2 2 o 0.302 0.253 180.00 0.84633 0.02
6 1 -1 o 12.458 10.893 180.00 0.83974 0.87
3 3 4 o 0.201 0.175 180.00 0.83903 0.01
6 0 -2 o 0.028 0.025 0.00 0.83862 0.00
2 4 4 o 2.269 2.031 0.00 0.83479 0.16
4 3 3 o 0.657 0.591 180.00 0.83454 0.04
3 3 -5 o 3.558 3.219 180.00 0.83432 0.24
1 0 6 o 4.706 4.508 180.00 0.83163 0.16
4 1 4 o 0.596 0.574 180.00 0.83109 0.04
6 1 0 o 3.887 3.738 180.00 0.82999 0.26
1 2 -6 o 15.930 15.303 0.00 0.82987 1.06
6 1 -2 o 1.477 1.379 180.00 0.82795 0.10
4 4 2 o 9.009 8.348 180.00 0.82725 0.59
4 2 -5 o 3.489 3.243 180.00 0.82521 0.23
5 3 -3 o 2.541 2.387 180.00 0.82433 0.17
0 6 2 o 11.724 11.157 180.00 0.82323 0.76
3 0 -6 o 19.699 18.828 180.00 0.82263 0.64
1 1 6 o 1.528 1.459 0.00 0.82123 0.10
0 2 6 o 8.611 8.213 180.00 0.82105 0.55
2 5 3 o 0.032 0.030 180.00 0.82104 0.00
2 6 0 o 0.833 0.793 180.00 0.82079 0.05
5 2 -4 o 6.126 5.768 180.00 0.81973 0.39
1 6 -2 o 0.521 0.486 0.00 0.81887 0.03
3 5 2 o 3.507 3.245 180.00 0.81803 0.22
3 1 5 o 1.265 1.170 0.00 0.81788 0.08
2 6 -1 o 1.106 1.016 180.00 0.81707 0.07
1 4 -5 o 9.542 8.766 180.00 0.81704 0.60
2 2 -6 o 11.409 10.458 180.00 0.81668 0.72
3 5 -3 o 0.563 0.513 0.00 0.81559 0.04
1 5 -4 o 10.877 9.890 180.00 0.81444 0.67
3 1 -6 o 0.251 0.230 180.00 0.81256 0.02
0 5 4 o 10.815 9.907 0.00 0.81234 0.66
0 4 5 o 0.064 0.059 0.00 0.81175 0.00
6 2 -1 o 1.668 1.583 0.00 0.80880 0.10
5 1 3 o 12.098 11.512 0.00 0.80847 0.73
2 3 5 o 0.431 0.413 180.00 0.80727 0.03
1 6 2 o 2.782 2.671 0.00 0.80624 0.17
4 5 -1 o 0.070 0.067 0.00 0.80571 0.00
2 6 1 o 9.814 9.454 0.00 0.80452 0.58
4 5 0 o 3.252 3.159 180.00 0.80311 0.19
5 4 -1 o 3.859 3.751 180.00 0.80308 0.23
2 4 -5 o 0.016 0.016 180.00 0.80140 0.00
4 2 4 o 9.486 9.475 0.00 0.80105 0.55
6 1 1 o 2.594 2.601 0.00 0.80080 0.15
6 2 0 o 0.194 0.197 0.00 0.80007 0.01
6 2 -2 o 0.180 0.187 0.00 0.79825 0.01
5 4 0 o 0.033 0.034 0.00 0.79750 0.00
6 1 -3 o 13.302 13.776 0.00 0.79715 0.76
2 5 -4 o 0.000 0.000 180.00 0.79597 0.00
5 3 2 o 0.345 0.351 180.00 0.79544 0.02
2 6 -2 o 12.481 12.539 180.00 0.79413 0.70
1 2 6 o 2.516 2.494 180.00 0.79222 0.14
1 5 4 o 0.730 0.719 0.00 0.79013 0.04
5 4 -2 o 2.544 2.507 0.00 0.78983 0.14
4 5 -2 o 1.557 1.538 180.00 0.78942 0.09
3 2 5 o 0.443 0.439 180.00 0.78921 0.02
1 4 5 o 0.036 0.036 180.00 0.78671 0.00
4 4 -4 o 0.168 0.171 180.00 0.78471 0.01
3 2 -6 o 0.037 0.037 180.00 0.78443 0.00
2 0 6 o 10.037 10.005 0.00 0.78220 0.26
4 5 1 o 0.085 0.084 180.00 0.78215 0.00
1 3 -6 o 0.010 0.010 0.00 0.78173 0.00
5 2 3 o 0.908 0.924 0.00 0.78074 0.05
2 1 6 o 8.437 8.163 180.00 0.77352 0.43
5 3 -4 o 3.337 3.226 180.00 0.77324 0.17
5 1 -5 o 1.098 1.147 180.00 0.77786 0.06
4 3 -5 o 0.775 0.810 0.00 0.77783 0.04
3 4 4 o 0.088 0.085 0.00 0.77184 0.00
2 6 2 o 0.122 0.118 180.00 0.77155 0.01
3 6 0 o 2.428 2.367 0.00 0.77133 0.12
4 0 -6 o 5.399 5.282 0.00 0.77102 0.13
3 6 -1 o 3.328 3.260 0.00 0.77092 0.17
2 3 -6 o 3.552 3.493 180.00 0.77068 0.18
6 2 -3 o 0.185 0.182 0.00 0.77054 0.01
0 6 3 o 4.774 4.779 0.00 0.77589 0.24
1 6 -3 o 2.706 2.657 0.00 0.77496 0.14
0 3 6 o 0.344 0.335 180.00 0.77435 0.02
5 4 1 o 9.977 9.697 0.00 0.77422 0.51
4 4 3 o 0.149 0.153 0.00 0.76834 0.01
6 2 1 o 0.595 0.577 180.00 0.77383 0.03
3 4 -5 o 8.816 9.111 0.00 0.76817 0.43
6 0 2 o 5.786 6.151 0.00 0.76595 0.14
6 3 -1 o 0.367 0.404 180.00 0.76405 0.02
3 5 3 o 0.552 0.615 180.00 0.76354 0.03
4 1 -6 o 5.946 6.746 180.00 0.76271 0.28
6 0 -4 o 5.125 5.875 0.00 0.76118 0.12
3 5 -4 o 0.060 0.069 0.00 0.76077 0.00
5 4 -3 o 2.777 3.150 0.00 0.76035 0.13
1 6 3 o 0.357 0.394 0.00 0.75903 0.02
6 1 2 o 10.358 11.103 180.00 0.75780 0.48
4 3 4 o 8.786 9.361 0.00 0.75751 0.41
4 5 -3 o 1.164 1.238 180.00 0.75742 0.05
6 3 0 o 11.130 11.680 0.00 0.75667 0.51
2 6 -3 o 0.555 0.581 0.00 0.75643 0.03
3 6 1 o 0.996 1.026 180.00 0.75523 0.05
6 3 -2 o 0.639 0.658 0.00 0.75513 0.03
3 6 -2 o 0.236 0.241 180.00 0.75407 0.01
6 1 -4 o 8.301 8.412 180.00 0.75318 0.38
5 2 -5 o 10.004 10.128 180.00 0.75307 0.45
2 5 4 o 9.607 9.661 180.00 0.75233 0.43
1 3 6 o 2.132 2.108 180.00 0.75002 0.10
2 2 6 o 0.057 0.057 180.00 0.74913 0.00
3 3 5 o 8.842 8.841 0.00 0.74747 0.39
2 4 5 o 4.945 4.929 0.00 0.74691 0.22
4 5 2 o 4.265 4.246 180.00 0.74680 0.19
3 3 -6 o 0.484 0.441 180.00 0.74340 0.02
5 0 4 o 0.776 0.701 0.00 0.74294 0.02
1 1 -7 o 0.969 0.874 0.00 0.74286 0.04
5 3 3 o 0.503 0.464 0.00 0.74026 0.02
4 1 5 o 0.070 0.066 0.00 0.73945 0.00
4 2 -6 o 0.002 0.002 0.00 0.73930 0.00
1 5 -5 o 1.078 1.021 0.00 0.73926 0.05
5 4 2 o 0.085 0.083 180.00 0.73751 0.00
0 7 1 o 2.658 2.619 0.00 0.73651 0.11
1 7 0 o 14.286 14.024 180.00 0.73607 0.59
2 1 -7 o 2.558 2.494 0.00 0.73569 0.11
5 1 4 o 9.185 8.916 0.00 0.73550 0.38
0 5 5 o 0.258 0.250 0.00 0.73534 0.01
6 2 2 o 8.075 7.673 0.00 0.73483 0.33
6 3 1 o 3.163 2.950 0.00 0.73436 0.13
0 1 7 o 4.951 4.582 180.00 0.73418 0.20
6 3 -3 o 0.002 0.002 180.00 0.73155 0.00
1 7 -1 o 1.313 1.131 180.00 0.73107 0.05
6 2 -4 o 0.497 0.430 0.00 0.73061 0.02
5 5 -1 o 0.019 0.017 0.00 0.72887 0.00
2 5 -5 o 1.678 1.497 180.00 0.72762 0.07
2 6 3 o 7.310 6.522 180.00 0.72759 0.29
1 4 -6 o 4.048 3.652 180.00 0.72654 0.16
1 7 1 o 1.218 1.099 0.00 0.72652 0.05
3 6 2 o 5.343 4.900 0.00 0.72549 0.21
3 0 6 o 6.968 6.427 0.00 0.72517 0.14
5 5 0 o 3.763 3.503 0.00 0.72469 0.15
3 6 -3 o 15.766 14.922 180.00 0.72379 0.61
7 0 -2 o 0.000 0.000 180.00 0.72372 0.00
4 4 -5 o 0.001 0.001 180.00 0.72341 0.00
1 6 -4 o 3.486 3.337 0.00 0.72299 0.13
7 1 -1 o 0.524 0.505 180.00 0.72221 0.02
0 6 4 o 7.285 7.030 180.00 0.72152 0.28
1 2 -7 o 0.422 0.408 180.00 0.72118 0.02
7 0 0 o 4.325 4.185 0.00 0.72063 0.08
0 4 6 o 0.061 0.059 0.00 0.72060 0.00
5 4 -4 o 12.044 11.730 180.00 0.71971 0.46
5 5 -2 o 0.514 0.506 0.00 0.71892 0.02
3 1 6 o 0.053 0.053 0.00 0.71825 0.00
4 2 5 o 1.514 1.513 180.00 0.71806 0.06
2 4 -6 o 1.007 1.014 0.00 0.71765 0.04
4 6 -1 o 5.580 5.693 0.00 0.71686 0.21
7 1 -2 o 9.745 9.947 0.00 0.71683 0.36
1 5 5 o 0.000 0.000 0.00 0.71657 0.00
5 3 -5 o 2.064 2.114 180.00 0.71655 0.08
0 7 2 o 0.000 0.000 180.00 0.71523 0.00
4 5 -4 o 19.638 20.213 180.00 0.71506 0.72
4 6 0 o 0.761 0.783 180.00 0.71503 0.03
2 2 -7 o 4.881 5.007 180.00 0.71462 0.18
5 2 4 o 0.254 0.260 180.00 0.71443 0.01
3 1 -7 o 5.869 5.978 180.00 0.71398 0.21
7 1 0 o 4.773 4.851 0.00 0.71383 0.17
2 7 0 o 1.780 1.804 0.00 0.71364 0.07
5 0 -6 o 0.440 0.444 180.00 0.71334 0.01
0 2 7 o 2.652 2.673 0.00 0.71323 0.10
2 3 6 o 10.926 11.002 0.00 0.71315 0.40
1 7 -2 o 1.527 1.523 0.00 0.71237 0.06
6 4 -1 o 4.273 4.257 180.00 0.71228 0.16
1 1 7 o 1.026 1.015 0.00 0.71122 0.04
2 7 -1 o 0.018 0.018 0.00 0.71118 0.00
2 6 -4 o 1.604 1.587 180.00 0.70997 0.06
2 7 1 o 5.145 5.319 0.00 0.70286 0.18
4 5 3 o 0.004 0.005 0.00 0.70261 0.00
6 1 -5 o 5.169 5.350 180.00 0.70253 0.18
3 5 -5 o 0.879 0.910 0.00 0.70248 0.03
6 1 3 o 0.185 0.188 0.00 0.70754 0.01
7 2 -1 o 7.677 7.956 0.00 0.70224 0.26
5 5 1 o 0.633 0.646 180.00 0.70709 0.02
4 4 4 o 4.425 4.518 0.00 0.70697 0.16
5 1 -6 o 0.250 0.255 0.00 0.70674 0.01
6 4 0 o 0.059 0.060 180.00 0.70629 0.00
1 4 6 o 16.479 17.262 180.00 0.70087 0.56
6 3 2 o 0.327 0.343 0.00 0.70078 0.01
1 6 4 o 0.114 0.117 0.00 0.70582 0.00
4 6 1 o 0.933 0.985 180.00 0.70012 0.03
4 6 -2 o 4.333 4.465 180.00 0.70532 0.15
3 5 4 o 12.686 13.072 0.00 0.70528 0.44
6 4 -2 o 0.742 0.765 180.00 0.70504 0.03
4 3 -6 o 6.445 6.647 0.00 0.70466 0.22
1 7 2 o 5.846 6.033 0.00 0.70400 0.20
