#------------------------------------------------------------------------------
#$Date: 2016-06-26 04:40:23 +0300 (Sun, 26 Jun 2016) $
#$Revision: 183943 $
#$URL: file:///home/coder/svn-repositories/cod/cif/2/24/17/2241747.cif $
#------------------------------------------------------------------------------
#
# This file is available in the Crystallography Open Database (COD),
# http://www.crystallography.net/. The original data for this entry
# were provided by IUCr Journals, http://journals.iucr.org/.
#
# The file may be used within the scientific community so long as
# proper attribution is given to the journal article from which the
# data were obtained.
#
data_2241747
loop_
_publ_author_name
'Hadouchi, Mohammed'
'Assani, Abderrazzak'
'Saadi, Mohamed'
'El Ammari, Lahcen'
_publ_section_title
;
 The alluaudite-type crystal structures of Na~2~(Fe/Co)~2~Co(VO~4~)~3~ and
 Ag~2~(Fe/Co)~2~Co(VO~4~)~3~
;
_journal_coeditor_code           WM5292
_journal_issue                   7
_journal_name_full               'Acta Crystallographica Section E'
_journal_page_first              1017
_journal_page_last               1020
_journal_paper_doi               10.1107/S2056989016009981
_journal_volume                  72
_journal_year                    2016
_chemical_formula_iupac          'Ag1.97 (Co0.49 Fe0.51)2 Co (V O4)3'
_chemical_formula_moiety         'Ag1.97 Co1.98 Fe1.02  O12 V3'
_chemical_formula_structural     'Ag1.97 (Co0.49,Fe0.51)2 Co (V O4)3'
_chemical_formula_sum            'Ag1.97 Co1.98 Fe1.02 O12 V3'
_chemical_formula_weight         730.96
_chemical_name_systematic
;
Disilver di(cobalt/iron) cobalt tris(orthovanadate)
;
_space_group_crystal_system      monoclinic
_space_group_IT_number           15
_space_group_name_Hall           '-C 2yc'
_space_group_name_H-M_alt        'C 1 2/c 1'
_symmetry_space_group_name_Hall  '-C 2yc'
_symmetry_space_group_name_H-M   'C 1 2/c 1'
_audit_creation_method           SHELXL-2014/7
_cell_angle_alpha                90
_cell_angle_beta                 111.0010(10)
_cell_angle_gamma                90
_cell_formula_units_Z            4
_cell_length_a                   11.7846(4)
_cell_length_b                   12.8314(4)
_cell_length_c                   6.8064(2)
_cell_measurement_reflns_used    2113
_cell_measurement_temperature    296(2)
_cell_measurement_theta_max      34.966
_cell_measurement_theta_min      2.439
_cell_volume                     960.85(5)
_computing_cell_refinement
;
SAINT (Bruker, 2009)
;
_computing_data_collection
;
APEX2 (Bruker, 2009)
;
_computing_data_reduction
;
SAINT (Bruker, 2009)
;
_computing_molecular_graphics
;
ORTEP-3 for Windows (Farrugia, 2012) and DIAMOND (Brandenburg,
2006)
;
_computing_publication_material
;
publCIF (Westrip, 2010)
;
_computing_structure_refinement
;
SHELXL2014 (Sheldrick, 2015b)
;
_computing_structure_solution
;
SHELXT2014 (Sheldrick, 2015a)
;
_diffrn_ambient_temperature      296(2)
_diffrn_measured_fraction_theta_full 1.000
_diffrn_measured_fraction_theta_max 1.000
_diffrn_measurement_device_type  'Bruker X8 APEX'
_diffrn_measurement_method       '\f and \w scans'
_diffrn_radiation_monochromator  graphite
_diffrn_radiation_source         'fine-focus sealed tube'
_diffrn_radiation_type           MoK\a
_diffrn_radiation_wavelength     0.71073
_diffrn_reflns_av_R_equivalents  0.0391
_diffrn_reflns_limit_h_max       18
_diffrn_reflns_limit_h_min       -18
_diffrn_reflns_limit_k_max       20
_diffrn_reflns_limit_k_min       -20
_diffrn_reflns_limit_l_max       10
_diffrn_reflns_limit_l_min       -9
_diffrn_reflns_number            15366
_diffrn_reflns_theta_full        25.242
_diffrn_reflns_theta_max         34.966
_diffrn_reflns_theta_min         2.439
_exptl_absorpt_coefficient_mu    11.600
_exptl_absorpt_correction_T_max  0.7471
_exptl_absorpt_correction_T_min  0.4391
_exptl_absorpt_correction_type   multi-scan
_exptl_absorpt_process_details
;
(<i>SADABS</i>; Bruker, 2009)
;
_exptl_crystal_colour            green
_exptl_crystal_density_diffrn    5.053
_exptl_crystal_description       block
_exptl_crystal_F_000             1350
_exptl_crystal_size_max          0.34
_exptl_crystal_size_mid          0.22
_exptl_crystal_size_min          0.17
_refine_diff_density_max         0.800
_refine_diff_density_min         -1.657
_refine_ls_extinction_coef       0.00190(7)
_refine_ls_extinction_expression Fc^*^=kFc[1+0.001xFc^2^\l^3^/sin(2\q)]^-1/4^
_refine_ls_extinction_method
;
SHELXL2014 (Sheldrick, 2015b)
;
_refine_ls_goodness_of_fit_ref   1.136
_refine_ls_hydrogen_treatment    undef
_refine_ls_matrix_type           full
_refine_ls_number_parameters     104
_refine_ls_number_reflns         2113
_refine_ls_number_restraints     0
_refine_ls_restrained_S_all      1.136
_refine_ls_R_factor_all          0.0196
_refine_ls_R_factor_gt           0.0179
_refine_ls_shift/su_max          0.001
_refine_ls_shift/su_mean         0.000
_refine_ls_structure_factor_coef Fsqd
_refine_ls_weighting_details
'w=1/[\s^2^(Fo^2^)+(0.0093P)^2^+2.3975P] where P=(Fo^2^+2Fc^2^)/3'
_refine_ls_weighting_scheme      calc
_refine_ls_wR_factor_gt          0.0405
_refine_ls_wR_factor_ref         0.0412
_reflns_number_gt                1987
_reflns_number_total             2113
_reflns_threshold_expression     'I > 2\s(I)'
_cod_data_source_file            wm5292sup1.cif
_cod_data_source_block           II
_cod_database_code               2241747
_shelx_space_group_comment
;
The symmetry employed for this shelxl refinement is uniquely defined
by the following loop, which should always be used as a source of
symmetry information in preference to the above space-group names.
They are only intended as comments.
;
_shelx_hkl_file
;
   2   0   0  580.44   24.50
   2   0   0  605.94   24.50
   2   0   0  566.84   24.50
   2   0   0  551.44   24.40
  -2   0   0  543.05   24.60
  -2   0   0  595.74   24.50
   4   0   0 5315.27  242.38
  -4   0   0 5674.73  243.18
   4   0   0 5967.60  241.98
   4   0   0 5351.76  240.88
  -4   0   0 6486.05  243.38
   4   0   0 5793.82  242.68
  -6   0   0 2774.92  114.19
   6   0   0 2795.12  113.99
   6   0   0 2713.63  114.19
  -6   0   0 2619.34  114.39
   6   0   0 2713.43  114.19
  -8   0   0 2180.08   94.19
   8   0   0 2255.97   93.99
  -8   0   0 2296.07   93.99
   8   0   0 2099.19   93.89
   8   0   0 2310.87   93.59
 -10   0   0 2031.00   84.89
  10   0   0 2039.90   84.59
  10   0   0 2016.10   84.09
  10   0   0 1937.91   84.49
 -10   0   0 1940.81   84.39
  12   0   0  133.39    7.60
 -12   0   0  139.39    8.00
  12   0   0  139.19    7.10
 -12   0   0  130.09    7.40
  14   0   0 1006.80   44.50
  14   0   0 1030.60   43.70
 -14   0   0  984.10   44.30
  16   0   0   58.19    5.20
 -16   0   0   64.69    5.10
  18   0   0  491.45   23.80
 -18   0   0  480.25   23.50
  -1  -1   0   -0.40    0.20
  -1  -1   0    0.10    0.20
   1  -1   0   -0.20    0.20
   1  -1   0    0.40    0.30
  -1  -1   0    0.50    0.20
   1  -1   0    0.40    0.20
   1   1   0    0.50    0.20
   1   1   0    0.30    0.30
  -1   1   0    0.40    0.20
  -1   1   0    0.50    0.40
  -1   1   0    0.00    0.10
   1   1   0    1.50    0.30
   3  -1   0  853.91   35.20
  -3  -1   0  824.12   35.30
   3  -1   0  820.72   35.30
  -3  -1   0  843.82   35.40
   3  -1   0  867.51   35.30
  -3   1   0  743.13   35.80
  -3   1   0  904.71   35.30
   3   1   0  795.02   35.30
  -3   1   0  814.52   35.40
   3   1   0  898.31   35.20
   3   1   0  810.32   35.20
   3   1   0  870.91   35.30
   5  -1   0 1241.18   50.99
   5  -1   0 1258.27   50.79
  -5  -1   0 1194.28   50.89
   5  -1   0 1134.59   50.89
   5   1   0 1165.48   50.69
   5   1   0 1142.89   50.79
   5   1   0 1233.68   50.69
   5   1   0 1214.58   50.89
  -5   1   0 1235.48   51.09
  -5   1   0 1246.68   50.89
   7  -1   0  513.35   22.50
  -7  -1   0  525.95   23.10
  -7  -1   0  497.25   22.70
   7  -1   0  504.35   22.80
   7  -1   0  531.35   22.80
   7   1   0  525.65   22.80
   7   1   0  534.55   22.80
   7   1   0  515.85   22.40
  -7   1   0  541.35   23.00
   7   1   0  525.35   22.40
  -7   1   0  532.45   22.80
   9  -1   0   80.39    4.80
   9  -1   0   91.39    4.70
  -9  -1   0   81.49    4.80
   9  -1   0   81.79    4.90
  -9  -1   0   83.89    5.10
   9   1   0   79.09    4.40
  -9   1   0   82.69    4.80
  -9   1   0   83.99    5.00
   9   1   0   81.99    4.70
   9   1   0   89.29    5.00
 -11  -1   0   62.49    4.60
 -11  -1   0   54.39    4.10
  11  -1   0   65.29    4.00
  11  -1   0   66.79    4.30
  11  -1   0   56.09    4.10
  11   1   0   58.29    4.20
 -11   1   0   59.79    4.10
  11   1   0   61.89    3.80
 -11   1   0   65.59    4.40
  13  -1   0  180.28    8.90
 -13  -1   0  175.98    9.30
  13  -1   0  172.58    9.40
 -13   1   0  165.18    9.20
  13   1   0  167.18    9.40
  13   1   0  175.58    8.70
 -15  -1   0    4.30    1.90
  15  -1   0    3.10    1.50
  15  -1   0    0.20    1.70
  15   1   0    2.20    1.80
 -15   1   0    0.50    1.40
  17  -1   0   -1.10    1.50
 -17  -1   0    1.80    1.70
 -17   1   0    0.40    1.60
  17   1   0    0.40    1.60
   0   2   0   53.09    2.60
   0   2   0   51.49    2.50
   0   2   0   46.80    2.50
  -2  -2   0  848.32   36.90
   2  -2   0  858.81   37.00
   2  -2   0  898.31   36.90
  -2  -2   0  887.71   36.90
  -2  -2   0  865.41   36.80
   2  -2   0  906.21   36.90
   2  -2   0  893.41   37.00
  -2   2   0  882.81   36.70
   2   2   0  914.31   36.80
   2   2   0  828.02   37.10
   2   2   0  881.21   36.90
  -2   2   0  780.72   37.20
  -2   2   0  942.81   36.90
  -4  -2   0   49.40    2.90
  -4  -2   0   57.59    3.10
   4  -2   0   51.79    2.90
   4  -2   0   50.19    2.80
   4   2   0   56.49    3.10
   4   2   0   56.39    3.00
   4   2   0   55.69    2.70
  -4   2   0   56.19    2.90
  -4   2   0   60.19    3.00
  -4   2   0   50.09    3.50
   6  -2   0  277.97   12.60
  -6  -2   0  254.67   12.40
   6  -2   0  281.27   12.50
   6  -2   0  272.57   12.30
  -6  -2   0  273.37   12.70
   6   2   0  293.87   12.60
  -6   2   0  270.37   12.40
  -6   2   0  285.87   12.60
   6   2   0  264.47   12.10
   6   2   0  287.07   12.40
   6   2   0  280.97   12.40
  -8  -2   0  368.66   16.60
   8  -2   0  382.46   16.40
  -8  -2   0  347.57   16.20
   8  -2   0  354.66   16.00
   8  -2   0  344.47   16.20
   8   2   0  353.36   15.90
   8   2   0  356.36   16.00
  -8   2   0  359.26   16.30
   8   2   0  349.87   15.70
   8   2   0  364.36   16.30
  -8   2   0  372.06   16.20
  10  -2   0    5.50    1.30
 -10  -2   0    5.80    1.50
  10  -2   0    4.60    1.20
 -10  -2   0    7.00    1.80
  10  -2   0    5.20    1.50
 -10   2   0    4.40    1.30
 -10   2   0    6.10    1.40
  10   2   0    5.40    1.50
  10   2   0    5.10    1.10
 -12  -2   0  243.88   12.00
  12  -2   0  216.88   11.10
  12  -2   0  210.88   10.70
 -12  -2   0  221.48   11.20
  12   2   0  220.98   11.30
 -12   2   0  224.88   11.10
  12   2   0  210.48   10.40
  14  -2   0    0.80    1.40
  14  -2   0   -0.40    1.30
 -14  -2   0    0.80    1.30
 -14   2   0   -0.60    1.10
  14   2   0   -0.10    1.40
  14   2   0    1.00    1.20
  16  -2   0   30.40    4.00
  16  -2   0   33.00    3.60
 -16  -2   0   22.70    3.50
 -16   2   0   23.50    3.40
  16   2   0   31.40    4.10
 -18  -2   0    6.20    2.60
  18  -2   0    3.70    2.40
 -18   2   0    4.60    2.00
  18   2   0    5.60    2.40
   1  -3   0   14.10    0.80
   1  -3   0   13.20    1.10
   1  -3   0   13.20    0.80
  -1   3   0   14.80    1.20
   1   3   0   20.10    1.60
  -1   3   0   13.40    1.10
  -1   3   0   16.40    1.20
  -1   3   0   14.10    1.20
   1   3   0   15.70    1.20
   1   3   0   12.20    1.20
  -3  -3   0 1121.29   46.10
   3  -3   0 1096.99   46.20
  -3  -3   0 1067.09   46.00
   3  -3   0 1088.99   46.10
   3  -3   0 1155.88   46.10
   3  -3   0 1083.79   46.10
  -3   3   0 1063.19   45.90
  -3   3   0 1151.08   46.00
  -3   3   0 1034.60   46.50
  -3   3   0 1062.59   45.70
   3   3   0 1163.08   45.90
   3   3   0 1024.70   46.30
   5  -3   0  853.61   37.70
  -5  -3   0  851.31   37.90
   5  -3   0  839.62   37.70
  -5  -3   0  894.81   37.90
   5  -3   0  856.31   37.80
  -5  -3   0  873.01   37.80
   5   3   0  934.31   37.60
  -5   3   0  878.91   37.70
  -5   3   0  926.11   37.10
  -5   3   0  926.41   37.70
   5   3   0  902.71   37.40
   5   3   0  873.31   37.90
   5   3   0  917.71   37.80
  -7  -3   0 1889.41   78.19
   7  -3   0 1954.60   78.09
   7  -3   0 1776.92   77.79
   7  -3   0 1814.12   77.69
  -7  -3   0 1697.63   77.79
   7   3   0 1845.62   77.39
  -7   3   0 1780.52   77.79
   7   3   0 1813.22   77.79
   7   3   0 1925.81   77.89
  -7   3   0 1946.91   77.79
  -9  -3   0   48.10    3.80
   9  -3   0   47.40    3.40
   9  -3   0   42.40    3.10
  -9  -3   0   44.30    3.30
   9   3   0   50.69    3.50
  -9   3   0   49.00    3.30
   9   3   0   49.10    2.90
  -9   3   0   47.00    3.30
   9   3   0   50.69    3.20
  11  -3   0  461.25   20.80
 -11  -3   0  461.15   21.90
  11  -3   0  460.05   21.10
  11  -3   0  496.45   21.50
 -11  -3   0  452.15   21.20
 -11   3   0  460.85   21.00
  11   3   0  453.95   21.10
  11   3   0  463.75   20.40
 -13  -3   0   30.80    4.00
  13  -3   0   31.10    3.20
 -13  -3   0   29.00    3.40
  13  -3   0   29.70    3.40
  13   3   0   28.70    3.50
 -13   3   0   32.60    3.50
  13   3   0   31.90    2.60
  15  -3   0   35.70    4.10
 -15  -3   0   35.70    4.10
  15   3   0   37.90    4.40
 -15   3   0   44.10    4.40
 -17  -3   0  226.58   12.90
  17  -3   0  244.58   13.20
  17   3   0  239.88   13.20
   0   4   0  475.15   20.10
   0   4   0  457.85   20.10
   0   4   0  448.66   20.00
   2  -4   0 6368.16  313.57
  -2  -4   0 6845.62  314.37
  -2  -4   0 7517.35  313.17
   2  -4   0 7322.87  314.97
   2   4   0 7859.01  315.47
  -2   4   0 8164.98  314.97
  -2   4   0 8240.58  316.17
   2   4   0 7921.51  315.27
  -2   4   0 7214.78  313.77
   4  -4   0 1771.52   77.59
  -4  -4   0 1934.61   77.79
   4  -4   0 1827.32   77.79
  -4  -4   0 1829.52   77.79
   4  -4   0 1854.51   77.69
   4  -4   0 1744.33   77.79
  -4  -4   0 1895.71   77.59
   4   4   0 1944.11   77.39
   4   4   0 1728.53   77.99
  -4   4   0 1939.61   77.59
  -4   4   0 1857.31   77.19
   6  -4   0 3872.21  154.38
  -6  -4   0 3600.14  154.38
   6  -4   0 3566.14  154.18
  -6  -4   0 3543.35  154.18
   6  -4   0 3730.63  154.18
  -6  -4   0 3637.54  154.18
   6   4   0 3308.67  154.38
   6   4   0 3807.92  154.88
  -6   4   0 3939.01  154.08
   6   4   0 3821.32  154.28
   8  -4   0  749.03   33.10
  -8  -4   0  748.33   33.30
  -8  -4   0  748.43   33.70
   8  -4   0  776.82   33.50
   8  -4   0  738.33   33.20
  -8   4   0  767.32   33.10
   8   4   0  796.12   33.40
   8   4   0  766.32   32.70
  -8   4   0  806.52   33.20
   8   4   0  774.62   33.30
 -10  -4   0  343.37   17.00
  10  -4   0  355.96   16.70
 -10  -4   0  359.06   17.60
  10  -4   0  348.77   16.90
  10  -4   0  399.56   17.40
  10   4   0  376.56   17.10
  10   4   0  381.86   16.90
  10   4   0  365.96   16.30
 -10   4   0  387.56   16.90
 -12  -4   0 1143.89   49.90
  12  -4   0 1122.89   48.60
 -12  -4   0 1095.89   48.90
  12  -4   0 1196.88   49.50
  12  -4   0 1053.19   48.80
  12   4   0 1137.79   47.90
 -12   4   0 1136.19   48.70
  12   4   0 1106.79   48.90
  14  -4   0  111.19    7.10
 -14  -4   0  114.29    8.20
 -14  -4   0  109.79    7.30
  14  -4   0  113.79    6.80
 -14   4   0  122.69    7.10
  14   4   0  119.59    7.40
  16  -4   0  289.67   15.10
 -16  -4   0  276.67   15.10
  16  -4   0  292.67   14.50
 -16   4   0  301.17   15.00
   1   5   0    4.60    1.10
  -1   5   0    4.60    1.10
   1   5   0    4.60    1.00
   1   5   0    5.00    0.40
  -1   5   0    4.50    1.00
  -1   5   0    4.30    1.00
   1   5   0   13.80    1.60
   1   5   0    4.60    0.50
  -3  -5   0 1163.08   51.39
  -3  -5   0 1309.57   51.29
   3  -5   0 1261.07   51.49
  -3  -5   0 1247.68   51.79
   3  -5   0 1206.68   51.49
   3  -5   0 1210.28   51.59
  -3   5   0 1263.97   51.59
   3   5   0 1192.48   51.79
  -3   5   0 1250.07   51.49
   3   5   0 1074.59   51.99
  -3   5   0 1260.07   51.59
   5  -5   0  267.67   12.20
  -5  -5   0  240.48   12.20
   5  -5   0  269.17   12.40
   5  -5   0  275.87   12.50
  -5  -5   0  288.87   12.20
  -5  -5   0  280.57   12.40
   5  -5   0  269.37   12.30
  -5   5   0  273.77   11.60
  -5   5   0  275.27   12.10
  -5   5   0  284.17   12.20
   5   5   0  259.17   12.60
   7  -5   0   17.20    1.90
   7  -5   0   10.60    1.60
  -7  -5   0    9.20    1.60
  -7  -5   0    8.50    1.60
   7  -5   0    7.90    1.60
  -7  -5   0    8.60    1.70
   7   5   0    8.80    1.70
  -7   5   0    8.70    1.40
  -7   5   0    9.50    1.30
   7   5   0    9.90    1.20
   9  -5   0  182.78    9.40
  -9  -5   0  176.88   10.00
   9  -5   0  206.98   10.00
   9  -5   0  189.48    9.60
  -9  -5   0  192.38    9.70
  -9   5   0  204.98    9.50
   9   5   0  189.68    8.90
   9   5   0  203.68    9.80
   9   5   0  199.38    9.70
  11  -5   0   -0.20    0.90
  11  -5   0    0.10    1.30
 -11  -5   0    0.10    1.40
 -11  -5   0    1.30    1.30
  11  -5   0    0.90    1.20
 -11   5   0    1.50    1.10
  11   5   0    1.40    0.70
  11   5   0    0.10    1.30
 -13  -5   0  241.68   13.10
  13  -5   0  225.58   11.70
  13  -5   0  225.38   11.90
  13  -5   0  254.57   12.80
 -13  -5   0  221.18   12.10
 -13   5   0  225.58   11.70
  15  -5   0   15.60    2.70
 -15  -5   0   10.30    2.70
 -15  -5   0   13.30    3.20
  15  -5   0   13.30    2.80
 -15   5   0   24.40    3.30
 -17  -5   0   75.99    6.30
  17  -5   0   84.69    6.60
 -17   5   0   72.19    5.80
   0   6   0 2963.20  124.49
   0   6   0 3119.29  124.59
   0   6   0 2816.32  124.39
  -2  -6   0    7.60    0.50
  -2  -6   0    7.80    0.50
   2  -6   0    7.20    1.20
   2  -6   0    7.20    0.80
   2  -6   0    7.50    0.80
   2   6   0    3.30    1.10
  -2   6   0    7.40    1.20
  -2   6   0    6.40    1.10
   2   6   0    6.50    1.40
   2   6   0    9.30    1.30
  -2   6   0    9.60    1.20
   4  -6   0  717.43   31.20
   4  -6   0  740.53   31.20
  -4  -6   0  636.14   30.90
   4  -6   0  712.03   31.50
  -4  -6   0  771.82   30.90
  -4  -6   0  751.92   31.40
   4  -6   0  712.23   31.20
   4   6   0  674.33   31.70
  -4   6   0  745.83   31.20
  -4   6   0  763.92   31.30
  -4   6   0  767.52   30.90
  -6  -6   0 1027.00   42.10
  -6  -6   0  909.41   42.20
   6  -6   0  976.80   42.30
   6  -6   0 1017.00   43.00
   6  -6   0 1011.80   42.40
   6  -6   0  946.71   42.10
  -6  -6   0 1002.70   42.40
  -6   6   0  989.50   42.00
  -6   6   0  991.90   41.90
   6   6   0  952.30   42.60
  -6   6   0 1005.60   41.10
   8  -6   0    1.80    1.10
  -8  -6   0    2.30    1.30
  -8  -6   0    2.80    1.30
   8  -6   0    9.30    1.70
   8  -6   0    0.30    1.20
   8   6   0    1.50    1.30
  -8   6   0    1.40    0.90
   8   6   0    1.50    0.70
 -10  -6   0  548.55   24.50
  10  -6   0  526.05   24.70
  10  -6   0  526.35   24.20
  10  -6   0  548.45   24.20
 -10  -6   0  488.05   24.70
  10   6   0  555.04   23.40
 -10   6   0  552.84   23.90
  10   6   0  553.04   24.40
  12  -6   0    7.80    1.90
 -12  -6   0    3.90    2.10
  12  -6   0    6.50    2.00
 -12  -6   0    8.80    2.20
  12  -6   0    6.90    2.10
 -12   6   0    6.80    1.70
  14  -6   0  264.97   13.90
 -14  -6   0  259.27   14.90
  14  -6   0  277.67   13.50
 -14  -6   0  266.97   14.10
 -14   6   0  263.67   13.40
 -16  -6   0    4.60    2.20
  16  -6   0   -0.70    1.60
  16  -6   0   -0.90    1.40
 -16   6   0    0.90    1.50
   1   7   0  138.79    7.30
   1   7   0  146.09    7.50
  -1   7   0  155.38    7.50
  -1   7   0  155.18    7.30
   1   7   0  135.09    7.30
  -1   7   0  150.28    7.40
  -3  -7   0   63.99    3.70
   3  -7   0   58.29    3.20
  -3  -7   0   60.59    2.90
  -3  -7   0   48.50    2.90
   3  -7   0   59.89    3.60
   3  -7   0   54.19    3.20
   3   7   0   57.39    3.70
  -3   7   0   56.59    3.40
   3   7   0   65.49    3.70
  -3   7   0   59.89    3.60
   3   7   0   61.89    4.00
  -3   7   0   60.69    3.40
  -5  -7   0  824.02   35.00
   5  -7   0  814.22   34.80
  -5  -7   0  725.33   34.50
   5  -7   0  837.02   34.80
   5  -7   0  799.62   34.80
   5  -7   0  819.42   35.10
  -5  -7   0  823.42   34.50
  -5   7   0  835.62   34.80
   5   7   0  750.32   35.20
  -5   7   0  838.42   34.20
  -5   7   0  800.02   34.60
   7  -7   0    0.00    1.00
  -7  -7   0    1.20    1.20
  -7  -7   0    2.10    1.20
   7  -7   0    3.10    1.30
   7  -7   0    1.30    1.20
  -7   7   0   -0.20    0.90
   7   7   0    0.50    1.30
  -7   7   0    0.40    0.80
   9  -7   0  266.97   13.10
   9  -7   0  270.07   13.00
   9  -7   0  282.47   13.60
  -9  -7   0  276.07   13.40
  -9  -7   0  258.37   13.40
  -9   7   0  269.47   12.70
   9   7   0  277.77   13.50
  -9   7   0  273.17   12.70
 -11  -7   0   57.19    5.00
  11  -7   0   58.29    4.80
  11  -7   0   62.69    4.50
 -11  -7   0   67.89    5.00
  11  -7   0   60.09    4.50
  11   7   0   62.29    4.70
 -11   7   0   58.49    4.00
 -11   7   0   55.59    4.00
  13  -7   0  173.38   10.10
  13  -7   0  188.48   10.00
 -13  -7   0  190.58   10.60
 -13  -7   0  169.28   10.80
  13  -7   0  190.28   11.00
 -13   7   0  190.98    9.70
 -13   7   0  181.08    9.70
 -15  -7   0  135.99    9.50
 -15  -7   0  128.19    8.70
  15  -7   0  123.79    7.90
  15  -7   0  129.79    8.50
 -15   7   0  134.99    7.90
 -15   7   0  138.59    8.00
 -17  -7   0   17.10    3.80
  17  -7   0   23.50    3.60
  17  -7   0   17.70    3.60
 -17   7   0   23.10    3.40
   0   8   0 2122.19   91.69
   0   8   0 2135.49   91.69
   0   8   0 2256.37   91.79
   2  -8   0  764.92   31.50
   2  -8   0  729.83   32.40
   2  -8   0  654.93   31.50
   2   8   0  768.32   32.60
   2   8   0  735.63   32.50
   2   8   0  744.33   32.40
  -2   8   0  745.43   32.40
  -2   8   0  773.72   32.40
  -2   8   0  799.22   32.20
   4  -8   0  704.23   34.30
   4  -8   0  817.02   34.50
  -4  -8   0  800.02   34.20
  -4  -8   0  811.12   34.10
   4  -8   0  778.22   35.10
  -4  -8   0  817.12   35.00
   4  -8   0  832.02   34.80
  -4   8   0  810.52   34.60
   4   8   0  770.92   35.20
  -4   8   0  841.42   34.80
  -4   8   0  851.01   34.40
   4   8   0  800.32   35.00
   6  -8   0  237.08   11.70
  -6  -8   0  245.88   12.00
  -6  -8   0  247.38   11.40
   6  -8   0  244.68   11.70
   6  -8   0  252.77   12.10
  -6  -8   0  249.88   11.60
  -6   8   0  248.08   11.50
   6   8   0  226.38   12.20
  -6   8   0  245.08   10.80
  -6   8   0  257.67   11.70
  -8  -8   0  908.21   39.10
   8  -8   0  852.11   39.00
   8  -8   0  904.11   39.00
   8  -8   0  912.21   38.80
  -8  -8   0  856.61   38.80
  -8   8   0  925.41   38.50
  -8   8   0  895.51   38.30
   8   8   0  851.51   39.30
  10  -8   0  102.89    6.90
  10  -8   0  108.89    6.60
  10  -8   0  108.29    6.60
 -10  -8   0  112.19    7.00
 -10  -8   0  113.79    6.90
 -10   8   0  106.69    6.10
 -10   8   0  105.39    6.00
  10   8   0  113.29    6.90
  12  -8   0  199.18   10.60
 -12  -8   0  215.38   11.20
 -12  -8   0  213.28   11.50
  12  -8   0  189.48   11.20
  12  -8   0  171.88   10.40
 -12   8   0  192.18   10.10
 -12   8   0  186.58   10.00
  12   8   0  219.38   11.10
  14  -8   0   30.60    4.10
 -14  -8   0   38.20    4.80
  14  -8   0   29.40    3.90
 -14  -8   0   33.20    4.70
  14  -8   0   33.10    4.80
 -14   8   0   32.90    3.60
 -14   8   0   33.00    3.60
  16  -8   0   63.39    6.50
 -16  -8   0   70.29    7.10
  16  -8   0   70.69    6.50
 -16  -8   0   68.79    7.60
 -16   8   0   56.49    5.00
   1  -9   0  561.74   23.70
   1  -9   0  550.44   23.70
  -1   9   0  574.14   25.00
   1   9   0  584.24   25.20
  -1   9   0  551.64   25.00
   1   9   0  580.64   25.20
  -1   9   0  571.54   25.10
   1   9   0  565.04   25.10
  -3  -9   0    4.70    0.70
  -3  -9   0    4.60    0.60
   3  -9   0    4.20    1.00
   3  -9   0    5.00    0.90
  -3  -9   0    3.40    1.40
   3  -9   0    3.90    1.40
   3   9   0    4.30    1.50
  -3   9   0    4.10    1.30
   3   9   0    3.40    1.50
   3   9   0    5.80    0.50
  -3   9   0    4.10    1.30
  -3   9   0    3.70    1.00
   3   9   0    3.80    1.60
   5  -9   0  331.77   14.60
  -5  -9   0  310.37   13.90
  -5  -9   0  324.57   13.90
   5  -9   0  267.87   14.00
   5  -9   0  322.17   14.20
  -5  -9   0  307.27   14.70
   5  -9   0  282.47   14.70
  -5   9   0  301.67   14.20
  -5   9   0  320.27   13.80
  -5   9   0  313.97   14.40
   5   9   0  309.17   14.90
   7  -9   0   76.39    5.30
  -7  -9   0   92.69    5.30
  -7  -9   0   93.39    5.80
   7  -9   0   87.49    5.70
   7  -9   0   95.89    5.50
  -7   9   0   90.49    5.20
  -7   9   0   82.39    5.20
   7   9   0   87.49    5.90
  -9  -9   0  196.78   10.30
   9  -9   0  202.38   10.20
   9  -9   0  163.38   10.10
   9  -9   0  204.68   10.50
  -9  -9   0  195.08   10.50
  -9   9   0  189.78    9.50
  -9   9   0  199.98    9.70
  -9   9   0  199.88   10.00
   9   9   0  189.48   10.60
  11  -9   0  170.58    9.90
  11  -9   0  170.08   10.30
 -11  -9   0  182.78   10.30
 -11  -9   0  186.18   10.30
  11  -9   0  179.68    9.90
  11   9   0  184.18   10.40
 -11   9   0  164.38    9.40
 -11   9   0  187.38    9.40
 -11   9   0  178.28    9.10
  13  -9   0   32.00    4.60
 -13  -9   0   41.80    5.00
  13  -9   0   39.40    4.50
  13  -9   0   41.60    4.60
 -13  -9   0   36.20    4.60
 -13   9   0   31.00    3.50
 -13   9   0   34.80    3.70
 -15  -9   0  361.86   18.60
 -15  -9   0  364.46   18.70
  15  -9   0  336.67   17.80
 -15   9   0  324.77   16.70
   0  10   0  990.00   42.50
   0  10   0  982.70   42.50
   0  10   0  972.40   42.50
   2 -10   0  587.14   24.50
   2 -10   0  560.24   25.60
   2 -10   0  574.84   24.60
  -2  10   0  587.44   25.60
   2  10   0  576.24   25.80
  -2  10   0  597.84   25.40
   2  10   0  584.04   25.80
   2  10   0  560.84   25.70
  -2  10   0  546.55   25.60
   4 -10   0  393.16   18.90
   4 -10   0  424.86   19.70
  -4 -10   0  394.86   19.60
  -4 -10   0  434.16   18.60
   4 -10   0  449.36   18.90
   4 -10   0  383.16   19.80
  -4 -10   0  412.16   18.50
   4  10   0  460.35   20.10
  -4  10   0  471.45   19.10
   4  10   0  447.16   18.30
  -4  10   0  446.56   19.50
   4  10   0  385.06   19.60
  -4  10   0  455.45   19.70
   6 -10   0  197.58   10.70
  -6 -10   0  204.78   11.20
   6 -10   0  230.78   11.20
   6 -10   0  208.08   11.40
  -6 -10   0  232.58   10.50
  -6  10   0  231.48   10.90
  -6  10   0  223.28   11.00
   6  10   0  232.98   11.60
  -8 -10   0  747.53   31.40
   8 -10   0  611.14   31.40
   8 -10   0  691.93   32.00
  -8 -10   0  717.83   32.00
   8 -10   0  735.43   31.70
  -8  10   0  760.42   31.30
   8  10   0  712.53   32.20
  -8  10   0  669.13   31.20
  10 -10   0   15.00    2.90
  10 -10   0   18.40    3.10
 -10 -10   0   23.00    3.10
  10 -10   0   28.80    3.50
 -10 -10   0   22.10    3.50
  10  10   0   17.70    3.10
 -10  10   0   20.60    2.80
 -10  10   0   22.60    2.70
 -12 -10   0  299.77   15.30
  12 -10   0  281.07   14.60
  12 -10   0  248.08   14.80
 -12 -10   0  307.17   15.00
  12 -10   0  284.97   14.80
  12  10   0  289.67   15.00
 -12  10   0  262.77   13.90
 -12  10   0  270.57   13.70
  14 -10   0   21.70    4.30
 -14 -10   0   23.40    4.00
  14 -10   0   23.30    3.90
  14 -10   0   21.10    3.70
 -14 -10   0   27.90    4.60
 -14  10   0   17.90    3.30
 -14  10   0   23.20    3.20
  16 -10   0   50.79    5.60
 -16 -10   0   45.20    5.80
  16 -10   0   43.60    5.70
 -16 -10   0   54.49    6.50
 -16  10   0   37.30    5.00
   1 -11   0   11.00    0.90
   1 -11   0   12.90    0.90
   1  11   0    8.90    1.90
  -1  11   0   13.50    2.00
  -1  11   0   11.60    2.10
  -1  11   0   14.10    2.20
   1  11   0   10.00    2.00
   1  11   0   12.60    2.10
  -3 -11   0   88.39    5.40
  -3 -11   0   84.39    4.00
   3 -11   0   81.59    4.40
  -3 -11   0   82.09    3.90
   3 -11   0   82.19    5.40
   3 -11   0   87.89    4.30
  -3  11   0   79.09    5.20
  -3  11   0   77.89    5.10
   3  11   0   77.09    5.30
   3  11   0   72.59    5.20
  -3  11   0   86.09    4.80
   3  11   0   84.49    5.40
   5 -11   0   54.69    4.40
  -5 -11   0   51.39    4.40
   5 -11   0   54.69    4.50
   5 -11   0   60.49    3.80
  -5 -11   0   58.09    3.40
  -5 -11   0   61.69    3.50
   5  11   0   57.19    4.50
  -5  11   0   57.59    4.10
  -5  11   0   52.19    4.20
  -5  11   0   59.49    3.50
   7 -11   0    1.00    1.60
  -7 -11   0    0.20    1.40
   7 -11   0    0.30    1.10
   7 -11   0    1.40    1.50
  -7 -11   0    1.80    1.00
  -7  11   0    1.30    1.30
   7  11   0    0.00    1.40
  -7  11   0    1.30    1.10
   9 -11   0   25.30    3.60
   9 -11   0   24.30    3.40
  -9 -11   0   23.80    2.90
  -9 -11   0   25.30    3.80
   9 -11   0   23.30    3.60
  -9  11   0   29.10    3.30
  -9  11   0   31.90    3.30
   9  11   0   24.30    3.60
 -11 -11   0   17.80    3.60
  11 -11   0   20.70    3.40
  11 -11   0   14.00    3.10
  11 -11   0   22.10    3.70
 -11 -11   0   19.40    3.00
  11  11   0   10.30    2.90
 -11  11   0   14.20    2.60
 -11  11   0   18.00    2.70
  13 -11   0   68.89    6.10
 -13 -11   0   52.79    5.50
  13 -11   0   54.19    5.80
  13 -11   0   51.99    5.70
 -13 -11   0   50.59    6.10
 -13  11   0   53.89    4.40
 -13  11   0   43.70    4.70
  15 -11   0   14.10    3.90
 -15 -11   0   14.50    3.90
  15 -11   0   10.70    3.60
 -15 -11   0   16.30    3.60
  15 -11   0   17.10    3.80
 -15  11   0   19.00    3.50
   0  12   0  456.65   21.60
   0  12   0  478.65   21.60
   0  12   0  485.95   21.60
   2 -12   0   30.60    2.00
  -2 -12   0   31.70    1.50
   2 -12   0   33.80    2.00
   2 -12   0   26.70    3.10
  -2 -12   0   36.30    3.10
   2  12   0   38.40    3.20
   2  12   0   29.70    3.40
  -2  12   0   25.20    2.70
   2  12   0   25.90    3.10
  -2  12   0   26.80    3.10
  -2  12   0   28.10    3.00
  -4 -12   0  157.98    7.20
  -4 -12   0  157.38    8.60
   4 -12   0  142.89    8.50
   4 -12   0  154.28    7.60
   4 -12   0  146.09    8.70
  -4 -12   0  156.38    7.10
  -4  12   0  153.18    7.80
   4  12   0  157.58    8.70
  -4  12   0  159.48    8.50
  -4  12   0  141.09    8.40
   4  12   0  161.98    8.80
   6 -12   0  384.66   17.40
   6 -12   0  343.87   18.30
  -6 -12   0  344.07   18.10
   6 -12   0  357.56   18.10
  -6 -12   0  381.76   16.90
  -6  12   0  383.16   17.90
  -6  12   0  399.96   17.90
   6  12   0  397.86   18.40
   8 -12   0    1.70    1.90
   8 -12   0    4.20    1.70
   8 -12   0    4.70    2.00
  -8 -12   0    4.80    1.40
  -8 -12   0    2.50    1.90
  -8  12   0    4.80    1.90
  -8  12   0    4.60    1.50
   8  12   0    7.00    2.10
 -10 -12   0  204.38   10.60
  10 -12   0  204.68   11.30
  10 -12   0  197.08   11.40
 -10 -12   0  184.88   11.60
  10 -12   0  195.48   11.70
 -10  12   0  204.78   10.60
 -10  12   0  188.68   10.60
  10  12   0  205.28   11.70
  12 -12   0    0.70    2.20
 -12 -12   0    4.40    2.80
 -12 -12   0    0.10    1.30
  12 -12   0   -0.30    1.90
  12 -12   0    4.60    2.50
 -12  12   0    2.50    1.60
  12  12   0   -1.50    1.80
 -12  12   0   -2.40    1.20
 -14 -12   0  123.09    8.10
 -14 -12   0  111.59    9.00
  14 -12   0  111.19    8.40
  14 -12   0  107.29    8.60
   1 -13   0   21.10    1.40
   1 -13   0   21.10    1.40
   1 -13   0   26.80    3.10
  -1  13   0   24.40    2.80
   1  13   0   18.70    2.70
   1  13   0   24.70    2.90
  -1  13   0   22.30    2.70
   1  13   0   20.70    2.70
  -1  13   0   24.40    2.90
   3 -13   0  215.68   11.50
  -3 -13   0  242.28   11.50
  -3 -13   0  216.88    9.70
   3 -13   0  235.88   10.20
   3 -13   0  221.28   10.20
  -3 -13   0  215.38    9.70
  -3  13   0  209.38   11.20
   3  13   0  230.98   11.70
   3  13   0  221.58   11.50
  -3  13   0  217.48   10.80
   3  13   0  233.38   11.70
  -3  13   0  213.98   11.40
   5 -13   0   77.39    4.60
   5 -13   0   73.09    5.70
  -5 -13   0   73.09    4.10
   5 -13   0   66.59    5.30
  -5 -13   0   83.99    5.70
  -5  13   0   77.39    5.30
  -5  13   0   78.99    5.50
   5  13   0   71.19    5.40
  -7 -13   0   21.10    3.40
  -7 -13   0   18.90    2.20
   7 -13   0   25.70    3.00
   7 -13   0   24.10    3.80
   7 -13   0   20.40    3.40
   7  13   0   26.40    3.60
  -7  13   0   22.70    3.20
  -7  13   0   24.80    3.20
   9 -13   0   73.99    6.10
  -9 -13   0   83.49    5.30
   9 -13   0   81.19    5.90
   9 -13   0   72.69    6.60
  -9 -13   0   73.89    6.30
  -9  13   0   92.69    5.90
  -9  13   0   80.79    5.80
   9  13   0   78.19    6.20
 -11 -13   0    0.20    1.30
  11 -13   0   -1.60    2.00
  11 -13   0    1.90    1.80
  11 -13   0    2.80    2.40
 -11 -13   0    1.00    2.30
 -11  13   0    2.20    1.60
 -11  13   0   -0.20    1.30
  11  13   0   -0.30    1.90
 -13 -13   0  217.68   11.90
  13 -13   0  201.38   12.70
  13 -13   0  194.88   12.80
 -13 -13   0  189.78   12.80
  13 -13   0  238.68   13.10
 -13  13   0  214.88   11.90
   0 -14   0    8.80    0.70
   0  14   0    9.40    2.00
   0  14   0    8.50    2.00
   0  14   0    8.10    1.80
   2 -14   0  871.71   38.20
   2 -14   0  854.81   36.60
  -2 -14   0  854.11   36.10
  -2 -14   0  840.62   36.10
   2 -14   0  891.11   36.60
  -2 -14   0  925.21   38.00
   2  14   0  834.32   38.20
  -2  14   0  832.32   38.00
   2  14   0  871.51   38.30
   2  14   0  850.51   38.20
  -2  14   0  824.72   38.00
  -2  14   0  887.61   37.80
  -4 -14   0   88.79    4.40
  -4 -14   0   84.09    4.30
   4 -14   0   97.89    6.40
  -4 -14   0  102.59    6.10
   4 -14   0   84.29    6.00
   4 -14   0   86.89    4.90
  -4  14   0   90.29    5.20
   4  14   0   80.39    5.90
  -4  14   0   82.29    5.70
  -4  14   0   84.69    6.00
   4  14   0   79.89    5.90
   6 -14   0  364.16   19.90
   6 -14   0  418.16   19.00
   6 -14   0  418.96   20.30
  -6 -14   0  428.56   20.10
  -6 -14   0  418.06   18.40
   6  14   0  433.26   20.20
  -6  14   0  389.16   19.90
  -6  14   0  424.56   19.80
  -8 -14   0   42.80    3.40
   8 -14   0   37.10    4.90
   8 -14   0   35.40    5.00
  -8 -14   0   41.40    5.10
   8 -14   0   47.00    4.00
  -8  14   0   43.70    4.50
   8  14   0   39.20    4.80
  -8  14   0   48.30    5.00
 -10 -14   0   78.69    7.80
 -10 -14   0   96.19    6.00
  10 -14   0   73.69    7.70
  10 -14   0   88.09    7.30
  10 -14   0  100.39    6.70
 -10  14   0   93.29    6.50
  10  14   0   98.99    7.20
 -10  14   0   81.29    6.50
 -12 -14   0   97.09    8.40
  12 -14   0  120.29    8.00
  12 -14   0  105.79    8.40
 -12 -14   0  109.29    7.10
  12 -14   0   96.59    8.50
  12  14   0  108.09    8.20
 -12  14   0  103.89    7.50
   1 -15   0   82.19    5.40
  -1 -15   0   84.99    5.20
   1 -15   0   83.79    4.00
   1 -15   0   78.89    3.90
  -1  15   0   75.49    5.40
   1  15   0   73.09    5.40
  -1  15   0   78.09    5.50
  -1  15   0   90.79    5.50
   1  15   0   84.79    5.70
   1  15   0   79.09    5.50
  -3 -15   0    8.40    0.90
   3 -15   0    7.00    2.10
  -3 -15   0    8.40    2.00
  -3 -15   0    7.30    0.90
   3 -15   0    7.30    1.20
   3 -15   0    6.70    2.00
  -3  15   0    6.40    1.80
   3  15   0    7.40    2.20
   3  15   0    6.80    1.90
  -3  15   0    9.30    1.80
   3  15   0    7.00    2.30
  -3  15   0    5.40    1.90
   5 -15   0  254.67   13.20
  -5 -15   0  236.98   11.20
   5 -15   0  261.27   13.40
   5 -15   0  235.68   11.70
  -5 -15   0  251.17   13.00
   5  15   0  242.78   13.10
  -5  15   0  260.37   12.90
  -5  15   0  242.28   13.00
  -7 -15   0   63.39    5.40
   7 -15   0   56.89    5.90
   7 -15   0   59.09    4.40
   7 -15   0   59.39    6.00
  -7 -15   0   57.39    3.80
  -7  15   0   62.79    5.10
   7  15   0   63.99    5.40
  -7  15   0   65.09    5.40
   9 -15   0   96.39    7.60
  -9 -15   0  100.69    7.40
  -9 -15   0   93.69    5.90
   9 -15   0   99.39    6.50
   9 -15   0   85.09    7.20
  -9  15   0  110.39    7.10
  -9  15   0   83.19    6.70
   9  15   0   97.59    7.20
 -11 -15   0    6.50    1.80
  11 -15   0    9.80    3.60
  11 -15   0    7.40    2.40
  11 -15   0   10.40    3.40
 -11 -15   0    9.60    3.30
  11  15   0   15.80    3.50
 -11  15   0    8.80    2.50
   0 -16   0   38.80    2.00
   0 -16   0   38.80    2.10
   0 -16   0   36.80    3.90
   0  16   0   38.20    4.00
   0  16   0   36.60    4.00
   0  16   0   42.40    4.20
   2 -16   0  100.19    4.80
   2 -16   0   93.39    6.30
  -2 -16   0   88.79    4.30
  -2 -16   0   90.39    4.30
  -2 -16   0  100.19    6.00
   2 -16   0   96.29    6.50
  -2  16   0   96.59    6.20
   2  16   0  100.09    6.60
   2  16   0   94.19    6.30
  -2  16   0  100.09    6.00
  -2  16   0   91.49    6.10
   2  16   0  101.39    6.50
  -4 -16   0   26.30    1.80
   4 -16   0   25.60    3.70
  -4 -16   0   20.00    3.10
   4 -16   0   29.00    2.40
   4 -16   0   29.40    3.80
  -4  16   0   29.00    3.50
   4  16   0   22.40    3.40
   4  16   0   24.00    3.80
  -4  16   0   23.60    3.50
  -6 -16   0   26.40    3.80
   6 -16   0   25.70    4.10
   6 -16   0   22.20    3.70
   6 -16   0   26.60    2.90
  -6 -16   0   23.20    2.10
  -6  16   0   28.00    4.00
  -6  16   0   28.20    3.60
   6  16   0   24.90    3.80
   8 -16   0  142.99    9.50
  -8 -16   0  139.29    7.50
   8 -16   0  144.79    8.20
   8 -16   0  135.39    9.40
  -8 -16   0  160.18    9.50
  -8  16   0  129.99    9.10
  -8  16   0  142.99    8.80
   8  16   0  133.49    9.10
 -10 -16   0   -0.30    2.10
  10 -16   0   -0.30    2.60
  10 -16   0    2.80    1.70
  10 -16   0   -1.80    2.20
 -10 -16   0    1.50    1.20
  10  16   0    1.80    2.00
 -10  16   0    2.60    2.10
   1 -17   0   20.60    2.90
  -1 -17   0   23.70    3.10
  -1 -17   0   21.80    1.20
  -1 -17   0   22.30    1.20
   1 -17   0   23.00    1.60
   1  17   0   18.70    3.00
   1  17   0   24.40    3.30
   1  17   0   12.80    2.70
  -1  17   0   19.40    2.80
  -1  17   0   22.30    3.10
  -1  17   0   19.80    3.10
   3 -17   0  121.39    7.70
   3 -17   0  121.79    7.80
  -3 -17   0  115.49    5.50
  -3 -17   0  127.09    7.30
   3 -17   0  121.79    6.10
  -3  17   0  114.99    7.50
  -3  17   0  118.79    7.40
   3  17   0  128.39    7.80
   3  17   0  115.29    7.80
   5 -17   0    9.00    2.80
   5 -17   0    8.50    1.60
  -5 -17   0    5.10    2.10
  -5 -17   0    6.20    1.10
   5 -17   0    5.10    2.30
  -5  17   0    1.90    1.80
   5  17   0    5.40    2.10
  -5  17   0    8.90    2.30
   7 -17   0  104.19    6.40
   7 -17   0  111.59    8.00
  -7 -17   0  108.29    5.90
   7 -17   0  108.69    7.70
  -7  17   0  103.49    7.70
  -7  17   0  102.99    7.10
   7  17   0  107.79    7.60
  -9 -17   0    0.60    1.00
   9 -17   0   -1.30    2.40
  -9 -17   0   -3.90    1.70
   9 -17   0    0.90    1.40
   9 -17   0   -2.20    2.00
  -9  17   0    2.10    2.20
   9  17   0   -0.10    1.80
   0 -18   0  782.52   32.70
   0 -18   0  741.93   34.80
   0  18   0  815.12   35.10
   0  18   0  768.22   35.00
   0  18   0  774.72   35.20
   2 -18   0   29.80    2.10
   2 -18   0   33.20    4.00
   2 -18   0   32.90    3.90
  -2  18   0   34.70    4.00
   2  18   0   29.20    4.00
  -2  18   0   30.90    3.80
  -2  18   0   29.30    3.50
   2  18   0   28.10    3.80
   2  18   0   26.10    3.80
   4 -18   0  237.78   13.10
  -4 -18   0  243.48   10.80
   4 -18   0  244.38   11.50
   4 -18   0  241.98   13.20
  -4  18   0  252.27   13.10
  -4  18   0  246.08   12.90
   4  18   0  240.38   13.20
   6 -18   0   19.00    3.50
   6 -18   0    9.10    2.70
  -6 -18   0   10.50    1.50
   6 -18   0   10.00    1.90
  -6  18   0   23.60    3.30
   6  18   0   14.90    3.10
  -6  18   0   11.60    2.80
  -8 -18   0   47.30    3.50
   8 -18   0   47.70    5.90
   8 -18   0   49.20    4.00
  -8 -18   0   49.20    5.60
   8 -18   0   45.90    5.80
  -8  18   0   38.40    5.10
   8  18   0   35.20    4.80
  -1 -19   0    5.30    1.80
   1 -19   0    6.50    2.00
   1 -19   0   10.70    2.40
   1 -19   0    7.00    0.90
   1  19   0    6.70    2.10
   1  19   0    8.50    2.40
  -1  19   0    5.90    2.00
  -1  19   0    2.60    1.60
   1  19   0    2.70    1.90
  -1  19   0   12.00    2.40
  -3 -19   0  109.69    5.00
   3 -19   0  106.99    7.40
   3 -19   0  123.99    7.70
   3 -19   0  107.99    5.70
   3  19   0  110.79    7.50
  -3  19   0  116.69    7.40
  -3  19   0  104.49    7.30
   3  19   0  114.29    7.80
  -5 -19   0   23.70    1.90
   5 -19   0   28.00    4.10
   5 -19   0   23.50    2.60
   5 -19   0   25.60    4.90
  -5  19   0   24.20    3.80
  -5  19   0   23.20    3.40
   5  19   0   33.80    4.40
   7 -19   0  150.28    8.40
  -7 -19   0  164.48    7.90
   7 -19   0  167.58   10.40
  -7  19   0  144.19    9.70
   7  19   0  148.29    9.90
   0 -20   0   23.70    3.50
   0  20   0   27.90    3.90
   0  20   0   17.50    3.10
   0  20   0   21.60    3.40
  -2 -20   0   37.00    4.50
   2 -20   0   44.00    2.60
   2 -20   0   40.00    4.80
  -2  20   0   41.90    4.70
  -2  20   0   46.20    4.90
   2  20   0   48.00    5.10
   2  20   0   45.90    4.90
   4 -20   0   36.80    4.60
   4 -20   0   40.50    2.90
  -4 -20   0   38.90    2.10
  -4  20   0   43.50    4.90
  -4  20   0   36.20    4.50
   4  20   0   35.60    4.60
   6 -20   0   38.60    5.20
  -6 -20   0   40.40    2.70
   6 -20   0   45.90    3.50
   6  20   0   36.90    4.90
  -6  20   0   35.90    4.70
   1 -21   0   59.29    5.10
   1  21   0   60.89    5.40
   1  21   0   55.99    5.00
  -1  21   0   57.49    5.80
  -1  21   0   57.39    5.20
   1  21   0   57.29    5.60
 -18   0   1   -1.40    1.40
  18   0  -1   -1.10    1.60
 -16   0   1    1.20    1.50
  16   0  -1    0.20    1.60
  14   0  -1    0.40    1.30
  14   0  -1   -0.40    0.90
 -14   0   1    0.70    1.20
 -12   0   1    0.60    1.00
 -12   0   1   -0.20    1.10
  12   0  -1    0.90    0.90
  12   0  -1   -0.10    1.10
 -10   0   1   -1.50    0.80
  10   0  -1    0.60    0.80
  10   0  -1    1.20    0.80
  10   0  -1    1.70    1.20
 -10   0   1    1.00    1.00
  -8   0   1   -0.30    1.40
   8   0  -1   -0.80    0.60
   8   0  -1   -0.20    0.60
   8   0  -1    0.60    0.90
  -8   0   1   -0.40    0.70
  -8   0   1    0.90    0.80
   6   0  -1    1.40    0.80
  -6   0   1   -1.00    1.20
   6   0  -1   -0.60    0.40
  -6   0   1    0.20    0.70
   6   0  -1   -0.30    0.50
  -6   0   1   -0.60    0.60
  -4   0   1   -3.00    0.60
  -4   0   1   -0.60    1.20
   4   0  -1   -2.10    0.40
  -4   0   1   -2.40    0.60
   4   0  -1   -2.10    0.60
   4   0  -1   -2.20    0.60
  -2   0   1   -1.40    0.40
  -2   0   1   -1.70    0.30
  -2   0   1   -1.00    0.80
  -2   0   1   -1.10    0.90
   2   0  -1   -1.40    0.40
   2   0  -1    0.90    0.40
   0   0   1   -0.20    0.20
   0   0   1   -0.40    0.20
   0   0  -1   -0.40    0.20
   0   0   1   -0.70    0.30
   0   0  -1    0.40    0.30
   0   0   1   -0.90    0.20
   2   0   1    1.30    0.50
  -2   0  -1    1.90    0.60
   2   0   1    0.20    0.50
   2   0   1   -0.80    0.40
  -2   0  -1    0.50    0.50
   2   0   1    1.40    0.50
   4   0   1    0.50    0.50
   4   0   1    0.30    0.40
  -4   0  -1   -0.40    0.50
   4   0   1    0.40    0.50
   4   0   1   -0.20    0.50
  -4   0  -1    1.80    0.70
   6   0   1   -0.10    0.70
   6   0   1    0.30    0.50
   6   0   1    0.40    0.60
   6   0   1    0.20    0.60
  -6   0  -1    1.70    0.80
  -6   0  -1   -0.10    0.60
  -8   0  -1   -0.50    0.90
   8   0   1   -0.30    0.90
   8   0   1   -1.30    0.90
   8   0   1    1.10    0.90
  -8   0  -1    0.60    0.90
   8   0   1    1.10    0.60
  10   0   1   -1.20    0.80
 -10   0  -1   -1.00    0.80
  10   0   1    0.40    1.00
  10   0   1   -0.20    0.70
 -10   0  -1    1.70    1.10
  12   0   1    1.10    1.30
 -12   0  -1   -0.90    1.00
  12   0   1    0.50    1.10
  14   0   1   -1.00    1.30
  14   0   1   -0.30    1.20
 -14   0  -1    0.10    1.40
  16   0   1    2.20    1.80
 -16   0  -1   -0.30    1.50
  17  -1  -1   60.69    5.10
 -17  -1   1   46.30    4.90
 -17   1   1   50.09    5.10
  17   1  -1   55.29    5.60
  15  -1  -1   31.60    3.80
 -15  -1   1   31.60    3.70
  15   1  -1   27.00    3.60
 -15   1   1   33.90    3.70
  13  -1  -1    9.20    2.00
 -13  -1   1    6.70    1.80
 -13  -1   1   10.40    2.30
  13  -1  -1    5.00    1.40
  13   1  -1    5.80    1.70
  13   1  -1    9.30    1.50
 -13   1   1    7.70    1.80
 -11  -1   1   60.79    4.50
  11  -1  -1   66.39    3.80
  11  -1  -1   59.29    4.20
  11  -1  -1   62.09    4.20
 -11  -1   1   57.79    4.00
  11   1  -1   55.99    4.10
 -11   1   1   63.19    4.30
  11   1  -1   64.79    3.60
 -11   1   1   63.19    4.10
  -9  -1   1   50.99    3.60
   9  -1  -1   47.30    3.30
   9  -1  -1   51.19    3.00
  -9  -1   1   46.90    3.30
   9  -1  -1   48.70    3.40
  -9  -1   1   52.09    4.60
  -9   1   1   49.20    4.70
  -9   1   1   47.80    3.20
   9   1  -1   49.20    2.80
   9   1  -1   49.99    3.50
  -9   1   1   53.39    3.50
  -7  -1   1  119.59    7.00
  -7  -1   1  117.19    6.10
   7  -1  -1  129.89    6.00
   7  -1  -1  121.49    5.60
  -7  -1   1  115.79    5.90
   7  -1  -1  114.79    5.90
  -7   1   1   95.19    6.80
  -7   1   1  115.39    5.80
   7   1  -1  124.69    5.50
  -7   1   1  119.29    6.00
   7   1  -1  117.29    5.80
   7   1  -1  122.59    6.00
   5  -1  -1    1.70    0.60
  -5  -1   1    1.20    0.60
  -5  -1   1    1.50    0.70
  -5  -1   1    1.40    1.10
   5  -1  -1    6.30    0.90
   5  -1  -1    2.20    0.50
   5   1  -1    2.40    0.40
  -5   1   1    2.00    0.60
   5   1  -1    1.70    0.50
  -5   1   1    1.90    0.60
  -5   1   1    2.10    1.10
   5   1  -1    1.70    0.60
   3  -1  -1   43.60    2.40
  -3  -1   1   41.60    3.00
  -3  -1   1   45.20    2.40
   3  -1  -1   47.10    2.40
  -3  -1   1   43.80    2.40
   3   1  -1   50.09    2.00
   3   1  -1   45.40    2.30
   3   1  -1   44.60    2.30
  -3   1   1   46.10    2.20
  -3   1   1   48.60    2.40
  -3   1   1   37.10    3.10
  -1  -1   1    2.70    0.40
   1  -1  -1    2.30    0.40
  -1  -1   1    1.50    0.50
  -1  -1   1    2.80    0.30
  -1  -1   1    2.20    0.20
  -1  -1   1    2.00    0.40
  -1   1   1    2.70    0.40
   1   1  -1    3.50    0.30
  -1   1   1    1.90    0.60
   1   1  -1    2.60    0.40
  -1   1   1    2.30    0.40
  -1  -1  -1  124.99    5.40
   1  -1   1  112.39    5.30
   1  -1   1  121.49    5.40
   1  -1   1  120.49    5.30
  -1  -1  -1  119.99    5.30
   1  -1   1  127.29    5.20
  -1  -1  -1  114.59    5.30
   1   1   1  123.99    5.30
  -1   1  -1  119.69    5.40
   1   1   1  119.19    5.30
   1   1   1  125.79    5.40
   1   1   1  116.79    5.30
  -1   1  -1  111.99    5.30
  -3  -1  -1   77.09    4.00
   3  -1   1   80.39    3.90
   3  -1   1   76.99    3.80
   3  -1   1   78.99    3.90
  -3  -1  -1   80.29    3.90
   3  -1   1   76.09    3.60
  -3   1  -1   78.49    3.90
   3   1   1   75.49    3.80
   3   1   1   80.69    3.80
   3   1   1   77.49    4.10
  -3   1  -1   83.99    4.00
   3   1   1   81.39    3.90
  -5  -1  -1  225.28   10.50
  -5  -1  -1  238.88   10.80
   5  -1   1  231.68   10.50
   5  -1   1  233.88   10.00
   5  -1   1  236.18   10.50
   5  -1   1  223.68   10.50
   5   1   1  231.68   10.40
   5   1   1  230.28   10.50
  -5   1  -1  231.58   10.50
  -5   1  -1  242.98   10.70
   5   1   1  233.38   10.50
   5   1   1  229.68   10.50
   7  -1   1  180.28    8.60
  -7  -1  -1  169.28    8.50
  -7  -1  -1  188.48    9.00
   7  -1   1  187.28    8.50
   7  -1   1  167.38    8.60
  -7   1  -1  186.08    8.80
   7   1   1  183.08    8.60
   7   1   1  172.18    8.60
   7   1   1  188.98    8.40
   7   1   1  175.78    8.20
  -7   1  -1  162.88    8.50
  -9  -1  -1  100.09    6.10
  -9  -1  -1  117.89    6.60
   9  -1   1  119.69    6.10
   9  -1   1  115.49    6.30
   9  -1   1  115.79    6.30
   9   1   1  114.09    5.60
   9   1   1  118.49    6.30
  -9   1  -1  110.19    6.40
  -9   1  -1  113.59    6.30
   9   1   1  121.49    6.00
   9   1   1  114.59    6.20
 -11  -1  -1  283.37   13.70
 -11  -1  -1  261.37   13.10
  11  -1   1  266.17   12.80
  11  -1   1  269.77   13.10
 -11   1  -1  271.07   13.20
  11   1   1  271.17   12.70
  11   1   1  268.37   13.20
  13  -1   1  101.99    6.60
  13  -1   1  110.99    6.40
 -13  -1  -1   95.29    6.50
  13   1   1  106.09    6.70
 -13   1  -1  107.29    6.60
  13   1   1  113.19    6.30
  15  -1   1   89.09    5.90
  15  -1   1   81.99    6.20
 -15  -1  -1   80.29    6.20
  15   1   1   98.39    6.70
 -15   1  -1   86.59    6.20
  15   1   1   99.49    5.90
  17  -1   1   42.70    4.90
 -17  -1  -1   47.10    5.20
  17   1   1   40.20    5.00
 -17   1  -1   50.49    5.30
 -18  -2   1   30.60    4.20
  18  -2  -1   31.90    4.40
  18   2  -1   32.20    4.50
 -18   2   1   37.40    4.30
  16  -2  -1   87.59    6.50
 -16  -2   1   92.99    6.40
  16   2  -1   92.99    6.50
 -16   2   1   96.59    6.30
 -14  -2   1  216.18   11.60
  14  -2  -1  228.78   11.20
 -14  -2   1  237.28   12.80
  14  -2  -1  225.58   11.80
 -14   2   1  226.18   11.60
  14   2  -1  239.18   12.00
  12  -2  -1  194.48    9.50
 -12  -2   1  198.98   10.70
  12  -2  -1  192.48   10.00
 -12  -2   1  192.48   10.00
  12  -2  -1  202.48   10.10
 -12   2   1  192.48    9.80
  12   2  -1  196.08   10.10
  12   2  -1  194.28    9.10
 -10  -2   1  115.49    6.60
  10  -2  -1  123.09    6.30
  10  -2  -1  114.39    6.60
  10  -2  -1  126.59    6.80
  10   2  -1  131.39    6.80
 -10   2   1  131.79    6.60
  10   2  -1  127.19    6.00
 -10   2   1  133.99    6.90
   8  -2  -1   51.49    3.30
   8  -2  -1   49.20    2.90
   8  -2  -1   45.20    3.20
  -8  -2   1   50.29    3.50
  -8  -2   1   49.20    3.20
  -8  -2   1   42.70    4.00
  -8   2   1   52.89    3.10
   8   2  -1   47.20    3.00
  -8   2   1   39.00    4.60
   8   2  -1   55.59    3.30
  -8   2   1   46.10    3.10
   8   2  -1   49.99    2.60
   6  -2  -1   29.70    2.10
  -6  -2   1   29.80    2.10
   6  -2  -1   28.90    2.10
  -6  -2   1   28.60    2.70
   6  -2  -1   27.00    1.80
  -6  -2   1   30.90    2.30
   6   2  -1   28.20    1.60
  -6   2   1   31.50    2.00
   6   2  -1   30.90    1.90
  -6   2   1   29.00    2.10
   6   2  -1   31.60    2.10
  -6   2   1   25.00    3.10
  -4  -2   1   48.80    2.80
   4  -2  -1   51.69    2.80
  -4  -2   1   49.99    3.30
  -4  -2   1   49.40    2.70
  -4  -2   1   48.90    2.70
   4  -2  -1   53.09    2.70
   4   2  -1   52.79    2.70
  -4   2   1   46.00    2.70
  -4   2   1   45.90    3.40
   4   2  -1   53.59    2.30
  -4   2   1   50.69    2.50
  -2  -2   1    7.90    0.70
  -2  -2   1    8.60    1.30
   2  -2  -1    7.10    0.80
  -2  -2   1    6.90    0.70
   2  -2  -1    7.80    0.80
   2  -2  -1    7.80    0.90
  -2  -2   1    7.50    0.40
  -2   2   1    6.90    0.50
   2   2  -1    8.50    0.70
  -2   2   1    7.40    1.40
   2   2  -1    7.40    0.80
  -2   2   1    6.60    0.80
   0  -2  -1   13.00    0.80
   0  -2   1   14.60    0.70
   0  -2   1   13.50    0.90
   0  -2  -1   13.60    0.90
   0  -2   1   18.10    1.10
   0  -2  -1   14.40    0.90
   0  -2   1   13.40    0.90
   0  -2   1   14.10    0.90
   0   2  -1   13.30    1.20
   0   2   1   15.20    1.10
   0   2   1   12.10    1.30
   0   2   1   11.70    1.00
   0   2   1   14.10    0.80
   0   2   1   13.60    0.80
   0   2  -1   12.70    0.80
   2  -2   1  114.19    5.30
  -2  -2  -1  114.49    5.30
   2  -2   1  113.69    5.20
   2  -2   1  116.19    5.40
  -2  -2  -1  111.49    5.30
  -2  -2  -1  109.39    5.40
   2  -2   1  111.69    5.30
   2   2   1  124.19    5.30
   2   2   1  114.19    5.30
  -2   2  -1  109.49    5.30
   2   2   1  123.39    5.60
   4  -2   1  245.08   10.00
   4  -2   1  240.38   10.70
  -4  -2  -1  240.78   10.90
   4  -2   1  245.08   10.60
   4  -2   1  233.48   10.70
  -4  -2  -1  229.08   10.60
  -4   2  -1  237.18   10.70
   4   2   1  215.68   10.90
   4   2   1  243.68   10.60
   4   2   1  252.17   10.60
   4   2   1  229.58   10.70
  -4   2  -1  229.48   10.60
   6  -2   1  310.47   13.90
   6  -2   1  299.47   13.70
  -6  -2  -1  287.27   13.70
  -6  -2  -1  327.87   14.10
   6  -2   1  300.57   13.70
  -6   2  -1  319.17   13.90
   6   2   1  296.47   13.60
   6   2   1  308.67   13.60
   6   2   1  299.87   13.80
  -6   2  -1  326.27   13.80
   6   2   1  286.67   13.70
  -8  -2  -1  152.18    8.20
   8  -2   1  162.18    8.30
  -8  -2  -1  163.68    8.60
   8  -2   1  169.38    8.10
   8  -2   1  161.18    8.20
  -8   2  -1  170.88    8.40
  -8   2  -1  164.98    8.30
   8   2   1  180.08    8.20
   8   2   1  160.68    7.90
   8   2   1  160.38    8.20
   8   2   1  166.98    8.00
 -10  -2  -1   60.49    4.40
  10  -2   1   47.20    3.60
  10  -2   1   51.79    3.80
  10  -2   1   49.90    3.80
 -10  -2  -1   53.59    3.80
 -10   2  -1   53.49    3.80
  10   2   1   58.69    3.60
  10   2   1   53.19    3.30
  10   2   1   53.59    3.90
  12  -2   1   10.60    2.10
 -12  -2  -1   10.90    2.10
 -12  -2  -1   10.70    2.40
  12  -2   1   10.10    1.90
  12   2   1    8.90    2.10
 -12   2  -1   10.60    2.00
  12   2   1   16.00    2.10
 -14  -2  -1   78.29    5.60
  14  -2   1   73.59    5.10
  14  -2   1   68.69    5.40
  14   2   1   81.49    5.00
  14   2   1   67.59    5.50
 -14   2  -1   71.59    5.30
  16  -2   1   92.89    6.60
 -16  -2  -1   97.39    6.70
  16  -2   1   92.79    6.10
  16   2   1   75.99    6.30
 -16   2  -1   88.39    6.50
 -17  -3   1  103.49    7.10
  17  -3  -1   92.09    6.90
  17   3  -1  102.49    7.10
 -17   3   1  101.09    6.70
  15  -3  -1    6.10    1.60
 -15  -3   1    1.40    1.60
  15  -3  -1    7.90    2.20
  15   3  -1    7.60    2.10
 -15   3   1    4.20    1.80
 -13  -3   1  137.29    8.30
  13  -3  -1  131.29    7.50
 -13  -3   1  128.79    7.40
  13  -3  -1  131.09    7.00
  13   3  -1  126.39    7.40
 -13   3   1  125.39    7.30
  11  -3  -1    0.80    0.80
 -11  -3   1    0.60    1.10
 -11  -3   1    0.40    1.20
  11  -3  -1    0.90    1.10
  11  -3  -1    0.50    1.10
  11   3  -1    0.60    0.60
 -11   3   1    0.00    1.00
  11   3  -1    0.70    1.20
  -9  -3   1   41.60    3.40
   9  -3  -1   33.80    2.90
   9  -3  -1   39.50    3.00
   9  -3  -1   34.00    2.50
  -9  -3   1   34.90    2.90
   9   3  -1   35.00    2.80
  -9   3   1   37.10    4.60
  -9   3   1   40.00    2.80
   9   3  -1   34.10    2.10
  -9   3   1   40.30    2.90
  -7  -3   1   48.30    3.80
  -7  -3   1   55.49    3.50
   7  -3  -1   53.99    3.30
  -7  -3   1   50.79    3.20
   7  -3  -1   47.40    2.90
   7  -3  -1   45.90    3.10
  -7   3   1   46.60    2.90
   7   3  -1   53.69    2.60
  -7   3   1   44.80    4.00
  -7   3   1   51.89    3.10
   7   3  -1   52.29    3.10
  -5  -3   1    4.10    0.90
  -5  -3   1    4.60    0.90
  -5  -3   1    3.10    1.10
  -5  -3   1    7.10    1.00
   5   3  -1    4.90    1.00
  -5   3   1    3.60    0.70
   5   3  -1    4.50    0.90
  -5   3   1    4.50    0.70
  -5   3   1    3.90    1.40
   5   3  -1    4.60    0.50
  -3  -3   1  219.18    9.60
  -3  -3   1  222.48   10.10
   3  -3  -1  213.88    9.80
  -3  -3   1  222.68    9.60
   3  -3  -1  227.08    9.80
  -3   3   1  218.28   10.30
   3   3  -1  223.28    9.60
   3   3  -1  213.38    9.80
  -3   3   1  211.68    9.60
  -3   3   1  219.98    9.40
  -3   3   1  222.98    9.80
   1  -3  -1   52.19    2.60
  -1  -3   1   56.59    2.70
  -1  -3   1   52.79    2.50
  -1  -3   1   55.99    2.40
   1  -3  -1   55.89    2.60
  -1  -3   1   48.60    2.40
  -1   3   1   54.09    2.70
  -1   3   1   53.39    3.10
   1   3  -1   53.69    2.70
   1   3  -1   48.80    2.90
  -1   3   1   52.89    2.90
  -1   3   1   55.79    2.80
  -1   3   1   54.49    2.90
   1   3  -1   47.80    2.60
  -1  -3  -1  695.73   28.90
   1  -3   1  692.33   29.00
   1  -3   1  671.13   28.90
  -1  -3  -1  693.73   28.90
   1  -3   1  693.63   28.90
   1  -3   1  692.03   29.00
  -1  -3  -1  670.03   29.00
   1   3   1  688.33   29.30
   1   3   1  698.23   29.30
  -1   3  -1  675.13   29.10
  -1   3  -1  682.63   28.90
   3  -3   1    0.20    0.40
   3  -3   1    0.00    0.40
  -3  -3  -1    0.20    0.50
  -3  -3  -1   -0.10    0.50
   3  -3   1    0.40    0.50
  -3  -3  -1    0.40    0.40
   3  -3   1   -0.30    0.40
   3   3   1    1.30    0.50
  -3   3  -1    0.30    0.50
   3   3   1   -0.70    0.70
   3   3   1    0.40    0.50
  -3   3  -1    0.00    0.10
   3   3   1    0.20    0.30
   5  -3   1  535.95   22.70
   5  -3   1  535.45   22.90
  -5  -3  -1  515.45   23.00
   5  -3   1  532.75   22.80
  -5  -3  -1  512.05   22.70
  -5   3  -1  557.04   22.80
   5   3   1  520.95   22.80
  -5   3  -1  537.65   22.80
   5   3   1  538.55   22.60
   5   3   1  465.75   23.00
  -7  -3  -1   22.30    2.60
   7  -3   1   19.00    2.00
   7  -3   1   22.20    2.30
  -7  -3  -1   18.30    2.10
   7  -3   1   18.50    2.10
  -7   3  -1   22.90    2.20
   7   3   1   22.10    1.90
   7   3   1   21.40    2.30
   7   3   1   20.70    1.80
  -7   3  -1   22.90    2.00
   7   3   1   24.30    2.30
  -9  -3  -1  258.47   13.30
   9  -3   1  271.87   12.80
   9  -3   1  278.17   13.10
   9  -3   1  265.17   12.70
  -9  -3  -1  259.67   12.80
   9   3   1  269.67   12.40
   9   3   1  280.27   13.00
  -9   3  -1  275.37   12.80
   9   3   1  281.97   12.70
 -11  -3  -1    0.80    1.30
  11  -3   1    1.20    1.10
  11  -3   1   -1.80    0.90
 -11  -3  -1    2.00    1.30
  11  -3   1    0.80    1.20
  11   3   1    0.10    1.20
  11   3   1    0.60    0.80
  11   3   1   -0.60    0.70
 -11   3  -1   -0.90    1.00
 -13  -3  -1   43.90    4.50
 -13  -3  -1   54.89    5.00
  13  -3   1   61.69    4.30
  13  -3   1   51.29    4.30
 -13   3  -1   51.39    4.20
  13   3   1   48.80    3.70
  13   3   1   51.39    4.40
 -15  -3  -1    6.50    2.10
  15  -3   1    3.60    1.90
  15  -3   1    6.00    2.10
 -15   3  -1    2.90    1.70
 -17  -3  -1    7.10    2.60
  17  -3   1    9.60    2.90
 -17   3  -1    6.60    2.30
 -18  -4   1   47.40    5.20
  18  -4  -1   41.70    5.20
 -18   4   1   49.70    5.10
 -16  -4   1   10.80    2.70
  16  -4  -1    9.00    2.40
  16  -4  -1   10.30    2.20
 -16   4   1   10.30    2.30
  16   4  -1    8.30    2.40
  14  -4  -1   87.39    6.10
 -14  -4   1   93.29    6.30
 -14  -4   1   99.59    7.10
  14  -4  -1   95.49    5.70
 -14   4   1   93.29    5.80
  14   4  -1   87.79    6.10
  12  -4  -1    1.10    1.30
 -12  -4   1    1.10    1.20
  12  -4  -1    1.00    1.00
 -12  -4   1    1.90    1.60
  12  -4  -1    7.00    1.80
  12   4  -1    0.90    1.10
 -12   4   1    2.00    1.20
 -10  -4   1    3.10    1.30
  10  -4  -1    4.80    1.30
 -10  -4   1    1.80    1.30
  10  -4  -1    2.30    1.20
  10  -4  -1    5.50    1.50
 -10   4   1    4.40    1.20
  10   4  -1    1.80    1.10
  10   4  -1    3.40    0.80
   8  -4  -1  291.27   13.70
   8  -4  -1  283.27   13.80
  -8  -4   1  289.37   14.30
   8  -4  -1  317.67   14.20
  -8  -4   1  293.67   13.90
  -8   4   1  314.17   15.50
  -8   4   1  306.07   13.60
   8   4  -1  311.27   13.20
   8   4  -1  309.47   13.90
  -8   4   1  317.47   13.90
   6  -4  -1  266.07   12.30
  -6  -4   1  286.87   12.20
   6  -4  -1  259.07   12.20
  -6  -4   1  254.37   12.30
  -6  -4   1  267.17   12.40
   6  -4  -1  257.77   12.20
  -6  -4   1  262.97   12.70
  -6   4   1  275.37   11.90
  -6   4   1  256.87   13.10
   6   4  -1  281.57   11.60
   6   4  -1  272.77   12.30
   6   4  -1  284.47   12.10
   4  -4  -1  360.06   16.20
   4  -4  -1  390.76   16.20
   4  -4  -1  363.86   16.20
  -4  -4   1  350.96   16.00
  -4  -4   1  378.56   16.40
  -4  -4   1  379.96   16.00
  -4  -4   1  357.96   16.30
  -4   4   1  382.66   15.80
  -4   4   1  366.36   16.10
  -4   4   1  372.96   15.80
  -4   4   1  372.46   16.80
   4   4  -1  356.66   16.30
   2  -4  -1   94.69    4.80
   2  -4  -1   94.79    4.50
  -2  -4   1   95.69    4.20
  -2  -4   1  100.69    4.60
  -2  -4   1   94.79    4.20
   2  -4  -1   92.59    4.50
  -2   4   1   91.79    4.60
  -2   4   1   97.99    4.50
   2   4  -1   97.09    4.80
   2   4  -1   94.09    4.70
   2   4  -1   96.89    4.60
  -2   4   1   97.29    4.50
  -2   4   1  101.59    5.00
   0  -4  -1  909.11   36.50
   0  -4  -1  915.51   36.60
   0  -4  -1  795.62   36.50
   0  -4   1  886.31   36.60
   0  -4   1  860.01   36.60
   0  -4   1  873.71   36.70
   0  -4   1  875.61   36.40
   0   4  -1  887.11   36.70
   0   4   1  848.52   36.90
   0   4  -1  772.22   36.70
   0   4   1  875.01   37.20
   0   4  -1  839.32   37.00
   0   4   1  943.11   36.70
   0   4   1  901.31   36.80
   2  -4   1    4.30    0.70
   2  -4   1    4.40    0.80
   2  -4   1    3.90    0.70
   2  -4   1    4.70    0.70
  -2  -4  -1    5.60    0.80
  -2  -4  -1    5.30    0.80
  -2  -4  -1    5.50    0.70
   2   4   1    4.60    1.00
   2   4   1    3.30    1.00
  -2   4  -1    4.20    0.90
  -2   4  -1    4.00    0.60
  -4  -4  -1    0.70    0.50
  -4  -4  -1    1.30    0.70
   4  -4   1    2.60    0.80
  -4  -4  -1    1.30    0.70
   4  -4   1    1.10    0.70
   4  -4   1    2.20    0.70
   4   4   1    1.40    0.60
   4   4   1    0.40    0.90
  -4   4  -1    2.00    0.70
  -4   4  -1    1.40    0.50
   6  -4   1  872.61   36.00
   6  -4   1  814.32   35.70
  -6  -4  -1  797.42   35.80
  -6  -4  -1  831.42   36.20
   6  -4   1  818.82   35.80
   6   4   1  863.41   35.50
  -6   4  -1  879.01   35.70
  -6   4  -1  840.12   35.80
   6   4   1  784.62   36.20
   8  -4   1   62.29    4.00
   8  -4   1   71.99    4.50
  -8  -4  -1   58.99    4.10
  -8  -4  -1   62.89    4.50
   8  -4   1   62.29    4.10
   8   4   1   67.19    3.80
   8   4   1   74.89    4.50
  -8   4  -1   65.89    4.10
   8   4   1   70.69    4.30
 -10  -4  -1  323.77   16.10
  10  -4   1  336.17   16.10
 -10  -4  -1  341.17   16.90
  10  -4   1  380.86   16.70
  10  -4   1  333.07   16.00
 -10   4  -1  331.77   16.00
  10   4   1  345.47   15.60
  10   4   1  363.66   16.10
  10   4   1  348.97   16.30
  12  -4   1    2.70    1.50
 -12  -4  -1    3.10    1.50
  12  -4   1    0.00    1.20
 -12  -4  -1    0.50    1.50
  12  -4   1    2.20    1.40
 -12   4  -1    2.70    1.50
  12   4   1    2.50    1.10
 -14  -4  -1   33.10    4.10
  14  -4   1   29.40    3.80
  14  -4   1   30.50    3.60
 -14   4  -1   33.30    3.90
  16  -4   1   24.80    3.50
  16  -4   1   23.00    3.60
 -16  -4  -1   18.30    3.40
 -16   4  -1   23.30    3.50
 -17  -5   1  100.99    7.30
  17  -5  -1   91.09    7.00
  15  -5  -1    2.10    1.80
 -15  -5   1    5.40    2.20
 -15  -5   1    3.40    2.30
  15  -5  -1    3.90    1.60
  15   5  -1   -0.10    1.40
 -15   5   1    4.80    1.70
 -13  -5   1   12.70    2.80
  13  -5  -1   11.90    2.30
  13  -5  -1   13.90    2.10
  13  -5  -1   15.00    2.70
 -13  -5   1   11.90    2.40
 -13   5   1   10.70    1.90
  13   5  -1   11.80    2.20
  11  -5  -1  111.39    6.60
  11  -5  -1   98.99    6.10
  11  -5  -1  102.99    5.90
 -11  -5   1  100.49    6.20
 -11  -5   1  103.29    6.80
  11   5  -1  107.19    6.10
 -11   5   1  107.69    5.80
   9  -5  -1  127.59    6.80
  -9  -5   1  120.89    7.00
   9  -5  -1  138.69    7.30
  -9  -5   1  113.89    7.20
   9  -5  -1  118.39    6.80
  -9   5   1  133.29    8.20
  -9   5   1  133.29    6.60
  -9   5   1  134.99    6.00
   9   5  -1  139.09    6.10
   9   5  -1  137.59    6.90
   7  -5  -1  112.59    5.90
  -7  -5   1   91.09    5.70
   7  -5  -1  105.79    5.60
   7  -5  -1  100.69    5.60
  -7  -5   1  109.19    5.60
  -7  -5   1   97.79    5.70
  -7   5   1  110.49    6.70
  -7   5   1  103.19    5.20
  -7   5   1  115.59    5.40
  -7   5   1  107.99    4.90
   7   5  -1  107.29    5.80
   7   5  -1  100.19    5.40
   5  -5  -1   79.59    4.50
   5  -5  -1   89.89    4.60
  -5  -5   1   85.59    4.50
   5  -5  -1   88.19    4.70
  -5  -5   1   84.39    4.30
  -5  -5   1   88.39    4.70
  -5  -5   1   85.39    4.70
   5   5  -1   84.89    4.70
  -5   5   1   90.99    5.20
  -5   5   1   85.89    4.10
  -5   5   1   80.99    4.50
  -5   5   1   85.49    4.10
   3  -5  -1   -0.10    0.70
  -3  -5   1    0.90    0.30
   3  -5  -1    0.30    0.50
  -3  -5   1    1.30    0.40
   3  -5  -1    0.70    0.50
  -3  -5   1    0.30    0.50
   3   5  -1    0.60    0.70
  -3   5   1    0.30    0.80
  -3   5   1    0.80    0.60
  -3   5   1    0.20    0.40
  -3   5   1   -0.50    0.40
   3   5  -1    0.50    0.70
  -1  -5   1   99.09    4.10
   1  -5  -1   86.49    4.10
  -1  -5   1   93.59    4.00
   1  -5  -1   78.99    4.00
   1   5  -1   85.19    4.50
  -1   5   1   99.99    4.40
  -1   5   1   83.69    4.40
  -1   5   1   76.49    4.60
  -1   5   1   94.39    4.50
   1   5  -1   87.89    4.40
   1   5  -1   79.39    4.60
  -1   5   1   92.49    4.60
  -1  -5  -1   15.30    1.20
   1  -5   1   18.50    1.20
   1  -5   1   18.90    1.10
   1  -5   1   19.40    1.40
  -1  -5  -1   16.30    1.30
  -1  -5  -1   16.90    1.10
   1  -5   1   18.30    1.50
   1   5   1   16.70    1.90
   1   5   1   18.90    1.50
  -1   5  -1   25.10    1.80
  -1   5  -1   17.80    1.30
   1   5   1   17.10    1.20
   1   5   1   14.90    1.80
  -1   5  -1   19.00    1.50
   3  -5   1  515.95   22.50
  -3  -5  -1  540.35   22.30
  -3  -5  -1  506.05   22.40
  -3  -5  -1  486.55   22.40
   3  -5   1  520.75   22.50
   3  -5   1  504.75   22.30
   3  -5   1  550.04   22.40
   3   5   1  536.45   23.20
  -3   5  -1  521.45   22.20
   3   5   1  519.15   22.70
  -3   5  -1  515.15   22.50
  -3   5  -1  523.35   22.40
   5  -5   1   46.80    2.90
  -5  -5  -1   40.20    2.90
  -5  -5  -1   43.10    2.70
   5  -5   1   42.50    2.80
  -5  -5  -1   41.30    2.80
   5  -5   1   40.10    2.60
   5   5   1   39.30    3.20
  -5   5  -1   43.50    2.70
  -5   5  -1   40.10    2.50
   5   5   1   40.90    2.50
   7  -5   1   69.09    4.30
  -7  -5  -1   69.89    4.10
   7  -5   1   60.89    4.00
  -7  -5  -1   59.59    4.30
   7  -5   1   65.29    4.00
  -7   5  -1   66.89    4.00
   7   5   1   61.49    4.40
   7   5   1   63.29    3.60
  -9  -5  -1  195.98   11.20
   9  -5   1  208.38   10.60
  -9  -5  -1  208.48   10.80
   9  -5   1  216.78   10.70
   9  -5   1  243.68   11.40
   9   5   1  215.18   10.10
   9   5   1  233.98   11.10
  -9   5  -1  229.08   10.70
  11  -5   1   54.79    4.20
 -11  -5  -1   52.29    4.80
  11  -5   1   68.09    4.90
  11  -5   1   58.59    4.40
 -11  -5  -1   56.69    4.40
  11   5   1   60.49    3.70
  11   5   1   61.99    4.30
 -11   5  -1   60.29    4.30
  13  -5   1  156.18    8.80
 -13  -5  -1  151.68    9.20
 -13  -5  -1  162.38   10.10
  13  -5   1  149.99    8.90
  13   5   1  176.48    8.80
 -13   5  -1  160.38    9.00
  15  -5   1   38.00    4.20
  15  -5   1   40.20    4.60
 -15  -5  -1   42.90    4.90
 -15   5  -1   44.80    4.70
  17  -5   1   56.69    4.80
 -17  -5  -1   52.69    5.80
  17  -5   1   51.29    5.80
 -17   5  -1   51.69    5.60
  18  -6  -1    0.50    1.90
 -18  -6   1   -1.00    1.90
 -18   6   1    2.30    1.60
 -18   6   1   -0.20    1.80
 -16  -6   1   13.90    3.20
  16  -6  -1   25.30    3.40
  16  -6  -1   17.20    3.40
 -16  -6   1   23.40    4.30
 -16   6   1   21.00    3.10
 -14  -6   1   39.60    5.10
  14  -6  -1   37.10    3.80
  14  -6  -1   32.80    4.00
 -14  -6   1   45.30    4.60
  14  -6  -1   41.10    4.80
 -14   6   1   36.10    3.60
  12  -6  -1  105.59    6.80
  12  -6  -1   98.89    6.20
 -12  -6   1  109.09    6.50
 -12  -6   1   86.09    6.60
  12  -6  -1  102.19    6.00
 -12   6   1   96.19    5.60
 -10  -6   1  198.18    9.90
  10  -6  -1  181.58    9.50
  10  -6  -1  194.38    9.50
  10  -6  -1  203.08   10.10
 -10  -6   1  172.88   10.00
 -10   6   1  181.88    9.10
  -8  -6   1   75.39    4.60
   8  -6  -1   62.49    4.20
   8  -6  -1   72.19    4.50
  -8  -6   1   64.39    4.50
   8  -6  -1   69.39    4.50
   8   6  -1   68.89    4.50
  -8   6   1   66.79    3.80
  -8   6   1   71.49    5.30
  -8   6   1   71.09    3.30
   6  -6  -1  256.07   11.60
  -6  -6   1  251.07   11.20
   6  -6  -1  248.38   11.60
  -6  -6   1  242.58   11.60
   6  -6  -1  270.77   11.90
  -6  -6   1  227.18   11.40
   6  -6  -1  243.98   11.40
  -6   6   1  237.18   10.70
   6   6  -1  235.08   11.70
  -6   6   1  237.88   11.30
  -6   6   1  246.48   10.90
  -6   6   1  246.98   12.10
   4  -6  -1   44.80    2.90
  -4  -6   1   50.59    3.30
  -4  -6   1   49.10    2.60
  -4  -6   1   45.40    2.70
   4  -6  -1   49.80    3.10
  -4  -6   1   49.99    2.80
   4  -6  -1   43.70    2.90
  -4   6   1   48.50    3.00
  -4   6   1   50.49    3.30
   4   6  -1   47.40    3.30
  -4   6   1   46.30    2.60
  -4   6   1   48.30    2.80
   2  -6  -1  183.48    8.70
   2  -6  -1  195.88    8.80
  -2  -6   1  208.88    8.60
  -2   6   1  199.58    9.30
  -2   6   1  199.38    9.20
   2   6  -1  190.28    9.10
  -2   6   1  191.78    9.10
  -2   6   1  216.18    9.20
   2   6  -1  194.28    9.40
   2   6  -1  202.48    9.40
   0  -6   1    6.00    0.60
   0  -6  -1    4.80    0.60
   0  -6  -1    4.80    0.60
   0   6   1    4.80    1.20
   0   6   1    5.30    1.20
   0   6   1    5.20    1.10
   0   6   1    9.70    0.90
   0   6  -1    3.00    1.20
   0   6  -1    6.10    1.10
   0   6  -1    5.90    1.00
   2  -6   1   79.89    4.10
  -2  -6  -1   61.49    3.60
   2  -6   1   72.39    3.60
  -2  -6  -1   77.39    3.60
   2  -6   1   71.09    3.60
   2  -6   1   67.59    3.70
  -2  -6  -1   78.19    3.90
  -2   6  -1   72.29    3.80
  -2   6  -1   71.39    4.00
   2   6   1   71.69    4.40
   2   6   1   75.09    3.60
  -2   6  -1   76.49    3.70
   2   6   1   69.59    4.20
   4  -6   1    1.00    0.90
  -4  -6  -1    1.60    0.80
  -4  -6  -1    1.50    0.70
  -4  -6  -1    1.70    0.90
   4  -6   1    0.90    0.70
   4  -6   1    1.90    0.80
   4  -6   1    1.80    0.80
  -4   6  -1    1.90    0.70
   4   6   1    1.60    1.00
  -4   6  -1    0.80    0.90
   4   6   1    0.80    1.10
  -6  -6  -1    3.50    1.20
   6  -6   1    4.40    1.30
   6  -6   1    4.60    1.20
  -6  -6  -1    3.70    1.30
   6  -6   1    4.50    1.30
  -6   6  -1    4.50    1.20
   6   6   1    1.70    1.30
  -6   6  -1    4.60    1.00
   6   6   1    4.10    1.00
   8  -6   1    8.70    1.70
   8  -6   1    8.30    1.90
   8  -6   1   10.40    1.80
  -8  -6  -1    7.40    1.80
  -8  -6  -1   11.00    1.90
  -8   6  -1   10.20    1.60
   8   6   1    9.30    1.90
   8   6   1   11.20    1.50
 -10  -6  -1   -1.20    1.10
  10  -6   1   -0.80    1.00
  10  -6   1   -0.70    1.00
  10  -6   1    1.10    1.40
 -10  -6  -1    1.30    1.40
  10   6   1    2.20    1.40
 -10   6  -1    0.00    1.00
  10   6   1    1.50    0.90
  12  -6   1   24.90    3.60
 -12  -6  -1   25.60    3.40
 -12  -6  -1   22.80    3.70
  12  -6   1   26.20    3.40
  12  -6   1   25.70    3.20
  12   6   1   28.60    3.40
  12   6   1   26.10    2.60
 -12   6  -1   24.70    3.00
  14  -6   1   31.20    3.80
 -14  -6  -1   24.50    4.30
 -14  -6  -1   29.70    4.10
  14  -6   1   35.10    4.20
 -14   6  -1   26.60    3.40
 -16  -6  -1   67.79    6.70
  16  -6   1   63.79    5.40
 -16   6  -1   64.39    5.50
  17  -7  -1   14.10    3.20
 -17  -7   1   13.10    3.40
  17  -7  -1   14.00    2.90
 -17   7   1   11.80    2.50
 -17   7   1   13.80    2.80
  15  -7  -1  278.27   14.10
 -15  -7   1  263.77   15.60
 -15  -7   1  290.47   15.00
  15  -7  -1  281.27   14.60
 -15   7   1  276.77   13.70
 -15   7   1  272.77   14.00
 -13  -7   1   10.90    2.90
  13  -7  -1   11.40    2.40
  13  -7  -1   12.90    2.40
 -13  -7   1   13.00    2.70
  13  -7  -1    8.90    2.60
 -13   7   1   12.00    2.10
 -13   7   1   11.10    1.90
  11  -7  -1  660.73   28.30
 -11  -7   1  566.44   28.70
  11  -7  -1  669.53   29.10
  11  -7  -1  611.54   28.30
 -11  -7   1  645.44   28.70
 -11   7   1  629.64   27.60
 -11   7   1  626.74   27.90
   9  -7  -1    0.20    1.10
   9  -7  -1   -1.00    1.10
  -9  -7   1    1.60    1.30
  -9  -7   1    1.80    1.30
   9  -7  -1    1.90    1.30
   9   7  -1    0.60    1.20
  -9   7   1    2.90    1.10
  -9   7   1    1.40    0.80
   7  -7  -1  434.86   19.10
  -7  -7   1  431.36   19.10
  -7  -7   1  449.95   18.60
   7  -7  -1  395.86   18.60
   7  -7  -1  407.66   18.80
  -7  -7   1  357.86   18.50
   7   7  -1  399.86   19.00
  -7   7   1  389.96   18.50
  -7   7   1  416.76   18.10
  -7   7   1  413.26   17.80
  -7   7   1  450.05   19.50
   5  -7  -1  205.28    9.80
  -5  -7   1  214.28    9.40
   5  -7  -1  197.88    9.80
   5  -7  -1  208.38   10.00
  -5  -7   1  177.88    9.50
  -5  -7   1  210.68   10.30
  -5   7   1  207.28    9.80
  -5   7   1  226.48   10.20
  -5   7   1  211.08    9.40
  -5   7   1  221.58    9.70
   5   7  -1  203.48   10.30
  -3  -7   1   91.69    4.20
   3  -7  -1   86.09    4.60
   3  -7  -1   82.69    4.50
   3  -7  -1   86.79    5.10
  -3  -7   1   91.69    4.10
   3   7  -1   96.09    5.00
   3   7  -1   90.89    5.20
  -3   7   1   93.19    4.80
  -3   7   1   95.49    5.00
  -3   7   1  104.09    4.90
  -3   7   1   91.89    4.80
   3   7  -1   92.39    5.20
   1  -7  -1 1353.76   61.99
   1  -7  -1 1426.26   61.99
  -1   7   1 1637.34   62.89
  -1   7   1 1459.45   62.79
  -1   7   1 1610.44   62.29
  -1   7   1 1470.85   62.99
   1   7  -1 1568.14   63.09
   1   7  -1 1411.86   62.79
   1   7  -1 1405.76   62.69
   1  -7   1  229.98   10.70
  -1  -7  -1  229.38    9.90
   1  -7   1  226.58    9.90
  -1  -7  -1  236.48   10.40
   1  -7   1  219.48   10.40
   1  -7   1  232.48    9.90
  -1  -7  -1  226.18    9.90
  -1   7  -1  221.48   10.80
   1   7   1  219.78   10.90
   1   7   1  233.08   10.60
   1   7   1  227.18   11.00
  -1   7  -1  225.18   10.40
  -1   7  -1  224.68   10.50
   1   7   1  238.68    9.90
   3  -7   1 2311.37   95.59
  -3  -7  -1 2010.10   94.99
  -3  -7  -1 2303.37   95.39
  -3  -7  -1 2340.97   94.99
   3  -7   1 2279.27   95.19
   3  -7   1 2178.28   95.09
   3  -7   1 2236.48   95.09
   3   7   1 2227.48   95.69
  -3   7  -1 2265.37   95.19
  -3   7  -1 2446.86   94.89
   3   7   1 2237.78   95.99
  -3   7  -1 2352.86   95.59
  -5  -7  -1  123.09    6.70
   5  -7   1  131.79    6.80
  -5  -7  -1  128.19    6.50
  -5  -7  -1  128.89    6.70
   5  -7   1  133.19    6.60
   5  -7   1  129.99    6.90
   5  -7   1  131.09    6.70
  -5   7  -1  130.39    6.40
  -5   7  -1  134.79    6.80
   5   7   1  127.69    7.30
   7  -7   1  738.83   31.70
  -7  -7  -1  672.53   32.00
   7  -7   1  729.33   32.00
  -7  -7  -1  745.73   32.00
  -7   7  -1  767.82   31.50
  -7   7  -1  741.53   31.70
   7   7   1  694.03   32.40
   9  -7   1   21.80    2.80
   9  -7   1   20.30    2.90
   9  -7   1   19.00    2.50
  -9  -7  -1   16.90    2.80
  -9  -7  -1   19.00    2.70
   9   7   1   20.60    2.10
   9   7   1   20.70    2.90
  -9   7  -1   19.10    2.20
  -9   7  -1   19.50    2.40
  11  -7   1   40.70    4.00
  11  -7   1   41.90    4.70
 -11  -7  -1   41.50    4.30
 -11  -7  -1   42.60    4.70
  11  -7   1   31.90    3.70
 -11   7  -1   36.50    3.60
 -11   7  -1   37.20    3.10
  11   7   1   45.00    3.90
  11   7   1   40.50    3.00
  13  -7   1   74.79    5.70
 -13  -7  -1   69.89    5.70
  13  -7   1   70.49    5.50
 -13  -7  -1   72.89    6.30
  13  -7   1   75.69    6.10
 -13   7  -1   74.79    5.20
 -13   7  -1   73.79    5.00
  15  -7   1   16.70    3.40
 -15  -7  -1   15.10    3.70
 -15  -7  -1   11.80    3.00
  15  -7   1   14.00    3.00
 -15   7  -1   17.70    3.00
 -16  -8   1   70.09    7.00
  16  -8  -1   69.39    5.80
 -16  -8   1   60.49    7.00
  16  -8  -1   59.39    5.20
 -16   8   1   58.19    5.10
 -16   8   1   58.29    4.70
  14  -8  -1   23.60    4.00
  14  -8  -1   17.50    3.10
 -14  -8   1   24.80    4.20
  14  -8  -1   21.70    3.50
 -14  -8   1   17.50    3.50
 -14   8   1   24.50    3.20
 -14   8   1   24.20    2.90
 -12  -8   1   16.40    3.00
  12  -8  -1   17.80    2.90
  12  -8  -1   18.30    3.20
  12  -8  -1   15.70    2.80
 -12  -8   1   16.80    3.00
 -12   8   1   17.40    2.20
 -12   8   1   16.00    2.40
 -10  -8   1    3.60    1.50
  10  -8  -1    5.50    1.90
  10  -8  -1    3.10    1.60
 -10  -8   1    1.50    1.50
  10  -8  -1    3.40    1.50
 -10   8   1    0.90    1.10
  10   8  -1    1.40    1.60
 -10   8   1    4.70    1.20
  -8  -8   1  189.18    9.80
   8  -8  -1  196.58   10.20
   8  -8  -1  204.98   10.00
   8  -8  -1  176.08    9.90
  -8  -8   1  200.18   10.30
  -8   8   1  196.88    9.70
   8   8  -1  190.28   10.20
  -8   8   1  201.68    9.20
  -6  -8   1  342.77   15.50
  -6  -8   1  325.17   15.70
   6  -8  -1  317.17   15.90
  -6  -8   1  361.26   16.50
   6  -8  -1  363.26   16.20
  -6   8   1  356.76   15.40
  -6   8   1  361.36   15.80
  -6   8   1  362.46   16.30
   6   8  -1  335.67   16.40
  -6   8   1  354.56   15.90
  -4  -8   1  439.46   21.10
  -4  -8   1  517.75   21.10
   4  -8  -1  514.25   22.20
   4  -8  -1  486.25   21.60
   4  -8  -1  420.36   21.50
  -4   8   1  509.55   21.90
  -4   8   1  526.55   21.80
  -4   8   1  507.35   21.60
   4   8  -1  456.45   22.20
   4   8  -1  523.25   22.20
  -4   8   1  535.55   21.80
   2  -8  -1  701.93   30.40
  -2   8   1  781.42   30.60
   2   8  -1  655.53   31.20
   2   8  -1  727.53   31.40
  -2   8   1  700.13   31.30
  -2   8   1  707.03   31.10
  -2   8   1  749.03   31.10
   2   8  -1  698.43   31.10
   0  -8  -1  453.05   19.10
   0  -8  -1  389.76   19.10
   0   8   1  485.75   19.30
   0   8  -1  410.56   19.90
   0   8   1  476.35   20.40
   0   8  -1  456.15   20.20
   0   8   1  460.25   20.10
   0   8  -1  459.05   20.00
   0   8   1  472.65   20.30
   2  -8   1  320.37   13.90
  -2  -8  -1  321.87   14.40
   2  -8   1  327.47   14.40
  -2  -8  -1  314.37   13.80
   2  -8   1  306.07   13.90
   2  -8   1  313.47   14.70
  -2  -8  -1  318.27   13.80
   2   8   1  325.87   13.70
   2   8   1  330.27   14.60
   2   8   1  319.07   15.00
  -2   8  -1  320.47   14.70
  -2   8  -1  297.77   14.20
   2   8   1  318.77   14.90
  -2   8  -1  318.97   14.50
  -4  -8  -1  284.07   12.60
   4  -8   1  291.57   12.80
   4  -8   1  262.07   12.70
  -4  -8  -1  289.87   13.00
   4  -8   1  287.47   12.80
  -4  -8  -1  259.27   12.60
   4  -8   1  284.97   13.20
  -4   8  -1  266.57   12.70
  -4   8  -1  276.77   13.00
   4   8   1  289.07   13.40
   4   8   1  276.77   13.60
  -6  -8  -1   59.69    3.90
   6  -8   1   52.69    3.90
   6  -8   1   52.99    3.90
   6  -8   1   55.49    3.70
  -6  -8  -1   52.99    3.90
  -6   8  -1   56.19    3.50
  -6   8  -1   56.69    3.80
   6   8   1   56.79    4.30
  -8  -8  -1  462.55   21.10
   8  -8   1  467.95   20.70
   8  -8   1  440.86   20.90
  -8  -8  -1  471.05   21.10
   8  -8   1  429.76   21.10
  -8   8  -1  456.05   20.50
  -8   8  -1  427.96   20.70
  -8   8  -1  481.15   20.40
   8   8   1  467.05   21.50
  10  -8   1   35.30    3.90
  10  -8   1   39.50    4.50
  10  -8   1   46.40    3.70
 -10  -8  -1   36.40    4.00
 -10  -8  -1   36.20    4.20
 -10   8  -1   38.70    3.10
 -10   8  -1   34.50    3.10
  10   8   1   37.40    4.20
  12  -8   1  217.68   11.50
  12  -8   1  219.28   11.50
  12  -8   1  214.18   12.30
 -12  -8  -1  231.68   12.20
 -12  -8  -1  196.78   12.10
 -12   8  -1  214.98   10.80
 -12   8  -1  210.68   11.10
  12   8   1  218.58   11.80
 -14  -8  -1    9.20    3.00
  14  -8   1    4.10    2.10
 -14  -8  -1    6.10    2.50
  14  -8   1    7.50    2.40
 -14   8  -1    7.10    2.10
  16  -8   1   12.10    3.00
  16  -8   1   12.40    3.20
 -16  -8  -1   14.00    3.60
 -16   8  -1   11.00    2.70
  17  -9  -1    3.30    2.60
  17  -9  -1    1.30    1.90
 -17  -9   1    1.10    2.60
 -17  -9   1    2.10    2.40
 -17   9   1   -2.00    1.40
  15  -9  -1   14.10    3.00
  15  -9  -1   16.70    3.80
  15  -9  -1   18.30    3.50
 -15  -9   1    7.60    3.00
 -15  -9   1   17.60    3.70
 -15   9   1   12.70    2.50
  13  -9  -1   19.00    3.30
 -13  -9   1   15.60    3.30
  13  -9  -1   15.80    3.00
 -13  -9   1   15.70    3.20
  13  -9  -1   13.60    3.20
 -13   9   1   11.40    2.00
 -13   9   1   15.00    2.50
  11  -9  -1    3.20    1.80
 -11  -9   1    3.50    2.00
  11  -9  -1    3.90    1.90
  11  -9  -1    1.50    1.50
 -11  -9   1    3.10    1.60
 -11   9   1    2.50    1.00
 -11   9   1    2.50    1.30
   9  -9  -1   17.00    2.70
  -9  -9   1   18.00    2.60
  -9  -9   1   22.80    3.30
   9  -9  -1   20.40    2.90
   9  -9  -1   21.00    3.10
  -9   9   1   19.60    2.40
   9   9  -1   19.50    3.10
  -9   9   1   22.00    2.20
  -9   9   1   23.20    2.70
   7  -9  -1   17.80    2.60
  -7  -9   1   18.70    2.20
   7  -9  -1   16.60    2.80
   7  -9  -1   15.80    2.30
  -7  -9   1   15.50    2.60
   7   9  -1   15.40    2.60
  -7   9   1   19.00    2.30
  -7   9   1   23.40    2.60
  -7   9   1   19.50    1.80
  -5  -9   1  214.18    9.50
   5  -9  -1  182.88    9.90
   5  -9  -1  229.98   10.10
  -5  -9   1  176.98   10.50
   5  -9  -1  206.58   10.50
  -5  -9   1  218.28    9.70
  -5   9   1  206.78    9.90
  -5   9   1  216.08   10.10
   5   9  -1  190.38   10.60
  -5   9   1  213.88   10.30
  -5   9   1  224.38   10.20
  -3  -9   1    9.50    0.80
   3  -9  -1    8.50    1.20
   3  -9  -1   10.90    1.30
   3  -9  -1    9.10    1.90
  -3  -9   1    9.30    0.80
  -3   9   1    9.90    1.80
  -3   9   1   10.00    1.30
   3   9  -1    7.00    1.80
  -3   9   1   12.30    1.80
  -3   9   1   11.70    1.80
   3   9  -1   10.00    1.90
   3   9  -1   10.70    2.10
   1  -9  -1    2.40    0.60
   1  -9  -1    1.50    0.50
   1   9  -1    3.20    1.40
   1   9  -1    1.70    1.10
  -1   9   1    2.70    0.60
  -1   9   1    1.40    1.20
  -1   9   1    2.80    1.20
  -1   9   1    2.50    1.20
   1   9  -1    1.90    1.20
   1  -9   1   81.49    4.40
   1  -9   1  102.29    4.30
  -1  -9  -1   87.99    5.10
  -1  -9  -1   82.89    4.50
   1  -9   1   82.79    5.40
   1  -9   1  101.09    4.40
  -1  -9  -1  101.69    4.50
   1  -9   1   88.99    5.30
   1   9   1  102.19    5.80
   1   9   1  107.69    4.50
  -1   9  -1   96.79    5.60
   1   9   1  105.39    4.40
  -1   9  -1   90.79    5.20
  -1   9  -1  100.19    5.40
   1   9   1   92.49    5.60
   1   9   1   98.09    5.50
  -3  -9  -1   53.79    3.60
   3  -9   1   51.79    3.00
   3  -9   1   55.69    3.60
   3  -9   1   40.80    3.00
   3  -9   1   56.29    3.90
  -3  -9  -1   49.99    3.00
  -3  -9  -1   49.80    2.90
  -3   9  -1   49.50    3.70
   3   9   1   54.19    4.00
   3   9   1   48.60    3.90
   3   9   1   56.29    2.80
  -3   9  -1   49.70    3.50
  -3   9  -1   46.60    3.10
   5  -9   1  133.69    7.50
  -5  -9  -1  134.79    7.30
   5  -9   1  138.79    7.10
   5  -9   1  113.29    6.90
  -5  -9  -1  139.09    7.40
  -5  -9  -1  143.09    7.00
   5   9   1  141.99    7.80
  -5   9  -1  133.49    6.90
  -5   9  -1  130.79    7.20
   5   9   1  139.09    7.60
   7  -9   1   22.20    2.80
   7  -9   1   28.90    3.00
  -7  -9  -1   26.20    3.20
   7  -9   1   22.10    2.90
  -7  -9  -1   27.40    3.00
  -7   9  -1   22.40    2.70
  -7   9  -1   29.80    2.50
   7   9   1   25.20    3.30
   9  -9   1   29.90    3.30
  -9  -9  -1   37.40    3.90
  -9  -9  -1   34.30    3.90
   9  -9   1   28.40    3.60
   9  -9   1   26.10    3.50
  -9   9  -1   33.30    2.80
   9   9   1   29.20    3.80
  -9   9  -1   25.60    3.10
  11  -9   1   51.99    5.00
 -11  -9  -1   50.69    5.20
  11  -9   1   50.69    4.40
 -11  -9  -1   50.89    5.10
 -11   9  -1   41.00    3.70
 -11   9  -1   47.60    3.70
 -11   9  -1   34.90    4.00
  11   9   1   38.90    4.60
  13  -9   1   19.80    3.40
  13  -9   1   17.40    3.90
 -13  -9  -1   28.70    4.20
 -13  -9  -1   18.20    3.70
  13  -9   1   22.20    3.40
 -13   9  -1   18.80    3.10
 -13   9  -1   20.80    2.90
  13   9   1   22.60    3.70
 -15  -9  -1   38.00    5.40
  15  -9   1   31.30    4.40
  15  -9   1   30.80    4.60
 -15  -9  -1   42.80    5.70
 -15   9  -1   39.20    4.70
 -15   9  -1   39.30    4.40
  16 -10  -1    3.60    2.50
 -16 -10   1    9.20    2.90
  16 -10  -1    9.70    2.90
 -16 -10   1    3.90    2.90
 -16  10   1    4.20    2.10
 -16  10   1    5.20    2.10
  14 -10  -1   53.89    5.80
 -14 -10   1   69.09    5.80
  14 -10  -1   47.00    5.70
  14 -10  -1   50.79    5.70
 -14 -10   1   60.29    6.60
 -14  10   1   48.80    4.30
 -14  10   1   40.90    4.50
  12 -10  -1   27.90    4.30
  12 -10  -1   38.30    4.60
 -12 -10   1   38.00    4.30
 -12 -10   1   29.40    4.40
  12 -10  -1   31.00    4.10
 -12  10   1   33.90    3.60
 -12  10   1   38.20    3.90
  10 -10  -1    9.20    2.30
 -10 -10   1   12.50    2.80
 -10 -10   1   13.50    2.30
  10 -10  -1    7.60    2.40
  10 -10  -1    7.10    2.20
  10  10  -1    8.90    2.50
 -10  10   1   10.90    2.00
 -10  10   1    9.70    2.00
  -8 -10   1  408.86   19.50
   8 -10  -1  426.66   19.10
  -8 -10   1  428.76   18.60
   8 -10  -1  367.86   18.80
   8 -10  -1  354.76   19.10
   8  10  -1  390.86   19.30
  -8  10   1  408.16   18.50
  -8  10   1  423.76   18.70
   6 -10  -1   50.09    4.10
   6 -10  -1   45.80    3.70
  -6 -10   1   52.99    4.30
  -6 -10   1   58.89    3.50
  -6 -10   1   50.79    3.20
  -6  10   1   54.89    3.90
  -6  10   1   55.09    3.90
  -6  10   1   57.39    3.40
   6  10  -1   49.50    4.20
  -4 -10   1  782.12   36.20
  -4 -10   1  846.92   34.90
   4 -10  -1  812.92   35.40
   4 -10  -1  894.51   35.50
   4 -10  -1  761.92   36.10
  -4 -10   1  793.42   34.80
   4  10  -1  813.12   36.10
  -4  10   1  846.72   36.10
   4  10  -1  873.21   36.50
  -4  10   1  818.42   35.80
   4  10  -1  804.92   36.20
  -4  10   1  815.12   35.60
   2 -10  -1   26.10    2.90
   2 -10  -1   27.80    1.80
   2 -10  -1   26.20    1.80
   2  10  -1   25.30    2.90
  -2  10   1   26.20    1.60
  -2  10   1   26.30    2.80
   2  10  -1   21.20    2.80
   2  10  -1   27.60    2.90
  -2  10   1   24.20    2.80
  -2  10   1   24.40    2.60
   0 -10  -1  499.05   21.40
   0 -10  -1  502.25   21.50
   0  10   1  516.15   22.70
   0  10  -1  474.75   22.60
   0  10  -1  508.55   22.60
   0  10   1  524.95   22.90
   0  10   1  493.35   22.80
   0  10  -1  531.25   22.90
  -2 -10  -1    0.90    0.60
   2 -10   1    0.90    0.40
  -2 -10  -1    2.50    1.20
   2 -10   1    0.90    0.60
   2 -10   1    0.90    1.00
  -2 -10  -1    0.00    0.50
   2 -10   1   -0.60    1.10
   2 -10   1    0.00    0.60
  -2  10  -1    1.20    1.30
  -2  10  -1   -0.20    0.80
  -2  10  -1    1.00    1.00
   2  10   1   -0.30    1.10
   2  10   1    1.70    1.40
   2  10   1    1.50    1.40
   2  10   1    1.00    0.40
   4 -10   1   69.09    4.40
   4 -10   1   75.59    4.90
  -4 -10  -1   81.19    5.00
  -4 -10  -1   77.99    4.20
  -4 -10  -1   78.89    4.20
   4 -10   1   71.19    5.10
  -4  10  -1   78.79    5.00
   4  10   1   81.69    3.90
   4  10   1   75.79    5.20
   4  10   1   75.39    5.20
  -4  10  -1   73.89    4.20
  -4  10  -1   75.79    4.70
   6 -10   1  360.96   17.40
   6 -10   1  372.46   16.90
  -6 -10  -1  368.86   16.60
  -6 -10  -1  375.46   17.20
   6 -10   1  318.77   16.70
  -6  10  -1  364.26   16.60
  -6  10  -1  356.66   16.90
   6  10   1  377.86   17.60
  -8 -10  -1   63.39    5.10
  -8 -10  -1   66.39    4.70
   8 -10   1   56.29    4.70
   8 -10   1   63.89    5.00
   8 -10   1   70.09    4.80
  -8  10  -1   65.09    4.70
   8  10   1   69.29    5.20
  -8  10  -1   64.09    4.30
  10 -10   1  224.68   13.90
  10 -10   1  264.77   14.20
 -10 -10  -1  269.77   14.00
 -10 -10  -1  273.27   14.30
  10 -10   1  303.27   14.10
 -10  10  -1  278.37   13.70
 -10  10  -1  275.87   13.20
  10  10   1  290.07   14.60
 -12 -10  -1    0.00    2.00
  12 -10   1   -1.50    1.60
  12 -10   1    1.80    1.90
 -12 -10  -1    0.70    1.70
  12 -10   1    0.00    1.70
 -12  10  -1   -1.10    1.60
  12  10   1   -3.10    1.50
 -14 -10  -1  122.49    8.50
  14 -10   1  121.59    8.20
  14 -10   1   89.29    8.10
  14 -10   1  123.09    8.40
 -14 -10  -1  110.89    8.40
 -14  10  -1  107.99    7.60
  15 -11  -1   10.60    3.20
 -15 -11   1    9.80    2.90
  15 -11  -1    1.80    2.70
 -15 -11   1    7.10    3.40
  15 -11  -1   13.90    3.50
 -15  11   1    6.20    2.10
 -15  11   1    8.50    2.30
  13 -11  -1  439.96   22.40
 -13 -11   1  423.06   22.50
  13 -11  -1  453.75   22.30
 -13 -11   1  488.85   22.10
  13 -11  -1  452.95   22.20
 -13  11   1  443.46   21.10
 -13  11   1  421.86   21.00
  11 -11  -1   17.10    3.40
 -11 -11   1   18.40    3.60
  11 -11  -1   16.70    3.30
 -11 -11   1   21.70    3.10
  11 -11  -1   15.50    3.10
 -11  11   1   16.00    2.50
 -11  11   1   13.00    2.40
   9 -11  -1  867.21   37.40
   9 -11  -1  729.63   37.30
  -9 -11   1  894.91   36.60
  -9 -11   1  775.52   37.50
   9 -11  -1  823.92   37.00
   9  11  -1  795.32   37.40
  -9  11   1  851.71   36.60
  -9  11   1  873.01   36.70
  -7 -11   1   12.40    2.60
   7 -11  -1   15.00    2.30
   7 -11  -1   20.70    3.20
  -7 -11   1   14.90    1.90
   7 -11  -1   14.80    2.80
  -7  11   1   16.80    2.50
  -7  11   1   13.80    2.30
   7  11  -1   13.00    2.60
   5 -11  -1  366.46   16.70
  -5 -11   1  370.36   16.10
  -5 -11   1  372.36   17.60
  -5 -11   1  394.36   16.20
   5 -11  -1  333.77   17.40
  -5  11   1  363.16   17.20
  -5  11   1  339.27   16.90
  -5  11   1  365.96   16.60
   5  11  -1  373.46   17.60
  -3 -11   1  435.96   18.40
   3 -11  -1  480.35   19.20
  -3 -11   1  436.96   18.40
   3 -11  -1  433.76   20.20
   3 -11  -1  424.56   19.10
  -3  11   1  446.96   19.80
   3  11  -1  432.26   20.10
  -3  11   1  419.36   19.80
  -3  11   1  412.26   20.10
   3  11  -1  420.46   20.20
   3  11  -1  443.56   20.30
   1 -11  -1    1.10    0.60
   1 -11  -1    0.30    0.40
   1  11  -1    0.70    1.20
   1  11  -1    0.50    1.10
  -1  11   1    3.40    1.40
  -1  11   1    2.40    1.30
  -1  11   1    0.10    1.00
   1  11  -1    0.40    1.30
   1 -11   1 1310.97   59.09
   1 -11   1 1358.56   57.79
   1 -11   1 1446.86   57.69
  -1 -11  -1 1363.46   57.69
   1 -11   1 1354.76   58.89
  -1 -11  -1 1351.86   57.79
  -1 -11  -1 1389.56   58.79
   1  11   1 1381.26   59.29
   1  11   1 1407.26   59.19
   1  11   1 1413.06   59.29
  -1  11  -1 1363.96   58.89
  -1  11  -1 1375.96   59.19
  -1  11  -1 1372.96   58.89
  -3 -11  -1  192.58   10.70
  -3 -11  -1  226.38    9.90
   3 -11   1  206.38   10.80
   3 -11   1  215.38   10.10
   3 -11   1  186.28   10.90
  -3 -11  -1  219.28    9.90
   3 -11   1  231.98   10.10
   3  11   1  237.28   11.40
  -3  11  -1  223.98   10.40
  -3  11  -1  210.68   11.00
   3  11   1  223.38   11.30
  -3  11  -1  224.38   10.70
   5 -11   1 1147.79   48.60
   5 -11   1 1088.69   48.10
  -5 -11  -1 1192.68   47.90
  -5 -11  -1 1053.19   48.60
   5 -11   1 1063.69   49.00
  -5  11  -1 1163.78   48.80
   5  11   1 1085.99   49.00
   5  11   1 1148.09   49.10
  -5  11  -1 1119.09   48.30
   7 -11   1   96.29    6.00
  -7 -11  -1   93.29    6.20
  -7 -11  -1   92.79    5.50
   7 -11   1   90.39    6.30
   7 -11   1   83.19    5.70
   7  11   1   86.19    6.10
  -7  11  -1   99.09    5.60
  -7  11  -1   78.99    5.70
   9 -11   1  232.78   12.20
  -9 -11  -1  227.98   11.90
  -9 -11  -1  244.98   12.70
   9 -11   1  211.18   12.20
   9 -11   1  236.08   12.70
  -9  11  -1  260.47   11.80
   9  11   1  222.78   12.60
  -9  11  -1  217.38   11.90
  11 -11   1   50.99    5.30
 -11 -11  -1   44.10    4.80
  11 -11   1   53.39    5.70
  11 -11   1   47.00    5.40
 -11 -11  -1   51.89    5.60
 -11  11  -1   39.30    4.40
  11  11   1   48.20    5.30
  13 -11   1    1.10    2.10
 -13 -11  -1    3.70    2.60
 -13 -11  -1    3.80    2.00
  13 -11   1    6.50    2.70
  13 -11   1    4.30    2.40
 -13  11  -1   -0.10    1.50
  13  11   1    2.80    2.30
  14 -12  -1   17.00    3.70
 -14 -12   1   13.30    3.00
  14 -12  -1   14.50    3.60
  14 -12  -1    8.70    3.00
 -14 -12   1    6.50    3.00
 -14  12   1   15.60    2.80
 -14  12   1   12.20    2.70
  12 -12  -1   39.50    5.20
 -12 -12   1   37.20    4.20
  12 -12  -1   37.90    4.90
 -12 -12   1   36.10    5.30
  12 -12  -1   32.40    4.90
 -12  12   1   38.40    4.20
 -12  12   1   42.40    4.40
  10 -12  -1   58.99    6.30
  10 -12  -1   69.09    5.50
  10 -12  -1   72.69    5.80
 -10 -12   1   54.59    6.10
 -10 -12   1   72.19    5.00
  10  12  -1   60.99    5.60
 -10  12   1   70.69    5.00
 -10  12   1   75.69    5.30
  -8 -12   1    5.00    1.30
  -8 -12   1    3.50    2.00
   8 -12  -1    3.20    1.50
   8 -12  -1    4.30    2.10
   8 -12  -1    4.00    2.00
  -8  12   1    2.70    1.60
   8  12  -1    5.80    2.20
  -8  12   1    6.70    1.90
   6 -12  -1  442.76   23.00
   6 -12  -1  520.85   23.50
  -6 -12   1  491.95   23.20
  -6 -12   1  496.85   21.70
   6 -12  -1  511.75   22.30
   6  12  -1  511.35   23.30
  -6  12   1  473.05   22.60
  -6  12   1  492.75   22.80
  -6  12   1  500.15   21.90
  -4 -12   1   37.50    2.10
  -4 -12   1   37.30    2.20
  -4 -12   1   43.80    4.10
   4 -12  -1   24.70    3.40
   4 -12  -1   32.80    2.60
   4  12  -1   32.70    3.80
   4  12  -1   32.20    3.70
  -4  12   1   38.20    3.90
  -4  12   1   34.30    3.60
  -4  12   1   39.60    3.00
   4  12  -1   35.60    3.70
   2 -12  -1  378.66   15.70
   2 -12  -1  354.16   15.60
   2 -12  -1  368.96   17.00
   2  12  -1  353.86   16.90
  -2  12   1  352.96   16.90
  -2  12   1  344.67   16.60
   2  12  -1  341.47   16.90
  -2  12   1  353.06   16.60
   2  12  -1  366.66   17.00
   0 -12  -1   66.69    3.40
   0 -12   1   72.69    4.50
   0 -12   1   67.59    3.10
   0 -12  -1   72.29    3.50
   0 -12   1   69.89    3.20
   0 -12  -1   69.59    4.30
   0  12   1   64.89    4.70
   0  12  -1   74.69    4.70
   0  12  -1   69.19    4.80
   0  12  -1   72.99    4.60
   0  12   1   68.69    4.80
   0  12   1   76.29    4.80
   2 -12   1  100.39    6.50
  -2 -12  -1  110.09    5.30
   2 -12   1  101.89    6.40
  -2 -12  -1  107.59    5.20
   2 -12   1  116.49    5.40
  -2 -12  -1  112.19    6.30
   2 -12   1  112.99    5.40
   2  12   1  115.59    6.70
  -2  12  -1  109.79    6.10
   2  12   1  116.69    6.80
  -2  12  -1  110.49    6.30
  -2  12  -1  104.69    6.60
   2  12   1  108.29    6.60
  -4 -12  -1    1.90    1.40
   4 -12   1    1.00    1.40
   4 -12   1    2.30    1.00
   4 -12   1    1.90    1.60
  -4 -12  -1    2.30    0.80
  -4  12  -1   -0.80    1.30
  -4  12  -1    2.10    1.30
   4  12   1    2.00    1.50
   4  12   1    2.30    1.50
  -4  12  -1    2.20    1.00
  -6 -12  -1    6.90    2.10
   6 -12   1    1.50    1.70
  -6 -12  -1    6.00    1.40
   6 -12   1    8.00    2.20
   6 -12   1    7.00    1.70
   6  12   1    4.10    1.80
  -6  12  -1    8.20    2.10
  -6  12  -1    5.10    1.60
   8 -12   1    7.00    2.50
   8 -12   1   10.30    2.50
  -8 -12  -1    9.20    2.60
  -8 -12  -1   12.80    2.10
   8 -12   1   10.40    2.30
  -8  12  -1   12.70    2.50
  -8  12  -1   13.60    2.20
   8  12   1   10.30    2.50
 -10 -12  -1   51.39    5.90
 -10 -12  -1   61.89    4.90
  10 -12   1   66.99    5.60
  10 -12   1   60.89    5.50
  10 -12   1   64.29    6.40
  10  12   1   64.69    5.60
 -10  12  -1   64.79    5.10
 -12 -12  -1   90.69    6.60
  12 -12   1   87.29    7.10
 -12 -12  -1   95.09    7.70
  12 -12   1   91.09    7.40
  12 -12   1   84.29    6.90
  12  12   1   93.89    7.30
 -12  12  -1   84.69    6.40
  14 -12   1   28.00    4.80
 -14 -12  -1   31.50    4.60
  14 -12   1   34.20    5.10
  14 -12   1   34.40    5.30
 -14 -12  -1   23.90    4.80
 -14  12  -1   24.90    3.80
 -13 -13   1    1.00    1.60
 -13 -13   1    2.00    2.60
  13 -13  -1    1.90    2.10
  13 -13  -1    1.20    2.60
  13 -13  -1    1.30    2.30
 -13  13   1    0.80    1.70
 -13  13   1    2.10    1.60
  11 -13  -1   14.20    3.50
  11 -13  -1   13.30    2.90
  11 -13  -1   13.50    3.70
 -11 -13   1   11.20    3.50
 -11 -13   1   11.40    2.30
 -11  13   1   11.10    2.50
 -11  13   1   10.30    2.40
   9 -13  -1   58.19    4.60
   9 -13  -1   51.59    5.70
   9 -13  -1   36.10    5.10
  -9 -13   1   50.49    5.60
  -9 -13   1   55.09    4.00
  -9  13   1   51.59    4.40
  -9  13   1   58.19    4.70
   9  13  -1   60.99    5.40
   7 -13  -1    0.60    1.10
   7 -13  -1    2.00    1.80
   7 -13  -1   -1.90    1.30
  -7 -13   1    1.80    1.80
  -7 -13   1    1.10    0.80
  -7  13   1    2.60    1.60
   7  13  -1    1.80    1.60
  -7  13   1    2.40    1.60
   5 -13  -1    5.90    2.20
  -5 -13   1    6.50    1.00
  -5 -13   1    5.90    1.00
   5 -13  -1    7.60    1.50
  -5 -13   1    8.90    2.20
  -5  13   1    7.30    1.50
  -5  13   1    4.50    1.80
  -5  13   1    7.30    2.00
   5  13  -1    6.90    2.00
  -3 -13   1    0.10    0.30
  -3 -13   1    0.40    0.30
   3 -13  -1    1.60    0.80
   3 -13  -1    1.90    1.50
   3  13  -1   -0.90    1.30
   3  13  -1    3.60    1.70
  -3  13   1    0.80    1.00
  -3  13   1   -1.40    1.00
  -3  13   1   -0.70    1.00
   3  13  -1    0.60    1.30
   1 -13  -1   19.30    1.50
  -1  13   1   17.20    2.50
  -1  13   1   11.80    2.30
   1  13  -1   31.80    3.30
   1  13  -1   20.10    2.70
   1  13  -1   15.20    2.40
  -1  13   1   22.90    2.80
   1 -13   1  154.98    7.10
  -1 -13  -1  145.19    7.00
   1 -13   1  161.68    8.70
  -1 -13  -1  165.68    7.20
   1 -13   1  153.68    7.00
   1 -13   1  157.58    8.40
  -1 -13  -1  161.58    8.20
  -1  13  -1  155.38    8.60
   1  13   1  159.58    8.60
   1  13   1  154.98    8.70
  -1  13  -1  157.38    8.30
   1  13   1  143.49    8.50
  -1  13  -1  158.18    8.30
   3 -13   1   43.00    4.50
   3 -13   1   49.50    3.10
  -3 -13  -1   50.09    2.80
  -3 -13  -1   51.19    2.90
  -3 -13  -1   49.20    4.00
   3 -13   1   43.90    4.00
  -3  13  -1   45.80    4.10
   3  13   1   36.80    4.20
  -3  13  -1   50.69    3.80
  -3  13  -1   50.19    3.50
   3  13   1   48.80    4.40
  -5 -13  -1   49.99    3.30
   5 -13   1   52.19    3.70
   5 -13   1   44.40    4.60
  -5 -13  -1   45.50    4.70
   5 -13   1   55.49    5.40
  -5  13  -1   56.29    4.10
  -5  13  -1   42.20    4.60
   5  13   1   55.29    4.50
   5  13   1   51.29    5.20
   7 -13   1   34.40    4.70
   7 -13   1   50.09    4.80
  -7 -13  -1   42.50    4.60
   7 -13   1   35.70    3.80
  -7 -13  -1   47.60    3.40
  -7  13  -1   38.50    4.00
   7  13   1   41.10    4.50
  -7  13  -1   46.80    4.70
   9 -13   1    4.50    2.30
   9 -13   1   -0.10    2.00
  -9 -13  -1    0.60    1.90
  -9 -13  -1    2.60    1.40
   9 -13   1    2.90    1.60
   9  13   1    1.60    1.70
  -9  13  -1    1.30    1.70
  11 -13   1   61.59    6.20
 -11 -13  -1   65.89    5.20
 -11 -13  -1   51.29    6.10
  11 -13   1   58.39    6.50
  11 -13   1   64.29    5.70
 -11  13  -1   53.69    5.60
  11  13   1   64.99    5.80
  13 -13   1    1.60    2.50
 -13 -13  -1    4.60    3.00
 -13 -13  -1    3.40    1.90
  13 -13   1    2.50    2.70
  13 -13   1    7.10    2.60
 -13  13  -1    3.60    2.20
  13  13   1    1.00    2.20
  14 -14  -1    2.60    2.60
  14 -14  -1    2.00    2.60
  14 -14  -1    2.90    2.20
 -14 -14   1    0.10    1.50
 -14 -14   1   -1.40    2.40
 -14  14   1   -0.90    1.80
  12 -14  -1   73.99    6.20
 -12 -14   1   78.29    5.60
  12 -14  -1   62.19    7.30
  12 -14  -1   57.79    7.20
 -12 -14   1   83.99    8.20
 -12  14   1   82.69    6.00
 -12  14   1   67.29    5.60
  10 -14  -1   90.39    7.50
 -10 -14   1  100.59    7.80
  10 -14  -1   92.19    7.70
 -10 -14   1   96.19    6.10
  10 -14  -1  100.09    6.80
  10  14  -1   97.99    7.60
 -10  14   1  112.19    7.10
 -10  14   1  100.19    6.80
   8 -14  -1   30.80    4.30
  -8 -14   1   23.90    2.50
  -8 -14   1   23.10    3.80
   8 -14  -1   23.10    3.10
   8 -14  -1   22.20    3.80
  -8  14   1   24.30    3.60
   8  14  -1   22.50    3.60
  -8  14   1   23.70    3.50
  -6 -14   1  461.05   22.10
   6 -14  -1  435.96   22.20
   6 -14  -1  481.65   22.50
  -6 -14   1  470.85   20.40
   6 -14  -1  472.65   21.10
  -6  14   1  481.05   22.30
  -6  14   1  418.86   21.70
   6  14  -1  496.55   22.50
  -4 -14   1   51.79    4.30
   4 -14  -1   53.59    4.60
  -4 -14   1   54.39    2.70
   4 -14  -1   51.59    3.30
  -4 -14   1   49.99    2.70
  -4  14   1   49.60    3.70
  -4  14   1   43.60    3.90
   4  14  -1   46.30    4.30
   4  14  -1   47.00    4.80
  -4  14   1   51.79    4.40
   4  14  -1   54.19    4.60
   2 -14  -1 1031.50   42.20
   2 -14  -1  971.40   43.50
   2 -14  -1  976.70   42.00
   2  14  -1 1021.00   43.70
  -2  14   1  984.10   43.30
   2  14  -1 1014.10   43.60
  -2  14   1  938.41   43.50
   2  14  -1  986.10   43.60
  -2  14   1  992.40   43.30
   0 -14  -1    1.20    1.10
   0 -14   1    1.70    0.40
   0 -14  -1    1.70    0.50
   0 -14   1    1.50    1.20
   0 -14  -1    1.50    0.60
   0 -14   1    2.20    0.50
   0 -14   1    0.60    1.30
   0  14   1    0.40    1.10
   0  14   1    0.10    1.20
   0  14  -1    1.20    1.20
   0  14  -1    1.10    1.30
   0  14   1    0.20    1.40
   0  14  -1    2.10    1.30
   2 -14   1  352.66   15.70
   2 -14   1  373.36   17.10
  -2 -14  -1  349.57   15.50
  -2 -14  -1  372.76   16.80
   2 -14   1  368.56   17.30
  -2 -14  -1  348.57   15.50
  -2  14  -1  350.66   16.70
   2  14   1  330.97   17.00
   2  14   1  372.46   17.40
  -2  14  -1  340.07   17.10
   2  14   1  339.67   17.10
  -2  14  -1  369.86   16.70
   4 -14   1  169.78    9.70
  -4 -14  -1  168.18    8.30
   4 -14   1  173.18    8.70
  -4 -14  -1  188.58    9.70
   4 -14   1  191.08   10.30
  -4  14  -1  176.78    9.30
   4  14   1  175.68    9.90
  -4  14  -1  161.58    9.70
   4  14   1  183.38   10.10
  -6 -14  -1    6.00    1.30
   6 -14   1    2.30    2.00
   6 -14   1    6.60    2.40
  -6 -14  -1    4.90    2.10
   6 -14   1    5.70    1.60
  -6  14  -1    4.90    1.80
   6  14   1    4.80    2.00
  -6  14  -1    7.00    2.30
  -8 -14  -1  515.05   23.20
   8 -14   1  486.75   24.30
   8 -14   1  535.05   23.80
   8 -14   1  441.96   24.50
  -8 -14  -1  517.85   24.60
   8  14   1  546.65   24.80
  -8  14  -1  506.85   24.40
  10 -14   1    1.00    2.30
  10 -14   1    2.80    2.50
 -10 -14  -1    2.10    2.30
  10 -14   1    6.70    2.30
 -10 -14  -1    6.80    1.80
  10  14   1    0.60    1.70
 -10  14  -1    6.10    2.50
  12 -14   1  224.58   13.50
  12 -14   1  250.07   13.50
 -12 -14  -1  240.18   12.60
 -12 -14  -1  226.78   13.70
  12 -14   1  188.48   13.40
 -12  14  -1  215.98   12.90
  12  14   1  250.47   13.70
  13 -15  -1    2.00    2.70
  13 -15  -1   -0.20    2.70
 -13 -15   1   -2.10    1.20
 -13 -15   1    2.60    2.80
  13 -15  -1    3.20    2.10
 -13  15   1   -1.40    1.80
 -11 -15   1  172.88   10.70
  11 -15  -1  160.38    9.60
  11 -15  -1  148.99   10.70
  11 -15  -1  167.98   10.90
 -11 -15   1  155.78    8.80
 -11  15   1  135.99    9.30
 -11  15   1  159.58    9.70
  -9 -15   1   -0.90    1.80
   9 -15  -1    1.60    2.20
  -9 -15   1    0.40    1.00
   9 -15  -1    1.20    1.50
   9 -15  -1   -0.10    2.20
  -9  15   1   -2.00    1.70
   9  15  -1   -3.80    1.30
  -9  15   1   -1.00    1.40
  -7 -15   1  218.98   10.80
   7 -15  -1  244.28   11.60
  -7 -15   1  236.38   12.70
   7 -15  -1  243.68   12.90
   7 -15  -1  216.08   12.90
  -7  15   1  227.28   12.50
  -7  15   1  226.48   12.40
   7  15  -1  222.38   12.60
   5 -15  -1   16.00    2.90
   5 -15  -1   13.20    2.90
  -5 -15   1   17.20    2.90
  -5 -15   1   13.90    1.50
   5 -15  -1   17.30    2.10
  -5  15   1   15.70    2.80
   5  15  -1   17.00    3.00
  -5  15   1   20.20    3.10
  -3 -15   1   32.60    1.70
   3 -15  -1   34.50    4.00
  -3 -15   1   32.20    1.70
   3 -15  -1   32.70    2.40
  -3 -15   1   30.40    3.50
  -3  15   1   32.60    3.40
  -3  15   1   30.30    3.60
   3  15  -1   31.80    3.70
   3  15  -1   33.10    4.00
  -3  15   1   32.70    3.50
   3  15  -1   32.20    4.00
   1 -15  -1  219.78   11.30
   1 -15  -1  209.78    9.60
  -1 -15   1  229.08   11.20
  -1 -15   1  203.08   10.80
  -1  15   1  214.98   11.10
   1  15  -1  224.38   11.40
   1  15  -1  221.18   11.30
  -1  15   1  218.88   11.20
   1  15  -1  215.18   11.30
  -1  15   1  207.08   11.30
  -1 -15  -1   98.09    5.00
   1 -15   1  111.49    6.80
  -1 -15  -1  118.89    6.90
   1 -15   1  101.79    5.10
   1 -15   1  110.89    6.60
   1 -15   1  107.89    5.00
  -1 -15  -1  110.79    5.10
  -1  15  -1  108.19    6.50
   1  15   1   96.69    6.50
  -1  15  -1  105.49    6.40
  -1  15  -1  103.09    6.60
   1  15   1  104.79    6.80
   1  15   1  110.69    6.70
   3 -15   1  278.47   12.60
   3 -15   1  288.77   14.30
  -3 -15  -1  296.57   13.80
  -3 -15  -1  262.77   12.30
   3 -15   1  279.57   14.00
  -3  15  -1  279.47   13.60
  -3  15  -1  251.87   13.90
   3  15   1  279.57   14.30
   3  15   1  267.17   14.10
  -5 -15  -1   91.89    6.20
   5 -15   1   95.19    6.70
   5 -15   1   75.89    6.10
  -5 -15  -1   79.99    4.70
   5 -15   1   90.49    5.30
  -5  15  -1   82.59    6.30
   5  15   1   83.39    6.50
  -5  15  -1   94.59    5.80
   5  15   1   90.09    6.40
   7 -15   1   87.59    7.10
   7 -15   1  118.59    6.80
  -7 -15  -1  106.29    7.40
  -7 -15  -1  113.59    6.20
   7 -15   1  106.39    7.90
   7  15   1  112.29    7.60
  -7  15  -1  127.89    8.10
  -7  15  -1   99.39    7.50
  -9 -15  -1   70.39    6.70
   9 -15   1   57.99    6.20
  -9 -15  -1   62.59    4.60
   9 -15   1   61.39    6.70
   9 -15   1   62.79    5.10
  -9  15  -1   65.29    6.40
   9  15   1   49.40    5.80
 -11 -15  -1   37.60    4.20
 -11 -15  -1   33.20    5.10
  11 -15   1   24.30    4.90
  11 -15   1   31.50    4.40
  11  15   1   34.80    4.80
 -11  15  -1   27.50    4.20
  12 -16  -1  215.68   12.00
 -12 -16   1  211.48   13.10
 -12 -16   1  206.48   11.20
  12 -16  -1  205.08   13.30
  12 -16  -1  222.68   13.60
 -12  16   1  211.28   13.10
 -12  16   1  193.88   12.10
 -10 -16   1   14.00    3.50
 -10 -16   1   17.20    2.50
  10 -16  -1   17.60    3.90
  10 -16  -1   21.00    3.10
  10 -16  -1   11.80    3.70
 -10  16   1   17.00    3.30
 -10  16   1   22.10    3.70
   8 -16  -1  193.28   10.30
   8 -16  -1  182.28   11.50
  -8 -16   1  191.18    9.60
   8 -16  -1  206.88   11.80
  -8 -16   1  199.98   11.40
  -8  16   1  178.68   11.10
  -8  16   1  200.58   11.40
   8  16  -1  198.48   11.50
   6 -16  -1   25.10    3.90
   6 -16  -1   26.70    3.80
  -6 -16   1   26.80    3.70
  -6 -16   1   22.00    2.00
   6 -16  -1   28.00    2.90
  -6  16   1   24.50    3.60
  -6  16   1   24.60    3.60
   6  16  -1   27.90    3.90
   4 -16  -1  188.38   10.60
  -4 -16   1  177.78    8.20
   4 -16  -1  182.18    9.00
  -4 -16   1  180.28   10.10
  -4  16   1  189.48    9.70
  -4  16   1  199.38   10.50
  -4  16   1  186.38   10.10
   4  16  -1  180.98   10.50
   4  16  -1  190.88   10.50
  -2 -16   1   30.30    3.30
   2 -16  -1   26.40    2.00
   2 -16  -1   27.30    3.50
  -2  16   1   25.90    3.30
   2  16  -1   31.10    3.70
  -2  16   1   28.20    3.30
   2  16  -1   23.50    3.20
   2  16  -1   24.70    3.50
  -2  16   1   30.10    3.50
   0 -16   1  114.69    5.30
   0 -16   1  111.99    6.90
   0 -16   1  118.39    7.20
   0 -16   1  117.59    5.30
   0  16   1  126.19    7.30
   0  16  -1  122.09    7.20
   0  16   1  106.19    7.20
   0  16   1  123.69    7.30
   0  16  -1  126.49    7.20
   0  16  -1  105.69    7.10
  -2 -16  -1   17.70    1.50
   2 -16   1   25.90    3.40
   2 -16   1   18.90    3.10
   2 -16   1   20.90    1.80
  -2  16  -1   25.60    3.00
   2  16   1   17.30    3.20
  -2  16  -1   21.50    2.90
  -2  16  -1   20.00    3.20
   2  16   1   21.10    3.20
   4 -16   1   37.90    4.50
   4 -16   1   44.70    4.80
  -4 -16  -1   39.70    2.60
   4 -16   1   34.40    2.90
  -4  16  -1   42.00    3.70
  -4  16  -1   32.20    4.20
   4  16   1   38.00    4.30
   4  16   1   39.30    4.50
  -6 -16  -1    2.00    1.90
   6 -16   1    0.20    1.90
   6 -16   1   -0.30    2.00
   6 -16   1    0.60    1.10
  -6 -16  -1    1.00    0.90
   6  16   1    2.30    1.80
  -6  16  -1    0.00    1.20
  -6  16  -1   -0.20    1.70
   8 -16   1   85.39    5.60
  -8 -16  -1   73.69    6.20
   8 -16   1   67.69    7.10
  -8 -16  -1   70.99    4.80
   8  16   1   63.49    6.50
  -8  16  -1   61.49    6.60
  10 -16   1    3.60    3.00
  10 -16   1    4.30    2.00
 -10 -16  -1    3.00    1.50
 -10 -16  -1    4.20    2.50
 -10  16  -1    6.70    2.60
  10  16   1    2.60    2.10
  11 -17  -1    8.90    2.40
 -11 -17   1    7.40    1.90
  11 -17  -1    2.20    2.90
  11 -17  -1    9.10    3.40
 -11 -17   1    7.70    3.20
 -11  17   1    8.10    2.80
 -11  17   1    6.40    2.70
  -9 -17   1  194.58   11.50
  -9 -17   1  187.08    9.60
   9 -17  -1  185.88   11.70
   9 -17  -1  204.58   12.10
   9 -17  -1  174.98   10.10
  -9  17   1  182.18   11.20
  -9  17   1  197.18   11.30
   7 -17  -1   22.10    4.00
  -7 -17   1   16.20    1.90
   7 -17  -1   17.70    2.50
   7 -17  -1   17.30    3.40
  -7 -17   1   18.20    3.30
  -7  17   1   14.20    3.00
  -7  17   1   16.10    3.10
   7  17  -1   19.10    3.50
  -5 -17   1   29.90    3.70
   5 -17  -1   28.90    4.10
   5 -17  -1   29.20    2.60
   5 -17  -1   34.20    4.20
  -5 -17   1   28.20    2.00
   5  17  -1   27.90    3.90
  -5  17   1   26.80    3.80
  -5  17   1   25.60    3.60
  -3 -17   1    2.50    1.50
   3 -17  -1    1.00    0.80
   3 -17  -1   -0.40    1.40
   3  17  -1    0.50    1.70
   3  17  -1    3.10    1.70
  -3  17   1    2.00    1.50
  -3  17   1    2.20    1.30
   3  17  -1   -2.30    1.20
  -3  17   1   -1.10    1.10
  -1 -17   1   12.60    2.40
  -1 -17   1   11.10    2.20
   1 -17  -1   12.50    1.30
   1 -17  -1   12.00    2.40
   1  17  -1   14.80    2.60
  -1  17   1   14.00    2.50
   1  17  -1   17.20    2.80
  -1  17   1   11.50    2.60
   1  17  -1   10.90    2.50
  -1  17   1   12.80    2.40
   1 -17   1   44.90    2.60
  -1 -17  -1   42.80    2.50
   1 -17   1   39.90    4.20
   1 -17   1   49.10    4.20
  -1  17  -1   44.00    4.60
   1  17   1   50.19    4.30
  -1  17  -1   47.70    4.10
   1  17   1   39.10    4.50
  -1  17  -1   53.29    4.20
   1  17   1   46.10    4.80
   3 -17   1   36.70    4.30
   3 -17   1   35.50    2.60
  -3 -17  -1   31.10    2.30
   3 -17   1   36.40    4.30
  -3  17  -1   30.40    3.60
   3  17   1   36.60    4.40
   3  17   1   39.80    4.50
  -3  17  -1   39.70    4.50
   5 -17   1   32.00    4.50
  -5 -17  -1   38.10    2.70
   5 -17   1   31.60    2.90
   5  17   1   27.60    4.10
  -5  17  -1   26.50    4.10
  -5  17  -1   33.30    3.90
  -7 -17  -1    0.50    1.00
   7 -17   1   -2.70    1.80
   7 -17   1    0.50    1.20
  -7  17  -1    0.30    2.10
   7  17   1    1.80    1.70
   9 -17   1    2.30    2.80
   9 -17   1    0.20    1.30
  -9 -17  -1    0.90    1.20
  -9  17  -1    1.50    2.40
   9  17   1    1.40    2.00
  10 -18  -1   36.80    5.40
 -10 -18   1   28.30    3.20
 -10 -18   1   29.60    4.60
  10 -18  -1   38.80    5.50
  10 -18  -1   30.70    3.80
 -10  18   1   35.20    4.80
 -10  18   1   29.90    4.60
   8 -18  -1   56.99    6.10
   8 -18  -1   42.70    5.40
   8 -18  -1   51.39    4.20
  -8 -18   1   51.79    5.60
  -8 -18   1   54.19    3.60
  -8  18   1   55.09    5.90
  -8  18   1   57.29    5.80
   6 -18  -1    3.50    1.30
   6 -18  -1    5.40    2.40
   6 -18  -1    3.20    2.50
  -6 -18   1    1.80    1.90
  -6 -18   1    4.10    1.00
  -6  18   1    5.30    2.20
  -6  18   1    6.10    2.30
   6  18  -1    8.40    2.60
   4 -18  -1  301.27   13.80
  -4 -18   1  316.37   15.30
  -4 -18   1  290.27   12.80
   4 -18  -1  302.17   15.50
   4 -18  -1  292.07   15.40
  -4  18   1  281.47   14.90
   4  18  -1  307.17   15.60
  -4  18   1  302.97   15.40
  -2 -18   1    5.70    1.70
   2 -18  -1    3.10    0.90
   2 -18  -1    7.50    2.30
   2  18  -1    3.30    1.80
   2  18  -1    3.90    2.20
  -2  18   1    4.60    1.90
  -2  18   1    5.90    1.70
  -2  18   1    0.10    1.50
   2  18  -1    3.20    1.70
   0 -18   1  128.69    8.00
   0 -18   1  130.39    5.90
   0 -18  -1  135.39    8.20
   0 -18  -1  128.89    6.20
   0  18   1  131.29    8.30
   0  18   1  128.29    8.00
   0  18  -1  144.89    8.10
   0  18   1  126.29    8.00
   0  18  -1  131.39    8.30
   0  18  -1  143.79    8.20
   2 -18   1   53.89    5.50
   2 -18   1   62.89    3.50
  -2 -18  -1   56.99    3.20
  -2  18  -1   57.79    4.70
   2  18   1   61.99    5.40
   2  18   1   64.69    5.20
  -2  18  -1   58.09    5.10
  -4 -18  -1  181.68    8.60
   4 -18   1  177.28    8.90
   4 -18   1  175.38   10.60
  -4  18  -1  187.38   10.70
   4  18   1  174.98   10.70
  -4  18  -1  177.18   10.40
   4  18   1  183.78   10.70
  -6 -18  -1  125.99    6.80
   6 -18   1  137.29    7.40
   6 -18   1  131.69    9.10
   6  18   1  136.39    8.70
  -6  18  -1  121.29    8.70
  -8 -18  -1   18.90    2.50
   8 -18   1   16.30    3.90
   8 -18   1   15.80    2.60
  -8  18  -1   16.50    3.80
   8  18   1   14.90    3.40
   7 -19  -1    5.60    2.80
  -7 -19   1    5.50    2.30
   7 -19  -1    5.00    2.50
  -7 -19   1    6.00    1.20
   7 -19  -1    6.50    1.70
  -7  19   1    7.80    2.40
  -7  19   1    8.00    2.60
   5 -19  -1   17.10    2.10
   5 -19  -1   18.50    3.50
   5 -19  -1   19.00    3.40
  -5 -19   1   13.40    3.20
  -5 -19   1   17.80    1.40
  -5  19   1   20.10    3.20
  -5  19   1   16.30    3.00
   5  19  -1   22.60    3.70
   3 -19  -1    7.50    1.30
   3 -19  -1    9.30    2.40
   3 -19  -1   10.80    2.70
   3  19  -1    6.80    2.20
   3  19  -1    9.20    2.70
  -3  19   1    5.80    2.20
  -3  19   1    4.30    2.00
  -1 -19   1   19.00    4.40
   1 -19  -1   15.20    1.50
   1 -19  -1   15.50    2.90
  -1  19   1   15.30    2.90
   1  19  -1   19.60    3.20
  -1  19   1   20.50    3.10
   1  19  -1   13.30    2.70
  -1  19   1   18.80    3.10
   1  19  -1   16.00    2.90
   1 -19   1    4.30    0.80
  -1 -19  -1    3.90    1.80
   1 -19   1    3.40    1.80
  -1 -19  -1    3.30    0.70
  -1  19  -1    2.90    1.70
   1  19   1    2.60    1.90
   1  19   1    5.50    2.10
  -1  19  -1   -0.10    1.50
   3 -19   1   30.90    2.40
   3 -19   1   46.10    5.00
  -3 -19  -1   30.00    2.10
  -3  19  -1   35.90    4.40
   3  19   1   38.30    4.70
   3  19   1   25.60    4.00
   5 -19   1   15.60    3.50
   5 -19   1   12.10    1.90
  -5 -19  -1   16.00    1.90
  -5  19  -1   15.80    3.40
   5  19   1   11.00    2.80
  -7 -19  -1  100.89    5.90
   7 -19   1  109.59    8.10
   7 -19   1   92.59    6.20
  -7  19  -1  102.89    7.70
   7  19   1  110.49    7.80
   6 -20  -1   89.49    6.90
   6 -20  -1   80.59    5.20
   6 -20  -1   93.29    7.10
  -6 -20   1   83.39    4.30
  -6  20   1   89.79    6.70
  -6  20   1   94.59    6.70
   4 -20  -1   48.00    5.40
   4 -20  -1   57.39    5.70
   4 -20  -1   49.90    3.50
  -4  20   1   57.09    4.90
  -4  20   1   57.29    5.00
   2 -20  -1    5.40    2.10
   2 -20  -1    6.60    1.10
   2 -20  -1    7.40    2.30
  -2  20   1    4.00    1.90
  -2  20   1    4.20    2.00
   2  20  -1    4.20    2.20
   0 -20  -1   44.40    2.60
   0 -20  -1   50.09    5.00
   0  20  -1   39.50    4.80
   0  20   1   43.20    4.80
   0  20   1   52.89    5.30
   0  20  -1   47.60    4.90
   0  20   1   47.60    5.30
   2 -20   1   27.90    2.10
   2 -20   1   30.20    4.00
  -2 -20  -1   32.70    4.20
  -2 -20  -1   30.60    1.90
   2  20   1   34.10    4.40
   2  20   1   28.20    4.20
  -2  20  -1   32.30    4.30
   4 -20   1    0.40    0.80
   4 -20   1    1.40    2.10
  -4 -20  -1    0.80    0.70
   4  20   1   -0.40    1.60
  -4  20  -1    2.90    2.00
   1 -21  -1   17.10    3.10
   1 -21  -1   13.00    2.90
   1 -21  -1   15.70    1.30
  -1  21   1   13.50    3.10
  -1  21   1   12.50    2.80
   1  21  -1   14.80    3.20
   1  21  -1   10.00    2.80
  -1 -21  -1   12.10    2.90
   1  21   1   12.50    3.10
   1  21   1    7.70    2.30
  -1  21  -1    9.80    2.70
 -18   0   2  291.67   14.80
  18   0  -2  278.87   15.10
 -16   0   2  236.58   12.10
  16   0  -2  226.08   12.30
  14   0  -2  124.39    7.30
 -14   0   2  122.49    7.10
 -12   0   2  692.33   30.50
 -12   0   2  626.54   32.10
  12   0  -2  663.23   30.00
  12   0  -2  709.33   29.10
 -12   0   2  673.73   29.80
  10   0  -2  100.79    5.40
 -10   0   2   96.09    5.70
  10   0  -2   98.49    4.80
 -10   0   2   93.29    7.10
 -10   0   2   92.79    5.30
  10   0  -2   95.39    5.40
   8   0  -2 3256.77  130.49
  -8   0   2 3082.59  130.39
   8   0  -2 3053.79  130.49
  -8   0   2 3007.20  130.79
   8   0  -2 3147.49  130.49
   6   0  -2  437.26   18.50
   6   0  -2  460.05   18.90
  -6   0   2  437.76   18.80
  -6   0   2  379.66   20.10
  -6   0   2  422.26   19.10
   6   0  -2  448.06   18.90
  -4   0   2 1958.80   82.59
   4   0  -2 2007.80   82.59
   4   0  -2 2010.50   82.99
  -4   0   2 1890.31   82.29
   2   0  -2  176.68    7.40
  -2   0   2  152.58    8.00
   2   0  -2  177.48    7.60
  -2   0   2  169.28    7.40
  -2   0   2  164.88    7.60
   0   0   2  675.43   31.40
   0   0   2  765.72   31.20
   0   0   2  663.43   31.00
   0   0  -2  770.72   31.10
   0   0  -2  810.32   31.30
  -2   0  -2  762.52   31.50
   2   0   2  729.63   31.20
   2   0   2  730.33   31.40
   2   0   2  744.63   31.30
  -2   0  -2  697.63   31.30
   2   0   2  751.02   31.20
   4   0   2  270.17   12.00
  -4   0  -2  265.57   12.10
   4   0   2  255.77   11.80
  -4   0  -2  236.78   11.90
   4   0   2  274.97   11.90
   4   0   2  279.47   12.00
  -6   0  -2 2406.16   98.29
   6   0   2 2451.25   98.09
   6   0   2 2353.26   98.09
   6   0   2 2240.88   97.79
  -6   0  -2 2253.67   97.99
   6   0   2 2260.07   97.89
  -8   0  -2    1.50    1.00
   8   0   2    0.30    0.80
   8   0   2    0.40    1.00
  -8   0  -2    0.20    0.90
   8   0   2    1.30    0.70
   8   0   2    0.20    1.10
  10   0   2  996.90   44.80
 -10   0  -2  989.90   44.90
 -10   0  -2 1081.79   45.40
  10   0   2 1065.79   44.80
  12   0   2   22.30    2.90
  12   0   2   22.20    3.00
 -12   0  -2   23.20    3.10
  14   0   2  285.07   14.70
 -14   0  -2  268.37   14.60
  14   0   2  310.17   14.60
 -16   0  -2  212.08   12.40
  16   0   2  226.98   12.60
  16   0   2  234.38   12.40
  19  -1  -2    3.60    2.10
 -19  -1   2    3.30    1.90
 -19   1   2    3.40    2.10
  19   1  -2    3.10    2.10
 -17  -1   2  111.99    7.50
  17  -1  -2  114.59    7.90
 -17   1   2  128.39    7.60
  17   1  -2  129.89    8.10
  15  -1  -2   40.00    4.30
 -15  -1   2   48.40    4.00
 -15   1   2   47.50    4.00
  15   1  -2   48.00    4.20
  13  -1  -2  509.25   23.40
 -13  -1   2  552.44   24.20
  13  -1  -2  525.55   22.60
 -13  -1   2  479.15   23.10
  13   1  -2  505.75   23.40
 -13   1   2  504.15   23.10
 -11  -1   2  164.98   10.30
  11  -1  -2  160.18    8.40
  11  -1  -2  165.78    7.80
  11  -1  -2  169.28    8.50
 -11  -1   2  159.18    8.30
 -11   1   2  137.59   10.00
 -11   1   2  165.28    8.30
 -11   1   2  167.68    8.70
  11   1  -2  175.08    7.60
  11   1  -2  164.38    8.40
  -9  -1   2  477.05   21.30
  -9  -1   2  460.85   23.00
   9  -1  -2  468.45   21.50
   9  -1  -2  501.85   21.50
   9  -1  -2  486.25   20.90
  -9  -1   2  484.15   21.80
   9   1  -2  491.15   21.40
  -9   1   2  494.75   21.30
   9   1  -2  506.65   20.70
   9   1  -2  499.05   21.40
  -9   1   2  502.85   21.70
  -9   1   2  422.66   23.10
  -7  -1   2 1125.99   48.90
  -7  -1   2 1086.89   50.39
  -7  -1   2 1119.69   49.30
   7  -1  -2 1197.58   49.10
   7  -1  -2 1119.49   48.60
   7  -1  -2 1118.19   49.10
   7   1  -2 1238.88   48.50
  -7   1   2 1183.28   48.90
  -7   1   2 1161.68   49.30
   7   1  -2 1179.58   49.00
   7   1  -2 1171.28   49.00
   5  -1  -2 1140.59   48.50
  -5  -1   2 1182.28   48.60
  -5  -1   2 1113.29   48.30
  -5  -1   2 1028.00   49.50
   5  -1  -2 1194.08   48.40
   5   1  -2 1168.28   48.30
   5   1  -2 1156.08   48.10
  -5   1   2 1118.59   48.50
  -5   1   2 1169.28   48.20
   5   1  -2 1183.08   48.40
   3  -1  -2 4500.75  185.58
   3  -1  -2 4096.39  183.98
  -3  -1   2 4167.68  184.78
  -3   1   2 4230.38  184.58
  -3   1   2 4496.55  184.28
   3   1  -2 4408.96  184.98
   3   1  -2 4826.82  184.78
  -1  -1   2   11.70    1.00
  -1  -1   2   12.00    1.00
  -1  -1   2   13.40    1.50
   1  -1  -2   12.10    1.20
   1   1  -2   12.80    1.10
  -1   1   2   13.60    1.00
  -1   1   2   12.60    1.50
  -1   1   2   11.80    1.00
   1   1  -2   12.70    1.20
   1  -1   2 4332.57  177.38
   1  -1   2 4296.67  177.48
   1  -1   2 4191.08  178.48
  -1  -1  -2 4465.85  178.08
  -1  -1  -2 4026.20  176.38
   1   1   2 4102.69  177.78
   1   1   2 4385.86  178.38
  -1   1  -2 4649.33  178.68
   1   1   2 4166.98  176.98
   1   1   2 4064.49  178.18
   1   1   2 3807.82  177.48
  -3  -1  -2  623.64   26.30
   3  -1   2  623.04   25.80
  -3  -1  -2  603.84   26.00
   3  -1   2  604.94   25.90
   3  -1   2  594.14   26.10
   3   1   2  581.74   26.00
   3   1   2  635.24   26.10
   3   1   2  617.14   26.10
  -3   1  -2  624.24   26.20
  -3   1  -2  572.84   26.00
  -5  -1  -2 1663.53   69.99
   5  -1   2 1682.13   70.09
  -5  -1  -2 1644.34   70.19
   5  -1   2 1701.93   69.99
   5  -1   2 1628.04   69.79
   5   1   2 1683.33   69.99
   5   1   2 1608.34   69.89
  -5   1  -2 1597.84   69.89
   5   1   2 1688.13   69.89
  -5   1  -2 1672.63   70.09
   7  -1   2  284.77   13.70
   7  -1   2  297.97   13.60
  -7  -1  -2  309.47   14.10
  -7  -1  -2  287.47   13.60
   7  -1   2  295.07   12.90
   7  -1   2  289.77   13.60
   7   1   2  307.67   13.70
   7   1   2  299.97   13.60
  -7   1  -2  299.87   13.80
  -7   1  -2  279.77   13.60
   7   1   2  284.77   13.60
   7   1   2  312.87   13.50
  -9  -1  -2  224.08   10.90
  -9  -1  -2  208.78   11.20
   9  -1   2  223.98   11.00
   9  -1   2  217.58   10.80
   9  -1   2  218.28   10.70
   9   1   2  225.38   10.70
   9   1   2  218.18   10.90
   9   1   2  227.08   10.20
  -9   1  -2  223.38   10.90
  -9   1  -2  218.48   11.00
 -11  -1  -2  424.36   23.10
  11  -1   2  397.06   19.40
  11  -1   2  438.26   19.50
 -11  -1  -2  397.26   19.50
 -11   1  -2  405.26   19.50
  11   1   2  426.46   19.60
  11   1   2  450.15   19.40
  13  -1   2   35.60    4.00
 -13  -1  -2   38.60    4.20
  13  -1   2   47.30    4.40
 -13   1  -2   38.60    4.20
  13   1   2   44.50    3.80
  13   1   2   48.10    4.10
 -15  -1  -2  152.18    9.40
  15  -1   2  161.58    9.20
  15  -1   2  154.28    9.40
  15   1   2  173.68    9.20
 -15   1  -2  145.49    9.40
 -18  -2   2   39.10    4.50
  18  -2  -2   36.30    4.60
  18   2  -2   40.50    4.70
 -16  -2   2    2.20    1.70
  16  -2  -2    1.80    1.60
  16   2  -2    1.60    1.70
 -16   2   2    0.60    1.50
  14  -2  -2  214.78   11.60
  14  -2  -2  226.68   10.80
 -14  -2   2  218.98   11.40
 -14  -2   2  240.68   12.60
 -14   2   2  223.68   11.30
  14   2  -2  229.08   11.60
 -12  -2   2   40.60    5.30
  12  -2  -2   37.90    3.40
  12  -2  -2   44.20    3.00
 -12  -2   2   38.80    3.30
 -12  -2   2   52.59    4.20
  12  -2  -2   49.70    3.70
  12   2  -2   45.30    3.50
 -12   2   2   39.80    5.60
 -12   2   2   46.20    3.40
  10  -2  -2   70.89    4.50
  10  -2  -2   83.89    4.70
 -10  -2   2   78.69    6.00
 -10  -2   2   71.49    4.40
  10  -2  -2   71.59    4.00
 -10  -2   2   70.69    4.80
  10   2  -2   73.09    3.60
 -10   2   2   59.59    5.80
 -10   2   2   80.69    4.40
  10   2  -2   70.79    4.40
  -8  -2   2  678.03   27.70
   8  -2  -2  623.14   27.20
  -8  -2   2  602.84   27.10
   8  -2  -2  625.74   27.40
   8  -2  -2  622.34   26.80
  -8  -2   2  630.34   28.70
  -8   2   2  536.75   28.70
  -8   2   2  629.64   27.30
   8   2  -2  611.24   26.40
   8   2  -2  636.14   27.10
   8   2  -2  658.53   27.10
  -8   2   2  652.23   27.00
  -6  -2   2  207.28   10.40
  -6  -2   2  216.48    9.60
  -6  -2   2  193.08    9.20
   6  -2  -2  202.28    9.30
   6  -2  -2  205.68    9.40
   6   2  -2  197.78    9.10
  -6   2   2  198.68   10.70
  -6   2   2  195.68    9.30
   6   2  -2  200.38    9.10
  -6   2   2  200.68    9.00
   6   2  -2  195.18    8.50
  -4  -2   2  348.47   15.00
   4  -2  -2  320.77   14.80
   4  -2  -2  357.46   15.10
  -4  -2   2  358.76   15.10
  -4  -2   2  310.57   15.80
   4   2  -2  341.27   14.70
  -4   2   2  352.76   14.60
  -4   2   2  333.17   14.90
  -4   2   2  325.37   16.10
   2  -2  -2  486.75   20.30
  -2  -2   2  484.65   20.20
  -2  -2   2  434.86   20.10
  -2  -2   2  465.55   19.90
  -2  -2   2  434.06   20.50
   2   2  -2  514.35   19.80
  -2   2   2  471.85   20.70
   2   2  -2  458.65   20.10
   2   2  -2  462.35   20.00
  -2   2   2  448.86   20.10
  -2   2   2  449.36   20.10
   0  -2  -2  472.45   20.30
   0  -2   2  442.66   20.40
   0  -2   2  501.65   20.30
   0  -2  -2  473.95   19.90
   0  -2   2  458.15   20.20
   0   2  -2  479.75   20.20
   0   2   2  441.06   20.10
   0   2   2  462.15   20.10
   0   2   2  485.05   20.50
   0   2   2  443.06   20.40
   0   2   2  458.85   20.20
   2  -2   2   68.79    3.90
   2  -2   2   73.49    3.90
  -2  -2  -2   72.69    4.00
  -2  -2  -2   69.39    3.70
   2  -2   2   71.79    3.60
  -2   2  -2   67.79    3.90
   2   2   2   77.19    3.90
   2   2   2   75.39    3.80
   2   2   2   75.19    3.80
   2   2   2   76.19    4.00
  -2   2  -2   73.89    3.90
   4  -2   2  295.57   13.30
   4  -2   2  291.77   13.20
  -4  -2  -2  288.07   13.40
  -4  -2  -2  282.27   13.10
   4  -2   2  307.47   12.70
   4  -2   2  298.27   13.00
   4   2   2  301.87   13.40
  -4   2  -2  292.87   13.20
   4   2   2  292.97   13.10
   4   2   2  293.77   13.10
  -4   2  -2  284.47   13.20
   6  -2   2  365.06   15.00
   6  -2   2  340.57   15.60
   6  -2   2  357.76   16.00
   6  -2   2  354.96   15.80
  -6  -2  -2  335.07   15.70
  -6  -2  -2  344.07   16.20
   6   2   2  366.06   15.80
  -6   2  -2  347.67   15.80
   6   2   2  361.26   15.70
   6   2   2  347.57   15.80
  -6   2  -2  361.06   15.90
   6   2   2  321.27   16.00
  -8  -2  -2   12.20    2.10
  -8  -2  -2   11.30    1.80
   8  -2   2    9.40    1.70
   8  -2   2   11.30    1.90
   8  -2   2   11.10    1.80
   8   2   2    9.80    1.60
   8   2   2    9.00    1.60
   8   2   2   12.10    1.80
  -8   2  -2   10.10    1.80
  -8   2  -2   10.00    1.70
  10  -2   2  127.39    7.00
 -10  -2  -2  129.49    7.60
 -10  -2  -2  116.59    6.90
  10  -2   2  133.39    7.00
  10  -2   2  127.29    7.30
  10   2   2  125.19    7.10
  10   2   2  136.99    7.40
 -10   2  -2  113.49    6.90
  10   2   2  115.09    6.60
 -12  -2  -2  106.59    6.70
  12  -2   2  108.79    6.50
  12  -2   2  102.19    6.50
  12   2   2  102.99    6.30
 -12   2  -2  114.09    6.80
  12   2   2  110.29    6.80
  14  -2   2    0.80    1.50
  14  -2   2    0.70    1.40
 -14  -2  -2   -1.30    1.30
 -14   2  -2    0.30    1.60
  14   2   2   -1.60    1.20
  16  -2   2   59.29    4.90
 -16  -2  -2   54.99    5.80
  16  -2   2   47.60    5.20
 -16   2  -2   57.89    5.80
 -17  -3   2  159.48    9.80
  17  -3  -2  171.28   10.10
 -17   3   2  181.08    9.70
  17   3  -2  168.28   10.00
  15  -3  -2  456.45   20.60
 -15  -3   2  438.46   21.30
  15  -3  -2  439.66   21.50
 -15  -3   2  474.95   22.80
 -15   3   2  460.05   21.20
  15   3  -2  462.85   21.50
 -13  -3   2   24.80    3.50
  13  -3  -2   20.40    2.80
  13  -3  -2   18.60    2.20
  13  -3  -2   15.70    3.20
 -13  -3   2   18.00    2.60
 -13   3   2   20.20    2.40
  13   3  -2   17.70    2.60
 -11  -3   2 1680.23   74.79
  11  -3  -2 1691.63   74.89
  11  -3  -2 1791.12   74.39
  11  -3  -2 1841.92   75.29
 -11  -3   2 1755.02   75.69
 -11  -3   2 1812.02   76.79
 -11   3   2 1871.71   74.59
 -11   3   2 1605.14   76.99
  11   3  -2 1778.22   74.79
  -9  -3   2  654.33   28.60
  -9  -3   2  619.44   28.00
   9  -3  -2  636.24   28.10
   9  -3  -2  638.14   28.30
  -9  -3   2  642.24   29.40
   9  -3  -2  637.14   27.70
   9   3  -2  645.84   27.10
  -9   3   2  658.83   27.70
  -9   3   2  618.44   28.00
   9   3  -2  681.13   28.00
  -9   3   2  622.64   29.90
  -7  -3   2 1245.98   51.59
   7  -3  -2 1174.18   51.19
  -7  -3   2 1172.98   52.19
   7  -3  -2 1196.18   51.39
   7  -3  -2 1194.88   51.09
  -7  -3   2 1150.28   51.19
   7   3  -2 1289.17   50.29
   7   3  -2 1179.38   50.99
  -7   3   2 1173.18   52.69
  -7   3   2 1216.88   50.79
   7   3  -2 1247.88   50.99
  -5  -3   2 4171.98  170.78
   5  -3  -2 3756.52  170.78
  -5  -3   2 3926.81  171.08
  -5  -3   2 4228.58  169.88
   5  -3  -2 3805.12  171.08
  -5  -3   2 4193.08  171.38
  -5   3   2 4084.39  170.48
   5   3  -2 4031.60  170.58
  -5   3   2 4456.15  171.68
  -5   3   2 3985.30  171.18
   3  -3  -2 1136.49   47.60
  -3  -3   2 1057.99   48.20
   3  -3  -2 1137.69   47.60
  -3  -3   2 1027.10   47.90
  -3  -3   2 1183.18   47.50
  -3  -3   2 1161.18   47.50
  -3  -3   2 1159.18   47.00
   3   3  -2 1070.59   47.50
  -3   3   2 1096.09   48.50
  -3   3   2 1196.08   47.10
  -3   3   2 1081.29   48.10
  -3   3   2 1099.09   47.60
   3   3  -2 1221.38   47.20
   1  -3  -2 5873.71  252.17
   1  -3  -2 5866.01  249.97
  -1  -3   2 5992.30  252.07
   1  -3  -2 5678.13  250.47
  -1  -3   2 5903.71  251.87
  -1  -3   2 6765.02  251.67
  -1  -3   2 5588.04  250.57
   1   3  -2 6095.49  251.77
  -1   3   2 6009.10  250.07
  -1   3   2 5896.11  252.87
  -1   3   2 5769.82  252.27
  -1   3   2 6351.56  251.67
  -1   3   2 6049.09  252.37
   1  -3   2 1664.03   66.09
   1  -3   2 1587.44   66.49
  -1  -3  -2 1499.65   66.59
   1  -3   2 1580.04   66.59
  -1  -3  -2 1594.04   66.49
  -1  -3  -2 1565.74   66.29
   1  -3   2 1550.84   66.39
   1   3   2 1582.74   66.49
   1   3   2 1661.13   66.69
   1   3   2 1579.34   66.69
  -1   3  -2 1460.25   65.99
  -1   3  -2 1598.54   66.49
  -1   3  -2 1677.93   66.39
   1   3   2 1539.05   66.59
  -3  -3  -2 4262.97  189.28
   3  -3   2 4759.32  191.08
   3  -3   2 4416.86  190.78
  -3  -3  -2 4666.33  190.58
   3  -3   2 4588.24  189.18
   3   3   2 4341.37  189.28
  -3   3  -2 4684.33  189.18
   3   3   2 4550.24  189.08
   3   3   2 4706.03  190.78
  -3   3  -2 4299.47  190.28
   5  -3   2  427.16   18.80
   5  -3   2  418.76   19.00
   5  -3   2  457.75   18.20
  -5  -3  -2  417.96   18.90
   5  -3   2  412.66   19.10
  -5  -3  -2  422.66   19.40
  -5   3  -2  460.95   19.10
  -5   3  -2  423.16   19.00
   5   3   2  405.16   19.50
   5   3   2  455.75   18.90
   5   3   2  424.46   18.90
  -7  -3  -2 1449.26   62.39
  -7  -3  -2 1393.86   61.89
   7  -3   2 1437.86   61.89
   7  -3   2 1484.65   62.09
   7  -3   2 1459.95   61.79
   7   3   2 1505.55   61.69
   7   3   2 1366.16   62.09
  -7   3  -2 1478.95   61.99
  -7   3  -2 1511.45   61.99
   9  -3   2 1245.78   55.29
   9  -3   2 1293.37   55.49
   9  -3   2 1327.97   55.89
  -9  -3  -2 1229.28   55.49
  -9  -3  -2 1285.97   56.19
   9   3   2 1283.07   55.19
  -9   3  -2 1312.57   55.59
   9   3   2 1360.96   55.49
  11  -3   2   28.30    5.50
  11  -3   2   29.60    3.20
  11  -3   2   28.20    3.20
 -11  -3  -2   25.40    3.10
 -11  -3  -2   26.60    3.60
  11   3   2   25.00    2.70
 -11   3  -2   26.60    3.20
  13  -3   2  592.54   26.50
  13  -3   2  567.64   26.60
 -13  -3  -2  557.84   26.70
  13   3   2  590.44   26.10
 -13   3  -2  579.54   26.80
  15  -3   2   70.39    5.60
 -15  -3  -2   62.69    5.50
  15  -3   2   68.89    5.50
 -15   3  -2   79.19    5.80
  18  -4  -2   56.69    6.00
 -18  -4   2   56.59    5.80
  18   4  -2   59.99    6.00
 -18   4   2   62.09    5.00
 -16  -4   2   82.99    5.90
  16  -4  -2   81.79    6.10
 -16   4   2   81.99    5.60
  16   4  -2   74.09    5.70
  14  -4  -2  359.26   16.50
  14  -4  -2  357.76   17.20
 -14  -4   2  342.87   17.10
 -14  -4   2  372.96   18.40
  14   4  -2  350.46   17.00
 -14   4   2  357.56   16.80
  12  -4  -2   31.70    2.80
  12  -4  -2   35.40    3.70
 -12  -4   2   36.00    4.20
  12  -4  -2   27.70    3.20
 -12  -4   2   31.90    3.40
 -12   4   2   36.30    2.90
 -12   4   2   38.90    5.30
  12   4  -2   41.20    3.20
  10  -4  -2  855.41   37.20
  10  -4  -2  862.01   36.60
 -10  -4   2  858.01   37.60
 -10  -4   2  803.32   36.90
 -10  -4   2  903.51   38.40
  10  -4  -2  802.22   36.80
 -10   4   2  835.62   38.80
 -10   4   2  874.51   36.40
  10   4  -2  840.42   36.70
  -8  -4   2  239.88   11.30
  -8  -4   2  224.18   10.90
   8  -4  -2  215.28   10.80
   8  -4  -2  227.48   11.10
   8  -4  -2  224.68   10.70
  -8  -4   2  231.38   11.80
  -8   4   2  228.28   10.30
   8   4  -2  237.88   10.70
  -8   4   2  231.18   12.40
  -8   4   2  237.18   10.80
  -6  -4   2 2102.09   87.09
   6  -4  -2 1987.70   86.19
  -6  -4   2 1890.61   86.29
  -6  -4   2 2092.99   86.49
   6  -4  -2 2065.89   86.39
  -6  -4   2 2102.29   86.29
  -6   4   2 2062.49   85.69
   6   4  -2 2059.89   85.99
  -6   4   2 2075.09   87.49
  -6   4   2 2044.40   86.09
  -4  -4   2   60.29    3.10
  -4  -4   2   54.59    2.40
  -4  -4   2   54.59    3.10
   4  -4  -2   54.09    3.20
  -4  -4   2   53.99    2.40
   4  -4  -2   57.19    3.30
   4  -4  -2   59.49    3.30
  -4  -4   2   52.69    3.60
  -4   4   2   54.29    3.20
   4   4  -2   56.29    2.80
  -4   4   2   57.39    2.60
  -4   4   2   59.89    4.10
  -2  -4   2   39.70    2.10
   2  -4  -2   39.70    2.30
  -2  -4   2   35.90    2.10
  -2  -4   2   34.90    1.90
  -2  -4   2   37.20    2.50
  -2   4   2   36.50    2.80
  -2   4   2   41.10    2.60
   2   4  -2   50.39    2.70
  -2   4   2   36.60    2.10
  -2   4   2   35.70    2.20
  -2   4   2   32.50    2.30
   0  -4  -2    0.50    0.50
   0  -4   2    1.00    0.60
   0  -4   2    0.10    0.50
   0  -4   2    0.20    0.50
   0  -4   2    0.90    0.30
   0  -4   2    0.50    0.40
   0  -4  -2    0.90    0.60
   0  -4  -2    0.80    0.40
   0   4  -2    2.00    0.90
   0   4   2    0.30    0.60
   0   4   2    0.80    0.70
   0   4  -2    0.60    0.30
   0   4   2    0.00    0.80
  -2  -4  -2   58.99    3.40
  -2  -4  -2   60.29    3.20
  -2  -4  -2   50.79    3.00
   2  -4   2   58.59    3.20
   2  -4   2   54.79    3.30
   2  -4   2   67.59    3.00
   2  -4   2   51.99    3.10
  -2   4  -2   61.09    3.30
   2   4   2   56.99    3.20
   2   4   2   58.39    3.50
   2   4   2   57.69    3.40
  -2   4  -2   58.99    2.80
   4  -4   2 1120.39   49.60
   4  -4   2 1174.58   49.30
   4  -4   2 1262.17   48.80
   4  -4   2 1180.88   49.70
  -4  -4  -2 1138.89   49.50
  -4  -4  -2 1121.59   49.90
  -4   4  -2 1186.68   49.70
   4   4   2 1137.99   50.09
   4   4   2 1177.28   49.50
   6  -4   2  186.58    9.20
  -6  -4  -2  184.38    9.10
  -6  -4  -2  183.98    9.60
   6  -4   2  192.48    9.00
   6  -4   2  198.98    9.40
  -6   4  -2  202.78    9.10
   6   4   2  189.58    9.00
  -6   4  -2  195.48    9.30
   6   4   2  179.88    9.70
   6   4   2  185.78    9.70
   8  -4   2  822.32   36.00
   8  -4   2  858.41   36.50
  -8  -4  -2  803.72   36.10
  -8  -4  -2  844.32   36.80
   8  -4   2  824.62   35.90
   8   4   2  837.32   35.80
   8   4   2  796.02   36.30
  -8   4  -2  846.22   36.20
 -10  -4  -2    2.10    1.50
  10  -4   2    2.20    1.30
  10  -4   2    4.10    1.50
 -10  -4  -2    6.60    1.80
  10  -4   2    7.40    1.90
  10   4   2    3.80    1.40
 -10   4  -2    3.50    1.50
  10   4   2    4.10    1.30
  12  -4   2  397.06   18.90
  12  -4   2  427.66   19.20
 -12  -4  -2  371.86   19.90
 -12  -4  -2  379.06   19.10
 -12   4  -2  415.16   19.20
  12   4   2  413.06   18.50
  14  -4   2   68.99    5.40
 -14  -4  -2   58.79    5.30
  14  -4   2   71.59    5.40
  14   4   2   77.39    5.00
 -14   4  -2   66.09    5.40
 -16  -4  -2   56.69    6.10
  16  -4   2   71.99    5.80
  16  -4   2   67.39    5.50
 -16   4  -2   73.59    5.90
  17  -5  -2    4.00    2.20
 -17  -5   2    2.10    1.90
 -17   5   2    5.50    1.90
  17   5  -2    6.40    2.20
  15  -5  -2   27.70    3.10
  15  -5  -2   25.00    3.50
 -15  -5   2   19.60    3.90
 -15  -5   2   30.80    3.70
 -15   5   2   30.80    3.20
  15   5  -2   23.40    3.20
  13  -5  -2   38.80    4.20
 -13  -5   2   32.90    3.70
  13  -5  -2   35.40    3.40
 -13  -5   2   37.30    4.70
  13  -5  -2   32.40    3.60
  13   5  -2   34.80    3.50
 -13   5   2   37.80    3.00
  11  -5  -2   26.20    3.00
 -11  -5   2   29.20    3.60
  11  -5  -2   25.00    2.60
  11  -5  -2   26.20    3.20
 -11  -5   2   22.20    2.90
 -11   5   2   37.20    4.90
  11   5  -2   29.30    2.60
 -11   5   2   30.60    2.40
   9  -5  -2  823.22   37.20
  -9  -5   2  864.21   38.10
   9  -5  -2  877.21   37.20
  -9  -5   2  862.71   37.40
  -9  -5   2  848.92   37.80
   9  -5  -2  867.71   37.60
  -9   5   2  842.82   36.60
  -9   5   2  890.71   38.90
   9   5  -2  853.61   37.00
  -7  -5   2    1.90    1.10
   7  -5  -2   -0.30    0.80
  -7  -5   2    0.40    1.10
  -7  -5   2    0.50    0.80
  -7  -5   2   -0.20    0.80
   7  -5  -2    0.70    1.00
  -7   5   2    1.80    1.50
   7   5  -2    2.00    0.80
  -7   5   2    1.90    0.60
  -7   5   2    0.10    0.30
  -5  -5   2  682.93   29.60
  -5  -5   2  677.23   28.80
   5  -5  -2  759.82   29.90
   5  -5  -2  688.23   29.90
  -5  -5   2  689.93   30.10
  -5  -5   2  669.83   29.60
  -5  -5   2  691.63   28.80
   5  -5  -2  664.23   29.80
  -5   5   2  704.23   29.10
  -5   5   2  705.43   30.70
  -5   5   2  667.53   29.70
  -5   5   2  665.53   29.40
  -3  -5   2   33.20    2.50
   3  -5  -2   31.30    2.20
  -3  -5   2   32.30    1.70
   3  -5  -2   32.70    2.40
   3  -5  -2   31.00    2.20
  -3  -5   2   32.90    1.90
  -3  -5   2   31.50    1.90
   3  -5  -2   32.00    1.40
  -3  -5   2   26.20    2.20
  -3   5   2   28.50    2.00
   3   5  -2   33.50    2.40
  -3   5   2   30.90    1.90
  -3   5   2   28.80    2.20
  -3   5   2   30.30    2.50
  -3   5   2   32.80    2.70
  -1  -5   2 1629.44   69.59
  -1  -5   2 1761.32   69.79
   1  -5  -2 1720.73   69.29
   1  -5  -2 1577.04   69.69
   1  -5  -2 1653.03   69.79
  -1  -5   2 1561.44   69.49
  -1  -5   2 1569.84   69.59
  -1   5   2 1645.44   69.89
  -1   5   2 1676.33   70.29
  -1   5   2 1809.42   69.99
   1   5  -2 1635.34   70.19
   1   5  -2 1680.13   69.59
  -1   5   2 1651.63   69.69
   1  -5   2   43.60    2.60
  -1  -5  -2   42.50    2.60
   1  -5   2   42.70    2.50
   1  -5   2   41.30    2.40
  -1  -5  -2   40.10    2.30
  -1  -5  -2   43.70    2.50
   1  -5   2   45.00    2.60
   1  -5   2   41.80    2.20
   1   5   2   42.40    2.60
   1   5   2   36.50    2.90
   1   5   2   41.40    2.80
  -1   5  -2   39.40    2.30
  -1   5  -2   43.70    2.80
  -3  -5  -2  380.86   17.30
   3  -5   2  386.16   17.20
   3  -5   2  421.16   17.60
  -3  -5  -2  433.06   17.60
   3  -5   2  382.36   17.50
  -3  -5  -2  378.66   17.60
   3  -5   2  405.26   17.70
   3   5   2  398.46   17.70
   3   5   2  399.96   18.10
   3   5   2  389.86   17.50
  -3   5  -2  404.96   17.10
  -3   5  -2  386.16   17.60
  -5  -5  -2   10.80    1.80
   5  -5   2    6.90    1.40
   5  -5   2    7.00    1.40
   5  -5   2    8.00    1.30
  -5  -5  -2   10.20    1.60
  -5   5  -2    8.70    1.50
  -5   5  -2    7.00    1.00
   5   5   2    9.40    1.40
   5   5   2    9.00    1.90
   7  -5   2  488.45   22.10
  -7  -5  -2  481.35   22.40
   7  -5   2  483.15   21.60
  -7  -5  -2  493.25   21.80
   7  -5   2  447.26   21.70
   7   5   2  533.55   22.60
   7   5   2  502.95   21.50
  -7   5  -2  478.95   21.80
   9  -5   2   49.70    3.80
   9  -5   2   37.10    3.20
  -9  -5  -2   37.80    3.40
   9  -5   2   40.60    3.30
  -9  -5  -2   42.00    4.40
  -9   5  -2   41.40    3.30
   9   5   2   40.40    3.60
   9   5   2   35.80    2.90
 -11  -5  -2   53.39    4.70
  11  -5   2   47.70    4.00
 -11  -5  -2   55.69    4.40
  11  -5   2   44.30    4.00
  11  -5   2   52.79    4.60
  11   5   2   56.59    4.20
  11   5   2   42.80    3.40
 -11   5  -2   51.39    4.10
  13  -5   2   20.30    3.10
 -13  -5  -2   15.00    3.30
 -13  -5  -2   16.90    3.20
  13  -5   2   20.30    3.20
  13   5   2   17.20    2.50
 -13   5  -2   21.30    3.30
  15  -5   2   13.30    2.80
  15  -5   2    9.10    2.60
 -15  -5  -2    7.60    2.50
 -15   5  -2   11.20    2.70
 -18  -6   2   56.59    6.10
  18  -6  -2   73.29    6.00
 -18   6   2   64.99    5.70
 -16  -6   2  122.49    8.20
  16  -6  -2  128.19    7.60
 -16  -6   2  119.89    9.20
  16  -6  -2  138.69    8.40
 -16   6   2  129.39    7.50
  14  -6  -2   75.89    5.10
  14  -6  -2   77.59    6.00
  14  -6  -2   79.39    5.60
 -14  -6   2   71.69    6.30
 -14  -6   2   90.09    6.10
  14   6  -2   73.99    5.20
 -14   6   2   70.99    4.80
  12  -6  -2   98.89    6.70
 -12  -6   2   91.99    6.80
  12  -6  -2  108.89    6.40
  12  -6  -2  101.49    6.00
 -12  -6   2   94.29    6.30
  12   6  -2   96.89    5.90
 -12   6   2  102.79    5.50
 -12   6   2  102.79    7.80
  10  -6  -2   62.19    4.40
 -10  -6   2   52.79    4.40
 -10  -6   2   58.89    4.20
 -10  -6   2   49.40    4.20
  10  -6  -2   52.89    3.80
  10  -6  -2   52.29    4.00
 -10   6   2   63.79    3.80
 -10   6   2   55.79    5.10
 -10   6   2   54.39    3.30
  10   6  -2   51.19    3.60
   8  -6  -2   -0.90    1.00
   8  -6  -2   -0.90    1.00
   8  -6  -2    1.10    1.20
  -8  -6   2    0.10    1.00
  -8  -6   2    1.10    1.20
  -8  -6   2    0.10    1.20
  -8   6   2    0.40    1.60
  -8   6   2    1.50    1.10
  -8   6   2    1.10    0.60
  -8   6   2    2.60    0.70
   6  -6  -2  453.85   20.70
  -6  -6   2  445.26   20.90
  -6  -6   2  479.15   20.40
  -6  -6   2  469.35   20.80
  -6  -6   2  431.26   20.50
   6  -6  -2  448.46   20.60
  -6   6   2  451.75   20.50
  -6   6   2  491.15   21.50
  -6   6   2  476.25   19.80
  -6   6   2  476.85   20.10
   4  -6  -2   43.10    3.10
  -4  -6   2   45.80    3.00
   4  -6  -2   46.50    3.00
  -4  -6   2   45.30    2.60
   4  -6  -2   46.80    3.00
  -4  -6   2   47.60    2.30
  -4  -6   2   41.90    2.60
  -4   6   2   49.90    3.50
  -4   6   2   46.10    2.70
   4   6  -2   45.30    3.10
  -4   6   2   42.20    2.90
  -4   6   2   43.60    2.70
  -2  -6   2  512.65   21.50
   2  -6  -2  523.35   21.10
   2  -6  -2  518.05   21.80
  -2  -6   2  526.25   21.70
   2  -6  -2  465.85   21.60
  -2  -6   2  523.45   21.90
  -2  -6   2  483.55   21.40
  -2  -6   2  489.45   21.30
  -2   6   2  509.85   22.20
  -2   6   2  502.05   21.90
  -2   6   2  474.25   22.00
  -2   6   2  530.05   21.80
  -2   6   2  481.65   21.80
   2   6  -2  474.55   22.10
   0  -6  -2  129.99    5.90
   0  -6   2  130.69    6.00
   0  -6   2  138.89    6.20
   0  -6  -2  141.49    6.30
   0  -6  -2  119.29    6.20
   0  -6   2  139.79    6.00
   0  -6   2  122.89    6.10
   0  -6   2  130.49    6.20
   0   6   2  136.89    6.90
   0   6  -2  126.69    6.10
   0   6   2  129.29    6.60
   0   6  -2  122.49    6.70
   0   6   2  126.89    6.20
   0   6   2  140.79    6.20
  -2  -6  -2   -0.10    0.60
   2  -6   2    0.80    0.50
   2  -6   2    0.50    0.70
  -2  -6  -2    3.60    0.90
   2  -6   2    0.20    0.60
   2  -6   2    1.50    0.70
  -2   6  -2    0.00    0.90
   2   6   2    0.80    1.00
   2   6   2   11.40    1.80
  -2   6  -2    0.80    0.60
   2   6   2    1.10    0.70
   4  -6   2  245.18   11.30
   4  -6   2  235.78   11.10
  -4  -6  -2  217.48   11.10
   4  -6   2  238.18   11.10
  -4  -6  -2  231.18   10.90
   4  -6   2  240.48   10.70
  -4  -6  -2  238.18   11.00
   4   6   2  222.48   11.70
   4   6   2  252.57   11.30
  -4   6  -2  234.18   10.50
  -4   6  -2  232.48   11.10
   4   6   2  251.37   11.00
  -6  -6  -2    1.90    1.30
  -6  -6  -2    2.10    1.10
   6  -6   2    3.50    1.30
   6  -6   2    3.10    1.30
  -6   6  -2    1.90    0.80
  -6   6  -2    1.50    1.10
   6   6   2    2.40    1.00
   6   6   2    3.90    1.60
   8  -6   2  131.69    6.90
   8  -6   2  130.29    7.10
  -8  -6  -2  134.39    7.30
  -8  -6  -2  118.79    7.50
   8  -6   2  136.09    7.60
   8   6   2  127.99    6.70
  -8   6  -2  132.89    6.50
  -8   6  -2  132.49    7.10
   8   6   2  130.29    7.60
  10  -6   2    3.80    1.60
 -10  -6  -2    4.20    1.70
  10  -6   2    5.20    1.90
 -10  -6  -2    4.70    1.80
  10  -6   2    5.50    1.70
  10   6   2    5.90    1.40
  10   6   2    3.90    1.70
 -10   6  -2    5.40    1.70
  12  -6   2   14.10    3.10
 -12  -6  -2   11.40    2.80
  12  -6   2   11.00    2.30
 -12  -6  -2    9.40    2.40
  12  -6   2   11.80    2.50
 -12   6  -2   13.50    2.60
  12   6   2   15.70    2.20
  14  -6   2   87.79    6.60
  14  -6   2   90.19    6.50
 -14  -6  -2  100.99    7.00
 -14   6  -2   87.79    6.40
 -17  -7   2  225.38   14.40
  17  -7  -2  238.28   13.30
 -17  -7   2  242.38   13.60
 -17   7   2  233.78   12.80
  15  -7  -2   85.19    6.50
  15  -7  -2   93.89    6.20
 -15  -7   2  102.29    7.10
 -15  -7   2   97.79    7.80
 -15   7   2   98.59    5.80
 -15   7   2   95.59    6.40
 -13  -7   2  659.23   29.00
  13  -7  -2  615.84   28.10
 -13  -7   2  573.74   29.10
  13  -7  -2  650.63   29.40
  13  -7  -2  624.14   28.50
 -13   7   2  628.94   28.20
 -13   7   2  616.74   27.50
  11  -7  -2  262.07   12.40
  11  -7  -2  247.68   12.80
 -11  -7   2  249.38   12.70
 -11  -7   2  221.18   12.70
  11  -7  -2  245.58   12.40
 -11   7   2  242.78   11.40
 -11   7   2  241.58   12.10
 -11   7   2  267.77   13.90
  -9  -7   2 1058.79   45.20
   9  -7  -2  998.70   44.80
  -9  -7   2 1046.20   45.30
  -9  -7   2  896.21   44.90
   9  -7  -2 1014.60   45.00
   9  -7  -2  980.50   45.10
  -9   7   2 1090.49   46.00
  -9   7   2 1093.39   43.80
  -9   7   2 1054.79   44.70
  -9   7   2 1090.99   43.90
   7  -7  -2  958.10   45.20
  -7  -7   2 1062.39   44.90
   7  -7  -2 1047.90   45.30
  -7  -7   2 1036.00   45.60
  -7  -7   2 1062.29   45.20
  -7  -7   2  914.71   45.00
  -7   7   2 1088.99   44.50
  -7   7   2 1077.89   45.10
  -7   7   2 1118.69   46.10
  -7   7   2 1105.19   44.30
  -5  -7   2 1344.57   60.79
  -5  -7   2 1444.16   60.69
   5  -7  -2 1356.26   61.09
   5  -7  -2 1281.77   60.99
   5  -7  -2 1467.65   61.39
  -5  -7   2 1505.15   60.99
  -5   7   2 1499.45   60.79
  -5   7   2 1424.06   61.09
  -5   7   2 1562.14   61.69
  -5   7   2 1486.85   60.69
   3  -7  -2 3864.41  173.48
  -3  -7   2 4213.08  174.48
   3  -7  -2 4098.39  173.58
  -3  -7   2 4032.60  174.08
   3  -7  -2 3638.64  173.98
  -3  -7   2 4469.15  174.48
  -3  -7   2 4431.66  173.48
  -3   7   2 4187.88  173.58
  -3   7   2 4209.78  173.88
  -3   7   2 4474.15  174.08
  -3   7   2 4112.19  173.58
   3   7  -2 4055.49  173.98
   1  -7  -2  611.74   27.00
  -1  -7   2  658.93   27.20
   1  -7  -2  617.74   27.10
   1  -7  -2  664.23   26.70
  -1  -7   2  653.13   26.90
  -1  -7   2  622.34   26.70
  -1  -7   2  556.14   26.70
  -1   7   2  596.84   27.20
  -1   7   2  650.83   27.20
   1   7  -2  635.84   27.70
  -1   7   2  615.94   27.40
  -1   7   2  678.73   27.50
  -1   7   2  637.34   27.90
   1   7  -2  636.24   27.10
  -1  -7  -2 4284.67  176.78
   1  -7   2 4152.08  176.08
  -1  -7  -2 3715.73  176.08
  -1  -7  -2 4350.26  176.28
   1  -7   2 4258.07  175.98
   1  -7   2 4289.07  176.08
   1  -7   2 4607.54  176.48
   1  -7   2 3981.80  175.98
   1   7   2 4320.17  176.88
   1   7   2 4046.90  176.78
  -1   7  -2 4223.28  176.78
   1   7   2 4258.77  176.98
  -1   7  -2 4317.97  176.18
  -3  -7  -2 1112.99   50.19
  -3  -7  -2 1214.08   50.19
  -3  -7  -2 1201.18   50.09
   3  -7   2 1211.28   50.29
   3  -7   2 1194.48   50.39
   3  -7   2 1177.88   50.29
   3  -7   2 1166.98   49.90
   3   7   2 1107.79   50.89
  -3   7  -2 1173.98   50.49
  -3   7  -2 1223.48   49.99
   3   7   2 1201.58   50.09
   3   7   2 1164.08   50.69
   5  -7   2 1633.04   69.09
  -5  -7  -2 1587.74   69.09
  -5  -7  -2 1646.44   68.79
   5  -7   2 1613.74   68.99
   5  -7   2 1623.64   68.49
  -5   7  -2 1678.73   68.39
   5   7   2 1584.04   69.59
  -5   7  -2 1600.44   68.89
   7  -7   2 1006.70   43.90
  -7  -7  -2  938.91   44.20
   7  -7   2 1012.10   44.20
  -7  -7  -2 1012.50   43.90
   7  -7   2  979.30   43.50
   7   7   2  997.60   44.50
  -7   7  -2 1015.70   43.80
  -7   7  -2 1025.00   43.90
  -7   7  -2 1078.59   43.30
   7   7   2 1050.59   43.50
   9  -7   2  304.67   13.70
   9  -7   2  256.57   13.90
  -9  -7  -2  283.37   13.70
   9  -7   2  273.57   13.30
  -9  -7  -2  283.67   14.30
   9   7   2  261.47   13.90
  -9   7  -2  276.97   13.40
   9   7   2  264.27   12.90
  -9   7  -2  280.27   12.80
  11  -7   2  616.44   28.00
  11  -7   2  604.34   27.00
 -11  -7  -2  579.54   28.00
 -11  -7  -2  603.14   27.40
  11  -7   2  579.84   27.00
  11   7   2  595.14   27.40
 -11   7  -2  608.74   27.10
  11   7   2  553.14   26.20
 -13  -7  -2  108.89    7.40
  13  -7   2   85.49    6.70
  13  -7   2  105.59    7.00
 -13  -7  -2  114.09    8.10
 -13   7  -2   96.29    6.70
 -15  -7  -2  279.67   15.20
  15  -7   2  255.67   14.50
 -15   7  -2  274.57   14.40
  16  -8  -2  164.38    9.30
  16  -8  -2  149.79    9.90
 -16  -8   2  167.68   10.30
 -16  -8   2  147.89   10.50
 -16   8   2  159.78    9.40
  14  -8  -2  124.59    8.70
  14  -8  -2  123.79    7.80
 -14  -8   2  128.49    8.70
  14  -8  -2  128.19    8.20
 -14  -8   2  135.29    8.60
 -14   8   2  123.09    7.60
 -14   8   2  130.59    7.70
  12  -8  -2  136.19    7.50
  12  -8  -2  126.19    7.50
 -12  -8   2  126.79    8.00
 -12  -8   2  126.29    7.80
  12  -8  -2  114.49    7.90
 -12   8   2  120.49    7.10
 -12   8   2  105.99    6.20
  10  -8  -2    2.50    1.60
 -10  -8   2    4.20    1.60
  10  -8  -2    4.80    1.90
 -10  -8   2    4.00    1.70
 -10   8   2    2.90    1.80
 -10   8   2    3.30    1.40
 -10   8   2    3.20    0.90
  -8  -8   2   35.50    3.80
  -8  -8   2   28.60    3.10
   8  -8  -2   40.80    3.40
   8  -8  -2   33.20    3.70
   8  -8  -2   32.40    3.40
  -8  -8   2   36.50    3.00
  -8   8   2   37.00    3.40
  -8   8   2   36.80    3.00
  -8   8   2   33.30    2.80
  -8   8   2   35.40    2.30
  -8   8   2   40.00    2.50
  -6  -8   2   77.89    4.80
  -6  -8   2   89.19    5.60
  -6  -8   2   85.09    4.80
   6  -8  -2   75.09    5.00
   6  -8  -2   89.09    5.40
  -6  -8   2   85.19    4.60
  -6   8   2   89.59    4.80
  -6   8   2   82.39    5.00
  -6   8   2   95.99    5.50
  -6   8   2   86.19    4.60
   4  -8  -2    0.70    1.10
  -4  -8   2    1.40    0.70
   4  -8  -2    1.00    0.80
  -4  -8   2    1.30    0.70
  -4  -8   2    0.00    0.50
  -4  -8   2    3.00    0.80
   4  -8  -2    1.10    0.80
   4   8  -2    0.60    1.20
  -4   8   2    3.10    1.00
  -4   8   2    1.00    1.00
  -4   8   2    1.00    1.00
   4   8  -2    1.30    1.20
  -4   8   2    3.10    1.10
   2  -8  -2   29.40    2.20
  -2  -8   2   24.80    1.70
  -2  -8   2   30.50    1.90
  -2  -8   2   28.20    2.20
  -2  -8   2   27.30    1.70
   2  -8  -2   28.80    1.80
   2  -8  -2   27.90    2.10
   2   8  -2   31.80    3.10
  -2   8   2   29.90    2.40
  -2   8   2   32.00    2.40
  -2   8   2   30.20    2.40
   2   8  -2   30.30    2.40
  -2   8   2   32.50    2.80
   0  -8   2   11.80    1.20
   0  -8  -2   18.00    1.40
   0  -8  -2   14.60    1.50
   0  -8   2   12.50    1.70
   0  -8   2   11.00    1.10
   0  -8  -2   10.50    1.40
   0  -8   2   12.20    1.30
   0  -8   2   11.80    1.50
   0   8   2   13.80    2.10
   0   8   2   13.90    1.50
   0   8   2   10.60    1.60
   0   8   2   10.90    1.80
   0   8  -2   11.10    1.90
   0   8  -2   11.20    1.50
   2  -8   2   32.40    2.70
  -2  -8  -2   29.00    2.20
   2  -8   2   27.40    2.10
   2  -8   2   24.90    2.20
   2  -8   2   31.30    2.20
  -2  -8  -2   29.20    2.20
  -2  -8  -2   29.80    2.30
   2   8   2   30.50    3.20
  -2   8  -2   25.50    2.70
   2   8   2   29.00    2.10
   2   8   2   31.70    3.20
  -2   8  -2   31.30    2.30
   4  -8   2  242.08   12.20
  -4  -8  -2  271.07   12.00
   4  -8   2  263.77   11.70
  -4  -8  -2  243.68   12.00
   4  -8   2  243.58   12.10
   4   8   2  259.97   11.70
   4   8   2  261.17   12.80
  -4   8  -2  244.58   12.20
   4   8   2  251.27   12.50
  -4   8  -2  269.77   11.70
  -6  -8  -2   22.40    2.70
  -6  -8  -2   21.60    2.50
   6  -8   2   21.70    2.30
   6  -8   2   21.00    2.70
   6  -8   2   21.60    2.70
  -6   8  -2   19.20    2.50
  -6   8  -2   24.10    2.00
   6   8   2   19.60    2.90
   8  -8   2    0.60    1.30
   8  -8   2    1.50    1.10
  -8  -8  -2   -0.90    1.20
   8  -8   2    0.00    1.20
   8   8   2   -0.10    1.40
  -8   8  -2    0.40    0.80
  -8   8  -2   -0.40    1.10
  -8   8  -2    1.20    1.10
  10  -8   2   48.00    4.20
  10  -8   2   39.80    4.70
  10  -8   2   48.40    4.00
 -10  -8  -2   47.90    5.00
 -10  -8  -2   48.30    4.70
  10   8   2   47.50    4.90
 -10   8  -2   42.40    4.30
 -10   8  -2   47.40    3.90
 -12  -8  -2   72.59    6.00
  12  -8   2   66.09    5.40
 -12  -8  -2   74.29    6.20
  12  -8   2   70.39    5.40
  12  -8   2   68.59    6.10
  12   8   2   65.99    5.50
 -12   8  -2   61.89    5.10
  14  -8   2   95.99    7.30
 -14  -8  -2  104.89    7.90
 -14  -8  -2  113.59    8.40
  14  -8   2   97.69    7.40
 -14   8  -2  110.79    7.30
 -14   8  -2  116.69    7.70
  17  -9  -2   14.80    3.50
  17  -9  -2   18.90    3.50
 -17  -9   2   16.10    4.00
 -17  -9   2   22.40    4.40
 -17   9   2   18.00    3.20
 -15  -9   2   46.80    5.70
  15  -9  -2   52.39    6.30
 -15  -9   2   52.19    6.00
  15  -9  -2   45.60    5.30
  15  -9  -2   47.60    5.10
 -15   9   2   37.00    4.30
  13  -9  -2   10.80    2.70
 -13  -9   2    4.20    2.10
  13  -9  -2    3.00    2.00
 -13  -9   2    8.50    2.50
  13  -9  -2    1.40    1.90
 -13   9   2    5.00    1.90
  11  -9  -2  458.35   22.10
  11  -9  -2  474.15   22.10
 -11  -9   2  509.65   22.40
  11  -9  -2  406.86   22.10
 -11  -9   2  475.55   22.60
 -11   9   2  474.75   21.60
 -11   9   2  467.85   20.60
   9  -9  -2   98.59    6.80
  -9  -9   2  108.69    7.10
   9  -9  -2  116.79    6.80
   9  -9  -2   95.09    6.60
  -9  -9   2  111.09    6.60
  -9   9   2  112.79    6.40
  -9   9   2  116.09    7.00
  -9   9   2  107.59    6.10
  -7  -9   2  367.26   16.70
   7  -9  -2  340.97   17.10
  -7  -9   2  327.87   17.30
   7  -9  -2  334.27   16.90
  -7   9   2  382.56   16.60
  -7   9   2  381.76   16.30
  -7   9   2  378.36   17.20
  -7   9   2  376.66   16.90
  -5  -9   2  155.28    7.10
  -5  -9   2  140.59    7.20
   5  -9  -2  142.79    8.10
  -5  -9   2  144.29    7.10
   5  -9  -2  152.58    8.30
   5  -9  -2  135.09    7.50
   5   9  -2  146.29    8.00
   5   9  -2  155.08    8.20
  -5   9   2  160.38    7.60
  -5   9   2  143.29    7.80
  -5   9   2  152.98    7.50
  -5   9   2  153.28    7.80
   3  -9  -2  167.58    8.20
  -3  -9   2  180.98    7.60
   3  -9  -2  171.88    8.20
   3  -9  -2  176.08    9.10
  -3  -9   2  163.68    7.60
  -3  -9   2  159.58    7.60
  -3  -9   2  161.28    8.10
  -3   9   2  176.48    8.40
  -3   9   2  176.18    8.60
   3   9  -2  152.28    8.70
   3   9  -2  178.58    8.90
  -3   9   2  167.28    8.80
  -3   9   2  178.18    8.40
   1  -9  -2    3.90    0.90
  -1  -9   2    5.60    0.90
   1  -9  -2    3.60    0.90
  -1  -9   2    4.80    0.70
  -1  -9   2    3.40    0.70
   1  -9  -2    2.60    0.90
  -1  -9   2    4.50    1.20
  -1   9   2    4.80    1.10
  -1   9   2    4.80    1.00
   1   9  -2    3.40    1.20
  -1   9   2    3.10    1.20
  -1   9   2    1.00    1.30
   1   9  -2    1.40    1.40
  -1   9   2    4.60    1.40
   1  -9   2  136.09    7.00
   1  -9   2  156.78    7.10
   1  -9   2  151.18    7.80
  -1  -9  -2  144.69    7.10
  -1  -9  -2  156.88    7.30
   1  -9   2  153.18    7.40
   1  -9   2  146.19    6.90
  -1  -9  -2  148.49    7.30
   1   9   2  152.08    8.20
   1   9   2  140.99    8.10
   1   9   2  152.08    7.00
  -1   9  -2  160.18    7.50
   1   9   2  156.08    7.70
  -1   9  -2  141.19    8.00
  -3  -9  -2  149.19    7.70
  -3  -9  -2  158.18    7.80
   3  -9   2  160.88    8.40
   3  -9   2  158.58    7.70
  -3  -9  -2  166.38    8.00
   3  -9   2  165.18    7.80
   3  -9   2  152.08    7.80
  -3   9  -2  163.48    7.80
   3   9   2  155.68    8.60
   3   9   2  158.98    7.50
  -3   9  -2  156.18    8.30
   3   9   2  156.38    8.70
   5  -9   2  104.19    6.30
   5  -9   2  113.79    5.90
  -5  -9  -2  113.39    6.20
  -5  -9  -2  108.29    6.10
   5  -9   2   95.09    6.10
  -5   9  -2  104.99    5.60
   5   9   2  109.69    5.70
   5   9   2  107.19    6.70
   5   9   2  113.39    6.70
  -5   9  -2  103.09    6.20
   7  -9   2   14.40    2.10
  -7  -9  -2    8.80    2.00
  -7  -9  -2    7.10    1.80
   7  -9   2    8.90    2.10
   7  -9   2   10.10    2.10
   7   9   2   11.80    2.40
  -7   9  -2   13.10    1.80
  -7   9  -2   11.70    2.10
   9  -9   2  279.07   13.90
   9  -9   2  253.17   14.00
  -9  -9  -2  272.97   14.00
   9  -9   2  280.07   13.50
  -9  -9  -2  276.37   14.10
  -9   9  -2  263.97   13.60
   9   9   2  288.07   14.30
 -11  -9  -2   19.90    3.50
 -11  -9  -2   15.30    3.20
  11  -9   2   19.00    3.50
  11  -9   2   20.60    3.30
  11  -9   2   19.20    3.30
  11   9   2   16.30    3.20
 -11   9  -2   22.00    3.20
  13  -9   2  109.09    8.50
 -13  -9  -2  119.79    8.30
  13  -9   2  116.69    7.90
 -13  -9  -2  124.79    8.50
  13   9   2  107.39    8.50
 -13   9  -2  104.69    7.50
  16 -10  -2  169.28   10.10
 -16 -10   2  166.48   10.90
 -16 -10   2  170.88   10.70
  16 -10  -2  156.18   10.30
 -16  10   2  136.59    9.00
 -16  10   2  150.18    9.30
  14 -10  -2   76.89    6.80
  14 -10  -2   78.39    6.20
  14 -10  -2   74.99    6.30
 -14 -10   2   85.49    6.60
 -14 -10   2   71.29    7.20
 -14  10   2   78.89    5.50
 -14  10   2   73.79    5.50
  12 -10  -2   39.00    4.50
  12 -10  -2   29.20    4.20
  12 -10  -2   38.10    4.60
 -12 -10   2   33.20    4.10
 -12 -10   2   53.39    5.70
 -12  10   2   32.20    3.60
 -12  10   2   37.40    3.90
 -10 -10   2    9.40    2.00
  10 -10  -2   10.30    2.50
  10 -10  -2   10.90    2.60
  10 -10  -2   13.50    2.60
 -10 -10   2    7.30    2.40
 -10  10   2    6.10    1.70
 -10  10   2   10.40    1.90
   8 -10  -2   37.00    4.10
  -8 -10   2   22.70    3.50
   8 -10  -2   27.20    3.40
  -8 -10   2   27.00    3.00
   8 -10  -2   33.50    4.00
  -8  10   2   37.60    3.20
  -8  10   2   37.90    3.40
  -8  10   2   34.70    3.00
  -8  10   2   35.40    2.60
   6 -10  -2   14.40    2.10
   6 -10  -2    3.10    1.60
  -6 -10   2    4.30    1.70
  -6 -10   2    3.50    0.90
  -6 -10   2    5.30    1.20
  -6  10   2    3.90    1.30
  -6  10   2    5.00    1.50
   6  10  -2    2.70    1.60
  -6  10   2   14.30    1.80
  -6  10   2    3.20    1.30
  -4 -10   2   83.49    4.20
  -4 -10   2   82.09    4.60
   4 -10  -2   89.79    4.80
   4 -10  -2   83.59    4.70
   4 -10  -2   83.19    5.50
  -4 -10   2   80.29    4.10
  -4  10   2   80.29    5.20
   4  10  -2   75.69    5.30
  -4  10   2   90.99    4.80
  -4  10   2   82.89    4.90
   4  10  -2   72.09    5.30
  -4  10   2   77.19    4.90
   2 -10  -2    0.60    0.70
   2 -10  -2    0.40    0.70
  -2 -10   2    1.10    1.10
  -2 -10   2    0.00    0.40
   2 -10  -2    2.40    0.80
  -2 -10   2    1.30    0.50
  -2  10   2    1.20    1.00
  -2  10   2   -0.80    1.10
   2  10  -2    0.90    1.30
  -2  10   2    1.10    0.80
   2  10  -2    7.40    1.90
   2  10  -2    0.10    1.10
  -2  10   2    0.90    1.20
   0 -10  -2    5.10    1.00
   0 -10   2    5.30    0.90
   0 -10   2    6.10    0.90
   0 -10   2    6.00    1.40
   0 -10   2    5.10    1.50
   0 -10  -2    8.40    1.30
   0 -10  -2    5.10    1.20
   0  10   2    7.30    1.70
   0  10   2    7.50    1.20
   0  10   2    8.20    1.90
   0  10   2    7.90    1.80
   0  10  -2    7.70    1.90
   0  10   2   10.70    1.20
   0  10  -2    6.70    1.50
   2 -10   2   71.49    4.70
  -2 -10  -2   74.99    4.30
   2 -10   2   77.89    4.00
   2 -10   2   73.19    3.80
  -2 -10  -2   72.89    4.00
   2 -10   2   72.89    4.30
   2 -10   2   62.89    4.00
  -2 -10  -2   72.09    4.10
   2  10   2   76.99    5.10
  -2  10  -2   76.39    4.40
   2  10   2   71.69    5.10
   2  10   2   73.99    3.80
  -2  10  -2   66.49    4.80
  -4 -10  -2    0.90    0.80
   4 -10   2    1.30    1.00
  -4 -10  -2    0.80    1.00
   4 -10   2    0.80    1.00
   4 -10   2    1.00    1.30
   4  10   2    1.00    1.50
   4  10   2    2.90    1.50
  -4  10  -2   -0.40    0.80
   4  10   2    0.70    0.70
  -4  10  -2    0.80    1.20
  -6 -10  -2   28.90    3.30
   6 -10   2   30.70    3.10
   6 -10   2   28.20    3.30
  -6 -10  -2   36.30    3.10
   6 -10   2   32.30    3.70
   6  10   2   40.80    4.20
  -6  10  -2   36.80    2.80
  -6  10  -2   26.50    3.20
   6  10   2   32.50    2.60
   8 -10   2   15.20    2.80
  -8 -10  -2   17.40    2.90
  -8 -10  -2   18.30    2.70
   8 -10   2   17.60    2.90
   8 -10   2   23.80    2.90
  -8  10  -2   18.80    2.80
   8  10   2   19.70    3.20
  10 -10   2    5.10    2.20
  10 -10   2    3.40    1.90
 -10 -10  -2    0.60    1.60
  10 -10   2    1.60    1.80
 -10 -10  -2    2.00    1.90
  10  10   2    2.70    1.90
 -10  10  -2    4.00    1.90
 -12 -10  -2   36.30    4.70
  12 -10   2   39.90    5.10
 -12 -10  -2   49.00    5.60
  12 -10   2   39.50    5.40
  12 -10   2   51.59    5.30
  12  10   2   35.10    4.70
 -12  10  -2   44.30    4.90
  14 -10   2  148.79    9.40
  14 -10   2  136.59    9.30
 -14 -10  -2  141.59    9.80
 -14 -10  -2  134.79    9.50
 -14  10  -2  135.09    9.00
 -15 -11   2  106.59    8.30
  15 -11  -2  103.49    8.20
 -15 -11   2  107.29    7.70
  15 -11  -2   85.59    7.70
 -15  11   2   89.99    6.60
 -15  11   2   97.49    6.70
  13 -11  -2  143.59    9.20
 -13 -11   2  121.19    9.00
  13 -11  -2  131.19    8.70
  13 -11  -2  128.29    8.70
 -13 -11   2  133.59    8.30
 -13  11   2  116.69    7.50
 -13  11   2  124.59    7.70
  11 -11  -2  131.09    8.50
 -11 -11   2  145.89    8.20
 -11 -11   2  131.49    9.00
  11 -11  -2  124.99    8.60
  11 -11  -2  142.19    8.70
 -11  11   2  136.09    7.70
 -11  11   2  131.19    7.90
  -9 -11   2  425.36   18.20
   9 -11  -2  369.06   19.00
   9 -11  -2  379.76   18.90
   9 -11  -2  399.26   18.70
  -9 -11   2  331.67   18.90
  -9  11   2  402.56   18.10
  -9  11   2  382.16   18.30
  -7 -11   2  389.66   17.80
   7 -11  -2  393.56   18.40
  -7 -11   2  383.76   19.10
   7 -11  -2  386.16   18.90
  -7  11   2  405.96   17.90
  -7  11   2  389.96   18.10
  -7  11   2  404.46   18.30
  -7  11   2  374.36   18.40
  -5 -11   2  640.44   27.00
   5 -11  -2  612.14   28.40
   5 -11  -2  646.74   27.60
  -5 -11   2  631.84   26.90
  -5  11   2  662.93   27.50
  -5  11   2  601.94   27.70
  -5  11   2  644.34   28.20
  -5  11   2  616.34   27.70
   5  11  -2  583.94   28.20
   5  11  -2  591.14   28.30
   3 -11  -2  769.62   31.90
  -3 -11   2  777.02   31.20
  -3 -11   2  740.43   31.20
   3 -11  -2  760.22   32.90
  -3 -11   2  719.93   32.00
   3 -11  -2  731.53   31.70
  -3  11   2  752.62   31.70
   3  11  -2  737.13   32.80
  -3  11   2  705.93   32.50
  -3  11   2  749.53   32.20
  -3  11   2  724.03   32.90
   3  11  -2  669.13   32.60
   3  11  -2  722.83   32.40
   1 -11  -2  843.12   34.80
  -1 -11   2  852.71   34.50
  -1 -11   2  733.13   35.40
   1 -11  -2  778.12   34.90
  -1 -11   2  780.22   34.40
   1 -11  -2  857.91   35.00
  -1 -11   2  863.71   35.40
  -1  11   2  885.61   35.60
   1  11  -2  781.12   35.50
  -1  11   2  813.52   36.00
   1  11  -2  723.63   35.60
   1  11  -2  837.52   36.00
  -1  11   2  844.32   36.10
  -1 -11  -2  978.00   39.50
   1 -11   2  825.72   39.70
   1 -11   2  989.60   39.20
  -1 -11  -2  948.31   39.30
  -1 -11  -2  890.91   39.60
   1 -11   2  886.11   40.30
   1 -11   2  896.01   39.20
  -1  11  -2  899.01   40.40
   1  11   2  950.60   40.60
   1  11   2  959.30   40.80
  -1  11  -2  981.90   39.90
   1  11   2  854.21   40.00
   3 -11   2  613.84   27.90
  -3 -11  -2  633.94   27.70
   3 -11   2  643.34   28.20
   3 -11   2  622.74   28.70
  -3  11  -2  687.33   28.10
   3  11   2  639.24   29.00
   3  11   2  614.54   28.90
  -3  11  -2  648.34   28.90
  -5 -11  -2  486.05   21.80
  -5 -11  -2  470.55   22.20
   5 -11   2  517.85   22.10
   5 -11   2  488.05   22.80
   5 -11   2  458.75   22.10
   5  11   2  457.95   22.80
  -5  11  -2  499.25   22.70
   5  11   2  500.55   23.00
  -5  11  -2  501.15   21.90
   7 -11   2  290.67   15.10
  -7 -11  -2  310.17   14.90
   7 -11   2  294.97   14.80
   7 -11   2  300.37   14.40
  -7 -11  -2  311.27   14.50
   7  11   2  278.77   15.00
  -7  11  -2  284.57   14.70
  -9 -11  -2  257.37   13.10
   9 -11   2  242.38   13.50
  -9 -11  -2  255.87   13.50
   9 -11   2  233.28   13.30
   9 -11   2  249.78   12.90
  -9  11  -2  246.98   13.10
   9  11   2  273.37   13.90
  11 -11   2  150.38    9.10
 -11 -11  -2  151.28    9.60
  11 -11   2  132.49    9.30
  11 -11   2  139.19    9.40
 -11 -11  -2  163.88    9.40
  11  11   2  152.08    9.60
 -11  11  -2  140.09    8.90
 -13 -11  -2   55.89    6.60
 -13 -11  -2   67.29    5.90
  13 -11   2   62.19    6.70
  13 -11   2   60.89    6.90
  13  11   2   64.39    6.80
 -13  11  -2   59.79    6.20
  14 -12  -2   46.50    5.90
  14 -12  -2   43.70    5.70
  14 -12  -2   40.40    5.60
 -14 -12   2   45.60    5.00
 -14 -12   2   46.50    6.20
 -14  12   2   38.50    4.20
 -14  12   2   34.60    4.20
 -12 -12   2   98.09    6.40
 -12 -12   2   84.79    8.10
  12 -12  -2   97.59    7.10
  12 -12  -2   93.09    7.30
  12 -12  -2   66.89    7.20
 -12  12   2   89.89    6.00
 -12  12   2   91.29    6.30
  10 -12  -2   38.40    4.30
 -10 -12   2   24.20    4.20
  10 -12  -2   32.50    4.40
  10 -12  -2   32.60    4.60
 -10 -12   2   39.50    3.50
 -10  12   2   36.80    3.80
 -10  12   2   32.90    3.80
  -8 -12   2   14.40    2.10
   8 -12  -2   12.70    3.00
   8 -12  -2   18.90    2.70
  -8 -12   2   16.50    3.20
   8 -12  -2   20.20    3.20
  -8  12   2   20.00    2.70
  -8  12   2   14.50    2.60
  -6 -12   2  228.18   10.40
   6 -12  -2  208.48   11.80
  -6 -12   2  241.78   12.00
   6 -12  -2  233.28   11.00
  -6  12   2  214.68   10.90
   6  12  -2  218.28   11.90
  -6  12   2  220.18   11.60
  -6  12   2  202.78   11.00
   4 -12  -2    2.00    1.00
  -4 -12   2    2.90    0.70
   4 -12  -2    2.80    1.70
  -4 -12   2    2.60    1.10
  -4 -12   2    3.60    0.80
   4  12  -2    4.10    1.80
   4  12  -2    2.50    1.60
  -4  12   2    1.70    1.50
  -4  12   2    3.80    1.40
  -4  12   2    2.90    1.30
   2 -12  -2  223.88    9.90
  -2 -12   2  201.58    9.20
  -2 -12   2  198.68   10.30
  -2 -12   2  221.98    9.20
  -2  12   2  196.58   10.80
   2  12  -2  208.68   10.90
  -2  12   2  181.18   10.60
   2  12  -2  218.68   11.00
   2  12  -2  209.08   10.60
  -2  12   2  228.18   10.50
   0 -12   2  137.19    6.30
   0 -12  -2  126.99    6.90
   0 -12   2  130.69    6.40
   0 -12   2  143.19    7.40
   0 -12  -2  146.29    6.80
   0 -12   2  128.19    7.50
   0 -12  -2  136.49    6.60
   0  12   2  132.59    7.90
   0  12   2  145.99    7.60
   0  12  -2  135.19    7.80
   0  12   2  139.49    7.90
   0  12  -2  147.49    7.40
  -2 -12  -2   11.40    2.00
   2 -12   2   15.10    1.80
   2 -12   2   15.30    2.50
   2 -12   2   15.80    2.30
  -2 -12  -2   17.20    1.70
   2  12   2   17.20    2.80
  -2  12  -2   19.00    2.20
  -2  12  -2   15.80    2.60
   2  12   2   15.80    2.60
  -4 -12  -2  112.69    6.20
  -4 -12  -2  121.79    6.90
   4 -12   2  110.39    6.50
   4 -12   2  123.39    6.80
   4 -12   2  118.09    7.30
   4  12   2  122.29    7.50
   4  12   2  111.69    7.50
  -4  12  -2  125.89    6.50
  -4  12  -2  115.89    7.30
   6 -12   2    5.20    1.60
  -6 -12  -2    0.40    1.50
  -6 -12  -2    1.40    1.00
   6 -12   2   -0.30    1.60
   6 -12   2    1.60    1.40
   6  12   2    1.50    1.50
  -6  12  -2    0.20    1.50
  -8 -12  -2   90.09    5.90
   8 -12   2  100.59    6.40
  -8 -12  -2   92.19    6.60
   8 -12   2   87.59    7.00
   8 -12   2   94.99    6.40
  -8  12  -2   86.79    6.40
   8  12   2   88.99    6.60
  10 -12   2   49.90    5.70
 -10 -12  -2   38.30    4.90
 -10 -12  -2   47.90    4.40
  10 -12   2   42.90    4.90
  10 -12   2   45.50    5.10
 -10  12  -2   41.70    4.80
  10  12   2   43.90    5.10
 -12 -12  -2    8.00    2.40
 -12 -12  -2    7.50    3.10
  12 -12   2    7.40    2.90
  12 -12   2   10.60    3.50
  12  12   2    7.90    2.70
 -12  12  -2   11.50    3.00
  15 -13  -2   -2.50    2.30
  15 -13  -2    0.20    2.10
 -15 -13   2   -5.60    2.40
 -15 -13   2   -0.70    1.60
  15 -13  -2   -0.20    2.40
 -15  13   2    1.10    1.80
 -15  13   2   -0.80    1.60
 -13 -13   2   87.69    6.20
  13 -13  -2   92.19    7.00
  13 -13  -2   85.39    7.40
 -13 -13   2   75.89    8.10
  13 -13  -2   61.39    7.20
 -13  13   2   76.69    5.80
 -13  13   2   87.99    6.30
  11 -13  -2   -1.90    2.00
 -11 -13   2    1.40    2.30
  11 -13  -2   -3.50    1.80
  11 -13  -2    1.00    1.60
 -11 -13   2    2.20    1.40
 -11  13   2    1.20    1.60
 -11  13   2    0.40    1.40
  -9 -13   2  399.96   18.50
   9 -13  -2  397.26   20.10
  -9 -13   2  413.36   20.40
   9 -13  -2  379.96   20.00
   9 -13  -2  404.06   19.30
  -9  13   2  410.86   19.30
  -9  13   2  402.26   19.50
   7 -13  -2    3.00    2.00
  -7 -13   2    1.20    0.90
   7 -13  -2    1.80    1.30
  -7 -13   2    2.70    1.80
  -7  13   2    3.00    1.70
  -7  13   2    2.30    1.50
  -5 -13   2  167.68    8.80
  -5 -13   2  155.18    7.30
  -5 -13   2  146.29    7.10
   5 -13  -2  143.89    8.80
   5 -13  -2  158.78    7.80
  -5  13   2  135.99    8.00
   5  13  -2  163.68    9.00
   5  13  -2  152.58    8.90
  -5  13   2  136.89    8.60
  -5  13   2  136.99    8.00
   3 -13  -2   79.99    5.40
  -3 -13   2   75.09    4.80
  -3 -13   2   81.09    3.80
   3 -13  -2   72.39    4.20
  -3 -13   2   74.59    3.70
   3  13  -2   70.79    5.10
   3  13  -2   70.79    5.30
  -3  13   2   80.19    4.90
   3  13  -2   72.69    5.40
  -3  13   2   76.59    5.40
  -3  13   2   83.19    5.30
  -1 -13   2   98.19    5.50
   1 -13  -2   86.19    4.70
  -1 -13   2   92.49    4.40
  -1 -13   2   88.59    5.70
  -1 -13   2   94.59    4.40
  -1  13   2   86.39    5.90
  -1  13   2   96.29    5.70
   1  13  -2   96.59    5.70
  -1  13   2   94.09    6.00
   1  13  -2   95.09    6.00
   1 -13   2  120.59    7.30
   1 -13   2  125.99    7.00
  -1 -13  -2  119.99    6.70
   1 -13   2  127.69    6.10
  -1 -13  -2  117.69    6.00
   1 -13   2  120.79    6.10
   1  13   2  117.69    7.10
  -1  13  -2  132.99    6.90
   1  13   2  124.19    7.50
  -1  13  -2  122.89    7.30
   1  13   2  122.89    7.40
   3 -13   2   74.19    4.40
   3 -13   2   69.09    5.30
   3 -13   2   66.39    4.90
  -3 -13  -2   74.19    4.20
  -3 -13  -2   64.69    4.70
   3  13   2   76.99    5.60
   3  13   2   66.49    5.40
  -3  13  -2   65.49    5.20
  -3  13  -2   85.59    4.70
   5 -13   2    1.30    1.70
  -5 -13  -2    0.30    0.80
   5 -13   2   -1.60    1.30
  -5 -13  -2    1.00    1.50
   5 -13   2    0.10    1.00
   5  13   2   -0.10    1.60
   5  13   2    0.60    1.40
  -5  13  -2    2.60    1.30
  -5  13  -2   -0.20    1.40
   7 -13   2  303.87   16.80
   7 -13   2  327.77   16.00
  -7 -13  -2  321.97   15.50
  -7 -13  -2  295.27   16.10
   7 -13   2  358.96   16.30
   7  13   2  335.87   16.70
  -7  13  -2  321.27   16.50
   9 -13   2    3.50    2.60
  -9 -13  -2    0.70    1.30
   9 -13   2   -0.30    1.50
  -9 -13  -2    0.00    2.00
   9  13   2    4.30    2.10
  -9  13  -2    2.00    2.00
  11 -13   2  114.39    8.10
  11 -13   2  109.59    8.50
 -11 -13  -2  116.39    7.50
 -11 -13  -2  101.29    8.00
  11  13   2  108.99    8.00
 -11  13  -2  104.69    7.70
  14 -14  -2   25.10    5.00
 -14 -14   2   45.00    6.40
  14 -14  -2   40.80    5.20
 -14 -14   2   36.80    4.30
  14 -14  -2   35.10    5.40
 -14  14   2   31.30    4.20
  12 -14  -2   12.70    3.40
 -12 -14   2   13.20    2.50
  12 -14  -2   17.30    3.30
 -12 -14   2   14.90    3.80
  12 -14  -2   13.40    3.90
 -12  14   2   14.50    2.90
 -12  14   2   16.20    3.30
 -10 -14   2   38.90    3.50
  10 -14  -2   43.40    4.60
 -10 -14   2   31.70    4.80
  10 -14  -2   39.50    5.50
  10 -14  -2   40.60    5.20
 -10  14   2   42.10    4.60
 -10  14   2   43.00    4.80
   8 -14  -2  130.29    7.20
   8 -14  -2  114.19    7.80
  -8 -14   2  121.59    8.10
  -8 -14   2  109.29    6.30
   8 -14  -2  110.59    8.10
  -8  14   2  120.39    7.80
  -8  14   2  115.89    7.40
  -6 -14   2   27.30    2.20
   6 -14  -2   29.90    4.00
   6 -14  -2   28.70    3.00
  -6 -14   2   29.00    3.70
  -6  14   2   26.40    3.70
  -6  14   2   27.00    3.10
  -6  14   2   28.20    3.40
  -4 -14   2   15.00    1.40
   4 -14  -2   19.80    3.10
  -4 -14   2   19.20    1.40
   4 -14  -2   21.80    2.20
   4  14  -2   16.90    3.00
  -4  14   2   17.00    2.50
  -4  14   2   17.80    2.60
  -4  14   2   17.40    3.00
   4  14  -2   15.70    2.90
  -2 -14   2   46.50    3.80
  -2 -14   2   49.60    2.50
   2 -14  -2   47.60    3.00
   2 -14  -2   45.00    4.00
  -2  14   2   46.10    4.10
  -2  14   2   42.20    3.60
   2  14  -2   53.39    4.30
  -2  14   2   45.60    4.00
   2  14  -2   52.49    4.10
   0 -14   2   42.30    2.60
   0 -14   2   41.40    4.10
   0 -14   2   50.39    3.70
   0 -14   2   43.70    2.50
   0 -14  -2   42.50    2.70
   0  14   2   44.50    4.40
   0  14   2   45.10    4.60
   0  14  -2   39.40    3.50
   0  14  -2   42.20    4.30
   0  14   2   49.00    3.90
   2 -14   2    2.60    1.00
  -2 -14  -2    5.20    1.00
   2 -14   2    3.10    1.80
   2 -14   2    4.00    1.70
   2  14   2    4.60    1.80
  -2  14  -2    3.10    1.70
   2  14   2    3.10    1.70
  -2  14  -2    2.70    1.20
  -4 -14  -2    0.40    0.80
   4 -14   2    0.70    1.70
   4 -14   2   -0.70    0.90
   4 -14   2   -0.60    1.50
  -4 -14  -2   -1.80    1.10
   4  14   2    1.60    1.80
  -4  14  -2    1.70    1.00
   4  14   2    1.30    1.60
  -4  14  -2    1.40    1.90
  -6 -14  -2   95.69    6.50
  -6 -14  -2   98.49    5.70
   6 -14   2   99.19    6.10
   6 -14   2   79.59    6.80
   6  14   2   94.09    6.80
  -6  14  -2   87.99    6.70
   8 -14   2   43.00    4.60
  -8 -14  -2   48.80    5.40
  -8 -14  -2   47.80    3.90
   8 -14   2   32.40    5.00
   8  14   2   44.60    5.20
  -8  14  -2   44.30    5.20
 -10 -14  -2   47.90    4.80
 -10 -14  -2   31.30    5.00
  10 -14   2   35.60    5.40
  10 -14   2   44.60    5.10
 -10  14  -2   40.70    5.20
  10  14   2   54.69    5.90
  12 -14   2   35.50    6.00
 -12 -14  -2   49.80    6.30
  12 -14   2   62.39    6.70
 -12 -14  -2   57.79    5.10
  12  14   2   54.69    6.20
 -12  14  -2   42.30    5.40
  13 -15  -2    9.00    3.60
 -13 -15   2    2.40    2.60
 -13 -15   2    9.90    2.40
  13 -15  -2    5.30    3.30
  13 -15  -2    6.70    2.40
 -13  15   2   15.10    3.10
 -13  15   2    7.20    2.60
 -11 -15   2  269.37   14.80
  11 -15  -2  266.67   13.60
  11 -15  -2  216.08   14.40
 -11 -15   2  255.77   12.70
  11 -15  -2  261.87   14.70
 -11  15   2  226.28   13.40
 -11  15   2  255.77   13.80
   9 -15  -2   11.40    3.20
   9 -15  -2   11.20    2.40
   9 -15  -2   14.90    3.30
  -9 -15   2   17.20    3.70
  -9 -15   2   10.70    1.90
  -9  15   2   21.80    3.50
  -9  15   2   15.30    3.10
  -7 -15   2   54.99    5.60
  -7 -15   2   56.49    3.60
   7 -15  -2   59.79    5.10
   7 -15  -2   59.29    6.00
   7 -15  -2   54.39    4.20
  -7  15   2   58.49    4.70
  -7  15   2   53.29    5.60
   5 -15  -2  388.66   17.20
  -5 -15   2  367.26   16.40
   5 -15  -2  367.86   18.50
  -5 -15   2  365.96   18.20
  -5  15   2  366.96   18.50
  -5  15   2  381.36   17.70
  -5  15   2  375.16   17.80
   3 -15  -2   14.90    2.70
   3 -15  -2   14.60    1.80
  -3 -15   2   14.60    1.10
  -3 -15   2   16.20    1.20
  -3 -15   2   14.90    2.30
  -3  15   2   11.90    2.50
  -3  15   2   14.00    2.30
   3  15  -2   21.20    3.10
  -3  15   2   13.20    2.50
  -1 -15   2  598.74   26.60
  -1 -15   2  687.03   28.90
  -1 -15   2  647.04   28.40
  -1 -15   2  619.84   26.60
   1  15  -2  612.14   28.60
  -1  15   2  643.14   28.30
  -1  15   2  605.54   28.60
   1  15  -2  659.53   28.40
  -1  15   2  583.14   28.60
  -1 -15  -2    5.20    1.00
   1 -15   2    3.50    1.70
   1 -15   2    5.50    1.00
  -1  15  -2    5.70    1.60
   1  15   2    4.60    1.90
   1  15   2    6.80    2.10
  -1  15  -2    3.00    1.80
  -3 -15  -2  439.56   19.50
   3 -15   2  438.56   19.60
   3 -15   2  429.56   21.20
  -3  15  -2  467.05   20.30
  -3  15  -2  409.36   21.00
   3  15   2  449.16   21.30
   3  15   2  427.06   21.10
  -5 -15  -2   32.00    2.80
   5 -15   2   37.20    3.20
   5 -15   2   30.60    4.50
  -5  15  -2   31.60    4.40
   5  15   2   26.00    4.20
   5  15   2   43.30    4.70
  -7 -15  -2   77.49    5.30
   7 -15   2   75.49    7.50
   7 -15   2   97.59    6.10
   7  15   2   85.19    6.50
  -7  15  -2   92.79    7.00
   9 -15   2  155.38    9.10
  -9 -15  -2  146.49    8.50
   9 -15   2  124.69   10.00
  -9 -15  -2  158.98    9.80
  -9  15  -2  144.99    9.60
   9  15   2  151.78    9.70
  11 -15   2    9.40    3.60
 -11 -15  -2   14.70    2.90
 -11 -15  -2   17.60    4.50
  11 -15   2   18.40    3.60
 -11  15  -2   13.10    3.30
  11  15   2   19.10    3.70
 -12 -16   2   15.40    3.80
  12 -16  -2   13.80    2.90
  12 -16  -2   17.60    4.20
  12 -16  -2   12.60    4.10
 -12 -16   2    5.80    1.90
 -12  16   2   14.00    3.10
 -12  16   2   15.60    3.30
  10 -16  -2    4.60    2.60
 -10 -16   2    3.30    2.40
 -10 -16   2    3.50    1.40
  10 -16  -2    6.60    3.10
  10 -16  -2    6.30    2.00
 -10  16   2    5.70    2.40
 -10  16   2    2.60    2.00
  -8 -16   2  127.39    8.50
  -8 -16   2  128.39    6.70
   8 -16  -2  132.29    9.00
   8 -16  -2  113.29    7.20
   8 -16  -2  144.79    8.90
  -8  16   2  129.39    8.20
  -8  16   2  118.89    8.50
  -6 -16   2   -1.50    1.40
   6 -16  -2   -0.60    1.00
  -6 -16   2    0.10    0.70
   6 -16  -2   -1.30    1.70
  -6  16   2    1.80    1.60
  -6  16   2    2.20    1.80
   4 -16  -2  162.28    9.80
  -4 -16   2  178.18    9.70
  -4 -16   2  170.28    7.70
   4 -16  -2  168.08    8.50
   4  16  -2  178.88   10.00
  -4  16   2  167.48    9.20
  -4  16   2  180.28   10.00
  -4  16   2  162.58    9.30
   2 -16  -2   13.20    1.70
  -2 -16   2   15.50    1.10
   2 -16  -2   12.30    2.50
  -2 -16   2   17.70    1.20
  -2 -16   2   20.50    2.70
  -2  16   2   20.00    2.90
  -2  16   2   12.20    2.60
   2  16  -2   14.90    2.70
  -2  16   2   16.50    2.60
   2  16  -2   17.00    2.80
   0 -16  -2   16.40    1.70
   0 -16   2   17.10    2.90
   0 -16   2   18.20    1.50
   0  16  -2   18.60    2.60
   0  16   2   19.40    3.10
   0  16   2   16.20    2.90
   0  16  -2   15.80    2.90
   0  16   2   18.40    2.90
   2 -16   2  101.19    6.70
  -2 -16  -2   84.69    4.90
   2 -16   2   91.49    5.00
   2  16   2  100.39    6.80
  -2  16  -2   92.69    5.80
   2  16   2   95.69    6.60
  -2  16  -2   88.59    6.50
  -4 -16  -2    0.50    0.90
   4 -16   2    1.60    2.10
   4 -16   2    0.90    1.00
  -4  16  -2    2.30    1.90
   4  16   2    2.90    2.10
   4  16   2   -0.30    1.50
   6 -16   2  165.28    8.90
   6 -16   2  160.98   10.30
  -6 -16  -2  154.68    8.40
   6  16   2  155.28    9.80
  -6  16  -2  170.68   10.40
   8 -16   2    1.40    1.50
   8 -16   2   -2.80    2.10
  -8 -16  -2   -0.70    1.00
   8  16   2    3.20    2.20
  -8  16  -2   -1.60    1.90
  10 -16   2   18.50    4.40
  10 -16   2   10.20    2.70
 -10 -16  -2   16.20    2.70
  10  16   2   20.90    4.00
 -10  16  -2   11.70    3.50
  11 -17  -2   38.10    5.50
  11 -17  -2   42.90    5.90
  11 -17  -2   40.30    4.40
 -11 -17   2   43.30    5.70
 -11 -17   2   38.50    3.60
 -11  17   2   38.80    5.00
 -11  17   2   38.90    5.20
  -9 -17   2    5.60    1.50
   9 -17  -2    5.40    2.40
   9 -17  -2    3.90    2.70
  -9 -17   2   13.90    3.30
   9 -17  -2   10.70    2.30
  -9  17   2    4.60    2.20
  -9  17   2    6.50    2.60
   7 -17  -2  129.69    8.50
   7 -17  -2  137.59    8.90
   7 -17  -2  123.89    7.30
  -7 -17   2  127.49    6.60
  -7 -17   2  127.89    8.30
  -7  17   2  131.39    8.10
  -7  17   2  135.49    8.80
  -5 -17   2   10.20    1.20
  -5 -17   2   11.40    2.50
   5 -17  -2   11.20    1.90
   5 -17  -2   13.80    3.10
  -5  17   2   17.00    3.20
  -5  17   2   10.40    2.30
  -3 -17   2  218.78    9.60
   3 -17  -2  217.18   10.30
   3 -17  -2  210.78   11.80
  -3  17   2  221.78   12.10
  -3  17   2  217.88   11.30
   3  17  -2  223.08   12.00
  -3  17   2  217.08   11.50
   1 -17  -2    0.60    0.70
  -1 -17   2    0.20    0.50
  -1 -17   2   -0.10    1.30
   1 -17  -2    2.30    1.50
   1  17  -2   -2.00    1.50
  -1  17   2   -1.40    1.30
   1  17  -2    0.10    1.30
  -1  17   2    0.30    1.40
  -1  17   2    1.00    1.50
   1 -17   2  173.38    8.30
  -1 -17  -2  171.78    8.40
   1 -17   2  186.98   10.20
   1  17   2  183.58   10.30
   1  17   2  159.48   10.00
  -1  17  -2  190.58    9.70
  -1  17  -2  170.58   10.00
  -3 -17  -2    6.30    1.30
   3 -17   2    7.10    2.60
   3 -17   2    5.60    1.30
   3  17   2    8.20    2.50
   3  17   2    8.50    2.60
  -3  17  -2    6.00    2.40
  -5 -17  -2  189.38    9.20
   5 -17   2  176.98   11.00
   5 -17   2  183.78    9.40
   5  17   2  172.08   10.70
  -5  17  -2  172.78   10.80
   7 -17   2    2.10    2.40
   7 -17   2   -0.20    1.20
  -7 -17  -2    1.00    1.10
   7  17   2    0.30    1.50
  -7  17  -2    2.50    2.20
   9 -17   2   38.00    4.50
   9 -17   2   47.40    6.30
  -9 -17  -2   47.60    4.10
  -9  17  -2   52.29    6.20
   9  17   2   48.70    5.60
  10 -18  -2  133.49    9.60
 -10 -18   2  134.09    7.20
  10 -18  -2  128.99    9.10
 -10 -18   2  125.49    8.90
  10 -18  -2  116.19    7.70
 -10  18   2  137.69    9.00
 -10  18   2  118.99    8.40
  -8 -18   2   93.69    5.20
   8 -18  -2   84.79    5.80
   8 -18  -2   98.79    7.70
   8 -18  -2   89.89    7.00
  -8 -18   2   98.29    7.20
  -8  18   2   83.89    6.40
  -8  18   2   97.89    7.30
   6 -18  -2  344.17   17.80
   6 -18  -2  324.37   16.00
  -6 -18   2  343.67   15.30
   6 -18  -2  354.16   17.80
  -6 -18   2  348.97   17.50
  -6  18   2  360.56   17.90
  -6  18   2  340.87   17.00
   4 -18  -2   12.70    1.80
  -4 -18   2   13.80    2.60
  -4 -18   2   13.20    1.20
   4 -18  -2   12.00    2.80
   4  18  -2   13.00    3.10
  -4  18   2   13.40    2.50
  -4  18   2   12.60    2.80
  -4  18   2   13.60    3.20
  -2 -18   2   90.89    4.20
   2 -18  -2   87.99    6.40
   2 -18  -2   87.79    4.90
  -2  18   2  101.09    6.50
   2  18  -2   92.09    6.60
  -2  18   2   87.39    6.60
  -2  18   2   96.99    6.20
   0 -18   2   53.99    4.80
   0 -18  -2   57.69    3.40
   0 -18  -2   66.69    5.20
   0 -18   2   53.09    3.00
   0  18  -2   60.29    5.00
   0  18   2   56.49    4.60
   0  18   2   58.49    5.00
   0  18  -2   61.59    4.80
   0  18   2   59.59    5.10
   2 -18   2    2.50    1.90
   2 -18   2    0.00    0.70
  -2 -18  -2    0.50    0.70
   2  18   2    1.70    1.70
   2  18   2    1.60    2.00
  -2  18  -2    1.00    1.80
   4 -18   2  313.27   16.40
   4 -18   2  311.17   14.60
  -4 -18  -2  295.47   14.30
  -4  18  -2  313.57   16.40
   4  18   2  319.27   16.60
   4  18   2  311.97   16.30
   6 -18   2   78.09    5.30
   6 -18   2   81.09    6.80
  -6 -18  -2   77.59    4.90
  -6  18  -2   67.49    6.90
   6  18   2   72.19    6.20
  -7 -19   2   67.69    3.90
  -7 -19   2   62.99    6.10
   7 -19  -2   63.49    4.60
   7 -19  -2   62.19    6.40
   7 -19  -2   60.69    6.70
  -7  19   2   70.99    5.90
  -7  19   2   65.29    5.40
   5 -19  -2    2.80    2.00
  -5 -19   2    1.10    1.60
   5 -19  -2    1.80    1.10
   5 -19  -2    1.10    1.90
  -5 -19   2    3.10    0.70
  -5  19   2    1.00    1.80
  -5  19   2    0.50    1.60
  -3 -19   2  281.37   15.00
   3 -19  -2  296.77   15.40
   3 -19  -2  308.17   13.70
   3  19  -2  286.77   15.40
  -3  19   2  278.07   14.70
  -3  19   2  299.67   15.60
  -3  19   2  307.37   15.10
   1 -19  -2   50.99    3.30
   1 -19  -2   49.70    5.20
  -1 -19   2   51.49    2.60
  -1  19   2   58.79    4.90
   1  19  -2   57.19    5.60
  -1  19   2   61.09    4.70
  -1  19   2   52.59    5.50
   1 -19   2  414.56   18.60
   1 -19   2  452.35   21.00
  -1 -19  -2  427.06   18.90
   1  19   2  430.26   21.20
   1  19   2  433.96   21.10
  -1  19  -2  411.06   20.90
  -3 -19  -2    2.60    1.00
   3 -19   2   -0.70    1.80
   3 -19   2    0.30    0.90
   3  19   2    1.40    1.50
  -3  19  -2   -0.10    1.70
   3  19   2    0.30    1.80
   5 -19   2   73.99    4.90
   5 -19   2   76.79    6.60
  -5 -19  -2   69.99    4.60
   5  19   2   79.09    6.50
  -5  19  -2   83.09    6.60
   6 -20  -2   11.90    3.00
  -6 -20   2   16.40    3.30
  -6 -20   2   17.70    1.40
   6 -20  -2   13.50    2.10
   6 -20  -2    8.90    2.90
  -6  20   2   10.40    2.80
  -4 -20   2   -0.70    1.40
   4 -20  -2    0.10    0.90
   4 -20  -2   -1.00    1.80
   4 -20  -2    5.80    2.20
  -4  20   2    0.40    1.60
   2 -20  -2   21.90    3.60
   2 -20  -2   20.90    2.10
   2  20  -2   23.80    3.70
  -2  20   2   21.60    3.50
  -2  20   2   21.40    3.60
   0 -20  -2   16.70    1.80
   0 -20  -2   19.30    3.30
   0 -20   2   16.40    1.30
   0  20   2   16.60    3.30
   0  20   2   13.20    3.00
   0  20  -2   17.10    3.30
   2 -20   2    1.00    2.10
   2 -20   2    2.90    0.90
   2  20   2    1.20    1.80
  -2  20  -2    4.30    2.30
   2  20   2    1.40    1.90
  -4 -20  -2   15.10    2.00
   4 -20   2   14.50    2.10
  18   0  -3   -0.80    1.60
 -18   0   3    0.50    1.50
 -16   0   3    0.00    1.20
  16   0  -3   -0.70    1.40
 -14   0   3   -1.00    2.10
 -14   0   3    0.60    1.10
  14   0  -3    0.00    1.20
 -12   0   3   -1.20    0.80
  12   0  -3    0.00    1.00
 -12   0   3   -0.10    1.00
 -12   0   3   -0.20    2.10
  12   0  -3    0.30    0.60
  10   0  -3    0.60    0.60
  10   0  -3    0.80    0.80
  10   0  -3    0.60    1.00
 -10   0   3    0.30    0.90
 -10   0   3    0.70    0.90
 -10   0   3    1.20    2.00
   8   0  -3    0.20    0.40
   8   0  -3    0.40    0.80
  -8   0   3    0.90    2.00
  -8   0   3    0.20    0.80
   8   0  -3   -0.80    0.70
  -8   0   3    1.10    0.80
   6   0  -3    4.10    0.90
  -6   0   3   -1.00    1.20
   6   0  -3    0.00    0.60
  -6   0   3   -0.30    0.60
  -6   0   3    0.80    0.50
  -4   0   3    0.20    1.20
   4   0  -3    0.40    0.40
   4   0  -3    0.00    0.50
  -4   0   3   -0.10    0.50
  -4   0   3    0.30    1.30
  -2   0   3    1.50    0.60
   2   0  -3   -0.40    0.40
  -2   0   3    0.00    0.40
  -2   0   3   -0.20    0.80
   2   0  -3    0.30    0.30
   2   0  -3    0.50    0.30
  -2   0   3    0.60    0.40
   0   0  -3   -0.80    0.40
   0   0  -3    0.10    0.40
   0   0   3    0.50    0.50
   0   0   3   -0.10    0.50
   0   0   3    0.50    0.90
   0   0   3    1.30    0.50
   0   0  -3   -0.40    0.50
  -2   0  -3   -0.60    0.60
  -2   0  -3    3.80    1.00
   2   0   3    0.20    0.60
   2   0   3   -0.70    0.50
   2   0   3   -1.90    0.60
   4   0   3   -0.50    0.90
  -4   0  -3    0.00    0.80
   4   0   3   -0.50    0.70
  -4   0  -3    0.20    0.80
   4   0   3    1.20    0.90
   6   0   3    0.70    1.10
  -6   0  -3   -1.20    0.90
   6   0   3    1.80    1.10
  -6   0  -3   -0.30    0.80
   6   0   3    0.00    0.80
   6   0   3    0.30    0.90
  -8   0  -3    2.20    1.20
   8   0   3   -1.00    0.80
  -8   0  -3    1.10    1.10
   8   0   3   -1.40    1.00
   8   0   3    0.40    0.80
 -10   0  -3    2.00    1.30
  10   0   3    1.30    1.40
  10   0   3    0.70    1.30
 -12   0  -3    0.60    1.40
  12   0   3    0.20    1.30
  12   0   3   -0.30    1.50
 -14   0  -3    0.40    1.60
  14   0   3    0.40    1.60
 -19  -1   3   25.50    3.70
  19  -1  -3   26.10    3.90
  19   1  -3   28.30    4.20
 -19   1   3   28.00    3.80
 -17  -1   3   56.09    4.80
  17  -1  -3   62.29    5.20
 -17   1   3   56.69    4.70
  17   1  -3   68.49    5.40
  15  -1  -3  154.28    8.80
 -15  -1   3  145.99    8.40
 -15   1   3  135.49   11.10
  15   1  -3  155.78    8.70
 -15   1   3  164.78    8.50
 -13  -1   3  272.17   15.90
 -13  -1   3  273.47   13.30
  13  -1  -3  271.87   13.50
 -13  -1   3  307.37   14.40
 -13   1   3  285.47   13.30
  13   1  -3  281.27   13.50
 -13   1   3  243.28   15.90
  11  -1  -3  148.99    7.90
 -11  -1   3  138.39    7.60
 -11  -1   3  164.98    8.60
  11  -1  -3  145.19    7.90
  11  -1  -3  164.38    7.30
 -11  -1   3  162.08   10.20
  11   1  -3  154.38    7.90
  11   1  -3  154.68    6.90
 -11   1   3  134.49    9.80
 -11   1   3  149.29    8.10
 -11   1   3  155.98    7.70
   9  -1  -3  228.88   10.60
   9  -1  -3  245.88   11.30
  -9  -1   3  207.18   12.80
  -9  -1   3  251.37   11.70
   9  -1  -3  232.58   11.10
  -9  -1   3  230.98   11.00
   9   1  -3  247.98   10.30
   9   1  -3  231.38   11.00
   9   1  -3  245.28   11.10
  -9   1   3  233.48   11.40
  -9   1   3  250.27   11.00
   7  -1  -3   11.70    1.40
  -7  -1   3   11.50    1.60
  -7  -1   3    8.40    1.20
   7  -1  -3   13.30    1.60
  -7  -1   3    5.50    2.10
   7   1  -3   11.40    1.40
  -7   1   3    8.90    2.50
   7   1  -3   11.00    1.40
  -7   1   3    9.80    1.40
  -7   1   3   10.20    1.20
   7   1  -3   10.50    0.80
  -5  -1   3   15.50    2.80
   5  -1  -3   20.00    1.50
  -5  -1   3   21.40    1.80
   5  -1  -3   19.90    1.70
  -5  -1   3   19.70    2.80
   5   1  -3   21.90    1.50
  -5   1   3   18.40    2.70
  -5   1   3   12.50    2.60
  -5   1   3   18.60    1.30
   5   1  -3   20.20    1.60
  -5   1   3   18.10    1.60
  -3  -1   3 1041.90   44.40
   3  -1  -3 1100.39   45.00
  -3  -1   3 1102.29   44.90
  -3  -1   3  942.01   45.50
   3  -1  -3 1063.69   44.60
  -3   1   3  964.00   45.50
   3   1  -3 1090.19   44.80
  -3   1   3 1032.40   44.80
   3   1  -3 1166.78   44.40
   1  -1  -3   97.19    4.70
  -1  -1   3  100.49    5.60
  -1  -1   3  107.89    5.00
  -1  -1   3  111.29    4.70
  -1  -1   3  103.39    5.20
   1  -1  -3  111.69    5.30
  -1   1   3  109.89    5.10
   1   1  -3  117.19    5.20
   1   1  -3   97.19    5.10
  -1   1   3  108.09    5.70
  -1   1   3  103.99    5.00
  -1  -1  -3    0.60    0.60
   1  -1   3    2.10    0.80
  -1  -1  -3    0.90    0.70
   1  -1   3    1.80    1.00
   1   1   3    1.10    1.00
   1   1   3    2.00    0.60
   1   1   3    1.10    0.70
  -1   1  -3    0.80    0.60
   1   1   3    0.80    0.60
   1   1   3   -0.20    0.60
  -1   1  -3    2.00    0.70
   3  -1   3   19.50    2.00
  -3  -1  -3   19.90    1.90
   3  -1   3   21.20    1.60
  -3  -1  -3   21.10    1.90
   3  -1   3   18.40    1.50
   3  -1   3   21.70    1.90
  -3   1  -3   16.90    1.80
  -3   1  -3   23.70    1.90
   3   1   3   18.80    1.70
   3   1   3   23.70    1.80
   3   1   3   24.20    2.00
  -5  -1  -3   25.50    2.80
   5  -1   3   28.50    2.50
   5  -1   3   27.50    2.20
  -5  -1  -3   29.90    2.40
   5  -1   3   30.50    2.30
   5  -1   3   27.50    2.40
  -5   1  -3   27.90    2.40
   5   1   3   28.60    2.70
  -5   1  -3   26.30    2.60
   5   1   3   28.50    2.30
   5   1   3   34.40    2.60
   7  -1   3   35.00    2.40
  -7  -1  -3   33.70    3.40
   7  -1   3   31.80    2.60
  -7  -1  -3   28.70    2.90
   7  -1   3   33.50    2.80
   7  -1   3   31.40    2.80
  -7   1  -3   29.00    2.70
   7   1   3   29.60    2.70
   7   1   3   32.50    2.70
  -7   1  -3   26.30    2.80
   7   1   3   30.00    2.90
  -9  -1  -3  128.19    7.60
   9  -1   3  121.49    7.00
  -9  -1  -3  119.49    7.10
   9  -1   3  142.49    7.30
   9   1   3  125.39    7.10
  -9   1  -3  130.49    7.20
  11  -1   3   14.50    2.50
 -11  -1  -3   13.60    2.50
  11  -1   3   14.30    2.40
 -11   1  -3   14.70    2.70
  11   1   3   16.10    2.50
  13  -1   3    2.70    1.60
 -13  -1  -3    1.70    1.70
  13  -1   3    1.10    1.50
 -13   1  -3    2.00    1.80
  13   1   3   -2.20    1.20
 -15  -1  -3   13.30    3.00
  15  -1   3   18.70    3.20
  15   1   3   13.10    2.80
 -15   1  -3   17.20    3.20
  18  -2  -3  123.89    8.40
 -18  -2   3  136.79    8.30
  18   2  -3  132.19    8.50
 -18   2   3  129.29    8.00
 -16  -2   3   64.79    5.00
  16  -2  -3   61.89    5.10
 -16   2   3   66.89    4.70
  16   2  -3   66.49    5.10
 -14  -2   3   22.40    4.40
 -14  -2   3   25.30    3.60
 -14  -2   3   19.80    2.70
  14  -2  -3   16.10    2.70
  14   2  -3   20.00    2.70
 -14   2   3   20.60    2.60
 -14   2   3   16.30    4.30
 -12  -2   3   -1.70    1.60
 -12  -2   3    1.20    1.20
 -12  -2   3    0.80    1.00
  12  -2  -3    0.60    1.30
  12  -2  -3    1.10    0.70
  12  -2  -3    1.20    1.10
  12   2  -3    0.90    1.00
 -12   2   3    1.90    1.10
 -12   2   3    0.20    2.10
 -10  -2   3  111.59    7.90
 -10  -2   3  121.19    6.90
  10  -2  -3  118.39    5.80
 -10  -2   3  115.19    6.20
  10  -2  -3  119.89    6.50
  10  -2  -3  121.59    6.40
 -10   2   3  124.39    6.00
 -10   2   3   99.79    8.00
  10   2  -3  114.29    5.30
 -10   2   3  112.49    6.40
  10   2  -3  122.49    6.20
  -8  -2   3  625.64   26.60
   8  -2  -3  597.64   26.10
  -8  -2   3  586.14   26.10
   8  -2  -3  614.74   26.40
  -8  -2   3  595.64   27.90
   8   2  -3  603.84   25.10
  -8   2   3  574.64   26.30
  -8   2   3  615.44   25.80
   8   2  -3  601.34   26.00
   8   2  -3  598.54   25.90
  -8   2   3  580.64   28.20
  -6  -2   3  379.46   19.10
  -6  -2   3  399.86   17.90
   6  -2  -3  390.46   17.60
  -6  -2   3  393.16   17.70
   6  -2  -3  409.66   17.90
   6   2  -3  402.56   17.40
   6   2  -3  422.86   16.80
  -6   2   3  411.06   17.30
   6   2  -3  408.46   17.60
  -6   2   3  393.06   17.80
  -6   2   3  394.06   19.50
   4  -2  -3  119.39    5.80
  -4  -2   3  119.69    6.80
  -4  -2   3  111.79    7.10
  -4  -2   3  115.89    6.00
   4  -2  -3  127.29    6.10
  -4   2   3  134.99    7.10
   4   2  -3  119.49    5.80
  -4   2   3  122.99    5.40
  -4   2   3  124.69    5.90
   4   2  -3  118.09    5.50
  -4   2   3  126.69    7.40
   2  -2  -3    6.90    1.10
  -2  -2   3    5.50    0.70
  -2  -2   3    6.50    1.40
  -2  -2   3    5.10    1.00
  -2   2   3    5.10    0.90
   2   2  -3    7.10    1.00
   2   2  -3    6.40    0.90
  -2   2   3    7.30    1.50
   2   2  -3    5.70    0.40
  -2   2   3    4.40    0.80
   0  -2  -3    2.20    0.80
   0  -2   3    1.90    0.70
   0  -2   3    2.30    1.00
   0  -2   3    1.30    0.60
   0  -2  -3    2.50    0.60
   0   2   3    2.10    0.80
   0   2  -3    3.20    0.70
   0   2   3    1.90    0.60
   0   2   3    2.00    0.70
   0   2   3    2.70    1.00
   0   2  -3    2.90    0.80
   0   2   3    1.20    0.80
   2  -2   3   81.49    4.00
   2  -2   3   74.09    4.30
   2  -2   3   82.69    4.40
  -2  -2  -3   82.99    4.20
  -2  -2  -3   86.39    4.60
   2   2   3   80.39    4.10
   2   2   3   80.69    4.30
   2   2   3   93.29    4.90
  -2   2  -3   81.49    4.40
   2   2   3   82.69    4.30
  -2   2  -3   88.69    4.40
   2   2   3   84.69    4.40
   4  -2   3   13.40    1.70
  -4  -2  -3   11.70    1.60
   4  -2   3   12.50    1.70
  -4  -2  -3   12.30    1.80
   4  -2   3   11.70    1.40
   4  -2   3   16.40    1.40
   4   2   3   15.20    1.70
   4   2   3   12.30    1.60
  -4   2  -3   12.10    1.60
   4   2   3   15.30    1.80
  -4   2  -3   14.20    1.80
   6  -2   3   41.20    3.20
  -6  -2  -3   45.00    3.40
   6  -2   3   35.90    2.80
  -6  -2  -3   37.00    3.00
   6  -2   3   39.10    3.10
   6  -2   3   40.70    2.60
  -6   2  -3   49.30    3.20
   6   2   3   32.50    3.40
  -6   2  -3   39.40    3.10
   6   2   3   43.70    3.00
   6   2   3   39.30    3.00
   8  -2   3   74.49    4.70
  -8  -2  -3   68.49    5.00
   8  -2   3   65.39    4.50
  -8  -2  -3   69.79    4.60
   8  -2   3   65.69    4.30
  -8   2  -3   70.39    4.60
   8   2   3   75.99    4.70
   8   2   3   67.49    4.40
 -10  -2  -3   40.20    4.40
 -10  -2  -3   38.90    3.90
  10  -2   3   37.30    3.80
  10  -2   3   39.00    3.40
 -10   2  -3   43.20    3.70
  10   2   3   42.00    3.40
  12  -2   3  116.59    7.20
  12  -2   3  116.39    7.20
 -12  -2  -3  102.79    7.00
  12   2   3  117.29    7.00
 -12   2  -3  115.59    7.30
 -14  -2  -3  145.89    9.10
  14  -2   3  145.29    8.90
  14  -2   3  156.08    9.10
 -14   2  -3  137.29    9.00
  14   2   3  166.88    9.00
 -19  -3   3    1.50    1.70
  19  -3  -3    0.30    1.90
  19   3  -3    1.70    1.90
  17  -3  -3    0.60    1.80
 -17  -3   3    0.70    1.50
 -17   3   3    0.70    1.40
  17   3  -3   -1.70    1.30
  15  -3  -3   51.19    4.40
 -15  -3   3   43.50    4.40
 -15  -3   3   50.39    5.70
  15   3  -3   54.19    4.30
 -15   3   3   55.59    7.60
 -15   3   3   54.89    4.00
  13  -3  -3   10.60    2.20
 -13  -3   3   10.90    2.00
  13  -3  -3   16.30    1.90
 -13  -3   3   17.20    3.00
 -13  -3   3   22.40    4.00
  13   3  -3   15.00    2.30
 -13   3   3    7.70    3.00
 -13   3   3   15.70    2.10
  11  -3  -3  142.29    6.90
  11  -3  -3  128.29    7.40
 -11  -3   3  133.69    7.30
 -11  -3   3  147.69    8.20
  11  -3  -3  152.08    7.80
 -11  -3   3  138.39    9.00
  11   3  -3  140.99    7.30
 -11   3   3  127.59    9.30
 -11   3   3  144.69    7.10
   9  -3  -3    8.80    1.60
   9  -3  -3   10.20    1.50
  -9  -3   3    7.90    1.50
  -9  -3   3   10.10    2.00
   9  -3  -3   10.10    1.80
  -9  -3   3    7.10    2.30
  -9   3   3   10.40    1.40
   9   3  -3    9.40    1.40
  -9   3   3    8.10    1.50
  -9   3   3    9.80    3.00
  -7  -3   3  784.02   33.50
  -7  -3   3  734.03   32.00
   7  -3  -3  739.73   32.20
   7  -3  -3  695.83   31.80
  -7  -3   3  757.02   32.30
   7   3  -3  714.63   31.60
  -7   3   3  746.63   33.90
  -7   3   3  741.33   32.00
  -7   3   3  760.32   31.40
   7   3  -3  737.93   31.60
   5  -3  -3   11.20    1.60
  -5  -3   3   14.70    1.60
  -5  -3   3   15.30    2.30
   5  -3  -3   13.80    1.50
  -5  -3   3   15.40    2.50
   5   3  -3   15.10    1.20
  -5   3   3   15.40    1.60
  -5   3   3   12.60    2.40
   5   3  -3   13.70    1.10
  -5   3   3   15.30    2.80
  -5   3   3   15.10    1.00
  -3  -3   3  461.85   19.90
   3  -3  -3  448.06   20.00
  -3  -3   3  445.16   19.80
  -3  -3   3  454.75   20.40
   3  -3  -3  451.85   19.90
  -3  -3   3  435.56   19.30
  -3   3   3  462.65   21.10
  -3   3   3  451.85   19.70
  -3   3   3  487.05   19.20
   3   3  -3  479.45   19.20
  -3   3   3  423.66   19.70
  -3   3   3  486.95   20.70
   3   3  -3  438.36   19.70
   1  -3  -3    0.50    0.40
   1  -3  -3    0.50    0.10
  -1  -3   3    0.00    0.40
  -1  -3   3   -1.50    0.70
   1  -3  -3    0.20    0.60
  -1  -3   3   -0.20    0.50
  -1  -3   3   -0.30    0.50
  -1   3   3    1.10    0.70
  -1   3   3    0.90    0.50
  -1   3   3    1.90    1.00
   1   3  -3    1.30    0.90
  -1   3   3    0.70    0.70
   1   3  -3    0.30    0.40
  -1  -3  -3  480.25   21.50
   1  -3   3  490.65   21.30
  -1  -3  -3  499.65   21.00
   1  -3   3  489.25   21.20
   1  -3   3  440.46   21.60
   1  -3   3  507.35   20.70
   1   3   3  519.95   21.70
   1   3   3  503.25   21.40
   1   3   3  507.25   21.20
   1   3   3  472.85   21.30
   1   3   3  472.15   21.20
  -1   3  -3  492.85   21.20
   3  -3   3    2.50    0.70
   3  -3   3    1.70    0.80
  -3  -3  -3    0.80    0.80
  -3  -3  -3    1.60    1.00
   3  -3   3    2.30    1.00
   3   3   3    1.00    0.80
   3   3   3    4.50    0.90
   3   3   3    1.90    0.90
   3   3   3    3.20    0.80
  -3   3  -3    2.30    0.70
  -3   3  -3    2.40    0.90
   5  -3   3    5.60    1.00
   5  -3   3    5.40    1.40
  -5  -3  -3    8.70    1.80
  -5  -3  -3    4.20    1.30
   5  -3   3    6.70    1.40
   5  -3   3    5.80    1.20
   5   3   3    7.80    1.80
  -5   3  -3    4.70    1.10
   5   3   3    5.00    1.10
   5   3   3    5.90    1.50
  -5   3  -3    5.40    1.30
  -7  -3  -3   23.20    3.00
   7  -3   3   20.00    2.50
  -7  -3  -3   16.30    2.20
   7  -3   3   15.30    2.00
   7  -3   3   20.20    2.40
  -7   3  -3   25.10    2.60
   7   3   3   16.90    2.20
   7   3   3   17.10    2.50
   9  -3   3    1.60    1.20
   9  -3   3    0.00    1.20
  -9  -3  -3    1.50    1.20
   9  -3   3    2.70    1.50
  -9  -3  -3    3.70    1.60
  -9   3  -3   -0.60    1.00
   9   3   3    2.70    1.20
   9   3   3    3.10    1.30
 -11  -3  -3   77.59    5.50
  11  -3   3   87.99    5.60
  11  -3   3   84.19    5.50
 -11  -3  -3   77.79    6.60
 -11   3  -3   82.69    5.60
  11   3   3   72.39    5.10
 -13  -3  -3   30.80    3.90
  13  -3   3   25.80    3.50
  13  -3   3   30.60    3.80
 -13   3  -3   26.50    3.70
  13   3   3   24.90    3.30
  15  -3   3   72.59    5.60
  15  -3   3   58.89    5.30
 -15  -3  -3   50.29    5.60
  15   3   3   72.19    7.20
 -15   3  -3   65.59    5.60
  18  -4  -3   21.30    3.60
 -18  -4   3   22.10    3.60
  18   4  -3   30.80    4.00
 -16  -4   3   14.70    3.30
 -16  -4   3   11.90    2.60
  16  -4  -3   13.00    2.90
 -16   4   3   11.30    2.30
  16   4  -3   13.30    2.60
  14  -4  -3   -0.20    1.30
 -14  -4   3   -1.10    1.30
 -14  -4   3    1.70    2.00
  14  -4  -3    3.50    1.20
 -14  -4   3    3.80    1.60
 -14   4   3    1.30    1.10
  14   4  -3    3.50    1.60
 -14   4   3    2.60    3.00
  12  -4  -3  231.08   11.60
  12  -4  -3  235.98   11.10
  12  -4  -3  258.07   12.20
 -12  -4   3  211.88   11.50
 -12  -4   3  231.38   12.50
 -12  -4   3  241.48   13.20
 -12   4   3  232.28   13.90
  12   4  -3  221.98   11.30
 -12   4   3  241.88   11.10
  10  -4  -3   70.59    4.60
 -10  -4   3   71.09    5.00
 -10  -4   3   59.09    5.20
  10  -4  -3   61.69    4.00
  10  -4  -3   62.79    4.30
 -10  -4   3   65.09    4.40
 -10   4   3   68.19    3.80
  10   4  -3   71.29    4.10
 -10   4   3   82.09    6.40
  -8  -4   3  858.11   37.80
   8  -4  -3  829.12   37.30
  -8  -4   3  858.91   37.50
  -8  -4   3  901.81   38.70
   8  -4  -3  887.61   37.70
  -8   4   3  861.71   36.60
  -8   4   3  924.81   39.50
   8   4  -3  849.12   36.90
  -8   4   3  829.82   37.20
  -6  -4   3   88.99    5.70
   6  -4  -3   80.99    4.70
  -6  -4   3   90.19    4.90
   6  -4  -3   89.19    5.00
  -6  -4   3   88.09    4.80
  -6   4   3   83.79    4.00
   6   4  -3   84.69    4.30
  -6   4   3   89.89    4.60
  -6   4   3   93.49    6.20
  -6   4   3   91.09    4.80
  -4  -4   3  238.18   12.00
  -4  -4   3  234.78   10.30
  -4  -4   3  250.17   11.00
  -4  -4   3  239.48   11.00
   4  -4  -3  230.48   11.10
  -4  -4   3  247.78   11.60
   4  -4  -3  243.08   11.10
   4   4  -3  246.68   10.40
  -4   4   3  261.37   12.50
  -4   4   3  251.27   10.40
   4   4  -3  231.98   10.90
  -4   4   3  247.58   11.80
  -4   4   3  222.88   11.00
  -2  -4   3  702.83   30.00
  -2  -4   3  707.83   29.90
   2  -4  -3  693.03   30.10
  -2  -4   3  686.63   29.60
  -2  -4   3  681.03   30.30
  -2   4   3  691.43   30.10
   2   4  -3  644.64   30.10
  -2   4   3  707.93   30.40
  -2   4   3  693.03   30.00
  -2   4   3  714.33   29.80
  -2   4   3  756.72   29.30
   0  -4   3  211.98    9.50
   0  -4  -3  193.98    9.60
   0  -4  -3  206.08    9.00
   0  -4   3  204.98    9.70
   0  -4   3  224.08    9.60
   0  -4   3  201.18    9.30
   0   4   3  195.58    9.80
   0   4   3  220.68    9.80
   0   4   3  198.68    9.50
   0   4  -3  200.78    9.60
   0   4   3  201.48    9.20
   2  -4   3  672.93   28.50
   2  -4   3  645.24   28.40
  -2  -4  -3  641.74   28.70
   2  -4   3  658.43   27.90
  -2  -4  -3  649.54   28.20
   2   4   3  671.73   28.50
   2   4   3  692.13   28.60
   2   4   3  691.43   28.80
   2   4   3  667.23   28.30
  -2   4  -3  626.14   28.40
   2   4   3  629.84   28.60
  -2   4  -3  667.63   28.30
   4  -4   3  196.28    9.90
   4  -4   3  217.68    9.60
  -4  -4  -3  207.88   10.40
   4  -4   3  209.08   10.10
   4  -4   3  221.58    9.30
  -4  -4  -3  199.78    9.80
   4   4   3  213.78    9.90
  -4   4  -3  217.98    9.10
   4   4   3  205.18   10.30
  -4   4  -3  200.98   10.00
   6  -4   3  310.97   14.10
   6  -4   3  328.27   14.80
   6  -4   3  309.67   14.50
  -6  -4  -3  333.17   15.10
  -6  -4  -3  303.37   14.30
   6   4   3  313.57   14.30
  -6   4  -3  294.27   14.40
   6   4   3  297.37   15.00
   8  -4   3   44.00    3.70
  -8  -4  -3   33.00    3.30
   8  -4   3   31.40    2.90
   8  -4   3   40.10    3.30
  -8  -4  -3   37.50    4.10
   8   4   3   38.20    3.00
   8   4   3   42.70    3.70
  -8   4  -3   38.00    3.30
  10  -4   3    5.30    1.70
  10  -4   3    8.70    2.20
  10  -4   3   10.50    2.10
 -10  -4  -3    8.30    2.30
 -10  -4  -3    7.70    2.10
  10   4   3   10.80    2.00
  10   4   3    9.10    1.80
 -10   4  -3   11.20    2.20
  12  -4   3   37.00    4.10
 -12  -4  -3   40.60    4.50
  12  -4   3   29.90    3.70
  12   4   3   42.10    4.00
 -12   4  -3   32.30    4.10
  14  -4   3   17.10    3.20
  14  -4   3   21.20    3.40
 -14  -4  -3   16.30    3.20
 -14   4  -3   24.30    3.60
  14   4   3   18.10    2.90
 -17  -5   3   33.10    4.30
  17  -5  -3   34.00    4.40
  17   5  -3   30.00    3.90
 -15  -5   3  169.78    9.60
 -15  -5   3  170.68   10.80
  15  -5  -3  161.38    9.50
  15  -5  -3  172.18    8.90
  15   5  -3  162.78    9.30
 -15   5   3  172.18    8.80
  13  -5  -3  122.19    7.60
  13  -5  -3  116.49    7.10
 -13  -5   3  116.39    8.30
  13  -5  -3  118.99    6.60
 -13  -5   3  111.49    7.80
 -13  -5   3  118.99    7.10
 -13   5   3  134.99    9.50
  13   5  -3  121.49    6.80
 -13   5   3  119.29    6.40
 -11  -5   3  245.38   12.40
  11  -5  -3  243.68   12.30
 -11  -5   3  249.38   13.40
  11  -5  -3  260.37   12.10
 -11  -5   3  240.38   13.00
  11  -5  -3  263.47   12.90
 -11   5   3  258.87   11.50
 -11   5   3  255.97   14.30
  11   5  -3  243.58   11.90
  -9  -5   3    4.10    1.60
   9  -5  -3    2.40    1.20
   9  -5  -3    2.60    1.30
  -9  -5   3    4.10    1.70
  -9  -5   3    1.60    1.20
  -9   5   3    5.30    2.10
  -9   5   3    2.20    0.70
   9   5  -3    2.60    1.00
  -7  -5   3   15.80    2.10
  -7  -5   3   12.20    2.00
  -7  -5   3   10.60    1.70
   7  -5  -3   10.00    1.80
  -7  -5   3    9.60    2.20
   7  -5  -3   11.50    1.80
  -7   5   3   11.50    1.00
  -7   5   3   11.40    1.70
  -7   5   3    9.90    2.50
   7   5  -3    8.40    1.20
  -5  -5   3  444.96   20.10
   5  -5  -3  429.46   19.40
  -5  -5   3  437.36   19.30
  -5  -5   3  447.86   19.30
   5  -5  -3  417.36   19.50
  -5   5   3  456.65   18.70
  -5   5   3  419.16   19.30
  -5   5   3  418.46   19.10
  -5   5   3  455.65   20.70
  -3  -5   3  180.28    9.30
  -3  -5   3  180.68    8.60
  -3  -5   3  177.28    8.50
  -3  -5   3  200.08    9.10
  -3  -5   3  176.88    8.10
   3  -5  -3  202.18    8.90
   3  -5  -3  184.88    8.80
  -3   5   3  189.18    9.60
   3   5  -3  172.08    8.80
  -3   5   3  167.68    8.60
  -3   5   3  198.48    8.30
  -3   5   3  195.68    9.30
  -3   5   3  174.98    8.70
  -1  -5   3  440.36   19.10
   1  -5  -3  450.85   18.30
  -1  -5   3  397.76   18.60
  -1  -5   3  425.86   19.00
   1  -5  -3  428.36   19.00
   1  -5  -3  456.75   19.10
  -1  -5   3  432.46   18.80
  -1   5   3  411.96   19.00
   1   5  -3  423.46   19.30
  -1   5   3  447.76   19.50
  -1   5   3  433.46   19.10
  -1  -5  -3    2.10    0.90
  -1  -5  -3    2.90    0.70
  -1  -5  -3    2.50    0.80
   1  -5   3    3.40    1.00
   1  -5   3    1.90    0.50
   1  -5   3    2.20    0.80
   1  -5   3    3.20    0.90
   1  -5   3    2.50    1.10
  -1   5  -3    2.00    0.90
   1   5   3    0.80    0.80
   1   5   3    2.20    0.90
   1   5   3    2.90    1.20
  -3  -5  -3   12.80    1.80
  -3  -5  -3   11.00    1.40
   3  -5   3   16.10    1.90
   3  -5   3   14.00    1.80
   3  -5   3   14.10    1.40
   3   5   3   13.80    1.80
   3   5   3   13.80    1.70
  -3   5  -3   11.60    1.70
   3   5   3    9.70    1.70
   3   5   3   14.30    1.90
  -3   5  -3   14.80    1.10
   5  -5   3   28.60    3.00
  -5  -5  -3   26.10    2.60
   5  -5   3   26.30    2.60
  -5  -5  -3   26.40    3.00
   5  -5   3   26.20    2.20
   5   5   3   25.10    3.00
  -5   5  -3   21.50    2.50
   5   5   3   28.40    2.60
  -5   5  -3   27.40    1.70
   7  -5   3   85.99    5.30
   7  -5   3   90.99    5.10
  -7  -5  -3   80.09    5.20
   7  -5   3   88.89    5.60
  -7  -5  -3   85.39    5.90
  -7   5  -3   98.29    4.60
   7   5   3   77.19    5.00
  -7   5  -3   90.59    5.40
   7   5   3  101.89    6.20
  -9  -5  -3  102.29    6.10
   9  -5   3  102.39    6.50
  -9  -5  -3   83.59    6.50
   9  -5   3  110.19    6.00
   9  -5   3   95.09    6.00
  -9   5  -3  102.59    6.20
   9   5   3   95.59    6.40
   9   5   3  101.39    5.70
 -11  -5  -3   43.50    4.60
 -11  -5  -3   46.90    5.40
  11  -5   3   57.39    4.30
  11  -5   3   48.00    4.20
 -11   5  -3   52.89    4.40
  11   5   3   50.09    4.00
 -13  -5  -3   -2.20    1.50
  13  -5   3    2.10    1.70
  13  -5   3    2.10    1.80
  13   5   3    2.20    1.40
 -13   5  -3    1.00    1.60
 -15  -5  -3   21.50    3.80
  15  -5   3   24.20    3.80
  15  -5   3   17.40    3.40
 -15   5  -3   23.60    3.90
  18  -6  -3  111.89    7.80
 -18  -6   3  103.69    7.60
 -18   6   3  100.89    7.40
 -16  -6   3   20.20    3.40
 -16  -6   3    9.00    3.10
  16  -6  -3   16.70    3.10
  16   6  -3   13.00    2.60
 -14  -6   3   73.79    5.50
 -14  -6   3   63.79    5.90
  14  -6  -3   66.29    5.60
  14  -6  -3   64.09    4.60
  14  -6  -3   62.69    5.00
  14   6  -3   59.99    4.50
 -14   6   3   63.39    4.10
 -14   6   3   60.79    7.30
  12  -6  -3   11.60    2.40
 -12  -6   3    8.10    2.30
 -12  -6   3    7.30    2.10
 -12  -6   3    8.70    2.30
  12  -6  -3    6.00    1.60
  12  -6  -3    7.40    1.90
 -12   6   3   11.90    1.50
 -12   6   3   11.00    3.10
  12   6  -3    9.40    1.70
  10  -6  -3   17.30    2.40
 -10  -6   3   15.90    2.50
  10  -6  -3   18.30    2.50
 -10  -6   3   16.90    2.80
 -10  -6   3   18.10    2.80
  10  -6  -3   18.20    2.80
 -10   6   3   14.60    1.50
  10   6  -3   13.70    1.80
 -10   6   3   15.00    2.20
 -10   6   3   20.60    1.90
 -10   6   3   18.90    3.40
  -8  -6   3    7.30    1.70
   8  -6  -3    6.40    1.70
   8  -6  -3    7.10    1.60
  -8  -6   3    8.20    1.90
  -8  -6   3    7.20    1.90
   8   6  -3    8.50    1.30
  -8   6   3    8.20    1.70
  -8   6   3    7.20    2.20
  -8   6   3    9.50    1.00
  -8   6   3    7.40    1.20
  -6  -6   3    2.50    1.00
  -6  -6   3    2.10    1.00
   6  -6  -3    4.20    1.40
  -6  -6   3    0.70    1.20
   6  -6  -3    2.70    1.20
  -6   6   3   -0.20    0.70
  -6   6   3    2.00    0.80
  -6   6   3    1.90    1.50
  -6   6   3   -0.50    0.80
   4  -6  -3    2.30    1.00
  -4  -6   3    1.20    0.40
  -4  -6   3   -0.70    0.90
  -4  -6   3    0.80    0.70
  -4  -6   3    0.10    0.60
   4  -6  -3    1.10    0.80
  -4  -6   3    0.30    1.10
   4  -6  -3    0.70    1.00
  -4   6   3    0.10    0.80
  -4   6   3    0.70    0.90
  -4   6   3    0.70    1.20
  -4   6   3    0.20    1.20
   4   6  -3    1.10    1.00
  -4   6   3    0.90    0.60
  -2  -6   3  105.29    5.60
   2  -6  -3  112.49    5.70
  -2  -6   3  105.49    5.40
  -2  -6   3  106.49    5.20
  -2  -6   3  113.29    4.90
  -2  -6   3  117.49    5.80
   2  -6  -3  114.99    5.80
  -2   6   3  111.89    5.20
   2   6  -3   98.69    5.90
  -2   6   3  112.29    6.00
  -2   6   3  115.89    6.00
  -2   6   3  107.99    5.70
   0  -6  -3  306.47   13.20
   0  -6   3  280.67   12.80
   0  -6   3  267.47   13.00
   0  -6  -3  298.87   12.40
   0  -6   3  294.07   12.20
   0  -6  -3  271.67   13.00
   0  -6   3  300.87   12.90
   0  -6   3  297.67   13.10
   0   6  -3  262.37   13.30
   0   6   3  288.37   13.10
   0   6   3  294.57   13.60
   0   6   3  277.67   13.20
   2  -6   3   61.09    3.80
  -2  -6  -3   60.69    3.70
  -2  -6  -3   55.79    3.80
   2  -6   3   61.89    3.70
   2  -6   3   62.19    3.10
   2  -6   3   59.29    3.60
  -2  -6  -3   61.99    3.40
   2  -6   3   55.69    3.70
  -2   6  -3   57.59    3.80
   2   6   3   62.69    3.80
   2   6   3   57.59    4.00
   2   6   3   65.39    4.20
  -2   6  -3   59.39    2.90
  -4  -6  -3   80.59    5.20
   4  -6   3   83.89    4.40
   4  -6   3   91.79    5.20
  -4  -6  -3   80.69    4.70
   4  -6   3   91.79    5.00
   4   6   3   90.99    5.10
  -4   6  -3   81.79    4.90
   4   6   3   92.19    5.00
   4   6   3   85.49    5.10
   4   6   3   74.99    5.40
  -4   6  -3   84.59    4.10
  -6  -6  -3   96.49    6.10
   6  -6   3   89.29    5.50
   6  -6   3   91.79    5.90
   6  -6   3   96.99    5.20
  -6  -6  -3   92.99    5.50
   6   6   3   91.39    6.20
  -6   6  -3   97.29    5.70
   6   6   3   91.09    5.30
  -6   6  -3  102.69    5.70
  -6   6  -3  103.49    5.00
   8  -6   3  173.58    9.60
   8  -6   3  166.48    9.00
  -8  -6  -3  168.58    9.00
  -8  -6  -3  147.29    9.40
   8  -6   3  176.98    8.70
   8   6   3  170.18    8.60
  -8   6  -3  171.58    9.00
   8   6   3  180.68    9.60
 -10  -6  -3   33.90    4.50
  10  -6   3   48.60    5.10
  10  -6   3   39.10    3.90
 -10  -6  -3   38.10    4.10
  10  -6   3   36.30    4.00
  10   6   3   46.90    4.60
  10   6   3   34.30    3.50
 -10   6  -3   40.50    4.10
  12  -6   3   34.50    4.10
 -12  -6  -3   26.90    3.90
  12  -6   3   39.00    4.20
 -12  -6  -3   34.40    4.80
  12   6   3   31.50    3.50
 -12   6  -3   35.00    4.20
  14  -6   3   35.10    4.40
  14  -6   3   32.50    4.20
 -14  -6  -3   27.00    4.40
 -14   6  -3   31.80    4.30
  17  -7  -3    6.00    2.50
 -17  -7   3   -0.50    1.90
 -17  -7   3   -0.80    2.10
 -17   7   3   -0.20    1.70
 -15  -7   3   59.49    6.00
  15  -7  -3   50.29    5.50
  15  -7  -3   61.39    4.70
 -15  -7   3   68.59    6.90
 -15   7   3   52.59    4.80
  13  -7  -3   55.39    4.10
 -13  -7   3   42.10    5.00
  13  -7  -3   39.60    4.40
 -13  -7   3   51.99    5.10
  13  -7  -3   43.30    4.90
 -13   7   3   50.39    6.00
 -13   7   3   49.00    4.10
  11  -7  -3   72.59    5.40
 -11  -7   3   70.09    5.20
  11  -7  -3   71.79    5.00
 -11  -7   3   62.89    5.10
 -11  -7   3   60.19    5.20
  11  -7  -3   76.59    5.10
 -11   7   3   68.69    4.70
 -11   7   3   73.69    6.00
 -11   7   3   67.09    3.80
  -9  -7   3  326.17   16.00
  -9  -7   3  297.97   15.80
   9  -7  -3  305.37   15.90
   9  -7  -3  337.97   15.70
  -9  -7   3  333.77   16.00
  -9   7   3  342.57   14.90
  -9   7   3  352.06   16.90
  -9   7   3  341.27   14.50
  -9   7   3  335.07   15.60
   7  -7  -3   89.79    5.80
  -7  -7   3   98.89    6.20
  -7  -7   3   98.69    5.80
   7  -7  -3   96.09    5.70
  -7  -7   3   90.39    5.60
  -7   7   3  113.59    6.70
  -7   7   3   99.99    5.10
  -7   7   3  102.79    5.70
  -7   7   3   90.09    5.10
   5  -7  -3 2135.99   91.29
  -5  -7   3 2226.68   89.89
  -5  -7   3 2085.49   90.79
  -5  -7   3 2055.79   90.69
  -5  -7   3 2154.08   91.19
   5  -7  -3 2208.78   91.39
   5  -7  -3 2006.70   90.99
  -5   7   3 2200.18   90.49
  -5   7   3 2109.89   91.09
  -5   7   3 2181.28   90.79
  -5   7   3 2283.07   91.89
   5   7  -3 2198.18   91.09
  -3  -7   3  279.57   12.20
  -3  -7   3  271.07   12.50
  -3  -7   3  226.08   11.90
  -3  -7   3  257.77   11.90
  -3  -7   3  268.17   11.60
   3  -7  -3  270.57   12.40
  -3   7   3  243.88   12.40
  -3   7   3  281.67   12.50
   3   7  -3  229.98   12.40
  -3   7   3  273.67   12.30
  -3   7   3  298.37   12.00
  -3   7   3  268.87   12.90
  -1  -7   3 1917.61   77.39
  -1  -7   3 1903.51   78.09
  -1  -7   3 1721.53   77.99
  -1  -7   3 1872.21   77.99
   1  -7  -3 1935.51   77.39
  -1  -7   3 1774.62   77.99
   1  -7  -3 1840.82   78.39
   1  -7  -3 1693.13   78.09
   1   7  -3 1912.21   78.79
  -1   7   3 1763.02   78.39
  -1   7   3 2001.30   77.79
  -1   7   3 1915.41   78.89
  -1   7   3 1832.62   78.29
   1  -7   3    1.70    0.90
   1  -7   3    1.10    0.50
   1  -7   3    0.60    0.80
   1  -7   3    2.00    0.90
  -1  -7  -3    0.00    0.70
   1  -7   3    2.40    1.00
  -1  -7  -3    1.90    0.70
  -1  -7  -3    1.00    0.90
   1   7   3    0.40    0.80
  -1   7  -3    4.30    0.80
   1   7   3    2.20    1.20
  -1   7  -3    2.90    1.20
   1   7   3    0.30    1.30
   3  -7   3  211.78   10.60
   3  -7   3  223.28   10.00
  -3  -7  -3  227.88   10.30
   3  -7   3  220.48   10.70
  -3  -7  -3  227.98   10.90
  -3   7  -3  234.78    9.90
   3   7   3  212.38   11.10
   3   7   3  221.88   11.00
   3   7   3  214.58   10.50
  -3   7  -3  211.08   10.70
  -5  -7  -3  446.76   19.80
  -5  -7  -3  426.86   20.20
   5  -7   3  436.76   20.20
   5  -7   3  408.06   19.80
   5  -7   3  450.35   19.40
  -5   7  -3  449.66   19.20
   5   7   3  455.65   20.00
   5   7   3  442.66   20.80
   5   7   3  433.66   19.80
  -5   7  -3  439.66   20.00
   7  -7   3    3.80    1.30
  -7  -7  -3    4.00    1.60
  -7  -7  -3    2.10    1.40
   7  -7   3    4.20    1.70
   7  -7   3    2.00    1.40
  -7   7  -3    3.60    1.50
  -7   7  -3    3.80    1.40
   7   7   3    7.00    2.00
   7   7   3    3.60    1.30
  -9  -7  -3  409.86   18.70
  -9  -7  -3  376.56   19.30
   9  -7   3  406.76   19.40
   9  -7   3  403.16   18.30
   9  -7   3  388.96   18.70
  -9   7  -3  388.36   18.60
   9   7   3  405.06   19.20
  -9   7  -3  381.56   18.60
   9   7   3  371.56   18.00
  11  -7   3   39.20    4.30
  11  -7   3   43.50    5.30
 -11  -7  -3   31.50    4.60
 -11  -7  -3   33.40    4.30
  11  -7   3   38.70    4.10
  11   7   3   35.90    3.60
 -11   7  -3   37.50    4.10
  11   7   3   39.70    4.40
  13  -7   3  375.36   20.00
  13  -7   3  414.26   20.20
 -13  -7  -3  433.46   20.80
 -13  -7  -3  404.26   21.40
 -13   7  -3  416.56   20.40
 -13   7  -3  419.76   20.30
  18  -8  -3    0.30    2.10
 -18  -8   3   -1.00    2.10
 -18  -8   3    2.20    2.60
 -18   8   3   -1.90    1.70
 -16  -8   3    1.70    2.20
 -16  -8   3   -0.70    1.90
  16  -8  -3   -0.70    1.50
  16  -8  -3   -1.90    1.60
 -16   8   3    1.60    1.90
  14  -8  -3  102.69    7.00
 -14  -8   3  104.29    7.40
  14  -8  -3  112.39    6.90
 -14  -8   3   97.59    7.50
  14  -8  -3   91.29    7.50
 -14   8   3  107.99    6.80
  12  -8  -3   40.70    4.50
  12  -8  -3   41.10    4.80
 -12  -8   3   47.90    5.00
  12  -8  -3   43.70    4.50
 -12  -8   3   47.30    5.00
 -12   8   3   47.80    4.10
 -12   8   3   45.00    5.50
 -10  -8   3  299.37   15.90
  10  -8  -3  324.37   16.10
  10  -8  -3  323.27   15.80
 -10  -8   3  331.37   16.30
  10  -8  -3  296.07   16.00
 -10  -8   3  328.27   16.00
 -10   8   3  336.17   16.80
 -10   8   3  353.46   14.80
 -10   8   3  336.57   15.70
  -8  -8   3   76.29    5.00
  -8  -8   3   77.29    5.50
   8  -8  -3   79.69    5.30
   8  -8  -3   71.39    5.20
  -8  -8   3   69.09    5.00
  -8   8   3   82.29    5.10
  -8   8   3   81.29    5.60
  -8   8   3   83.09    4.50
  -8   8   3   83.89    4.50
   6  -8  -3  517.75   24.50
  -6  -8   3  512.75   24.00
  -6  -8   3  561.74   24.40
   6  -8  -3  551.44   24.80
  -6  -8   3  518.25   24.20
  -6   8   3  565.64   24.50
  -6   8   3  583.34   25.20
  -6   8   3  568.84   23.90
  -6   8   3  552.34   24.10
  -4  -8   3   35.10    2.80
   4  -8  -3   39.10    2.90
  -4  -8   3   41.50    2.20
  -4  -8   3   38.60    2.60
  -4  -8   3   31.00    2.50
   4  -8  -3   29.20    2.70
   4  -8  -3   39.60    3.40
  -4   8   3   38.60    2.70
   4   8  -3   36.70    3.50
  -4   8   3   35.50    3.10
  -4   8   3   35.20    2.80
  -4   8   3   38.90    3.30
  -2  -8   3   90.49    4.90
  -2  -8   3  100.99    5.00
  -2  -8   3  101.39    5.40
   2  -8  -3   99.49    5.40
  -2  -8   3  102.29    5.10
   2  -8  -3  104.19    5.30
  -2  -8   3   88.69    4.70
  -2  -8   3   98.69    5.10
  -2   8   3   98.49    5.70
  -2   8   3   92.99    5.40
  -2   8   3   94.89    5.80
   2   8  -3  105.09    5.90
  -2   8   3   91.49    5.00
  -2   8   3   99.09    5.40
   0  -8   3  716.03   33.10
   0  -8   3  785.42   33.10
   0  -8  -3  732.53   33.30
   0  -8   3  789.22   33.20
   0  -8  -3  814.42   32.70
   0  -8   3  800.62   33.30
   0  -8   3  807.62   32.60
   0  -8  -3  777.12   33.50
   0   8  -3  720.43   33.80
   0   8  -3  791.72   32.90
   0   8   3  778.82   34.00
   0   8   3  771.52   33.20
   0   8   3  727.63   33.70
   2  -8   3  367.96   17.10
  -2  -8  -3  391.06   17.30
  -2  -8  -3  384.76   16.80
   2  -8   3  381.86   17.10
   2  -8   3  381.56   17.30
   2  -8   3  394.86   16.60
   2   8   3  351.06   17.70
  -2   8  -3  388.96   16.60
   2   8   3  373.66   17.00
  -2   8  -3  380.56   17.60
   2   8   3  378.06   17.80
  -4  -8  -3  376.86   17.10
   4  -8   3  353.46   16.90
  -4  -8  -3  370.66   16.70
   4  -8   3  358.86   17.00
   4  -8   3  374.66   16.30
   4   8   3  340.37   17.60
  -4   8  -3  350.56   17.00
  -4   8  -3  390.76   16.20
   4   8   3  376.66   16.70
   4   8   3  366.06   17.30
  -6  -8  -3  243.98   12.40
   6  -8   3  243.18   12.40
   6  -8   3  249.88   11.50
  -6  -8  -3  253.77   12.00
   6  -8   3  237.68   12.10
   6   8   3  240.88   12.80
   6   8   3  240.78   11.90
  -6   8  -3  239.78   12.10
   8  -8   3   40.00    3.40
  -8  -8  -3   40.30    4.10
  -8  -8  -3   39.80    4.50
   8  -8   3   36.90    4.00
   8  -8   3   40.80    4.60
  -8   8  -3   40.00    4.10
   8   8   3   47.80    4.80
  10  -8   3    1.70    1.80
 -10  -8  -3    0.80    1.80
 -10  -8  -3    1.00    1.80
  10  -8   3    0.90    1.90
  10  -8   3    0.50    1.40
  10   8   3    0.80    1.50
 -10   8  -3   -0.50    1.30
  12  -8   3   13.30    2.80
 -12  -8  -3   12.70    3.00
  12  -8   3   14.00    3.10
 -12  -8  -3   10.30    2.90
  12  -8   3   11.70    3.10
 -12   8  -3   11.50    2.60
 -12   8  -3   11.90    2.90
 -14  -8  -3   37.70    5.30
  14  -8   3   36.60    4.90
 -14   8  -3   42.40    5.20
  17  -9  -3   29.60    4.60
 -17  -9   3   30.90    4.80
 -17  -9   3   25.30    4.70
 -17   9   3   21.20    3.60
  15  -9  -3   11.80    3.20
 -15  -9   3   12.50    3.40
  15  -9  -3   11.40    3.00
  15  -9  -3   13.30    2.80
 -15  -9   3   13.70    3.40
 -15   9   3   10.50    2.40
 -13  -9   3   72.59    5.90
 -13  -9   3   70.89    6.00
  13  -9  -3   76.89    5.60
  13  -9  -3   59.69    6.30
  13  -9  -3   60.49    5.50
 -13   9   3   73.19    6.40
 -13   9   3   66.99    5.10
 -11  -9   3   18.40    3.30
  11  -9  -3   22.00    3.20
 -11  -9   3   22.70    3.30
  11  -9  -3   18.10    3.00
  11  -9  -3   17.60    3.20
 -11   9   3   17.20    2.70
 -11   9   3   22.10    3.50
 -11   9   3   23.80    2.60
  -9  -9   3   33.30    3.60
  -9  -9   3   32.60    4.00
   9  -9  -3   34.60    3.90
   9  -9  -3   26.20    3.50
  -9  -9   3   34.50    3.20
  -9   9   3   33.60    2.60
  -9   9   3   39.20    3.50
  -9   9   3   32.90    4.10
  -9   9   3   35.10    2.90
   7  -9  -3   53.69    4.20
  -7  -9   3   52.69    4.60
  -7  -9   3   57.49    4.00
   7  -9  -3   60.79    4.50
  -7  -9   3   53.79    3.80
  -7   9   3   52.89    4.30
  -7   9   3   54.79    3.60
  -7   9   3   64.09    3.80
  -7   9   3   57.59    4.10
   5  -9  -3   88.19    6.00
  -5  -9   3   93.09    5.20
  -5  -9   3   94.89    5.10
  -5  -9   3  103.89    4.70
  -5  -9   3   90.79    5.20
   5  -9  -3   90.99    5.60
  -5   9   3   96.69    5.40
  -5   9   3  104.59    5.30
   5   9  -3   88.69    5.80
  -5   9   3  101.59    6.00
  -5   9   3  100.19    5.90
  -3  -9   3   70.19    3.70
  -3  -9   3   71.09    3.70
   3  -9  -3   69.59    4.00
  -3  -9   3   63.59    3.80
   3  -9  -3   51.79    4.00
  -3  -9   3   55.19    3.50
   3   9  -3   62.99    4.50
  -3   9   3   59.79    4.30
  -3   9   3   59.99    4.50
  -3   9   3   74.99    4.00
  -3   9   3   61.99    4.20
  -1  -9   3    4.70    1.30
  -1  -9   3    4.20    1.00
   1  -9  -3    6.60    0.80
   1  -9  -3    6.10    1.30
  -1  -9   3    5.90    1.00
   1  -9  -3    6.10    1.30
  -1  -9   3    5.90    1.10
  -1  -9   3    2.90    0.90
   1   9  -3    2.70    1.50
  -1   9   3    2.90    1.50
  -1   9   3    5.10    1.30
  -1   9   3    4.80    1.30
  -1   9   3    2.60    1.40
  -1   9   3    4.80    1.40
   1  -9   3   12.00    1.70
  -1  -9  -3   19.60    1.80
  -1  -9  -3   15.30    1.90
   1  -9   3   18.10    1.60
   1  -9   3   20.00    2.00
   1  -9   3   17.40    1.80
   1  -9   3   13.30    2.00
  -1   9  -3   16.80    2.50
   1   9   3   17.00    2.50
   1   9   3   15.60    1.90
   1   9   3   12.90    2.30
  -1   9  -3   17.10    1.80
  -3  -9  -3   83.39    4.80
   3  -9   3   76.19    4.20
   3  -9   3   68.49    4.70
   3  -9   3   82.79    4.60
   3  -9   3   79.19    4.90
  -3  -9  -3   75.79    4.50
   3   9   3   74.19    5.40
   3   9   3   78.79    4.50
  -3   9  -3   84.19    4.20
  -3   9  -3   73.19    5.00
   3   9   3   71.49    5.30
   5  -9   3   -2.20    0.90
  -5  -9  -3   -0.30    1.10
   5  -9   3    1.50    1.40
   5  -9   3    0.70    0.90
  -5  -9  -3    2.20    1.20
   5   9   3    2.30    1.60
   5   9   3    0.60    0.90
  -5   9  -3    1.30    1.30
   5   9   3    0.40    1.40
   7  -9   3   17.90    2.80
   7  -9   3   19.10    2.40
  -7  -9  -3   19.20    2.90
  -7  -9  -3   17.50    2.60
   7  -9   3   14.40    2.70
   7   9   3   21.00    2.70
  -7   9  -3   15.60    2.60
   7   9   3   14.40    2.80
  -9  -9  -3   -2.50    1.40
   9  -9   3    0.50    1.30
   9  -9   3   -0.10    1.60
   9  -9   3   -0.70    1.60
  -9  -9  -3    1.60    1.80
  -9   9  -3    2.00    1.60
   9   9   3    1.00    1.50
  11  -9   3    5.00    2.40
  11  -9   3    6.00    2.40
 -11  -9  -3    5.80    2.30
 -11  -9  -3    4.20    2.20
  11   9   3    4.60    2.20
 -11   9  -3    8.10    2.30
  13  -9   3   15.90    3.30
 -13  -9  -3   22.40    4.00
 -13  -9  -3   11.30    3.00
 -13   9  -3   14.60    3.20
  16 -10  -3   94.99    7.50
  16 -10  -3   97.39    7.00
 -16 -10   3   96.49    7.60
 -16 -10   3  102.99    8.00
 -16  10   3   78.99    6.50
 -16  10   3   79.29    6.00
  14 -10  -3    4.40    2.50
 -14 -10   3    3.60    2.10
 -14 -10   3    2.80    2.60
  14 -10  -3    3.80    2.30
  14 -10  -3    2.50    2.10
 -14  10   3    3.30    1.70
 -14  10   3    4.90    1.90
  12 -10  -3  291.27   16.20
  12 -10  -3  310.77   16.10
 -12 -10   3  325.27   16.10
 -12 -10   3  334.77   16.80
  12 -10  -3  302.67   16.10
 -12  10   3  304.27   15.40
 -12  10   3  312.67   15.00
 -12  10   3  318.27   16.60
 -10 -10   3   27.90    4.30
 -10 -10   3   37.20    4.00
  10 -10  -3   38.00    4.30
  10 -10  -3   36.60    4.40
  10 -10  -3   43.70    4.60
 -10  10   3   41.90    4.10
 -10  10   3   39.50    3.20
 -10  10   3   39.60    3.60
   8 -10  -3  358.96   17.40
  -8 -10   3  320.27   17.50
   8 -10  -3  359.86   17.20
  -8 -10   3  344.27   16.70
  -8  10   3  347.67   17.20
  -8  10   3  356.56   17.00
  -8  10   3  373.86   16.40
  -8  10   3  380.16   16.50
  -6 -10   3    0.50    0.90
   6 -10  -3    1.80    1.20
   6 -10  -3   -0.50    1.20
  -6  10   3    1.10    1.10
  -6  10   3    0.80    0.90
  -6  10   3    0.20    1.20
  -6  10   3   -0.20    0.80
   4 -10  -3   62.69    4.80
  -4 -10   3   71.49    3.80
   4 -10  -3   69.79    4.20
  -4 -10   3   60.69    3.70
  -4 -10   3   71.29    3.80
   4  10  -3   58.79    4.70
  -4  10   3   63.39    4.30
  -4  10   3   72.29    4.10
  -4  10   3   62.19    4.30
  -4  10   3   58.69    4.60
  -2 -10   3  331.07   15.30
  -2 -10   3  315.17   14.90
  -2 -10   3  350.96   15.10
  -2 -10   3  360.66   15.10
   2 -10  -3  337.17   15.30
   2  10  -3  341.67   16.10
  -2  10   3  336.17   15.40
  -2  10   3  337.37   15.70
  -2  10   3  312.17   16.10
  -2  10   3  364.26   15.50
  -2  10   3  329.27   15.90
   0 -10  -3  162.78    7.30
   0 -10   3  152.98    7.40
   0 -10   3  161.38    7.60
   0 -10   3  167.58    7.50
   0 -10   3  145.69    7.50
   0 -10  -3  151.28    7.70
   0 -10   3  155.28    8.00
   0  10   3  150.38    8.50
   0  10   3  152.78    7.70
   0  10   3  161.68    8.70
   0  10  -3  163.28    8.60
   0  10  -3  151.38    7.70
   2 -10   3  614.74   26.90
   2 -10   3  650.33   26.00
   2 -10   3  605.84   26.10
   2 -10   3  543.85   26.30
  -2 -10  -3  594.94   26.40
  -2 -10  -3  605.94   26.20
  -2  10  -3  570.44   27.10
   2  10   3  598.74   27.40
   2  10   3  605.14   26.20
   2  10   3  564.94   27.40
  -2  10  -3  636.24   26.10
  -4 -10  -3   57.09    3.90
   4 -10   3   48.50    3.60
   4 -10   3   54.79    4.20
   4 -10   3   51.79    4.00
   4 -10   3   58.99    3.60
  -4 -10  -3   54.99    3.90
  -4  10  -3   54.69    4.30
   4  10   3   49.50    4.40
   4  10   3   58.89    3.70
   4  10   3   50.49    4.50
   6 -10   3  468.55   20.30
  -6 -10  -3  459.45   20.90
  -6 -10  -3  462.05   20.80
   6 -10   3  483.55   21.40
   6 -10   3  388.86   20.80
   6  10   3  450.35   20.40
  -6  10  -3  441.96   21.00
   6  10   3  433.36   21.50
   8 -10   3   42.80    4.80
   8 -10   3   50.19    4.30
  -8 -10  -3   42.60    4.50
   8 -10   3   42.00    4.60
  -8 -10  -3   41.40    4.50
  -8  10  -3   40.60    4.40
   8  10   3   48.90    5.10
   8  10   3   44.30    3.70
 -10 -10  -3   67.89    5.70
  10 -10   3   63.09    6.60
 -10 -10  -3   71.89    5.80
  10 -10   3   68.59    5.80
  10  10   3   68.09    5.20
 -10  10  -3   71.89    5.70
  10  10   3   68.59    5.90
  12 -10   3   24.80    4.30
 -12 -10  -3   26.20    4.30
  12 -10   3   29.90    4.90
 -12 -10  -3   42.20    5.30
 -12  10  -3   35.70    4.60
  12  10   3   33.70    4.60
 -15 -11   3    6.60    2.60
  15 -11  -3    1.20    2.30
 -15 -11   3   -1.20    2.30
  15 -11  -3    7.50    3.00
  15 -11  -3    3.20    2.60
 -15  11   3    3.80    2.00
 -15  11   3    5.20    2.10
  13 -11  -3   78.29    6.30
 -13 -11   3   52.89    6.40
  13 -11  -3   59.89    6.30
 -13 -11   3   69.09    5.60
  13 -11  -3   72.29    7.00
 -13  11   3   62.99    5.10
 -13  11   3   62.69    4.70
  11 -11  -3   84.99    6.30
 -11 -11   3   77.39    6.80
  11 -11  -3   68.99    6.00
  11 -11  -3   71.59    6.10
 -11 -11   3   95.59    6.00
 -11  11   3   84.09    5.30
 -11  11   3   71.79    5.50
 -11  11   3   76.09    6.00
   9 -11  -3    0.60    1.40
   9 -11  -3    3.90    2.10
  -9 -11   3    4.40    1.50
  -9 -11   3    1.70    1.80
  -9  11   3    2.10    1.30
  -9  11   3    4.30    1.60
  -9  11   3    3.50    1.60
  -7 -11   3  888.11   40.20
   7 -11  -3  931.31   39.50
  -7 -11   3  875.51   38.90
   7 -11  -3  870.71   40.10
  -7  11   3  872.01   39.00
  -7  11   3  911.41   39.10
  -7  11   3  907.31   39.50
  -7  11   3  906.31   39.70
  -5 -11   3  228.88   10.50
   5 -11  -3  231.68   10.90
   5 -11  -3  216.38   11.70
   5  11  -3  205.38   11.50
  -5  11   3  225.58   11.00
  -5  11   3  211.68   11.00
  -5  11   3  222.08   10.70
  -5  11   3  222.18   11.60
  -3 -11   3 1209.18   49.30
  -3 -11   3 1103.49   49.20
   3 -11  -3 1138.39   50.59
  -3 -11   3 1127.69   49.60
   3 -11  -3 1191.58   49.70
   3  11  -3 1163.88   50.49
  -3  11   3 1099.09   50.19
  -3  11   3 1195.78   49.90
  -3  11   3 1074.19   50.59
  -3  11   3 1291.67   49.80
  -1 -11   3   26.80    2.90
  -1 -11   3   29.60    2.20
  -1 -11   3   30.70    2.20
   1 -11  -3   27.60    2.40
  -1 -11   3   27.10    2.50
   1  11  -3   33.70    2.70
  -1  11   3   31.90    2.70
  -1  11   3   33.50    2.40
   1  11  -3   31.10    3.40
  -1  11   3   25.80    3.20
  -1  11   3   27.50    3.30
  -1  11   3   31.20    3.00
  -1 -11  -3  674.13   29.60
   1 -11   3  681.83   30.20
   1 -11   3  691.03   31.00
  -1 -11  -3  667.63   29.60
   1 -11   3  636.34   29.50
  -1  11  -3  717.93   29.60
   1  11   3  712.63   29.50
  -1  11  -3  638.14   30.40
   1  11   3  668.23   30.90
   1  11   3  700.33   30.70
   3 -11   3  125.39    7.40
   3 -11   3  145.69    8.10
  -3 -11  -3  146.99    7.40
  -3 -11  -3  148.59    7.40
   3  11   3  148.19    7.10
   3  11   3  128.09    8.20
  -3  11  -3  138.09    8.10
   3  11   3  132.59    8.20
   5 -11   3   26.30    3.40
   5 -11   3   25.70    2.80
   5 -11   3   22.10    2.90
  -5 -11  -3   21.30    2.90
  -5 -11  -3   21.80    2.70
   5  11   3   26.90    2.70
  -5  11  -3   23.00    3.20
   5  11   3   25.90    3.60
   5  11   3   24.20    3.60
  -7 -11  -3  568.84   25.70
   7 -11   3  530.25   26.00
   7 -11   3  592.64   26.40
  -7 -11  -3  560.24   25.80
   7  11   3  558.14   26.40
  -7  11  -3  540.05   25.90
  -9 -11  -3    1.20    1.60
   9 -11   3    1.20    1.90
   9 -11   3    3.20    2.20
  -9 -11  -3    6.50    2.50
  -9  11  -3    1.10    1.60
   9  11   3    1.70    1.90
  11 -11   3  536.55   25.50
  11 -11   3  493.75   25.50
 -11 -11  -3  506.05   25.10
 -11 -11  -3  530.55   25.20
 -11  11  -3  496.05   24.70
  11  11   3  528.25   25.30
  16 -12  -3    5.70    2.70
  16 -12  -3    2.10    2.80
 -16 -12   3    3.00    3.30
  16 -12  -3    1.10    2.50
 -16 -12   3    1.10    1.90
 -16  12   3    1.40    1.60
 -16  12   3   -0.40    1.70
  14 -12  -3   69.19    7.30
 -14 -12   3   61.19    7.20
  14 -12  -3   69.39    7.20
  14 -12  -3   65.39    7.00
 -14 -12   3   74.49    5.90
 -14  12   3   65.39    5.50
 -14  12   3   58.99    5.00
 -12 -12   3   48.50    4.40
  12 -12  -3   38.40    5.10
 -12 -12   3   36.40    5.20
  12 -12  -3   46.40    5.40
  12 -12  -3   47.10    5.20
 -12  12   3   43.20    4.60
 -12  12   3   46.30    4.50
 -10 -12   3   29.10    4.40
  10 -12  -3   23.60    4.10
  10 -12  -3   29.90    3.90
  10 -12  -3   31.30    4.20
 -10 -12   3   22.90    3.10
 -10  12   3   32.90    3.90
 -10  12   3   30.10    3.40
 -10  12   3   25.90    3.60
   8 -12  -3    2.40    1.50
  -8 -12   3    2.60    2.10
   8 -12  -3    3.20    1.90
  -8 -12   3    4.60    1.40
  -8  12   3    3.20    1.50
  -8  12   3    5.70    2.00
  -8  12   3    2.70    1.20
  -8  12   3    4.70    1.50
   6 -12  -3    1.00    1.60
   6 -12  -3   -0.70    0.90
  -6 -12   3    1.00    0.90
  -6  12   3    1.60    1.20
  -6  12   3   -0.40    0.80
  -6  12   3    0.70    1.30
  -6  12   3    0.30    1.10
  -4 -12   3   32.40    2.70
  -4 -12   3   26.10    2.20
   4 -12  -3   34.00    2.70
  -4 -12   3   34.80    2.60
   4 -12  -3   37.00    4.00
  -4  12   3   29.20    3.30
   4  12  -3   35.50    3.90
  -4  12   3   32.50    2.80
  -4  12   3   31.10    3.70
  -2 -12   3   41.20    3.30
  -2 -12   3   42.90    2.60
  -2 -12   3   39.50    2.60
   2 -12  -3   35.40    2.80
  -2  12   3   43.30    3.20
  -2  12   3   35.10    3.90
  -2  12   3   43.20    3.80
   2  12  -3   41.00    4.10
   0 -12   3  156.48    7.60
   0 -12   3  154.68    8.40
   0 -12  -3  157.08    7.70
   0  12  -3  153.38    8.70
   0  12   3  151.18    9.00
   0  12   3  151.68    8.80
   0  12  -3  162.68    8.10
   2 -12   3    9.10    2.20
  -2 -12  -3   11.90    1.70
   2 -12   3   10.50    1.80
  -2  12  -3   12.80    2.50
   2  12   3    8.90    2.20
   2  12   3   12.40    2.50
  -4 -12  -3  302.17   14.50
   4 -12   3  322.07   14.80
   4 -12   3  302.47   15.40
  -4 -12  -3  310.57   14.40
  -4  12  -3  295.17   15.40
   4  12   3  304.07   15.60
   4  12   3  294.07   15.50
  -6 -12  -3   16.50    2.50
   6 -12   3   15.50    3.20
   6 -12   3   14.30    2.70
  -6 -12  -3   18.20    2.90
   6  12   3   22.90    3.50
  -6  12  -3   13.50    2.80
  -8 -12  -3  127.29    7.80
   8 -12   3  127.39    8.60
   8 -12   3  117.89    8.20
  -8 -12  -3  125.59    8.10
   8  12   3  135.19    8.50
  -8  12  -3  129.99    8.30
  10 -12   3   34.90    4.80
  10 -12   3   29.90    4.80
 -10 -12  -3   28.50    3.80
 -10 -12  -3   23.60    4.00
  10  12   3   40.50    5.00
 -10  12  -3   37.90    4.70
 -12 -12  -3   18.00    4.00
  12 -12   3   21.80    4.50
  12 -12   3   14.80    3.50
 -12 -12  -3   13.30    3.00
 -12  12  -3   17.50    3.60
  12  12   3   28.00    4.50
  15 -13  -3   -1.40    2.50
  15 -13  -3    2.60    2.50
 -15 -13   3   -0.30    2.40
 -15 -13   3    1.10    1.80
  15 -13  -3   -0.10    2.70
 -15  13   3    2.10    2.00
 -15  13   3    0.90    1.80
  13 -13  -3   61.99    6.40
 -13 -13   3   68.49    5.30
 -13 -13   3   64.49    7.40
  13 -13  -3   50.59    6.40
  13 -13  -3   59.69    6.80
 -13  13   3   59.19    5.40
 -13  13   3   62.29    5.10
  11 -13  -3    2.20    1.70
  11 -13  -3   -1.20    2.20
 -11 -13   3   -0.80    2.10
 -11 -13   3   -0.80    1.10
  11 -13  -3   -0.80    1.60
 -11  13   3    3.10    1.50
 -11  13   3   -0.70    1.40
  -9 -13   3  100.89    5.90
   9 -13  -3   85.99    7.10
   9 -13  -3   94.69    6.40
  -9 -13   3  102.69    7.30
  -9  13   3   91.09    6.20
  -9  13   3   96.29    6.80
   7 -13  -3   15.60    3.20
   7 -13  -3   15.50    2.40
  -7 -13   3   15.30    2.00
  -7 -13   3   10.80    2.60
  -7  13   3   17.50    2.60
  -7  13   3   14.50    2.90
  -7  13   3   18.60    2.60
   5 -13  -3   43.70    3.30
   5 -13  -3   40.40    4.40
  -5 -13   3   38.80    2.70
   5  13  -3   32.70    4.10
  -5  13   3   40.90    3.30
  -5  13   3   39.80    4.10
  -5  13   3   37.40    4.30
  -3 -13   3  190.98    8.80
   3 -13  -3  187.48    9.30
   3 -13  -3  196.08   10.50
  -3 -13   3  169.18    9.40
  -3  13   3  203.38    9.60
  -3  13   3  193.58   10.40
  -3  13   3  180.88   10.30
   3  13  -3  202.08   10.50
   1 -13  -3    6.50    1.30
  -1 -13   3    7.00    1.20
  -1 -13   3    8.40    1.90
   1  13  -3    4.70    1.50
  -1  13   3    5.70    1.80
  -1  13   3   11.20    2.10
  -1  13   3    5.20    2.00
   1  13  -3   10.00    2.20
  -1 -13  -3    5.80    1.30
   1 -13   3    5.40    1.30
   1 -13   3    7.60    2.00
   1  13   3    4.80    1.90
  -1  13  -3    9.20    1.60
   1  13   3    6.20    2.00
  -1  13  -3    7.80    2.10
  -3 -13  -3    5.80    1.40
   3 -13   3    1.30    1.80
   3 -13   3    7.10    1.60
   3  13   3    3.10    1.80
   3  13   3    4.40    1.80
  -3  13  -3    7.50    2.20
  -5 -13  -3    4.40    1.40
   5 -13   3    2.50    2.10
   5 -13   3    4.90    1.80
   5  13   3    5.00    2.10
  -5  13  -3    1.20    1.80
   5  13   3    3.10    2.20
  -7 -13  -3   34.30    4.10
   7 -13   3   31.70    4.50
   7 -13   3   29.40    3.80
  -7 -13  -3   32.30    3.60
  -7  13  -3   28.60    4.10
   7  13   3   28.70    4.00
  -9 -13  -3    5.90    2.00
  -9 -13  -3    5.10    2.40
   9 -13   3    1.80    2.50
   9 -13   3    7.50    2.60
   9  13   3    1.30    1.90
  -9  13  -3    4.80    2.40
  11 -13   3   18.90    3.90
 -11 -13  -3   11.20    3.40
 -11 -13  -3   16.40    3.20
  11 -13   3   14.50    3.80
  11  13   3   16.40    3.50
 -11  13  -3   16.10    3.50
 -14 -14   3  179.48   12.30
  14 -14  -3  187.28   12.40
  14 -14  -3  186.58   11.40
  14 -14  -3  174.98   11.70
 -14 -14   3  170.58   10.30
 -14  14   3  183.68   10.90
 -14  14   3  179.78   10.50
  12 -14  -3    6.80    2.70
 -12 -14   3    5.80    1.90
  12 -14  -3    9.10    3.40
  12 -14  -3    4.70    2.30
 -12 -14   3   13.20    3.60
 -12  14   3    8.90    2.40
 -12  14   3    2.40    2.10
 -10 -14   3  480.85   23.50
  10 -14  -3  496.65   22.50
 -10 -14   3  446.86   21.50
  10 -14  -3  487.05   23.20
  10 -14  -3  411.96   23.00
 -10  14   3  482.85   22.90
 -10  14   3  469.15   22.20
  -8 -14   3    4.80    1.40
  -8 -14   3    6.60    2.40
   8 -14  -3    5.60    2.40
   8 -14  -3    7.70    2.00
  -8  14   3    6.90    2.00
  -8  14   3    6.40    2.30
   6 -14  -3  321.37   16.10
   6 -14  -3  301.37   14.80
  -6 -14   3  310.47   14.20
  -6 -14   3  296.07   15.60
  -6  14   3  320.47   16.10
  -6  14   3  312.67   15.40
  -6  14   3  307.27   14.80
   4 -14  -3   77.59    4.80
   4 -14  -3   79.89    6.00
  -4 -14   3   80.59    4.30
   4  14  -3   83.69    5.90
  -4  14   3   73.19    5.80
  -4  14   3   80.79    5.70
  -4  14   3   89.49    5.20
   2 -14  -3   12.50    1.70
  -2 -14   3   14.50    1.60
  -2 -14   3   14.60    2.40
  -2  14   3   18.30    3.00
  -2  14   3   15.00    2.30
   2  14  -3   15.00    2.70
  -2  14   3   13.50    2.70
   0 -14   3  670.13   31.70
   0 -14  -3  698.03   30.70
   0 -14   3  720.03   30.50
   0  14  -3  742.13   31.30
   0  14   3  716.43   32.40
   0  14  -3  684.73   31.90
   0  14   3  699.63   32.10
   2 -14   3   32.60    4.20
  -2 -14  -3   36.90    2.90
   2 -14   3   39.10    3.10
   2  14   3   39.20    4.50
   2  14   3   37.70    4.50
  -2  14  -3   33.30    4.10
  -4 -14  -3  388.56   17.60
   4 -14   3  346.37   18.90
   4 -14   3  403.46   18.00
   4  14   3  369.86   19.00
   4  14   3  406.46   19.30
  -4  14  -3  363.46   18.90
  -6 -14  -3    0.00    1.10
   6 -14   3    1.10    2.10
   6 -14   3    0.80    1.40
  -6  14  -3    1.30    1.80
   6  14   3    0.30    1.70
  -8 -14  -3  167.58    9.50
   8 -14   3  181.88   10.20
   8 -14   3  160.18   10.80
  -8  14  -3  148.79   10.20
   8  14   3  178.78   10.60
 -10 -14  -3   34.10    4.20
  10 -14   3   39.70    5.00
  10 -14   3   33.20    5.40
  10  14   3   47.60    5.60
 -10  14  -3   43.90    5.50
  13 -15  -3   36.80    4.90
  13 -15  -3   35.70    5.80
  13 -15  -3   31.80    4.90
 -13 -15   3   40.80    5.90
 -13 -15   3   29.00    3.70
 -13  15   3   33.70    4.80
 -11 -15   3   19.70    4.10
  11 -15  -3   18.30    4.10
 -11 -15   3   20.80    2.80
  11 -15  -3   16.30    3.00
  11 -15  -3   23.60    4.20
 -11  15   3   17.20    3.50
 -11  15   3   25.70    3.70
   9 -15  -3   59.89    6.80
  -9 -15   3   69.89    4.60
  -9 -15   3   84.49    6.40
   9 -15  -3   61.09    5.10
   9 -15  -3   78.79    6.10
  -9  15   3   69.49    5.90
  -9  15   3   67.09    5.30
  -7 -15   3   77.09    6.00
   7 -15  -3   75.59    5.20
   7 -15  -3   71.59    6.20
  -7 -15   3   78.19    4.60
  -7  15   3   79.09    5.40
  -7  15   3   88.19    6.70
   5 -15  -3  188.28   10.90
   5 -15  -3  183.98    9.50
  -5 -15   3  184.08    8.90
  -5  15   3  194.08   10.90
  -5  15   3  202.38    9.80
   5  15  -3  187.18   10.80
  -5  15   3  179.88   10.30
  -3 -15   3   49.60    3.10
   3 -15  -3   53.59    4.60
   3 -15  -3   54.59    3.60
  -3  15   3   61.79    4.80
  -3  15   3   53.89    4.70
  -3  15   3   57.39    4.10
   3  15  -3   49.20    5.00
  -1 -15   3  169.38    8.10
  -1 -15   3  184.68    9.60
   1 -15  -3  164.18    8.40
   1  15  -3  158.78    9.60
  -1  15   3  176.18   10.10
  -1  15   3  177.98   10.00
  -1  15   3  177.98    9.30
   1 -15   3    0.30    0.80
   1 -15   3   -0.50    1.60
  -1 -15  -3    0.80    0.90
   1  15   3   -0.10    1.50
   1  15   3    2.30    1.80
  -1  15  -3    1.20    1.70
   3 -15   3   46.40    3.60
   3 -15   3   53.39    5.50
  -3 -15  -3   45.10    3.30
   3  15   3   41.20    4.90
   3  15   3   37.20    4.60
  -3  15  -3   44.20    4.90
   5 -15   3  160.48    8.70
   5 -15   3  131.39    9.50
  -5 -15  -3  160.08    8.40
   5  15   3  161.08    9.70
   5  15   3  149.99    9.80
  -5  15  -3  156.58    9.80
   7 -15   3   -1.00    1.20
   7 -15   3    2.80    2.80
  -7 -15  -3    1.60    1.30
  -7  15  -3    0.60    2.10
   7  15   3   -1.20    1.40
   9 -15   3  105.79    8.90
   9 -15   3  128.09    8.30
  -9 -15  -3  129.19    7.70
   9  15   3  119.29    8.40
  -9  15  -3  106.89    8.50
 -12 -16   3   31.30    5.10
 -12 -16   3   23.90    3.10
  12 -16  -3   19.20    4.50
  12 -16  -3   29.80    4.50
  12 -16  -3   31.20    4.10
 -12  16   3   19.90    3.80
 -10 -16   3   51.19    4.00
  10 -16  -3   55.89    6.60
  10 -16  -3   65.19    6.50
 -10 -16   3   62.79    6.40
  10 -16  -3   49.60    4.60
 -10  16   3   50.79    6.10
   8 -16  -3    3.50    2.20
   8 -16  -3    2.10    1.40
  -8 -16   3    2.90    1.20
  -8 -16   3   -0.30    1.70
  -8  16   3    0.50    2.10
  -8  16   3    6.10    2.60
  -6 -16   3   68.99    4.20
   6 -16  -3   82.49    6.40
   6 -16  -3   80.79    5.00
  -6 -16   3   73.89    5.70
  -6  16   3   77.79    5.20
  -6  16   3   80.89    6.30
  -6  16   3   70.19    5.40
  -4 -16   3    8.80    1.30
   4 -16  -3    6.20    1.40
   4 -16  -3    9.40    2.60
  -4  16   3    8.80    2.20
   4  16  -3    4.40    2.10
  -4  16   3    9.80    2.60
  -4  16   3    4.70    1.60
   2 -16  -3  101.39    6.90
   2 -16  -3  100.89    5.60
  -2 -16   3   99.19    5.20
  -2  16   3  101.99    7.00
  -2  16   3   98.49    7.00
   2  16  -3  106.79    7.00
  -2  16   3  115.49    6.50
   0 -16   3   22.60    2.00
   0 -16  -3   20.00    2.20
   0 -16   3   23.00    3.50
   0  16   3   20.70    3.50
   0  16   3   24.00    3.50
   0  16  -3   19.70    3.10
   2 -16   3  102.69    7.60
  -2 -16  -3  112.79    6.20
   2 -16   3  111.49    6.20
  -2  16  -3  111.49    7.50
   2  16   3  117.69    7.70
   2  16   3  123.89    7.90
  -4 -16  -3   27.10    2.80
   4 -16   3   30.30    3.20
   4 -16   3   18.20    3.70
  -4  16  -3   22.80    3.90
   4  16   3   25.30    3.80
   4  16   3   30.40    4.30
   6 -16   3  142.79   10.40
   6 -16   3  161.98    9.20
  -6 -16  -3  174.48    9.00
   6  16   3  163.98   10.10
  -6  16  -3  167.38   10.50
   8 -16   3   23.70    3.50
   8 -16   3   22.70    4.40
  -8 -16  -3   19.70    3.00
   8  16   3   28.00    4.30
  -8  16  -3   24.40    4.30
 -11 -17   3   17.60    2.60
 -11 -17   3   22.10    4.10
  11 -17  -3   22.30    4.60
  11 -17  -3   18.90    3.90
  11 -17  -3   25.70    3.60
 -11  17   3   21.50    4.00
  -9 -17   3   16.20    3.50
   9 -17  -3   17.00    3.90
  -9 -17   3   17.20    2.30
   9 -17  -3   16.00    2.70
   9 -17  -3   20.60    3.60
  -9  17   3   14.70    3.30
  -7 -17   3    8.70    1.50
   7 -17  -3    6.40    2.80
   7 -17  -3    9.90    2.10
  -7 -17   3    9.40    2.60
  -7  17   3    6.40    2.50
  -5 -17   3   14.20    1.60
   5 -17  -3   11.40    2.80
  -5 -17   3   17.70    3.10
   5 -17  -3   13.60    2.10
  -5  17   3   18.60    3.40
   5  17  -3   11.60    2.90
  -5  17   3   14.70    2.70
   3 -17  -3   52.39    3.70
  -3 -17   3   54.69    3.20
   3 -17  -3   61.59    5.10
   3  17  -3   59.19    5.70
  -3  17   3   61.39    5.00
  -3  17   3   59.99    5.30
  -1 -17   3    4.40    1.00
   1 -17  -3    3.50    1.80
   1 -17  -3    6.10    1.30
  -1  17   3    3.50    1.90
   1  17  -3    3.70    2.00
  -1  17   3    6.20    2.20
   1 -17   3   16.20    3.10
  -1 -17  -3   11.40    1.80
   1 -17   3   12.30    1.70
   1  17   3   10.50    2.70
  -1  17  -3   11.60    2.80
   1  17   3   12.60    2.80
   3 -17   3   11.60    1.90
  -3 -17  -3   10.20    1.80
   3 -17   3    9.70    2.80
   3  17   3   11.30    2.80
   3  17   3    8.50    2.70
  -3  17  -3    3.70    2.30
  -5 -17  -3    0.10    1.00
   5 -17   3   -0.50    1.20
   5 -17   3   -0.20    2.30
  -5  17  -3    2.10    2.20
   5  17   3    0.70    1.60
   7 -17   3  100.29    6.80
  -7 -17  -3   95.69    6.40
   7 -17   3  115.89    8.60
  -7  17  -3   93.39    7.70
   7  17   3  106.69    7.70
  10 -18  -3    7.40    2.90
  10 -18  -3   12.70    2.50
 -10 -18   3    9.90    1.90
  10 -18  -3   10.60    3.50
 -10 -18   3   15.00    3.50
 -10  18   3   12.70    3.10
   8 -18  -3  124.79    8.50
   8 -18  -3  118.29    8.80
  -8 -18   3  132.49    8.60
   8 -18  -3  120.29    7.40
  -8 -18   3  126.49    6.70
  -8  18   3  138.69    9.10
  -6 -18   3  134.69    8.60
   6 -18  -3  138.49    7.60
  -6 -18   3  133.89    6.70
   6 -18  -3  131.99    9.00
  -6  18   3  137.09    9.00
  -4 -18   3   73.29    4.00
   4 -18  -3   78.49    6.30
   4 -18  -3   75.49    4.80
   4  18  -3   81.89    6.30
  -4  18   3   81.99    6.00
  -4  18   3   86.69    6.60
   2 -18  -3   89.19    6.60
   2 -18  -3   86.49    5.10
  -2 -18   3   86.69    4.50
   2  18  -3   92.79    6.60
  -2  18   3   92.89    6.90
  -2  18   3   93.69    6.70
   0 -18   3   14.00    1.70
   0 -18  -3   16.40    2.00
   0  18   3   14.80    2.90
   0  18  -3   14.80    3.10
   0  18   3   16.90    3.10
   2 -18   3  161.88    8.50
   2 -18   3  172.98   10.40
  -2 -18  -3  169.88    8.60
   2  18   3  182.28   10.60
  -2  18  -3  176.08   10.40
   2  18   3  168.38   10.50
  -4 -18  -3    6.30    1.60
   4 -18   3    5.10    1.50
   4 -18   3    4.30    2.50
   4  18   3    7.00    2.80
   4  18   3    3.60    2.00
  -4  18  -3    5.00    2.50
   6 -18   3   88.79    6.00
   6 -18   3   96.39    7.80
  -6 -18  -3   90.69    5.80
  -6  18  -3   94.19    7.50
   6  18   3   81.69    7.00
  -7 -19   3    0.70    0.80
   7 -19  -3   -0.70    1.90
   7 -19  -3    4.90    2.10
   7 -19  -3   -0.70    1.00
  -7 -19   3    0.90    1.80
  -7  19   3    1.20    1.90
   5 -19  -3   49.20    5.50
  -5 -19   3   54.39    5.50
   5 -19  -3   50.19    3.90
  -5 -19   3   53.59    3.10
  -5  19   3   57.99    6.10
   3 -19  -3   25.50    2.60
  -3 -19   3   21.20    1.70
   3 -19  -3   19.70    3.50
  -3  19   3   20.30    3.40
  -3  19   3   21.30    3.70
   3  19  -3   22.20    3.70
   1 -19  -3    6.70    1.40
   1 -19  -3    3.40    2.00
  -1 -19   3    6.80    1.10
  -1  19   3   14.60    3.00
   1  19  -3    9.40    2.80
  -1  19   3    9.50    2.50
   1 -19   3    3.60    1.10
   1  19   3    4.90    2.00
   1  19   3    9.00    2.60
  -1  19  -3    3.10    2.00
   3 -19   3   21.00    2.60
   3 -19   3   25.00    4.10
  -3 -19  -3   26.30    2.70
   3  19   3   17.80    3.30
   3  19   3   25.20    4.10
  -3  19  -3   27.90    4.10
  -4 -20   3   68.99    3.30
   4 -20  -3   66.09    5.70
   4 -20  -3   62.19    4.30
  -4 -20   3   60.59    5.20
   4  20  -3   61.69    6.30
   2 -20  -3    8.20    2.60
  -2 -20   3   10.20    1.10
   2 -20  -3   11.80    1.80
  -2  20   3   10.00    2.70
   2  20  -3    8.60    2.70
  -2  20   3   12.50    2.70
   0 -20  -3   26.20    4.00
   0 -20  -3   21.40    2.40
   0 -20   3   22.80    1.90
   0  20  -3   24.20    3.90
   0  20   3   21.10    3.70
   0  20   3   27.30    3.90
 -18   0   4  110.79    7.10
  18   0  -4  109.39    7.40
  16   0  -4  892.11   37.40
 -16   0   4  800.32   36.70
 -16   0   4  795.12   40.90
 -14   0   4   79.09    7.60
 -14   0   4   72.49    4.80
  14   0  -4   84.79    5.40
  12   0  -4 1283.57   53.59
 -12   0   4 1123.49   56.29
 -12   0   4 1320.37   54.29
 -12   0   4 1237.18   53.29
  10   0  -4 1321.17   52.99
  10   0  -4 1297.97   53.99
 -10   0   4 1066.39   56.09
 -10   0   4 1311.47   54.39
 -10   0   4 1251.07   53.49
  10   0  -4 1278.97   53.79
  -8   0   4 1495.95   66.29
   8   0  -4 1609.24   66.49
  -8   0   4 1585.74   66.99
   8   0  -4 1599.64   66.79
   6   0  -4 3319.27  131.59
   6   0  -4 3234.38  131.09
  -6   0   4 3062.19  131.09
  -6   0   4 2911.51  131.49
  -4   0   4  570.94   28.40
   4   0  -4  656.63   26.40
   4   0  -4  648.64   26.90
  -4   0   4  633.44   26.90
  -4   0   4  561.64   27.80
   2   0  -4 8364.36  380.86
  -2   0   4 8501.85  379.86
   2   0  -4 9999.00  378.46
  -2   0   4 9451.95  382.06
  -2   0   4 8927.51  380.46
   0   0   4  163.68    8.00
   0   0   4  165.88    8.10
   0   0   4  168.48    7.50
   0   0  -4  166.08    8.20
   0   0   4  154.88    8.70
   0   0  -4  172.28    7.60
  -2   0  -4 6153.28  244.38
   2   0   4 5808.52  244.88
   2   0   4 5728.33  245.48
  -2   0  -4 5787.82  244.08
   2   0   4 5719.23  244.08
  -4   0  -4 1102.59   48.20
  -4   0  -4 1137.99   48.60
   4   0   4 1132.69   48.30
   4   0   4 1174.48   48.10
   4   0   4 1086.19   48.30
   6   0   4 1414.96   59.39
   6   0   4 1422.36   59.49
   6   0   4 1324.27   59.29
  -6   0  -4 1444.56   59.79
  -6   0  -4 1326.67   59.29
  -8   0  -4 1358.86   59.09
   8   0   4 1381.86   59.09
 -10   0  -4  164.48    9.70
  10   0   4  195.78   10.00
 -12   0  -4  696.53   32.70
  12   0   4  734.83   32.70
 -14   0  -4   25.10    3.80
  14   0   4   28.40    3.90
  19  -1  -4   -3.10    1.30
 -19  -1   4   -0.80    1.40
  19   1  -4    0.30    1.70
 -19   1   4   -1.50    1.30
 -17  -1   4   -0.80    1.20
  17  -1  -4    0.20    1.70
 -17   1   4   -3.10    2.30
  17   1  -4    1.90    1.80
 -17   1   4   -0.50    1.30
  15  -1  -4  105.09    6.50
 -15  -1   4   89.79    5.90
 -15  -1   4   89.99    8.50
  15   1  -4  102.99    6.40
 -15   1   4  107.49    6.10
 -15   1   4   90.59    8.90
 -13  -1   4   44.30    4.00
  13  -1  -4   45.50    3.70
 -13  -1   4   40.90    5.90
 -13  -1   4   38.70    3.30
  13   1  -4   43.00    3.50
 -13   1   4   32.30    5.50
 -13   1   4   44.20    3.20
  11  -1  -4   76.19    4.70
  11  -1  -4   68.09    4.40
 -11  -1   4   68.79    6.40
 -11  -1   4   66.19    4.20
 -11  -1   4   82.09    5.20
  11  -1  -4   73.19    3.70
 -11   1   4   51.79    6.70
 -11   1   4   72.39    4.20
 -11   1   4   72.79    4.80
  11   1  -4   70.89    4.30
  -9  -1   4  250.97   11.80
   9  -1  -4  260.57   12.20
  -9  -1   4  250.17   14.20
   9  -1  -4  257.87   11.90
  -9  -1   4  276.67   12.60
  -9   1   4  252.77   11.60
   9   1  -4  261.87   11.80
   9   1  -4  260.57   12.00
   9   1  -4  267.47   11.00
  -9   1   4  206.08   14.00
  -9   1   4  249.97   12.20
  -7  -1   4  306.27   13.90
  -7  -1   4  297.07   16.20
  -7  -1   4  327.57   14.50
   7  -1  -4  317.27   14.00
   7  -1  -4  310.77   14.30
  -7   1   4  269.27   16.10
  -7   1   4  311.67   14.30
   7   1  -4  325.57   14.20
   7   1  -4  319.77   13.80
  -7   1   4  314.17   13.70
   5  -1  -4  435.56   18.50
  -5  -1   4  384.86   20.10
   5  -1  -4  437.96   18.00
  -5  -1   4  382.96   19.40
  -5  -1   4  427.96   18.50
  -5   1   4  381.46   19.50
   5   1  -4  442.46   17.90
  -5   1   4  376.86   20.10
  -5   1   4  428.06   18.40
  -3  -1   4   59.09    3.30
  -3  -1   4   62.99    3.70
   3  -1  -4   65.99    3.40
  -3  -1   4   60.99    4.40
   3  -1  -4   65.09    3.80
  -3   1   4   58.19    3.60
  -3   1   4   64.59    3.40
  -3   1   4   64.79    4.50
   3   1  -4   70.09    3.70
   3   1  -4   69.49    3.10
   3   1  -4   62.99    3.10
  -1  -1   4   75.99    3.80
  -1  -1   4   70.09    4.60
  -1  -1   4   67.29    3.50
   1  -1  -4   68.39    3.30
   1  -1  -4   77.49    4.10
  -1  -1   4   75.29    4.00
  -1   1   4   67.89    3.90
   1   1  -4   60.79    3.70
  -1   1   4   71.89    3.90
   1   1  -4   66.19    3.80
  -1   1   4   74.89    4.60
  -1   1   4   65.49    3.70
  -1  -1  -4  266.37   12.40
  -1  -1  -4  288.97   12.90
   1  -1   4  271.07   13.30
   1  -1   4  273.57   12.70
   1  -1   4  277.87   12.60
   1   1   4  265.17   12.60
  -1   1  -4  285.57   12.30
   1   1   4  279.77   13.30
   1   1   4  278.17   12.60
  -1   1  -4  281.77   12.70
   1   1   4  272.37   12.50
   1   1   4  275.07   12.10
   3  -1   4  423.76   18.90
  -3  -1  -4  418.06   19.20
   3  -1   4  452.55   19.10
   3  -1   4  422.56   18.60
  -3  -1  -4  396.76   18.70
   3  -1   4  381.46   19.50
  -3   1  -4  413.76   18.80
  -3   1  -4  425.86   19.00
   3   1   4  434.66   18.90
   3   1   4  434.86   19.70
   3   1   4  427.16   18.90
   3   1   4  438.26   18.80
   5  -1   4  352.46   15.50
  -5  -1  -4  316.17   15.60
  -5  -1  -4  355.36   16.20
   5  -1   4  335.97   15.90
   5  -1   4  342.37   15.80
   5   1   4  337.97   15.80
   5   1   4  370.86   15.90
  -5   1  -4  315.87   15.70
  -5   1  -4  356.16   16.00
   5   1   4  347.17   15.80
   7  -1   4   98.99    5.80
   7  -1   4   95.19    5.70
  -7  -1  -4   94.89    5.90
  -7  -1  -4   91.29    5.50
  -7   1  -4   83.69    5.50
   7   1   4   91.99    5.60
   7   1   4   92.29    5.80
   9  -1   4   61.69    4.60
  -9  -1  -4   59.19    4.40
  -9   1  -4   53.39    4.30
   9   1   4   57.29    4.50
  11  -1   4  104.19    6.60
 -11  -1  -4   95.89    6.60
 -11   1  -4   92.49    6.40
  11   1   4   91.99    6.30
  13  -1   4   10.90    2.60
 -13  -1  -4   12.20    2.90
  13   1   4   10.10    2.50
 -13   1  -4   10.10    2.60
  18  -2  -4    3.60    2.00
 -18  -2   4    2.50    1.70
 -18   2   4   -0.80    1.20
  18   2  -4    0.50    1.70
 -16  -2   4    2.90    2.70
  16  -2  -4    0.60    1.50
 -16  -2   4    0.40    1.40
 -16   2   4    0.80    1.30
 -16   2   4   -1.10    2.60
  16   2  -4   -0.60    1.20
  14  -2  -4  126.19    7.60
 -14  -2   4  154.08    8.80
 -14  -2   4  138.69    7.50
 -14  -2   4  136.09    9.90
 -14   2   4  140.39    7.30
  14   2  -4  126.09    7.40
 -14   2   4  114.29   10.10
  12  -2  -4    4.20    1.00
  12  -2  -4    4.30    1.60
 -12  -2   4    4.60    1.70
 -12  -2   4    2.90    2.40
  12  -2  -4    1.30    1.20
 -12  -2   4    2.50    1.20
 -12   2   4    3.10    1.10
 -12   2   4   -0.40    2.10
  12   2  -4    4.90    1.40
  10  -2  -4  280.87   12.70
 -10  -2   4  278.47   13.00
 -10  -2   4  261.27   14.50
  10  -2  -4  266.27   11.80
  10  -2  -4  248.48   12.20
 -10  -2   4  247.78   12.10
 -10   2   4  263.27   12.60
 -10   2   4  239.58   14.70
  10   2  -4  253.47   12.00
 -10   2   4  258.77   11.80
  -8  -2   4  169.58   10.60
   8  -2  -4  185.08    9.10
   8  -2  -4  166.78    8.60
  -8  -2   4  182.58    9.20
  -8  -2   4  177.08    8.70
  -8   2   4  216.08    9.20
   8   2  -4  183.68    7.60
   8   2  -4  166.38    8.30
  -8   2   4  180.58    8.30
   8   2  -4  176.68    8.60
  -8   2   4  164.68   10.90
  -6  -2   4  110.49    7.30
   6  -2  -4  127.09    6.00
  -6  -2   4  105.49    7.70
  -6  -2   4  121.19    6.40
   6  -2  -4  130.29    6.40
  -6   2   4  118.19    7.60
  -6   2   4  117.79    5.50
  -6   2   4  118.09    8.10
   6   2  -4  118.69    5.60
   6   2  -4  117.99    6.00
  -6   2   4  121.09    6.20
  -4  -2   4  429.66   19.80
  -4  -2   4  423.16   20.40
  -4  -2   4  411.26   18.20
   4  -2  -4  441.66   18.90
   4  -2  -4  421.56   18.50
  -4  -2   4  421.86   18.80
  -4   2   4  427.06   18.70
  -4   2   4  425.06   20.50
  -4   2   4  423.16   18.60
   4   2  -4  424.66   18.00
  -4   2   4  418.26   19.80
  -2  -2   4   93.59    4.40
  -2  -2   4   94.19    5.60
  -2  -2   4   91.89    4.70
  -2  -2   4   91.59    5.10
   2  -2  -4  103.29    5.30
   2   2  -4   99.09    5.00
   2   2  -4  104.69    4.20
  -2   2   4  107.49    5.80
   2   2  -4   98.89    4.90
  -2   2   4   94.29    5.00
  -2   2   4   98.69    5.00
  -2   2   4   84.99    4.80
   0  -2  -4  362.56   16.10
   0  -2   4  354.16   15.70
   0  -2   4  332.97   16.40
   0  -2   4  349.27   15.90
   0  -2  -4  356.26   15.60
   0   2  -4  363.46   15.70
   0   2   4  354.66   15.80
   0   2   4  344.07   15.80
   0   2   4  350.56   15.80
   0   2   4  362.56   15.90
   0   2   4  363.06   16.50
   0   2  -4  368.16   15.90
  -2  -2  -4   19.60    1.90
   2  -2   4   16.10    2.50
   2  -2   4   16.20    2.00
  -2  -2  -4   18.40    2.20
   2  -2   4   14.70    1.90
   2   2   4   16.60    1.90
   2   2   4   15.80    2.40
  -2   2  -4   14.70    1.90
   2   2   4   15.80    1.90
   2   2   4   21.90    2.20
  -2   2  -4   19.80    2.10
  -2   2  -4   17.30    1.80
   2   2   4   18.80    1.60
  -4  -2  -4  121.59    6.60
  -4  -2  -4  131.59    7.20
   4  -2   4  126.49    6.80
   4  -2   4  140.29    6.50
   4  -2   4  129.89    6.90
   4   2   4  134.99    6.80
  -4   2  -4  128.09    6.80
   4   2   4  124.99    6.80
   4   2   4  124.29    7.50
  -4   2  -4  134.69    6.90
   4   2   4  133.19    6.90
  -6  -2  -4  137.69    7.80
   6  -2   4  139.99    7.50
  -6  -2  -4  127.59    7.10
   6  -2   4  127.89    6.90
   6  -2   4  130.59    7.30
   6   2   4  147.89    7.80
  -6   2  -4  140.69    7.40
   6   2   4  138.09    7.30
  -8  -2  -4    1.40    1.30
   8  -2   4   -0.50    1.00
   8  -2   4    2.10    1.40
   8  -2   4    0.90    1.10
  -8  -2  -4    1.80    1.30
   8   2   4   -1.00    1.20
   8   2   4   -1.70    0.90
  -8   2  -4    1.30    1.30
 -10  -2  -4  126.09    7.60
  10  -2   4  125.69    7.60
  10   2   4  129.39    7.50
 -10   2  -4  120.49    7.50
  12  -2   4    0.70    1.70
 -12  -2  -4    2.40    1.70
  12   2   4    1.50    1.60
 -12   2  -4   -0.80    1.40
  14  -2   4   34.10    4.40
 -14  -2  -4   31.50    4.30
  14   2   4   27.10    3.80
 -14   2  -4   30.70    4.10
  19  -3  -4  181.98   10.70
 -19  -3   4  169.28   10.20
  19   3  -4  181.88   10.60
  17  -3  -4   13.40    3.00
 -17  -3   4   16.40    2.80
  17   3  -4    9.40    2.40
 -17   3   4    8.60    4.20
 -15  -3   4   74.69    6.30
  15  -3  -4   83.79    5.80
 -15  -3   4   87.29    7.80
 -15  -3   4   77.89    5.40
 -15   3   4   91.19    5.30
 -15   3   4   83.19    9.50
  15   3  -4   75.29    5.40
  13  -3  -4  235.68   11.90
 -13  -3   4  256.27   13.00
  13  -3  -4  248.28   11.10
 -13  -3   4  224.68   13.80
 -13  -3   4  215.48   11.60
 -13   3   4  229.08   14.60
  13   3  -4  236.58   11.60
 -13   3   4  239.88   11.30
  11  -3  -4   15.40    2.40
 -11  -3   4   14.00    2.50
  11  -3  -4   17.70    1.90
  11  -3  -4   12.90    2.00
 -11  -3   4   12.90    3.20
 -11  -3   4   12.20    1.90
 -11   3   4   13.70    3.50
 -11   3   4   13.50    1.60
  11   3  -4   11.40    1.70
  -9  -3   4 1089.09   47.60
  -9  -3   4 1144.09   48.20
   9  -3  -4 1155.08   48.10
  -9  -3   4 1122.89   49.60
   9  -3  -4 1098.59   47.50
   9   3  -4 1060.49   47.10
  -9   3   4 1057.89   49.99
  -9   3   4 1079.79   47.70
  -9   3   4 1166.58   47.00
  -7  -3   4  214.88   12.10
  -7  -3   4  229.48   10.70
   7  -3  -4  216.68   10.70
   7  -3  -4  225.18   10.30
  -7   3   4  229.18    9.70
   7   3  -4  213.98    9.80
  -7   3   4  206.78   10.30
  -7   3   4  202.98   12.30
  -5  -3   4  611.74   30.00
  -5  -3   4  644.54   29.50
  -5  -3   4  666.83   28.70
   5  -3  -4  667.33   28.40
   5  -3  -4  664.53   28.70
  -5   3   4  660.73   28.40
  -5   3   4  679.93   27.70
  -5   3   4  671.53   30.50
  -5   3   4  659.93   29.70
  -5   3   4  626.24   28.40
   5   3  -4  664.53   27.80
  -3  -3   4   25.00    1.80
  -3  -3   4   29.50    3.10
   3  -3  -4   30.80    2.40
  -3  -3   4   25.50    2.20
   3   3  -4   28.10    2.00
  -3   3   4   33.20    2.20
  -3   3   4   27.90    3.10
  -3   3   4   26.40    2.10
  -1  -3   4  111.69    6.30
  -1  -3   4  109.99    5.80
  -1  -3   4  113.99    5.50
   1  -3  -4  111.69    5.90
  -1   3   4  108.09    5.70
  -1   3   4  111.69    6.10
  -1   3   4  113.89    6.30
  -1   3   4  110.69    5.60
   1   3  -4  115.19    5.90
  -1   3   4  120.09    5.90
  -1  -3  -4  344.17   15.30
   1  -3   4  297.17   14.70
   1  -3   4  327.27   15.00
  -1  -3  -4  325.97   14.60
   1  -3   4  318.27   15.50
   1   3   4  340.37   15.00
  -1   3  -4  336.77   14.80
   1   3   4  341.37   15.50
   1   3   4  338.17   14.90
  -1   3  -4  330.47   14.80
   1   3   4  328.97   15.00
   1   3   4  340.47   14.90
  -3  -3  -4  335.97   15.80
   3  -3   4  334.97   16.70
   3  -3   4  368.46   16.30
  -3  -3  -4  357.96   16.50
   3  -3   4  355.26   16.00
  -3   3  -4  344.37   15.80
  -3   3  -4  359.76   16.00
   3   3   4  342.27   16.00
   3   3   4  352.56   16.10
  -3   3  -4  341.37   16.00
   3   3   4  373.56   16.00
   3   3   4  368.86   16.70
  -5  -3  -4  923.61   39.50
   5  -3   4  855.01   38.80
   5  -3   4  912.61   39.10
   5  -3   4  945.51   38.20
   5  -3   4  871.51   38.30
  -5  -3  -4  875.91   38.70
  -5   3  -4  861.91   38.80
   5   3   4  902.61   38.80
   5   3   4  903.21   39.20
  -7  -3  -4   98.49    6.20
   7  -3   4  100.09    6.00
  -7  -3  -4   87.59    5.60
   7  -3   4   94.19    5.70
   7  -3   4   93.39    5.30
   7   3   4   90.89    5.60
  -7   3  -4   96.19    5.70
   7   3   4   80.59    5.90
   9  -3   4  356.56   17.10
  -9  -3  -4  334.77   16.90
  -9  -3  -4  357.06   17.90
   9  -3   4  369.26   16.80
   9   3   4  367.66   17.00
  -9   3  -4  350.06   17.10
  11  -3   4    7.80    2.30
 -11  -3  -4    9.10    2.30
  11  -3   4    8.40    2.10
  11   3   4    5.30    1.90
 -11   3  -4    4.50    2.00
 -13  -3  -4   40.70    4.90
  13  -3   4   42.00    4.70
 -13   3  -4   45.80    5.10
  13   3   4   42.10    4.40
 -18  -4   4  212.88   11.70
  18  -4  -4  215.78   12.00
  18   4  -4  198.38   11.50
 -16  -4   4   94.39    6.70
 -16  -4   4  107.09    8.70
  16  -4  -4  108.99    7.00
 -16  -4   4  102.59    8.00
  16   4  -4   98.39    6.60
 -16   4   4  110.19    9.80
 -14  -4   4  918.81   39.80
 -14  -4   4  890.01   40.70
  14  -4  -4  819.52   38.30
 -14  -4   4  820.62   38.20
  14  -4  -4  867.01   39.20
 -14   4   4  903.81   41.90
  14   4  -4  835.52   37.90
 -14   4   4  882.91   37.50
 -12  -4   4  205.98   10.90
 -12  -4   4  209.38   12.50
  12  -4  -4  220.98   11.40
  12  -4  -4  207.38   10.90
 -12  -4   4  216.58   11.80
  12  -4  -4  226.58   10.40
 -12   4   4  234.88   13.80
  12   4  -4  200.08   10.40
 -12   4   4  221.98   10.10
 -10  -4   4  666.33   30.40
  10  -4  -4  714.73   30.90
 -10  -4   4  712.33   31.10
  10  -4  -4  661.73   30.20
 -10  -4   4  720.93   32.20
 -10   4   4  701.23   29.50
 -10   4   4  663.33   32.70
  10   4  -4  669.53   29.80
  -8  -4   4 1719.13   73.69
   8  -4  -4 1640.34   71.79
   8  -4  -4 1671.83   72.29
  -8  -4   4 1690.83   72.39
  -8  -4   4 1692.23   72.19
  -8   4   4 1728.43   70.99
  -8   4   4 1715.23   74.29
   8   4  -4 1654.43   71.29
  -8   4   4 1737.63   71.89
  -6  -4   4  871.11   38.10
   6  -4  -4  878.31   37.90
  -6  -4   4  851.21   38.90
  -6  -4   4  860.71   39.50
   6  -4  -4  863.01   38.20
  -6   4   4  897.71   37.90
   6   4  -4  894.71   37.20
  -6   4   4  907.71   36.90
  -6   4   4  906.21   39.30
  -6   4   4  860.91   38.00
  -6   4   4  897.11   40.00
  -4  -4   4 4011.70  177.18
   4  -4  -4 4270.37  175.98
  -4  -4   4 4156.58  176.68
  -4  -4   4 4596.94  176.08
   4  -4  -4 4245.08  176.18
  -4  -4   4 4308.77  176.28
  -4   4   4 3931.51  177.38
  -4   4   4 4146.98  175.88
   4   4  -4 4453.25  175.78
  -4   4   4 3869.91  176.68
  -2  -4   4  326.57   14.60
  -2  -4   4  337.17   15.50
   2  -4  -4  347.47   15.30
  -2  -4   4  346.47   15.10
   2   4  -4  306.47   15.00
  -2   4   4  342.07   15.30
  -2   4   4  319.97   14.80
  -2   4   4  344.67   15.60
  -2   4   4  329.07   15.10
   0  -4   4 4507.05  182.38
   0  -4   4 4296.17  182.68
   0  -4   4 4364.76  183.08
   0  -4  -4 4023.90  182.78
   0  -4  -4 4330.27  182.68
   0   4   4 4623.74  182.78
   0   4   4 4483.05  182.68
   0   4  -4 4512.35  182.78
   0   4   4 4162.38  182.38
   0   4   4 4005.30  182.78
   0   4   4 4667.53  183.18
   2  -4   4  564.14   25.60
   2  -4   4  575.74   25.20
  -2  -4  -4  577.34   24.70
  -2  -4  -4  565.74   25.40
   2  -4   4  539.25   24.80
   2   4   4  561.44   25.10
   2   4   4  557.24   25.00
   2   4   4  580.84   24.90
  -2   4  -4  560.44   24.90
   2   4   4  608.04   25.60
  -4  -4  -4 2569.04  114.09
  -4  -4  -4 2674.23  113.39
   4  -4   4 2799.72  113.99
   4  -4   4 2662.43  113.59
   4  -4   4 2923.71  112.99
   4  -4   4 2753.42  112.99
   4   4   4 2614.54  113.89
   4   4   4 2680.53  114.09
  -4   4  -4 2737.53  113.49
   4   4   4 2547.25  113.49
  -4   4  -4 2670.63  113.69
   6  -4   4  505.35   21.70
   6  -4   4  525.35   22.60
  -6  -4  -4  487.85   22.00
   6  -4   4  480.65   22.10
  -6  -4  -4  504.65   22.90
   6   4   4  495.25   22.90
  -6   4  -4  449.46   22.10
   6   4   4  471.35   22.00
   8  -4   4  408.96   18.80
  -8  -4  -4  375.06   19.00
  -8  -4  -4  383.76   18.20
   8  -4   4  398.16   17.90
   8  -4   4  394.46   18.30
   8   4   4  378.76   18.10
   8   4   4  375.26   18.70
  -8   4  -4  392.56   18.40
  10  -4   4  658.83   29.60
  10  -4   4  661.03   29.90
 -10  -4  -4  643.74   31.00
 -10  -4  -4  664.03   30.00
 -10   4  -4  663.13   30.10
  10   4   4  656.03   29.60
  12  -4   4   67.39    5.60
 -12  -4  -4   75.19    5.80
  12  -4   4   87.89    5.80
 -12   4  -4   67.79    5.60
  12   4   4   64.39    5.10
  14  -4   4  280.67   15.50
 -14  -4  -4  286.67   15.80
 -14   4  -4  302.17   15.90
  14   4   4  316.57   15.40
  17  -5  -4   27.00    3.80
 -17  -5   4   33.80    4.30
  17   5  -4   30.10    3.80
 -15  -5   4  188.78   11.80
 -15  -5   4  170.48   10.00
 -15  -5   4  191.98   11.60
  15  -5  -4  175.28   10.20
  15   5  -4  175.78    9.60
 -15   5   4  196.68   13.10
  13  -5  -4    1.90    1.10
 -13  -5   4    4.30    1.60
 -13  -5   4    2.50    1.90
  13  -5  -4    1.40    1.60
 -13  -5   4    3.40    2.20
  13  -5  -4    1.20    1.40
  13   5  -4    2.80    1.20
 -13   5   4    4.20    2.70
  11  -5  -4  203.78   10.10
  11  -5  -4  194.38   10.30
  11  -5  -4  231.68   11.10
 -11  -5   4  201.58   10.50
 -11  -5   4  208.08   11.70
 -11  -5   4  193.28   11.00
 -11   5   4  213.18   12.50
  11   5  -4  186.38    9.60
 -11   5   4  198.08    9.30
  -9  -5   4    4.00    1.40
  -9  -5   4    3.50    1.80
   9  -5  -4    1.50    1.10
  -9  -5   4    2.30    1.50
   9  -5  -4    3.70    1.40
   9   5  -4    2.50    0.90
  -9   5   4    4.10    0.70
  -9   5   4    2.30    1.20
  -9   5   4    1.40    1.90
   7  -5  -4  416.16   19.10
  -7  -5   4  433.16   20.40
   7  -5  -4  416.46   19.50
  -7  -5   4  439.66   19.50
  -7   5   4  420.36   19.20
  -7   5   4  434.86   20.90
  -7   5   4  422.26   18.00
   7   5  -4  425.36   18.40
  -5  -5   4  437.76   20.80
  -5  -5   4  434.56   18.50
  -5  -5   4  445.86   19.70
  -5  -5   4  436.56   20.20
   5  -5  -4  442.26   19.60
   5  -5  -4  430.56   19.80
  -5  -5   4  438.06   19.60
  -5   5   4  415.76   19.50
   5   5  -4  420.16   19.30
  -5   5   4  448.56   18.70
  -5   5   4  463.55   20.60
  -5   5   4  447.36   21.20
  -3  -5   4   32.90    2.50
  -3  -5   4   28.00    3.00
  -3  -5   4   25.10    1.80
  -3  -5   4   28.10    2.30
  -3   5   4   29.30    2.00
  -3   5   4   32.60    3.40
   3   5  -4   24.20    2.50
  -3   5   4   31.50    2.50
  -3   5   4   24.60    2.60
   1  -5  -4  105.29    4.70
  -1  -5   4  100.39    5.70
  -1  -5   4  110.59    5.50
  -1  -5   4   94.69    5.00
   1  -5  -4  101.59    5.60
  -1  -5   4   98.79    5.60
  -1   5   4   93.49    5.40
   1   5  -4   96.99    5.70
  -1   5   4  100.59    5.80
  -1   5   4  104.89    6.00
   1  -5   4  414.26   17.50
  -1  -5  -4  383.26   17.60
   1  -5   4  372.76   17.10
   1  -5   4  388.96   17.70
  -1  -5  -4  396.76   16.80
   1   5   4  369.96   17.40
   1   5   4  369.06   17.50
   1   5   4  387.16   17.50
   1   5   4  381.26   17.30
  -1   5  -4  364.06   17.30
   3  -5   4   61.79    4.30
  -3  -5  -4   67.69    4.60
   3  -5   4   67.39    3.50
   3  -5   4   68.49    4.20
   3  -5   4   65.99    4.60
  -3  -5  -4   63.89    3.90
   3   5   4   60.59    4.10
   3   5   4   62.69    4.10
  -3   5  -4   62.89    4.00
   3   5   4   69.29    4.40
   3   5   4   67.79    4.50
   5  -5   4   37.70    3.30
  -5  -5  -4   33.10    2.90
   5  -5   4   36.90    2.60
   5  -5   4   35.30    3.00
  -5  -5  -4   34.80    3.80
  -5   5  -4   34.80    3.30
   5   5   4   34.30    2.90
  -5   5  -4   38.20    3.10
   5   5   4   30.70    3.50
   5   5   4   38.30    3.80
  -7  -5  -4  143.59    8.50
   7  -5   4  145.99    8.20
  -7  -5  -4  143.39    7.70
   7  -5   4  141.99    7.30
   7  -5   4  129.59    7.60
   7   5   4  145.59    8.50
   7   5   4  132.49    7.50
  -7   5  -4  137.49    7.80
   9  -5   4    7.20    1.80
  -9  -5  -4    2.20    1.80
  -9  -5  -4    4.00    1.70
   9  -5   4    5.30    1.90
   9  -5   4    5.60    2.10
   9   5   4    4.40    1.90
   9   5   4    5.70    1.70
  -9   5  -4    3.50    1.60
 -11  -5  -4  178.08   10.30
  11  -5   4  167.48   10.10
  11  -5   4  176.48    9.90
  11   5   4  192.88   10.00
 -11   5  -4  192.28   10.40
  13  -5   4    8.80    2.50
 -13  -5  -4    6.40    2.50
  13   5   4   10.20    2.40
 -13   5  -4   12.50    2.80
 -18  -6   4    0.70    1.90
  18  -6  -4    6.10    2.60
 -18   6   4    5.50    2.60
  16  -6  -4  169.48   10.10
 -16  -6   4  181.48   10.40
 -16  -6   4  164.68   11.30
 -16   6   4  183.28   10.40
  16   6  -4  164.78    9.40
 -16   6   4  179.78   12.60
 -14  -6   4    1.00    1.60
  14  -6  -4    1.10    1.50
  14  -6  -4    1.70    1.20
 -14  -6   4    0.10    1.80
 -14  -6   4    1.00    1.80
  14  -6  -4    2.00    1.80
 -14   6   4    2.50    2.50
 -14   6   4    1.80    1.70
  14   6  -4   -0.60    1.00
 -12  -6   4  336.57   18.00
  12  -6  -4  360.76   17.20
 -12  -6   4  350.26   18.20
  12  -6  -4  363.86   17.90
  12  -6  -4  382.66   17.10
 -12  -6   4  368.66   17.50
 -12   6   4  379.86   17.30
  12   6  -4  332.47   16.40
 -12   6   4  368.86   19.40
 -10  -6   4   17.10    2.80
 -10  -6   4    8.10    2.00
 -10  -6   4    5.80    2.00
  10  -6  -4    9.50    2.20
  10  -6  -4    5.50    1.70
  10   6  -4    6.80    1.30
 -10   6   4    5.00    2.60
 -10   6   4    9.00    1.90
  -8  -6   4  787.72   35.10
   8  -6  -4  807.92   34.80
   8  -6  -4  781.92   34.30
  -8  -6   4  758.12   34.50
  -8  -6   4  754.72   34.70
  -8   6   4  805.22   36.00
   8   6  -4  783.62   33.40
  -8   6   4  772.92   34.30
  -6  -6   4  208.98   10.10
  -6  -6   4  205.98   10.90
   6  -6  -4  204.98   10.30
   6  -6  -4  199.58   10.10
  -6   6   4  212.58   11.40
  -6   6   4  212.98    9.20
  -6   6   4  194.98   10.00
  -6   6   4  192.28    9.70
  -4  -6   4  186.08    9.00
  -4  -6   4  178.48    8.50
  -4  -6   4  177.98    7.70
  -4  -6   4  175.48    9.40
  -4  -6   4  161.18    8.50
   4  -6  -4  173.08    8.80
   4  -6  -4  162.38    8.70
   4   6  -4  165.48    8.60
  -4   6   4  169.68    8.50
  -4   6   4  177.68    7.70
  -4   6   4  176.78    9.70
  -4   6   4  177.98    9.20
  -4   6   4  160.88    8.60
  -2  -6   4 1120.59   50.19
  -2  -6   4 1226.98   50.39
   2  -6  -4 1115.39   50.29
  -2  -6   4 1197.88   50.09
  -2  -6   4 1181.28   49.60
  -2   6   4 1209.58   50.59
  -2   6   4 1152.18   50.19
   2   6  -4 1190.58   50.49
  -2   6   4 1171.58   50.59
   0  -6  -4    3.10    1.20
   0  -6   4    2.30    1.20
   0  -6   4    1.00    0.90
   0  -6  -4    1.60    0.70
   0  -6   4    4.60    1.20
   0   6  -4    0.30    1.20
   0   6   4    2.30    1.40
   0   6   4    0.90    1.10
   0   6   4    0.90    1.00
   2  -6   4  697.83   31.10
   2  -6   4  736.13   31.60
  -2  -6  -4  730.83   30.80
   2  -6   4  767.92   30.40
  -2  -6  -4  662.13   31.50
   2  -6   4  749.62   31.50
  -2   6  -4  695.53   31.30
   2   6   4  704.63   31.50
   2   6   4  724.13   31.50
   2   6   4  684.83   31.50
   4  -6   4  313.47   13.50
   4  -6   4  301.67   14.50
  -4  -6  -4  276.17   14.50
  -4  -6  -4  294.87   13.90
   4  -6   4  313.17   14.80
   4  -6   4  288.47   14.00
   4   6   4  314.47   14.20
   4   6   4  296.37   14.60
   4   6   4  292.57   14.30
  -4   6  -4  306.57   14.10
   4   6   4  301.57   14.10
   6  -6   4    2.70    1.10
  -6  -6  -4    2.50    1.30
   6  -6   4   10.90    2.10
  -6  -6  -4    2.30    1.50
   6  -6   4    5.20    1.70
   6   6   4    3.00    1.80
  -6   6  -4    2.20    1.30
   6   6   4    2.30    1.30
   6   6   4    2.00    1.40
  -8  -6  -4  412.16   18.70
   8  -6   4  410.76   19.30
   8  -6   4  397.16   18.10
  -8  -6  -4  354.06   19.20
   8  -6   4  386.96   18.60
  -8   6  -4  403.66   18.60
   8   6   4  381.46   18.30
  -8   6  -4  385.36   18.70
   8   6   4  399.96   19.30
  10  -6   4    6.20    1.90
  10  -6   4    2.70    1.90
 -10  -6  -4    5.10    2.10
  10  -6   4    5.40    2.10
 -10  -6  -4    7.40    2.60
  10   6   4    8.30    1.90
 -10   6  -4    6.10    2.00
 -10   6  -4    2.90    1.80
  12  -6   4  148.19    9.70
 -12  -6  -4  172.08   10.20
 -12   6  -4  173.28   10.10
  12   6   4  163.98    9.30
 -12   6  -4  183.18   10.20
 -17  -7   4  125.49    9.60
  17  -7  -4  118.99    8.40
 -17  -7   4  132.59    8.90
 -17   7   4  136.29    8.60
  15  -7  -4   95.19    6.10
 -15  -7   4   85.69    7.40
  15  -7  -4   83.69    6.40
 -15  -7   4   92.59    6.80
 -15   7   4   89.49    6.50
 -15   7   4  104.19    8.60
  13  -7  -4   96.69    6.70
  13  -7  -4  115.99    6.70
 -13  -7   4  102.99    7.10
  13  -7  -4  102.59    7.40
 -13  -7   4  115.79    7.70
 -13  -7   4   90.79    7.30
 -13   7   4  111.59    6.90
 -13   7   4  106.79    8.30
 -11  -7   4  250.67   12.40
 -11  -7   4  230.58   12.40
  11  -7  -4  228.48   11.80
  11  -7  -4  237.78   12.40
 -11  -7   4  194.98   12.10
  11  -7  -4  222.58   11.90
 -11   7   4  226.88   11.70
 -11   7   4  235.98   11.00
 -11   7   4  246.28   13.60
  -9  -7   4    7.80    2.10
  -9  -7   4    4.40    1.70
   9  -7  -4    4.20    1.70
  -9  -7   4    5.30    1.80
   9  -7  -4    5.70    1.80
  -9   7   4    5.80    1.60
  -9   7   4    5.80    1.30
  -9   7   4    5.70    2.20
   7  -7  -4  492.75   22.60
  -7  -7   4  511.45   23.00
  -7  -7   4  479.45   22.50
   7  -7  -4  497.55   22.80
  -7   7   4  473.65   21.90
  -7   7   4  469.65   22.30
  -7   7   4  542.45   23.90
  -7   7   4  511.75   21.50
   5  -7  -4   18.10    2.40
   5  -7  -4   15.90    2.40
  -5  -7   4   17.40    2.70
  -5  -7   4   25.40    2.70
  -5  -7   4   18.10    2.30
  -5  -7   4   16.20    1.30
  -5   7   4   15.60    2.00
  -5   7   4   21.70    2.90
  -5   7   4   16.90    2.30
  -5   7   4   21.70    1.80
  -5   7   4   26.40    3.50
   5   7  -4   17.90    2.50
  -3  -7   4  413.46   18.60
  -3  -7   4  343.07   17.70
  -3  -7   4  387.16   17.70
   3  -7  -4  372.66   18.00
  -3  -7   4  383.16   17.10
  -3  -7   4  408.46   18.10
  -3   7   4  449.86   17.00
  -3   7   4  402.36   18.30
  -3   7   4  384.36   18.20
  -3   7   4  391.26   17.90
   3   7  -4  385.96   18.10
  -3   7   4  405.56   18.80
  -1  -7   4    1.50    1.10
   1  -7  -4    2.90    1.30
   1  -7  -4    3.10    0.60
  -1  -7   4    2.00    1.10
  -1  -7   4    3.20    1.10
  -1   7   4    3.90    1.60
  -1   7   4    5.40    1.50
  -1   7   4    4.40    1.40
   1   7  -4    2.20    1.40
   1  -7   4   12.40    1.90
   1  -7   4   11.70    1.90
  -1  -7  -4   10.40    1.80
   1  -7   4   13.90    1.80
  -1  -7  -4   14.00    1.50
   1   7   4   11.60    2.00
  -1   7  -4   10.80    2.00
   1   7   4   16.50    2.60
   1   7   4   10.90    1.80
  -3  -7  -4  380.56   16.60
   3  -7   4  369.26   17.20
   3  -7   4  373.16   17.20
  -3  -7  -4  352.46   17.30
   3  -7   4  394.86   16.40
   3  -7   4  361.46   16.90
   3   7   4  369.36   17.20
  -3   7  -4  358.06   17.00
   3   7   4  357.66   17.00
   3   7   4  351.76   17.40
   5  -7   4    8.90    1.90
   5  -7   4   10.30    1.50
  -5  -7  -4    8.50    2.10
   5  -7   4   10.60    2.10
  -5  -7  -4    9.50    1.80
  -5   7  -4   10.00    2.00
   5   7   4    8.50    1.80
   5   7   4    4.90    1.90
   5   7   4    8.50    1.80
  -7  -7  -4  194.08   10.00
   7  -7   4  190.68    9.90
   7  -7   4  192.28   10.60
  -7  -7  -4  166.98   10.40
   7  -7   4  179.98   10.00
  -7   7  -4  185.58   10.00
   7   7   4  205.48    9.90
   7   7   4  195.68   10.80
   7   7   4  187.88   10.20
  -9  -7  -4    3.50    1.80
  -9  -7  -4    3.70    2.20
   9  -7   4    3.00    1.80
   9  -7   4    0.30    1.70
   9   7   4    3.70    1.90
  -9   7  -4    5.60    2.00
   9   7   4    6.10    1.80
   9   7   4    5.10    2.10
  11  -7   4  141.99    8.80
 -11  -7  -4  134.39    9.60
 -11  -7  -4  149.39    9.20
 -11   7  -4  147.09    8.90
  11   7   4  141.89    8.30
 -13  -7  -4   75.79    7.30
  13  -7   4   72.29    6.20
  13   7   4   74.29    5.60
  13   7   4   79.29    7.70
  18  -8  -4   32.50    4.90
 -18  -8   4   40.80    5.90
 -18  -8   4   26.20    4.70
 -18   8   4   44.60    5.40
  16  -8  -4   55.59    5.90
 -16  -8   4   55.99    6.60
 -16  -8   4   54.99    6.10
 -16   8   4   53.59    5.50
  14  -8  -4  138.59    8.20
 -14  -8   4  135.99    9.10
  14  -8  -4  126.59    8.40
 -14  -8   4  144.19    8.90
  14  -8  -4  113.39    8.70
 -14   8   4  142.79    8.40
 -14   8   4  131.39    9.70
  12  -8  -4   66.59    5.20
  12  -8  -4   72.99    5.40
 -12  -8   4   69.19    5.80
  12  -8  -4   69.99    5.70
 -12  -8   4   71.29    5.80
 -12  -8   4   58.99    5.20
 -12   8   4   86.39    6.70
 -12   8   4   68.39    5.10
 -10  -8   4  475.85   23.50
 -10  -8   4  504.85   23.50
  10  -8  -4  452.05   23.50
  10  -8  -4  506.95   23.30
 -10  -8   4  505.95   23.90
 -10   8   4  513.35   23.20
 -10   8   4  510.55   22.40
 -10   8   4  540.15   22.40
 -10   8   4  511.35   24.40
   8  -8  -4  203.68   11.60
   8  -8  -4  223.08   11.60
  -8  -8   4  217.88   12.00
  -8  -8   4  226.78   11.70
  -8  -8   4  225.18   11.60
  -8   8   4  228.58   10.90
  -8   8   4  221.68   11.40
  -8   8   4  256.77   10.70
  -8   8   4  240.08   12.50
  -6  -8   4  528.35   25.10
   6  -8  -4  574.24   25.70
   6  -8  -4  545.15   25.50
  -6  -8   4  573.14   25.50
  -6   8   4  597.84   24.50
  -6   8   4  548.95   25.30
  -6   8   4  564.64   25.00
  -6   8   4  586.24   26.30
  -4  -8   4  262.97   12.80
   4  -8  -4  258.87   12.60
  -4  -8   4  269.57   12.40
  -4  -8   4  269.17   11.50
   4  -8  -4  242.48   12.80
  -4  -8   4  244.68   12.20
  -4   8   4  249.08   12.60
  -4   8   4  267.97   13.30
  -4   8   4  286.47   11.80
   4   8  -4  250.57   12.60
  -4   8   4  273.47   12.80
  -4   8   4  240.98   12.30
  -2  -8   4 1206.08   49.99
  -2  -8   4 1227.48   50.49
  -2  -8   4 1166.48   50.29
   2  -8  -4 1132.69   50.59
  -2   8   4 1144.39   51.09
  -2   8   4 1205.18   50.69
  -2   8   4 1171.88   50.69
   2   8  -4 1164.48   50.89
   0  -8   4  430.16   19.50
   0  -8   4  418.96   19.50
   0  -8  -4  466.35   18.80
   0  -8   4  441.16   19.40
   0  -8  -4  438.76   19.80
   0   8   4  434.26   19.60
   0   8  -4  419.26   20.00
   0   8   4  421.06   19.90
   0   8   4  432.76   20.20
   2  -8   4  641.84   27.80
   2  -8   4  627.64   27.70
  -2  -8  -4  632.74   28.00
  -2  -8  -4  656.73   27.20
   2  -8   4  626.34   27.90
  -2   8  -4  609.84   28.00
   2   8   4  596.44   28.20
   2   8   4  609.04   28.20
   2   8   4  638.44   27.80
  -4  -8  -4  126.49    7.50
  -4  -8  -4  140.29    7.00
   4  -8   4  132.79    7.40
   4  -8   4  129.99    7.50
   4  -8   4  142.99    7.60
   4   8   4  128.99    7.50
  -4   8  -4  135.19    7.50
   4   8   4  121.09    7.10
   4   8   4  125.29    7.90
  -6  -8  -4  588.14   26.30
   6  -8   4  537.35   26.20
  -6  -8  -4  578.84   25.60
   6  -8   4  556.54   25.80
   6   8   4  568.84   25.70
   6   8   4  564.34   26.60
  -6   8  -4  569.64   25.80
   8  -8   4   62.59    5.50
   8  -8   4   55.09    4.90
  -8  -8  -4   63.99    5.00
  -8  -8  -4   69.39    5.60
   8   8   4   72.69    5.60
  -8   8  -4   66.29    5.00
   8   8   4   56.49    4.80
 -10  -8  -4  193.68   10.90
  10  -8   4  179.08   10.70
  10  -8   4  174.48   11.30
 -10  -8  -4  185.08   11.50
 -10   8  -4  199.78   10.80
  10   8   4  200.78   11.20
 -12  -8  -4   29.60    4.40
 -12  -8  -4   30.10    4.90
  12  -8   4   25.40    4.10
 -12   8  -4   29.20    4.30
  12   8   4   26.20    4.10
  17  -9  -4  348.37   19.00
 -17  -9   4  390.06   20.10
 -17  -9   4  353.06   19.30
 -17   9   4  357.36   18.60
 -15  -9   4   80.29    6.70
  15  -9  -4   77.69    7.90
 -15  -9   4   85.99    7.00
  15  -9  -4   65.29    6.10
  15  -9  -4   74.79    6.00
 -15   9   4   77.09    5.90
 -15   9   4   79.79    7.30
 -13  -9   4  246.88   13.70
  13  -9  -4  238.38   13.70
 -13  -9   4  237.28   13.10
 -13  -9   4  260.97   13.70
  13  -9  -4  234.98   13.10
  13  -9  -4  235.18   13.00
 -13   9   4  256.37   12.90
 -13   9   4  238.78   14.00
 -13   9   4  237.48   12.00
 -11  -9   4   87.79    6.60
  11  -9  -4   79.99    6.10
  11  -9  -4   80.99    6.40
  11  -9  -4   84.89    6.10
 -11  -9   4   86.69    6.10
 -11  -9   4   92.79    6.40
 -11   9   4   94.49    5.30
 -11   9   4   84.69    6.70
 -11   9   4   95.49    6.10
   9  -9  -4  141.59    8.50
   9  -9  -4  134.69    8.50
  -9  -9   4  147.79    9.00
  -9  -9   4  134.09    8.10
  -9  -9   4  146.59    8.40
  -9   9   4  156.48    7.50
  -9   9   4  149.88    9.00
  -9   9   4  147.99    7.60
  -9   9   4  155.58    8.30
  -7  -9   4  228.58   11.90
   7  -9  -4  239.68   12.50
  -7  -9   4  252.17   12.10
   7  -9  -4  240.08   12.30
  -7   9   4  254.47   11.30
  -7   9   4  255.27   12.80
  -7   9   4  230.28   12.10
  -7   9   4  239.08   11.60
  -5  -9   4   23.20    2.50
   5  -9  -4   28.10    3.00
  -5  -9   4   27.80    2.60
   5  -9  -4   24.70    3.20
  -5   9   4   24.60    3.00
  -5   9   4   29.60    2.20
  -5   9   4   22.20    2.60
  -5   9   4   33.80    3.70
   5   9  -4   22.40    2.90
  -3  -9   4  499.55   21.10
  -3  -9   4  500.75   21.90
  -3  -9   4  463.85   21.40
  -3  -9   4  494.05   21.50
   3   9  -4  488.95   22.10
  -3   9   4  477.15   22.30
  -3   9   4  476.85   21.80
  -3   9   4  449.36   22.20
  -3   9   4  468.45   21.00
  -3   9   4  504.15   22.00
  -1  -9   4  147.49    7.80
  -1  -9   4  156.68    7.70
   1  -9  -4  152.18    8.00
  -1  -9   4  156.48    7.70
   1   9  -4  157.18    8.40
  -1   9   4  147.29    8.50
  -1   9   4  153.68    8.30
  -1   9   4  162.28    8.10
   1  -9   4   57.99    3.80
   1  -9   4   62.29    4.00
  -1  -9  -4   60.29    3.40
  -1  -9  -4   58.19    4.00
   1  -9   4   53.39    3.90
   1   9   4   54.19    4.30
   1   9   4   58.69    3.90
  -1   9  -4   53.29    4.30
   1   9   4   58.89    4.50
   3  -9   4  185.98   10.10
  -3  -9  -4  197.68   10.20
   3  -9   4  194.18   10.00
   3  -9   4  207.98   10.00
  -3  -9  -4  204.08    9.60
  -3   9  -4  182.58   10.20
   3   9   4  196.48    9.80
   3   9   4  187.08   10.40
   3   9   4  199.78   10.70
   5  -9   4   24.80    3.00
   5  -9   4   16.30    2.80
  -5  -9  -4   18.80    2.80
   5  -9   4   19.80    2.90
  -5  -9  -4   18.90    2.50
   5   9   4   17.50    2.60
  -5   9  -4   21.00    3.00
   5   9   4   16.90    3.10
  -7  -9  -4  129.69    8.00
   7  -9   4  114.59    7.90
  -7  -9  -4  125.19    7.50
   7  -9   4  124.09    7.70
   7   9   4  121.99    7.40
   7   9   4  127.49    8.30
  -7   9  -4  134.39    7.80
  -9  -9  -4   93.39    6.70
   9  -9   4   93.19    7.00
  -9  -9  -4   98.69    7.20
   9  -9   4   93.19    7.30
   9   9   4   89.89    6.50
  -9   9  -4   97.79    6.80
   9   9   4  111.49    7.40
  11  -9   4    6.80    2.70
 -11  -9  -4   10.50    2.80
  11  -9   4    5.00    2.60
 -11  -9  -4    4.30    2.30
 -11   9  -4   11.20    3.00
  11   9   4    5.90    2.30
 -16 -10   4   39.80    5.30
  16 -10  -4   21.50    4.00
  16 -10  -4   28.70    4.60
 -16 -10   4   32.40    5.40
 -16  10   4   30.00    4.30
 -16  10   4   28.30    4.50
  14 -10  -4  216.58   12.40
  14 -10  -4  189.58   12.50
  14 -10  -4  198.78   12.00
 -14 -10   4  249.78   13.50
 -14 -10   4  233.98   12.60
 -14  10   4  209.18   11.00
 -14  10   4  204.58   11.70
 -14  10   4  212.78   12.90
 -12 -10   4    5.40    2.10
  12 -10  -4    4.50    2.20
 -12 -10   4    5.30    2.50
  12 -10  -4    4.00    2.30
  12 -10  -4    6.00    2.40
 -12  10   4    7.10    2.60
 -12  10   4    7.80    1.80
 -12  10   4    6.40    2.10
 -10 -10   4  662.43   29.90
 -10 -10   4  594.24   30.40
  10 -10  -4  660.63   30.20
  10 -10  -4  638.44   30.20
 -10  10   4  694.23   29.00
 -10  10   4  630.24   30.40
 -10  10   4  683.93   29.00
 -10  10   4  652.83   29.80
   8 -10  -4   41.80    4.60
  -8 -10   4   49.90    4.00
  -8 -10   4   48.30    5.20
   8 -10  -4   50.79    4.30
  -8  10   4   49.40    4.10
  -8  10   4   50.39    3.40
  -8  10   4   50.69    3.60
  -8  10   4   46.70    4.30
   6 -10  -4  407.56   20.40
  -6 -10   4  430.46   19.60
   6 -10  -4  424.66   19.90
  -6  10   4  423.86   20.30
   6  10  -4  413.26   20.10
  -6  10   4  419.36   20.20
  -6  10   4  450.15   19.70
  -6  10   4  455.05   19.20
  -4 -10   4  328.17   16.10
   4 -10  -4  345.07   16.50
  -4 -10   4  361.36   15.70
   4 -10  -4  357.66   17.20
  -4  10   4  391.06   16.00
  -4  10   4  356.86   17.00
  -4  10   4  371.16   16.70
  -4  10   4  331.47   17.00
   4  10  -4  338.17   16.90
  -2 -10   4  547.35   24.60
  -2 -10   4  565.64   24.20
   2 -10  -4  571.24   24.60
  -2 -10   4  517.55   24.20
  -2 -10   4  557.14   24.20
  -2  10   4  579.74   25.20
  -2  10   4  545.35   24.60
  -2  10   4  530.55   25.00
  -2  10   4  535.15   25.20
   2  10  -4  558.44   25.10
   0 -10   4  387.46   17.40
   0 -10   4  390.56   17.70
   0 -10   4  360.56   17.50
   0 -10  -4  403.26   17.80
   0  10   4  394.06   18.50
   0  10   4  387.36   18.40
   0  10  -4  384.96   18.30
   0  10   4  379.46   17.60
  -2 -10  -4  236.68   11.50
   2 -10   4  220.18   11.40
   2 -10   4  236.18   11.60
   2 -10   4  227.48   11.10
   2  10   4  236.78   11.20
   2  10   4  235.78   12.20
   2  10   4  222.48   12.10
  -2  10  -4  226.68   11.90
  -4 -10  -4  292.67   13.90
   4 -10   4  304.27   14.20
  -4 -10  -4  318.57   14.60
   4 -10   4  272.07   14.50
   4 -10   4  285.97   14.50
  -4  10  -4  295.77   14.80
   4  10   4  290.47   15.00
   4  10   4  294.27   15.30
   4  10   4  295.47   14.10
   6 -10   4  359.96   17.00
  -6 -10  -4  374.86   17.00
   6 -10   4  330.67   17.40
   6 -10   4  348.67   17.30
  -6 -10  -4  356.86   17.30
  -6  10  -4  339.57   17.20
   6  10   4  340.97   17.70
   6  10   4  354.96   16.80
   8 -10   4   34.70    4.40
  -8 -10  -4   33.70    4.00
   8 -10   4   34.80    4.60
  -8 -10  -4   30.70    4.00
   8  10   4   37.00    4.10
   8  10   4   31.00    4.30
  -8  10  -4   35.90    4.30
  10 -10   4  226.08   12.80
 -10 -10  -4  225.98   12.60
  10 -10   4  207.18   13.00
 -10 -10  -4  233.08   12.90
 -10  10  -4  213.78   12.40
  10  10   4  218.18   12.10
  10  10   4  226.28   12.80
  12 -10   4    9.10    3.10
 -12 -10  -4   15.40    3.60
 -12 -10  -4   17.60    3.70
 -12  10  -4   12.60    3.10
 -15 -11   4   53.19    5.90
 -15 -11   4   54.29    6.90
  15 -11  -4   53.59    6.20
  15 -11  -4   59.09    6.70
  15 -11  -4   57.09    6.20
 -15  11   4   67.89    5.50
  13 -11  -4    1.80    2.00
 -13 -11   4    5.10    2.70
 -13 -11   4    2.80    1.90
  13 -11  -4    2.20    2.10
  13 -11  -4    4.60    2.50
 -13  11   4    3.60    1.50
 -13  11   4    3.10    1.80
 -13  11   4   -0.10    1.60
 -11 -11   4   31.30    4.60
  11 -11  -4   36.10    4.50
  11 -11  -4   38.60    4.80
  11 -11  -4   41.80    4.90
 -11 -11   4   36.10    4.10
 -11  11   4   29.00    4.10
 -11  11   4   33.70    3.50
 -11  11   4   31.00    3.80
  -9 -11   4   28.40    3.30
  -9 -11   4   28.40    4.00
   9 -11  -4   29.00    3.70
   9 -11  -4   22.90    3.60
  -9  11   4   23.50    2.80
  -9  11   4   25.00    3.40
  -9  11   4   21.90    3.30
  -9  11   4   29.10    3.00
  -7 -11   4   28.10    3.00
   7 -11  -4   27.90    3.80
   7 -11  -4   29.20    3.40
  -7  11   4   32.60    3.30
  -7  11   4   23.10    3.30
  -7  11   4   35.00    3.90
  -7  11   4   33.00    3.10
   5 -11  -4   12.80    2.10
  -5 -11   4   15.10    2.00
   5 -11  -4   12.80    2.60
   5  11  -4   19.00    2.90
  -5  11   4   20.40    2.20
  -5  11   4   18.50    2.80
  -5  11   4   15.90    2.40
  -5  11   4   13.60    2.50
  -3 -11   4    7.10    1.50
  -3 -11   4    8.00    1.40
   3 -11  -4    8.50    1.70
  -3  11   4    6.90    1.40
  -3  11   4    9.90    2.10
   3  11  -4    4.00    1.70
  -3  11   4    5.70    1.70
  -3  11   4    7.70    1.70
  -3  11   4    7.90    2.10
  -1 -11   4    0.70    1.10
   1 -11  -4    1.40    1.00
  -1 -11   4    0.10    0.80
  -1  11   4    0.30    1.10
  -1  11   4    0.30    1.30
  -1  11   4    1.40    1.30
  -1  11   4    1.70    1.10
   1  11  -4    3.00    1.60
   1 -11   4   25.50    2.80
  -1 -11  -4   24.00    2.70
   1 -11   4   26.80    3.20
   1  11   4   30.90    3.70
  -1  11  -4   20.50    3.10
   1  11   4   25.80    2.70
   1  11   4   23.30    3.30
   3 -11   4   33.90    3.80
   3 -11   4   26.30    3.20
  -3 -11  -4   27.40    3.10
   3  11   4   32.70    2.80
   3  11   4   24.60    3.70
   3  11   4   36.30    4.30
  -3  11  -4   32.50    3.90
  -5 -11  -4   23.40    3.20
   5 -11   4   23.00    3.30
   5 -11   4   24.00    3.00
   5 -11   4   29.60    3.80
   5  11   4   22.70    3.80
   5  11   4   24.10    2.90
  -5  11  -4   24.40    3.60
   7 -11   4    4.70    1.90
   7 -11   4    8.70    2.60
   7 -11   4    7.50    2.40
  -7 -11  -4    7.00    2.20
  -7 -11  -4    4.10    1.90
  -7  11  -4    4.10    2.00
   7  11   4    7.40    2.40
   9 -11   4   22.40    4.10
   9 -11   4   17.50    3.70
   9 -11   4   33.80    4.80
  -9 -11  -4   26.80    4.00
  -9 -11  -4   21.90    3.70
   9  11   4   25.60    4.10
  -9  11  -4   20.00    3.60
 -11 -11  -4   10.60    3.10
  11 -11   4   18.60    3.90
  11 -11   4   19.10    4.10
 -11 -11  -4    9.80    2.70
 -11  11  -4   16.70    3.60
  11  11   4   21.40    3.80
  16 -12  -4   58.79    7.00
  16 -12  -4   68.19    7.60
  16 -12  -4   52.39    6.40
 -16 -12   4   59.39    7.30
 -16 -12   4   61.19    6.20
 -16  12   4   48.40    5.70
  14 -12  -4    2.70    2.10
  14 -12  -4    1.30    2.60
  14 -12  -4    2.60    2.40
 -14 -12   4   -1.30    2.50
 -14 -12   4    2.40    1.90
 -14  12   4   -1.00    1.50
 -12 -12   4  183.48   12.40
 -12 -12   4  222.38   11.70
  12 -12  -4  211.18   12.20
  12 -12  -4  215.18   12.50
  12 -12  -4  217.38   12.40
 -12  12   4  201.78   11.70
 -12  12   4  208.28   12.00
 -10 -12   4    8.50    2.70
  10 -12  -4    2.00    1.70
 -10 -12   4    4.40    1.60
  10 -12  -4    1.50    2.10
 -10  12   4    6.20    2.10
 -10  12   4    3.30    1.90
  -8 -12   4  301.37   15.60
  -8 -12   4  309.07   14.50
   8 -12  -4  304.27   15.00
   8 -12  -4  262.07   15.30
  -8  12   4  317.27   14.70
  -8  12   4  287.57   14.90
  -8  12   4  302.17   15.30
   6 -12  -4   26.30    3.10
  -6 -12   4   29.10    2.70
   6 -12  -4   22.90    3.60
  -6  12   4   30.70    3.50
  -6  12   4   27.20    3.70
  -6  12   4   30.50    3.40
   6  12  -4   22.10    3.40
  -4 -12   4  151.28    7.80
   4 -12  -4  147.29    8.10
   4 -12  -4  152.58    8.90
  -4  12   4  155.78    8.70
   4  12  -4  165.78    9.00
  -4  12   4  164.38    9.00
  -4  12   4  142.59    8.90
  -2 -12   4  277.77   13.10
   2 -12  -4  278.17   13.10
  -2 -12   4  261.07   12.70
   2  12  -4  268.97   13.70
  -2  12   4  281.57   14.00
  -2  12   4  274.27   13.90
   0 -12  -4    0.60    0.90
   0 -12   4   -0.60    1.30
   0 -12   4   -0.10    0.90
   0  12   4    1.70    1.60
   0  12   4   -0.10    1.30
   0  12  -4    0.90    1.50
   2 -12   4  184.88    9.90
  -2 -12  -4  178.28    9.30
   2 -12   4  173.88    9.40
   2  12   4  175.08   10.40
  -2  12  -4  181.18   10.20
   2  12   4  188.38   10.30
   4 -12   4  171.98    9.50
  -4 -12  -4  186.38    9.40
   4 -12   4  167.98    9.80
  -4  12  -4  151.28    9.80
   4  12   4  179.28   10.40
   4  12   4  167.88   10.20
  -6 -12  -4   -0.10    1.20
   6 -12   4    3.10    2.10
   6 -12   4    2.50    1.80
   6  12   4    1.40    1.70
  -6  12  -4    0.40    1.80
  -8 -12  -4  136.09    8.30
   8 -12   4  120.79    8.70
   8 -12   4  115.09    8.30
  -8  12  -4  121.99    8.50
   8  12   4  132.79    8.60
  10 -12   4    1.30    2.40
  10 -12   4    0.00    1.80
 -10 -12  -4    2.60    1.90
  10  12   4    2.00    1.90
 -10  12  -4   -0.50    1.70
 -15 -13   4  219.58   14.60
  15 -13  -4  236.48   14.60
  15 -13  -4  259.07   14.50
  15 -13  -4  216.88   13.90
 -15 -13   4  242.98   13.40
 -15  13   4  248.68   13.60
  13 -13  -4    6.70    2.60
  13 -13  -4   19.20    4.10
  13 -13  -4    8.10    3.10
 -13 -13   4   16.60    2.90
 -13 -13   4   15.40    3.80
 -13  13   4   13.50    3.00
  11 -13  -4  147.89    9.40
 -11 -13   4  149.09    8.50
 -11 -13   4  138.59    9.70
  11 -13  -4  134.19    9.50
  11 -13  -4  146.99    9.10
 -11  13   4  139.19    9.00
  -9 -13   4   14.80    3.30
   9 -13  -4   10.20    2.50
   9 -13  -4   12.40    3.20
  -9 -13   4   18.00    2.60
  -9  13   4   15.40    3.20
  -7 -13   4   62.29    4.10
   7 -13  -4   51.29    5.60
   7 -13  -4   57.79    4.50
  -7  13   4   58.19    4.60
  -7  13   4   56.29    5.10
   5 -13  -4  250.37   13.10
   5 -13  -4  230.48   11.80
  -5 -13   4  236.78   11.50
  -5  13   4  225.98   12.90
  -5  13   4  248.08   12.60
   5  13  -4  256.07   12.90
  -3 -13   4    2.10    0.90
   3 -13  -4    3.20    1.70
   3 -13  -4    5.30    1.40
  -3  13   4    3.80    1.70
   3  13  -4    3.00    1.70
  -3  13   4    2.70    1.70
  -1 -13   4   81.59    5.50
   1 -13  -4   79.39    5.00
  -1 -13   4   87.59    4.90
  -1  13   4   86.99    6.40
   1  13  -4   84.49    5.80
  -1  13   4   79.49    5.80
   1 -13   4   65.39    5.00
   1 -13   4   70.39    4.60
  -1 -13  -4   67.39    4.50
  -1  13  -4   60.29    5.20
   1  13   4   72.99    5.80
   1  13   4   70.49    5.40
   3 -13   4   42.60    3.80
  -3 -13  -4   43.90    3.60
   3 -13   4   44.90    4.80
  -3  13  -4   41.70    4.70
   3  13   4   51.99    5.40
   3  13   4   36.00    4.60
   5 -13   4   24.70    4.00
  -5 -13  -4   31.70    3.60
   5 -13   4   30.80    3.80
   5  13   4   37.10    4.80
  -5  13  -4   30.70    4.40
   7 -13   4   29.60    4.80
  -7 -13  -4   39.00    4.20
   7 -13   4   33.50    4.30
   7  13   4   32.00    4.40
  -7  13  -4   34.10    4.70
  -9 -13  -4    0.80    1.50
   9 -13   4    1.10    2.00
   9 -13   4    0.00    2.40
   9  13   4    0.90    1.60
  -9  13  -4    4.10    2.40
  14 -14  -4   95.29    7.40
  14 -14  -4   82.39    8.70
 -14 -14   4   92.89    6.60
  14 -14  -4   90.89    7.70
 -14 -14   4   87.29    9.00
  12 -14  -4   51.79    6.50
 -12 -14   4   85.89    8.00
  12 -14  -4   57.29    6.00
  12 -14  -4   69.69    6.80
 -12 -14   4   58.79    4.80
 -12  14   4   51.29    5.80
  10 -14  -4   19.40    4.00
 -10 -14   4   18.70    3.70
  10 -14  -4   15.40    2.80
 -10 -14   4   14.20    2.40
 -10  14   4   19.70    3.60
   8 -14  -4  348.77   16.80
   8 -14  -4  333.77   17.90
  -8 -14   4  379.46   18.00
  -8 -14   4  325.37   16.10
  -8  14   4  341.17   17.80
  -8  14   4  346.27   17.00
   6 -14  -4   44.40    3.70
   6 -14  -4   43.00    5.00
  -6 -14   4   37.40    3.10
   6  14  -4   37.40    4.70
  -6  14   4   36.20    4.70
  -6  14   4   42.80    4.60
   4 -14  -4  456.35   22.60
  -4 -14   4  457.75   21.00
   4 -14  -4  477.45   21.50
   4  14  -4  498.65   22.70
  -4  14   4  467.55   22.70
  -4  14   4  483.75   22.80
  -2 -14   4   15.00    1.90
  -2  14   4   11.00    2.90
  -2  14   4   14.20    2.80
   2  14  -4   13.70    2.70
   0 -14  -4  649.14   28.10
   0 -14   4  593.84   28.70
   0 -14   4  618.44   27.90
   0  14   4  635.64   29.20
   0  14  -4  639.14   29.10
   0  14   4  656.43   29.90
   2 -14   4   45.80    5.10
  -2 -14  -4   55.79    4.10
   2 -14   4   62.59    4.30
   2  14   4   56.79    5.70
  -2  14  -4   56.99    5.00
   2  14   4   49.50    5.50
   4 -14   4  319.27   15.40
  -4 -14  -4  314.97   15.10
   4 -14   4  305.57   16.30
  -4  14  -4  297.37   16.20
   4  14   4  295.07   16.30
   4  14   4  332.17   16.60
  -6 -14  -4   54.69    4.50
   6 -14   4   49.20    5.80
   6 -14   4   56.09    4.90
  -6  14  -4   43.10    5.50
   6  14   4   63.89    6.30
   8 -14   4   95.59    7.10
   8 -14   4   78.39    7.90
  -8 -14  -4   96.09    6.60
  -8  14  -4   83.39    7.40
   8  14   4   93.69    7.10
  13 -15  -4    2.30    2.80
 -13 -15   4    7.40    2.20
  13 -15  -4    6.90    2.60
  13 -15  -4    4.40    2.80
 -13 -15   4    6.10    2.90
 -13  15   4    4.90    2.50
 -11 -15   4   35.10    5.20
  11 -15  -4   31.40    4.60
  11 -15  -4   31.60    5.20
 -11 -15   4   40.50    3.60
  11 -15  -4   33.80    4.30
 -11  15   4   38.30    5.20
  -9 -15   4   28.70    4.40
   9 -15  -4   50.69    5.80
   9 -15  -4   32.80    3.90
  -9 -15   4   28.80    3.20
  -9  15   4   34.90    4.80
  -7 -15   4  205.58   11.50
   7 -15  -4  193.38   10.50
  -7 -15   4  201.98   10.00
   7 -15  -4  201.98   11.90
  -7  15   4  194.58   11.80
  -7  15   4  205.48   11.30
   5 -15  -4   30.10    3.20
   5 -15  -4   32.00    4.30
  -5 -15   4   33.90    2.70
   5  15  -4   31.30    4.10
  -5  15   4   32.60    4.30
  -5  15   4   34.30    4.30
   3 -15  -4   89.29    5.60
   3 -15  -4   94.29    6.60
  -3 -15   4   97.49    5.30
   3  15  -4   99.09    6.70
  -3  15   4   97.89    7.00
  -3  15   4   92.79    6.70
  -1 -15   4   14.80    2.00
   1 -15  -4   19.30    2.40
  -1 -15   4   14.00    2.70
   1  15  -4   11.30    2.60
  -1  15   4   15.80    3.20
  -1  15   4   18.60    3.20
  -1 -15  -4    9.50    1.80
   1 -15   4   10.60    1.80
   1 -15   4    6.70    2.40
  -1  15  -4   11.90    2.70
   1  15   4   10.80    2.90
   1  15   4   14.70    2.90
   3 -15   4  171.58    9.00
   3 -15   4  145.69    9.70
  -3 -15  -4  163.38    8.80
   3  15   4  169.58   10.30
  -3  15  -4  152.08    9.80
   3  15   4  169.08   10.30
   5 -15   4   52.99    6.10
   5 -15   4   63.99    4.90
  -5 -15  -4   60.09    4.60
  -5  15  -4   56.59    6.10
   5  15   4   60.59    6.30
  -7 -15  -4  136.19    8.20
   7 -15   4  132.19    8.60
   7 -15   4  142.99   10.00
   7  15   4  123.29    8.80
  -7  15  -4  132.09    9.40
  12 -16  -4   23.50    3.70
 -12 -16   4   16.40    2.60
  12 -16  -4   16.40    3.70
  12 -16  -4   16.80    4.30
 -12 -16   4   21.70    4.40
 -12  16   4   20.10    4.00
 -10 -16   4  202.98   10.80
  10 -16  -4  213.48   12.40
 -10 -16   4  206.08   12.50
  10 -16  -4  199.88   11.40
  10 -16  -4  216.18   13.20
 -10  16   4  243.28   13.30
   8 -16  -4    4.20    2.50
   8 -16  -4    7.10    2.00
  -8 -16   4    6.50    1.60
  -8 -16   4    8.60    2.70
  -8  16   4    7.70    2.80
  -6 -16   4   69.39    4.20
   6 -16  -4   73.39    6.00
   6 -16  -4   60.39    4.60
  -6  16   4   70.99    5.60
  -6  16   4   63.09    6.50
  -4 -16   4   40.70    2.90
   4 -16  -4   37.10    4.70
   4 -16  -4   34.90    3.20
  -4  16   4   40.50    4.90
  -4  16   4   43.10    4.90
   4  16  -4   43.80    4.80
   2 -16  -4   26.60    3.80
   2 -16  -4   27.20    2.80
  -2 -16   4   21.80    2.30
  -2  16   4   19.80    3.60
   2  16  -4   21.70    3.50
  -2  16   4   24.50    3.70
   0 -16  -4  109.19    6.40
   0 -16   4  111.89    7.40
   0 -16   4  112.19    6.10
   0  16   4  114.69    8.10
   0  16  -4  108.09    7.30
   0  16   4  109.49    7.60
  -2 -16  -4    6.50    1.60
   2 -16   4   11.60    2.00
   2 -16   4    4.70    2.30
   2  16   4    6.40    2.50
  -2  16  -4    7.50    2.50
   2  16   4    8.20    2.70
  -4 -16  -4   30.00    3.30
   4 -16   4   30.20    4.50
   4 -16   4   23.00    3.10
   4  16   4   29.20    4.40
  -4  16  -4   35.50    4.70
   4  16   4   28.50    4.50
   6 -16   4   26.10    3.40
   6 -16   4   18.40    4.40
  -6 -16  -4   28.50    3.50
  -6  16  -4   23.50    4.20
   6  16   4   21.80    3.70
  11 -17  -4    4.00    2.80
 -11 -17   4   10.50    3.10
 -11 -17   4    4.60    1.60
  11 -17  -4   10.80    2.50
  11 -17  -4    5.00    2.60
 -11  17   4    3.80    2.40
   9 -17  -4   86.69    6.20
  -9 -17   4   94.59    7.40
  -9 -17   4   92.49    5.70
   9 -17  -4  100.29    7.90
  -9  17   4   98.39    7.70
  -7 -17   4   -0.10    1.50
   7 -17  -4   -2.60    1.80
  -7 -17   4    0.90    1.00
   7 -17  -4    1.30    1.20
  -7  17   4   -2.60    1.60
   5 -17  -4   65.09    6.40
   5 -17  -4   62.19    4.50
  -5 -17   4   67.79    4.10
  -5  17   4   65.79    5.90
  -5  17   4   66.29    5.60
   5  17  -4   65.29    5.70
   3 -17  -4    4.20    2.10
  -3 -17   4    5.70    1.20
   3 -17  -4    6.70    1.50
  -3  17   4    7.30    2.40
   3  17  -4    5.90    2.40
  -3  17   4    4.90    2.00
  -1 -17   4   36.40    2.80
   1 -17  -4   28.60    4.10
   1 -17  -4   35.00    3.00
  -1  17   4   39.80    4.70
   1  17  -4   34.20    4.40
  -1 -17  -4   85.59    5.50
   1 -17   4   92.79    5.40
   1 -17   4   83.59    6.60
   1  17   4   91.49    6.90
  -1  17  -4   85.89    6.60
   1  17   4   98.09    7.30
  -3 -17  -4    8.90    1.90
   3 -17   4   11.60    3.20
   3 -17   4    8.00    1.90
  -3  17  -4    7.20    2.60
   3  17   4   12.80    3.00
   3  17   4    8.50    2.50
  -5 -17  -4   86.89    5.80
   5 -17   4   81.89    5.90
   5 -17   4   89.39    7.60
  -5  17  -4   79.69    7.70
   5  17   4   91.29    7.10
  -8 -18   4   11.80    1.90
  -8 -18   4   16.40    3.30
   8 -18  -4   15.00    2.50
   8 -18  -4    8.80    3.00
  -8  18   4    9.60    3.00
   6 -18  -4  101.09    7.50
  -6 -18   4   91.89    5.20
  -6 -18   4   93.49    6.90
   6 -18  -4   93.99    6.00
  -6  18   4   98.39    7.40
  -4 -18   4    5.20    1.20
   4 -18  -4    5.00    1.50
   4 -18  -4    4.40    2.30
  -4  18   4    6.90    2.30
  -4  18   4    4.40    2.30
   4  18  -4    6.40    2.40
  -2 -18   4  508.05   23.00
   2 -18  -4  519.25   25.20
   2 -18  -4  509.15   23.60
  -2  18   4  535.95   25.40
  -2  18   4  559.54   25.70
   2  18  -4  522.85   25.10
   0 -18   4   57.39    3.80
   0  18   4   61.99    5.60
   0  18   4   62.69    6.20
   0  18  -4   53.19    5.70
   2 -18   4  361.86   18.20
  -2 -18  -4  363.06   16.70
   2 -18   4  337.67   16.40
   2  18   4  369.26   18.70
  -2  18  -4  343.97   18.10
   2  18   4  329.17   18.10
  -4 -18  -4    1.50    1.30
   4 -18   4    1.30    1.30
   4 -18   4    2.70    2.50
   4  18   4   -1.90    1.80
   4  18   4   -1.70    1.50
  -4  18  -4   -1.40    1.90
   7 -19  -4   49.90    5.80
  -7 -19   4   48.50    5.50
   7 -19  -4   41.10    3.80
  -7 -19   4   42.30    3.10
  -7  19   4   57.49    6.30
  -5 -19   4  162.68   10.30
  -5 -19   4  169.98    8.40
   5 -19  -4  171.48   10.60
   5 -19  -4  177.48    9.30
  -5  19   4  186.48   11.10
   3 -19  -4    1.40    1.10
   3 -19  -4   -0.40    1.80
  -3 -19   4    0.80    0.80
  -3  19   4    1.20    1.70
  -3  19   4   -0.60    1.70
   3  19  -4    0.80    1.90
   1 -19  -4   28.40    3.00
  -1 -19   4   28.90    2.40
   1 -19  -4   31.80    4.40
   1  19  -4   33.00    4.30
  -1  19   4   26.80    4.00
  -1  19   4   24.30    3.90
   1 -19   4   35.90    3.00
   1  19   4   37.20    4.80
  -1  19  -4   31.50    4.60
   1  19   4   50.99    5.80
 -18   0   5    1.20    1.50
  18   0  -5    0.90    1.70
 -18   0   5   -1.20    3.00
  16   0  -5    0.40    1.50
 -16   0   5    0.30    2.90
 -16   0   5   -0.10    1.30
 -14   0   5   -0.50    1.00
  14   0  -5   -1.30    1.00
 -14   0   5   -1.30    2.50
 -12   0   5    0.50    1.10
 -12   0   5    0.40    0.90
 -12   0   5   -0.70    2.10
  12   0  -5    0.40    0.90
  10   0  -5    0.30    0.80
 -10   0   5   -1.10    1.90
 -10   0   5    0.10    1.00
 -10   0   5    0.50    0.70
  -8   0   5   -0.80    0.60
  -8   0   5    0.40    0.90
   8   0  -5    2.40    1.00
   8   0  -5    0.10    0.70
  -8   0   5   -1.80    1.90
  -6   0   5   -0.10    0.80
   6   0  -5   -0.20    0.60
   6   0  -5   -0.90    0.60
  -6   0   5   -1.00    1.70
  -4   0   5   -3.10    1.40
   4   0  -5   -0.40    0.60
  -4   0   5   -1.00    0.80
   4   0  -5    0.10    0.80
  -4   0   5   -1.30    0.60
  -2   0   5   -0.70    1.20
  -2   0   5    0.70    0.80
   2   0  -5   -0.60    0.40
  -2   0   5    1.30    0.80
  -2   0   5    0.50    0.80
   0   0   5    0.00    0.40
   0   0   5    0.60    0.80
   0   0   5   -0.90    0.90
   0   0   5   -0.60    1.30
   0   0  -5    0.90    0.70
   0   0  -5   -0.30    0.70
   2   0   5   -0.60    1.30
   2   0   5    0.30    0.90
   2   0   5    0.30    0.90
  -2   0  -5    0.60    0.90
  -2   0  -5   -0.20    0.70
   2   0   5   -0.40    1.00
  -2   0  -5    0.80    0.80
   4   0   5    0.10    0.80
   4   0   5    0.40    0.90
   4   0   5    0.50    1.40
   4   0   5    0.70    1.10
  -4   0  -5   -0.20    0.80
  -4   0  -5   -0.70    0.90
   6   0   5   -1.40    1.20
   6   0   5    1.40    1.40
   6   0   5   -1.30    1.40
  -6   0  -5    1.10    1.10
  -8   0  -5    0.40    1.30
   8   0   5    0.00    1.40
 -10   0  -5    0.10    1.40
  10   0   5    0.90    1.50
 -12   0  -5    2.20    1.70
  12   0   5    1.10    1.80
 -19  -1   5   71.29    5.40
  19  -1  -5   75.59    6.10
  19   1  -5   69.99    5.80
  17  -1  -5   92.29    6.40
 -17  -1   5   94.49    9.30
 -17  -1   5   97.89    6.20
 -17   1   5   91.99    6.50
 -17   1   5   85.89   10.50
  17   1  -5   92.99    6.50
  15  -1  -5    6.50    2.00
 -15  -1   5    6.10    3.50
 -15  -1   5    7.60    1.90
 -15   1   5    7.30    3.90
 -15   1   5    6.40    1.70
  15   1  -5    6.20    1.80
  13  -1  -5    4.40    1.50
 -13  -1   5   -2.40    1.80
 -13  -1   5    1.30    1.00
 -13  -1   5    1.00    1.20
 -13   1   5    2.10    1.00
  13   1  -5    2.50    1.30
 -13   1   5    3.70    2.90
 -11  -1   5   76.29    5.30
 -11  -1   5   81.89    4.60
 -11  -1   5   60.59    7.30
  11  -1  -5   72.39    4.70
 -11   1   5   73.49    5.00
  11   1  -5   83.89    4.60
 -11   1   5   61.39    7.50
 -11   1   5   82.19    4.40
   9  -1  -5  143.79    7.70
  -9  -1   5  149.09   10.00
  -9  -1   5  141.79    7.10
  -9  -1   5  155.48    8.00
   9  -1  -5  142.39    7.30
  -9   1   5  125.39    9.70
   9   1  -5  155.88    7.20
  -9   1   5  139.69    7.70
  -9   1   5  140.29    6.90
  -7  -1   5   18.80    3.60
   7  -1  -5   22.90    2.50
   7  -1  -5   22.60    2.00
  -7  -1   5   17.50    3.80
  -7  -1   5   22.20    2.60
   7   1  -5   23.30    2.40
   7   1  -5   21.60    1.80
  -7   1   5   19.10    3.40
  -7   1   5   24.70    1.80
  -7   1   5   22.20    4.10
  -7   1   5   33.80    2.60
  -5  -1   5   23.60    3.70
  -5  -1   5   31.00    2.60
   5  -1  -5   32.00    2.60
   5  -1  -5   31.70    2.20
  -5  -1   5   33.10    4.60
  -5   1   5   34.60    4.60
   5   1  -5   33.10    2.50
  -5   1   5   30.30    2.30
  -5   1   5   32.30    2.50
   5   1  -5   32.30    1.90
  -5   1   5   37.90    4.40
   3  -1  -5   41.90    3.00
  -3  -1   5   34.30    3.90
  -3  -1   5   39.70    2.30
  -3  -1   5   36.20    2.80
   3  -1  -5   38.10    2.40
  -3  -1   5   33.50    2.40
   3   1  -5   37.90    2.00
   3   1  -5   37.60    2.10
  -3   1   5   34.20    2.60
  -3   1   5   38.60    2.60
  -3   1   5   30.00    3.70
   3   1  -5   37.90    2.70
  -3   1   5   34.10    2.70
   1  -1  -5   52.19    2.60
  -1  -1   5   46.40    4.00
   1  -1  -5   49.00    3.50
  -1  -1   5   43.20    3.10
  -1  -1   5   53.59    3.50
  -1  -1   5   50.69    2.60
  -1   1   5   51.69    3.20
   1   1  -5   51.99    3.40
   1   1  -5   46.60    3.10
  -1   1   5   51.19    3.30
  -1   1   5   47.60    3.20
  -1   1   5   54.49    4.20
  -1  -1  -5   21.20    2.20
   1  -1   5   21.40    2.40
   1  -1   5   17.20    2.80
  -1  -1  -5   19.40    2.30
  -1  -1  -5   19.10    1.60
   1  -1   5   15.60    2.00
  -1   1  -5   20.90    2.00
   1   1   5   18.60    2.20
   1   1   5   18.70    2.20
   1   1   5   19.80    2.20
   1   1   5   17.60    1.50
   1   1   5   15.10    2.60
  -1   1  -5   18.70    2.20
   3  -1   5   62.69    4.30
  -3  -1  -5   62.09    4.10
   3  -1   5   71.19    4.40
   3  -1   5   71.29    5.30
   3  -1   5   67.49    4.00
  -3  -1  -5   73.39    4.70
   3   1   5   64.99    4.30
   3   1   5   67.49    4.30
  -3   1  -5   64.59    4.20
   3   1   5   70.99    4.20
  -3   1  -5   66.29    4.30
   3   1   5   67.69    5.10
  -5  -1  -5   11.00    1.90
  -5  -1  -5   17.60    2.60
   5  -1   5   14.00    2.20
   5  -1   5   13.10    2.80
   5  -1   5   13.60    2.30
   5  -1   5   15.80    2.20
   5   1   5   14.90    2.20
   5   1   5   14.90    2.90
  -5   1  -5   11.90    2.00
   5   1   5   12.40    2.10
   7  -1   5    9.80    2.10
  -7  -1  -5    7.30    1.80
   7   1   5    7.30    1.90
   7   1   5    9.40    2.70
  -7   1  -5    7.10    1.80
  -9  -1  -5   78.29    5.60
   9  -1   5   75.99    5.50
  -9   1  -5   73.79    5.40
   9   1   5   71.59    5.60
 -11  -1  -5   45.90    5.00
  11  -1   5   42.20    4.80
  11   1   5   52.69    5.20
 -11   1  -5   41.00    4.70
  13  -1   5   93.49    6.80
 -13  -1  -5   70.59    6.20
 -13   1  -5   76.59    6.40
  13   1   5   98.29    6.80
 -18  -2   5   22.40    5.20
 -18  -2   5   18.10    3.10
  18  -2  -5   17.80    3.10
  18   2  -5   14.40    2.80
 -18   2   5   21.30    5.70
 -16  -2   5  210.28   11.30
  16  -2  -5  217.98   11.70
 -16  -2   5  244.48   15.10
 -16   2   5  189.28   14.70
  16   2  -5  240.18   11.70
  14  -2  -5  252.67   12.80
 -14  -2   5  245.48   12.60
 -14  -2   5  275.97   16.00
 -14  -2   5  254.77   13.80
  14   2  -5  257.87   12.60
 -14   2   5  239.68   16.10
 -14   2   5  271.07   12.40
 -12  -2   5  185.18   11.90
 -12  -2   5  198.68   10.20
 -12  -2   5  172.58    8.90
  12  -2  -5  169.08    9.00
 -12   2   5  150.78   11.60
  12   2  -5  173.48    8.80
 -12   2   5  177.88    8.60
 -10  -2   5   82.29    5.00
 -10  -2   5   85.29    5.60
 -10  -2   5   92.19    7.50
  10  -2  -5   88.49    5.50
  10  -2  -5   87.29    5.10
  10   2  -5   90.99    4.80
 -10   2   5   76.99    7.40
 -10   2   5   95.29    4.70
 -10   2   5   89.09    5.40
  -8  -2   5  139.69    9.60
   8  -2  -5  143.79    7.10
  -8  -2   5  135.09    7.20
  -8  -2   5  140.79    7.80
   8  -2  -5  149.09    7.80
  -8   2   5  148.89    6.70
  -8   2   5  143.79    7.50
   8   2  -5  138.79    6.80
  -8   2   5  148.29   10.10
   6  -2  -5   43.60    3.30
  -6  -2   5   38.50    4.50
  -6  -2   5   36.90    3.10
  -6  -2   5   39.50    5.20
   6  -2  -5   41.70    2.70
  -6   2   5   38.40    4.60
   6   2  -5   42.10    2.30
  -6   2   5   43.60    3.00
  -6   2   5   44.60    3.00
  -6   2   5   40.80    2.30
   6   2  -5   44.20    2.90
  -6   2   5   30.20    4.70
   4  -2  -5   20.40    2.30
   4  -2  -5   19.90    1.90
  -4  -2   5   18.90    1.60
  -4  -2   5   17.40    3.00
  -4  -2   5   22.10    2.40
  -4   2   5   18.50    2.10
  -4   2   5   20.90    3.20
   4   2  -5   24.10    2.00
   4   2  -5   22.20    1.30
   4   2  -5   19.70    1.50
  -4   2   5   21.20    2.10
  -2  -2   5    1.50    0.80
  -2  -2   5    1.60    1.50
  -2  -2   5    1.30    0.60
   2  -2  -5    0.80    0.90
  -2  -2   5    2.00    0.90
   2   2  -5    1.20    0.80
  -2   2   5    2.70    1.20
  -2   2   5    1.30    1.40
   2   2  -5    1.70    0.40
  -2   2   5    1.30    0.80
  -2   2   5    1.50    1.00
   2   2  -5    1.50    0.80
   0  -2  -5   16.50    2.30
   0  -2  -5   14.90    1.20
   0  -2   5   17.10    1.90
   0  -2   5   11.80    2.40
   0  -2   5   14.40    2.10
   0   2   5   14.00    1.80
   0   2  -5   14.20    1.80
   0   2   5   17.30    1.80
   0   2   5   16.80    2.60
   0   2  -5   12.90    1.80
   0   2   5   12.10    1.80
   0   2   5   12.80    1.90
   2  -2   5    0.10    1.00
   2  -2   5    1.00    0.90
   2  -2   5    3.70    1.60
  -2  -2  -5    1.70    1.10
  -2  -2  -5    0.20    0.90
   2   2   5    0.60    0.90
  -2   2  -5    0.30    0.70
   2   2   5    2.60    1.60
  -2   2  -5    0.50    0.90
   2   2   5   -0.20    0.80
   2   2   5    0.40    1.00
   4  -2   5    3.50    1.30
  -4  -2  -5    3.50    1.40
   4  -2   5    0.90    1.20
   4  -2   5    2.90    1.10
   4  -2   5    3.80    1.90
  -4  -2  -5    2.70    1.20
   4   2   5    3.90    1.30
  -4   2  -5    3.60    1.20
   4   2   5    4.90    1.90
   4   2   5    3.50    1.40
  -4   2  -5    4.60    1.40
   6  -2   5   55.19    4.30
  -6  -2  -5   58.49    4.70
   6  -2   5   51.69    4.20
  -6  -2  -5   64.59    4.30
   6  -2   5   49.00    5.60
  -6   2  -5   52.29    4.10
   6   2   5   63.59    4.60
   6   2   5   62.99    5.20
   6   2   5   53.69    4.20
  -8  -2  -5   79.69    5.40
   8  -2   5   78.19    5.50
   8   2   5   74.29    5.40
  -8   2  -5   86.19    5.60
   8   2   5   77.89    6.70
  10  -2   5    0.70    1.70
 -10  -2  -5   -0.40    1.40
  10   2   5    2.90    1.90
 -10   2  -5    1.90    1.70
 -12  -2  -5   28.40    4.00
  12  -2   5   30.00    4.00
  12   2   5   40.10    4.50
 -12   2  -5   34.60    4.30
 -19  -3   5   91.99    6.60
  19  -3  -5   89.29    6.90
  19   3  -5   93.99    6.70
 -17  -3   5    0.20    1.30
 -17  -3   5   -0.10    2.30
  17  -3  -5   -0.20    1.50
 -17   3   5   -0.30    3.10
  17   3  -5   -1.70    1.30
 -15  -3   5  114.89    7.20
 -15  -3   5  119.99    8.50
 -15  -3   5  137.49   10.00
  15  -3  -5  122.09    7.60
 -15   3   5  123.49   10.60
  15   3  -5  126.79    7.20
 -13  -3   5    3.20    1.70
 -13  -3   5    1.90    2.30
 -13  -3   5    4.60    1.50
  13  -3  -5    2.90    1.60
 -13   3   5    2.60    2.60
 -13   3   5    4.60    1.20
  13   3  -5    5.40    1.40
 -11  -3   5   55.69    6.20
  11  -3  -5   43.60    3.50
 -11  -3   5   48.10    4.10
  11  -3  -5   44.00    3.80
 -11  -3   5   43.30    3.40
 -11   3   5   44.80    2.80
  11   3  -5   42.70    3.00
 -11   3   5   45.50    6.30
   9  -3  -5   67.19    4.60
  -9  -3   5   70.29    4.40
  -9  -3   5   68.99    4.80
   9  -3  -5   66.39    4.10
  -9  -3   5   66.69    6.00
  -9   3   5   68.39    3.60
   9   3  -5   64.89    3.70
  -9   3   5   60.19    5.20
  -9   3   5   66.39    6.40
  -7  -3   5    4.30    2.30
   7  -3  -5    5.90    1.50
   7  -3  -5    4.90    1.30
  -7  -3   5    1.40    2.00
  -7  -3   5    2.60    1.30
  -7   3   5    3.30    2.10
  -7   3   5    5.20    0.80
  -7   3   5    6.00    1.40
  -7   3   5    5.20    2.60
  -7   3   5    4.40    1.20
   7   3  -5    5.60    0.90
  -5  -3   5   32.90    2.10
   5  -3  -5   29.00    3.00
  -5  -3   5   31.50    4.50
  -5  -3   5   32.30    2.90
  -5  -3   5   39.50    4.30
   5  -3  -5   34.40    2.50
  -5   3   5   34.60    4.70
  -5   3   5   34.90    2.60
  -5   3   5   31.60    2.60
  -5   3   5   42.00    4.40
   5   3  -5   31.20    1.70
  -3  -3   5   42.50    4.30
   3  -3  -5   47.50    3.40
  -3  -3   5   43.70    3.30
  -3  -3   5   42.60    2.80
   3   3  -5   49.30    2.90
  -3   3   5   48.80    3.30
  -3   3   5   43.00    3.00
  -3   3   5   48.70    4.10
   3   3  -5   47.00    2.90
   1  -3  -5  204.78   10.20
  -1  -3   5  191.88   10.50
  -1  -3   5  210.28   10.10
  -1  -3   5  195.38    9.60
   1   3  -5  203.98    9.90
  -1   3   5  211.88    9.80
  -1   3   5  190.88   10.00
   1   3  -5  230.28    9.80
  -1   3   5  203.98   10.00
  -1   3   5  209.08   10.70
  -1   3   5  196.78    9.80
  -1  -3  -5    0.60    1.00
   1  -3   5   -1.10    1.30
   1  -3   5    0.40    0.90
  -1  -3  -5    0.20    0.80
   1  -3   5    0.40    1.10
  -1   3  -5   -0.80    0.80
   1   3   5    0.00    0.70
   1   3   5   -1.00    0.90
   1   3   5   -0.50    1.20
   1   3   5    0.20    1.00
   1   3   5    1.60    0.80
   3  -3   5  122.19    6.90
  -3  -3  -5  117.39    6.50
  -3  -3  -5  124.59    7.20
   3  -3   5  115.99    6.60
   3  -3   5  115.99    7.50
   3  -3   5  131.49    6.40
   3   3   5  122.59    6.80
   3   3   5  131.89    7.60
   3   3   5  129.89    6.80
  -3   3  -5  123.89    6.50
   5  -3   5   38.70    3.40
  -5  -3  -5   45.70    4.50
  -5  -3  -5   40.60    3.20
   5  -3   5   33.50    3.50
   5  -3   5   39.10    4.60
   5   3   5   43.50    3.60
  -5   3  -5   43.30    3.50
   5   3   5   39.20    4.40
   5   3   5   35.60    3.60
  -5   3  -5   37.80    3.00
  -7  -3  -5  152.78    9.00
   7  -3   5  167.58    9.10
   7  -3   5  169.38    9.40
  -7  -3  -5  180.18   10.00
   7   3   5  173.18   10.10
   7   3   5  183.68    9.90
  -7   3  -5  164.38    9.10
   7   3   5  154.68    9.00
  -9  -3  -5    2.20    1.60
   9  -3   5   -0.10    1.60
  -9   3  -5   -1.70    1.10
   9   3   5    0.40    1.40
   9   3   5    0.60    2.10
  11  -3   5   42.20    4.70
 -11  -3  -5   38.20    4.60
  11   3   5   43.50    5.90
 -11   3  -5   38.30    4.60
  11   3   5   43.80    4.70
 -13  -3  -5    4.30    2.30
  13  -3   5    5.00    2.30
 -13   3  -5    7.70    2.50
  13   3   5    7.70    2.50
  13   3   5    7.40    3.60
  18  -4  -5    1.40    1.80
 -18  -4   5   -0.20    1.50
  18   4  -5    0.70    1.40
 -18   4   5    2.20    3.20
 -16  -4   5   75.89    5.60
 -16  -4   5   84.19    7.70
 -16  -4   5   87.69    8.00
  16  -4  -5   79.99    5.90
  16   4  -5   81.39    5.50
 -16   4   5   76.19    9.50
 -14  -4   5   14.40    2.60
  14  -4  -5   13.70    2.50
 -14  -4   5   13.80    3.10
 -14  -4   5   20.00    4.00
 -14   4   5   17.70    4.60
  14   4  -5   15.80    2.30
 -12  -4   5   52.99    4.80
  12  -4  -5   48.80    4.20
  12  -4  -5   48.20    3.90
  12  -4  -5   52.99    3.50
 -12  -4   5   50.79    6.20
 -12  -4   5   48.40    3.80
  12   4  -5   46.00    3.30
 -12   4   5   50.89    6.80
 -10  -4   5   52.29    3.90
  10  -4  -5   50.79    4.20
 -10  -4   5   55.89    4.50
  10  -4  -5   53.29    3.80
 -10  -4   5   47.80    5.80
 -10   4   5   58.79    6.60
  10   4  -5   48.50    3.10
  -8  -4   5   66.59    5.80
   8  -4  -5   72.49    4.70
  -8  -4   5   71.79    4.80
   8  -4  -5   60.69    4.10
  -8   4   5   64.79    4.30
  -8   4   5   71.79    6.30
  -8   4   5   69.09    3.40
   8   4  -5   64.49    3.50
   6  -4  -5  186.58    9.70
  -6  -4   5  181.68   11.10
  -6  -4   5  201.48    9.80
   6  -4  -5  190.08    9.30
  -6  -4   5  190.98   10.50
  -6   4   5  196.38   11.60
   6   4  -5  192.08    8.40
  -6   4   5  199.08    8.20
  -6   4   5  200.98   10.80
  -6   4   5  176.28    9.10
  -6   4   5  178.48    9.30
   4  -4  -5   36.40    2.80
  -4  -4   5   36.20    2.30
  -4  -4   5   37.40    4.00
  -4  -4   5   38.50    3.10
   4  -4  -5   41.00    3.30
  -4   4   5   40.30    4.90
  -4   4   5   33.90    2.90
  -4   4   5   34.70    2.60
   4   4  -5   33.30    2.50
  -4   4   5   41.40    4.30
  -2  -4   5  248.48   11.90
   2  -4  -5  239.38   12.00
  -2  -4   5  240.48   11.30
  -2  -4   5  276.57   12.60
  -2   4   5  253.27   12.10
  -2   4   5  266.77   12.60
  -2   4   5  244.08   11.50
  -2   4   5  243.18   11.80
   2   4  -5  236.28   11.70
   0  -4  -5   34.10    2.50
   0  -4   5   38.20    3.10
   0  -4   5   34.20    3.70
   0  -4  -5   39.70    3.30
   0  -4   5   40.50    2.90
   0   4   5   36.70    3.00
   0   4   5   33.80    3.00
   0   4  -5   34.60    3.00
   0   4   5   35.80    2.90
   0   4   5   42.30    3.60
  -2  -4  -5   97.79    5.80
   2  -4   5   82.19    5.90
   2  -4   5   99.29    5.70
  -2  -4  -5  100.19    5.10
   2  -4   5   87.59    5.20
  -2   4  -5   85.59    5.20
   2   4   5   85.09    5.30
   2   4   5   88.29    5.80
   2   4   5   91.19    5.10
   2   4   5   91.19    5.30
   4  -4   5  117.99    7.00
   4  -4   5  133.79    8.10
   4  -4   5  130.79    7.40
  -4  -4  -5  136.49    7.70
  -4  -4  -5  136.59    7.00
   4   4   5  129.69    7.10
   4   4   5  122.59    7.30
  -4   4  -5  119.59    6.80
   4   4   5  126.79    7.70
   6  -4   5    1.60    1.50
   6  -4   5    8.10    1.90
   6  -4   5    9.20    2.60
  -6  -4  -5    6.10    2.10
  -6  -4  -5    8.60    1.90
   6   4   5   10.30    2.40
  -6   4  -5    8.20    1.80
   6   4   5    6.90    1.80
  -6   4  -5    7.10    1.80
   6   4   5    7.20    2.30
   8  -4   5  227.08   11.80
  -8  -4  -5  223.48   11.60
  -8  -4  -5  210.58   12.50
  -8   4  -5  205.68   11.60
  -8   4  -5  222.28   11.50
   8   4   5  243.38   11.80
   8   4   5  227.58   12.60
   8   4   5  227.68   15.20
  10  -4   5    6.10    2.20
 -10  -4  -5    6.10    2.20
  10   4   5    4.40    2.40
  10   4   5    3.50    1.80
 -10   4  -5    6.60    2.20
 -12  -4  -5   58.19    5.90
  12  -4   5   54.79    5.80
  12   4   5   73.59    7.70
  12   4   5   61.69    5.20
 -12   4  -5   57.79    5.90
 -17  -5   5   16.70    3.00
 -17  -5   5   18.80    4.40
  17  -5  -5   17.50    3.20
  17   5  -5   14.10    2.60
 -17   5   5   26.40    5.90
 -15  -5   5   15.10    3.40
  15  -5  -5   18.60    3.00
 -15  -5   5   13.40    2.70
 -15  -5   5   15.10    3.80
  15   5  -5   15.30    2.40
 -15   5   5   19.10    4.80
  13  -5  -5   26.80    3.60
  13  -5  -5   24.10    3.10
 -13  -5   5   26.70    4.50
 -13  -5   5   24.80    3.90
  13  -5  -5   28.90    3.00
 -13  -5   5   29.00    3.40
 -13   5   5   25.90    5.10
  13   5  -5   24.20    2.60
 -13   5   5   30.20    3.60
  11  -5  -5   77.79    5.10
 -11  -5   5   79.09    5.90
 -11  -5   5   73.09    6.30
  11  -5  -5   84.59    5.70
 -11  -5   5   75.99    5.20
 -11   5   5   89.49    7.30
  11   5  -5   71.59    4.30
 -11   5   5   73.69    5.30
  -9  -5   5  193.78   11.50
  -9  -5   5  206.48   10.70
   9  -5  -5  209.58   10.70
   9  -5  -5  191.38    9.90
  -9  -5   5  192.78   10.30
  -9   5   5  204.78   12.30
   9   5  -5  203.38    9.20
  -9   5   5  195.48   10.20
   7  -5  -5   64.09    4.30
  -7  -5   5   67.09    4.60
  -7  -5   5   70.09    5.80
   7  -5  -5   76.89    4.90
  -7   5   5   66.79    4.40
   7   5  -5   72.59    3.50
  -7   5   5   64.99    3.90
  -7   5   5   63.19    5.90
  -5  -5   5   14.90    3.10
   5  -5  -5   11.90    1.90
  -5  -5   5   14.00    2.10
  -5  -5   5   13.10    1.20
   5  -5  -5   12.70    2.10
  -5  -5   5    8.90    2.20
  -5   5   5   10.80    1.80
  -5   5   5   14.00    3.10
  -5   5   5   10.90    2.50
   5   5  -5   11.60    1.60
  -3  -5   5    4.10    1.30
  -3  -5   5    6.70    1.20
  -3  -5   5    5.40    1.90
  -3   5   5    5.60    1.90
  -3   5   5    5.60    1.40
   3   5  -5    4.40    1.50
  -3   5   5    8.30    1.70
  -1  -5   5    5.90    1.50
  -1  -5   5    4.80    1.60
   1  -5  -5    5.20    1.60
  -1  -5   5    4.00    1.10
   1   5  -5    5.00    1.60
  -1   5   5    8.60    2.00
  -1   5   5    3.60    1.30
  -1   5   5    6.90    2.00
   1  -5   5  124.69    6.70
   1  -5   5  121.49    7.00
  -1  -5  -5  112.39    6.80
  -1  -5  -5  119.69    6.00
   1  -5   5  108.69    6.20
   1   5   5  113.69    6.50
   1   5   5  123.09    7.00
  -1   5  -5  125.29    6.60
   1   5   5  114.29    6.50
   1   5   5  117.79    6.60
  -3  -5  -5   39.50    3.70
   3  -5   5   36.70    4.10
   3  -5   5   39.80    3.20
   3  -5   5   38.60    3.40
  -3  -5  -5   38.40    3.00
   3   5   5   43.50    3.10
   3   5   5   40.90    3.50
   3   5   5   47.90    3.40
  -3   5  -5   40.80    3.20
   3   5   5   40.50    4.10
   5  -5   5   71.39    5.70
   5  -5   5   76.09    5.30
   5  -5   5   67.59    4.80
  -5  -5  -5   66.59    5.40
  -5  -5  -5   75.49    4.80
  -5   5  -5   67.59    4.70
   5   5   5   77.19    5.40
   5   5   5   74.29    4.80
   5   5   5   67.79    5.10
   7  -5   5   34.60    4.20
   7  -5   5   32.30    3.80
  -7  -5  -5   38.40    4.60
  -7  -5  -5   35.50    3.80
   7  -5   5   36.70    4.80
   7   5   5   30.90    4.10
  -7   5  -5   33.40    3.60
   7   5   5   43.80    4.80
   7   5   5   38.60    3.80
   9  -5   5    4.00    2.10
  -9  -5  -5    5.40    1.90
  -9   5  -5    1.50    1.70
  -9   5  -5    4.90    1.90
   9   5   5    2.70    1.70
   9   5   5    0.40    1.80
 -11  -5  -5  102.19    7.30
  11  -5   5  107.39    7.30
 -11   5  -5   94.99    7.10
  11   5   5  113.49    7.20
  11   5   5  105.39    8.00
 -11   5  -5  109.49    7.40
  18  -6  -5   13.10    3.30
 -18  -6   5    6.80    2.50
 -18   6   5   11.80    3.20
 -18   6   5   17.70    4.80
 -16  -6   5   31.00    4.30
 -16  -6   5   29.80    5.00
 -16  -6   5   31.90    5.00
  16  -6  -5   33.60    4.30
  16   6  -5   28.70    3.30
 -16   6   5   33.30    6.00
 -16   6   5   30.80    4.30
  14  -6  -5  101.49    6.80
 -14  -6   5  103.29    8.00
 -14  -6   5  105.49    7.00
  14  -6  -5  108.29    6.50
 -14  -6   5   96.39    7.80
 -14   6   5  115.99    9.20
 -14   6   5  110.39    7.10
  14   6  -5  103.09    6.00
 -12  -6   5   48.90    5.60
  12  -6  -5   51.19    4.30
 -12  -6   5   52.49    5.50
 -12  -6   5   57.69    4.70
  12  -6  -5   57.09    5.00
  12  -6  -5   56.29    4.30
 -12   6   5   57.39    4.60
  12   6  -5   52.49    3.50
 -12   6   5   53.89    6.60
 -10  -6   5   62.69    4.60
  10  -6  -5   52.09    4.00
 -10  -6   5   43.00    5.20
  10  -6  -5   51.69    4.60
 -10  -6   5   57.39    4.80
  10   6  -5   56.29    3.30
 -10   6   5   53.49    6.20
 -10   6   5   58.79    4.30
   8  -6  -5  184.78    9.60
   8  -6  -5  196.88   10.30
  -8  -6   5  188.88   10.80
  -8  -6   5  179.68   10.00
  -8   6   5  206.98   11.60
  -8   6   5  189.58    9.80
   6  -6  -5   34.60    3.30
  -6  -6   5   33.50    3.00
  -6  -6   5   29.60    3.60
   6  -6  -5   28.20    3.20
  -6  -6   5   26.90    3.80
  -6   6   5   32.60    4.40
  -6   6   5   40.80    4.30
  -6   6   5   28.30    2.60
  -6   6   5   29.00    3.00
  -4  -6   5   32.40    3.60
   4  -6  -5   36.20    3.10
  -4  -6   5   32.30    2.10
   4  -6  -5   26.30    3.00
  -4  -6   5   37.10    4.20
  -4  -6   5   25.70    2.80
   4   6  -5   27.70    2.90
  -4   6   5   36.70    4.00
  -4   6   5   28.40    2.70
  -4   6   5   34.80    3.10
  -4   6   5   30.10    4.10
  -2  -6   5   -0.10    0.80
  -2  -6   5    0.40    1.00
  -2  -6   5   -1.60    1.00
   2  -6  -5   -0.70    1.00
  -2   6   5    1.10    1.30
  -2   6   5    0.80    1.30
   2   6  -5   -0.70    1.10
  -2   6   5    0.50    1.10
   0  -6  -5  131.49    6.10
   0  -6  -5  125.49    7.10
   0  -6   5  118.39    6.90
   0  -6   5  124.09    6.50
   0  -6   5  120.59    7.00
   0   6   5  126.29    7.10
   0   6   5  115.19    7.00
   0   6  -5  125.59    7.10
   0   6   5  126.29    7.00
   2  -6   5    1.00    1.30
   2  -6   5   -0.20    1.00
  -2  -6  -5    1.00    0.90
  -2  -6  -5    1.60    1.30
   2  -6   5   -0.50    1.00
  -2   6  -5   -1.10    0.90
   2   6   5    2.10    1.10
   2   6   5    0.20    1.20
   2   6   5    0.70    1.10
   4  -6   5    4.80    1.60
   4  -6   5    0.30    1.50
  -4  -6  -5    2.70    1.20
  -4  -6  -5    0.80    1.30
   4  -6   5    2.00    1.30
   4   6   5    1.40    1.20
   4   6   5    0.80    1.40
   4   6   5    3.90    1.70
  -4   6  -5    1.80    1.30
   6  -6   5    3.10    1.70
  -6  -6  -5    1.60    1.40
   6  -6   5   -0.20    1.20
  -6  -6  -5    2.50    1.80
   6  -6   5    1.80    1.80
  -6   6  -5   -0.20    1.20
   6   6   5    1.90    1.70
   6   6   5    0.70    1.20
   6   6   5   -1.30    1.30
   8  -6   5    2.60    2.40
   8  -6   5    3.20    1.90
   8  -6   5    0.90    1.60
  -8  -6  -5    0.60    1.40
  -8  -6  -5    4.30    2.20
   8   6   5    3.30    2.00
  -8   6  -5    2.00    1.60
   8   6   5   -0.70    1.30
   8   6   5    0.70    1.70
 -10  -6  -5   12.90    2.80
  10  -6   5    9.10    2.60
  10   6   5   14.20    2.60
 -10   6  -5   18.10    3.10
  10   6   5   12.30    3.00
 -12  -6  -5   36.20    4.90
  12  -6   5   29.80    4.40
  12   6   5   32.90    4.20
  12   6   5   47.80    5.90
 -12   6  -5   32.10    4.50
  17  -7  -5   78.69    6.50
 -17  -7   5   82.29    6.60
 -17   7   5   87.89    8.50
  15  -7  -5    3.60    2.20
 -15  -7   5    1.30    1.80
 -15  -7   5    1.60    2.20
 -15  -7   5    3.90    2.20
 -15   7   5    3.20    2.70
 -15   7   5    0.80    1.70
 -13  -7   5  510.05   22.90
 -13  -7   5  466.65   23.30
  13  -7  -5  471.45   23.10
  13  -7  -5  471.95   22.10
  13  -7  -5  468.75   22.30
 -13  -7   5  415.06   23.00
 -13   7   5  476.65   22.40
 -13   7   5  492.45   24.70
 -11  -7   5   -0.60    1.40
  11  -7  -5   -1.10    1.50
  11  -7  -5    1.20    1.50
 -11  -7   5   -0.60    1.40
 -11  -7   5    3.20    1.70
 -11   7   5   -0.90    1.70
 -11   7   5    0.50    0.90
 -11   7   5   -0.90    1.20
   9  -7  -5  300.27   15.00
   9  -7  -5  308.87   14.50
  -9  -7   5  289.57   14.90
  -9  -7   5  291.57   14.80
  -9  -7   5  286.27   15.10
  -9   7   5  314.27   16.20
  -9   7   5  286.77   14.30
  -9   7   5  282.77   13.80
   7  -7  -5   25.40    3.20
   7  -7  -5   28.80    3.20
  -7  -7   5   30.60    3.80
  -7  -7   5   24.50    3.10
  -7   7   5   25.00    4.00
  -7   7   5   32.50    3.30
  -7   7   5   34.60    2.80
  -5  -7   5  166.18    8.70
  -5  -7   5  171.88    9.10
  -5  -7   5  171.98    9.60
   5  -7  -5  146.69    8.80
   5  -7  -5  169.08    8.90
   5   7  -5  163.58    8.60
  -5   7   5  176.08    9.40
  -5   7   5  165.08    8.50
  -5   7   5  168.78    8.80
  -5   7   5  168.88    9.90
  -3  -7   5  435.06   20.00
  -3  -7   5  446.76   19.80
  -3  -7   5  438.36   19.00
   3  -7  -5  416.36   20.00
  -3   7   5  452.35   21.10
  -3   7   5  432.06   19.80
  -3   7   5  458.05   20.40
  -3   7   5  422.56   20.10
   3   7  -5  399.56   19.70
  -1  -7   5   33.60    3.00
  -1  -7   5   31.00    3.30
   1  -7  -5   27.50    3.10
  -1  -7   5   31.10    2.50
   1   7  -5   32.50    3.40
  -1   7   5   31.20    3.40
  -1   7   5   32.40    3.40
  -1   7   5   27.10    3.00
   1  -7   5  666.13   29.00
  -1  -7  -5  615.94   29.10
   1  -7   5  632.54   28.40
  -1  -7  -5  696.53   28.10
   1  -7   5  646.64   29.00
   1   7   5  623.14   29.10
  -1   7  -5  617.84   28.90
   1   7   5  666.43   29.10
   1   7   5  652.93   29.00
  -3  -7  -5   76.19    5.40
   3  -7   5   68.29    4.80
   3  -7   5   84.69    5.50
   3  -7   5   80.09    5.40
  -3  -7  -5   79.09    4.60
   3   7   5   68.69    5.00
  -3   7  -5   75.79    5.10
   3   7   5   79.09    5.10
   3   7   5   73.99    5.30
   5  -7   5  707.73   30.90
   5  -7   5  691.63   31.50
  -5  -7  -5  655.43   31.50
  -5  -7  -5  698.23   30.60
   5  -7   5  697.43   31.60
   5   7   5  707.43   31.80
   5   7   5  664.63   30.80
   5   7   5  701.43   31.30
  -5   7  -5  677.93   30.90
  -7  -7  -5    7.80    2.00
   7  -7   5    9.30    2.40
   7  -7   5   14.30    3.00
  -7  -7  -5    7.90    2.60
   7  -7   5   11.00    2.80
   7   7   5   11.10    2.30
  -7   7  -5   11.10    2.40
   7   7   5   13.90    2.90
   7   7   5    8.00    2.20
  -9  -7  -5   51.89    5.90
  -9  -7  -5   56.49    5.50
   9  -7   5   54.29    5.40
   9  -7   5   52.79    6.00
   9  -7   5   54.49    6.10
   9   7   5   58.59    6.00
   9   7   5   51.89    5.40
  -9   7  -5   53.39    4.70
   9   7   5   51.49    4.40
  11  -7   5   35.90    5.60
  11  -7   5   40.90    4.90
 -11  -7  -5   43.80    5.10
  11   7   5   37.30    5.00
 -11   7  -5   36.20    4.60
  11   7   5   33.90    4.10
 -16  -8   5   19.00    3.70
 -16  -8   5   14.10    3.40
  16  -8  -5   18.50    3.40
 -16   8   5   11.60    3.00
 -16   8   5   12.90    3.80
  14  -8  -5   46.10    5.60
  14  -8  -5   55.89    4.80
 -14  -8   5   51.89    5.80
  14  -8  -5   46.80    5.20
 -14  -8   5   52.69    5.70
 -14  -8   5   53.19    6.10
 -14   8   5   59.99    7.00
 -14   8   5   56.09    5.50
  12  -8  -5    5.00    2.00
 -12  -8   5    4.20    2.10
 -12  -8   5    9.60    2.50
 -12  -8   5    4.90    2.10
  12  -8  -5    9.40    2.60
 -12   8   5    8.00    3.00
 -12   8   5    6.10    2.00
 -12   8   5    7.00    1.60
 -10  -8   5   21.60    3.30
 -10  -8   5   20.70    3.30
 -10  -8   5   15.70    3.10
  10  -8  -5   20.40    3.30
  10  -8  -5   23.10    3.20
 -10   8   5   18.20    2.30
 -10   8   5   19.90    3.00
 -10   8   5   21.90    3.80
   8  -8  -5  146.39    8.70
  -8  -8   5  138.99    8.40
  -8  -8   5  149.19    8.80
   8  -8  -5  156.98    8.50
  -8   8   5  153.78    8.40
  -8   8   5  167.88    9.60
  -8   8   5  141.89    7.80
  -6  -8   5  279.87   13.30
  -6  -8   5  276.37   13.80
   6  -8  -5  251.47   13.30
   6  -8  -5  270.07   13.50
  -6   8   5  258.37   12.80
  -6   8   5  267.07   13.30
  -6   8   5  282.07   14.40
   6   8  -5  267.37   13.10
  -4  -8   5  256.57   13.60
  -4  -8   5  292.37   14.00
   4  -8  -5  284.27   14.00
   4  -8  -5  283.67   14.20
  -4  -8   5  302.97   12.90
  -4  -8   5  293.37   14.50
  -4   8   5  297.57   14.90
  -4   8   5  310.17   14.40
  -4   8   5  280.67   14.10
   4   8  -5  273.17   13.90
  -4   8   5  289.67   13.80
  -2  -8   5  297.87   13.50
  -2  -8   5  289.27   14.10
  -2  -8   5  297.67   14.20
   2  -8  -5  298.37   14.40
  -2   8   5  318.27   14.80
   2   8  -5  289.07   14.40
  -2   8   5  291.07   14.30
  -2   8   5  292.47   14.40
   0  -8   5  273.67   13.60
   0  -8   5  284.87   13.60
   0  -8  -5  288.67   13.90
   0  -8   5  287.17   13.30
   0   8   5  290.17   14.20
   0   8   5  290.27   14.00
   0   8  -5  274.27   13.80
   0   8   5  268.27   13.60
  -2  -8  -5    3.50    1.60
   2  -8   5    4.00    1.50
   2  -8   5    0.40    1.20
   2  -8   5    4.70    1.50
   2   8   5    1.30    1.40
   2   8   5    3.90    1.60
   2   8   5    3.80    1.50
  -2   8  -5    4.30    1.60
   4  -8   5    3.60    1.70
   4  -8   5    3.90    1.70
  -4  -8  -5    3.50    1.70
  -4  -8  -5    4.50    1.50
   4  -8   5    3.20    1.70
   4   8   5    2.70    1.50
   4   8   5    3.10    1.90
  -4   8  -5    4.30    1.70
   4   8   5    2.60    1.60
  -6  -8  -5  237.98   12.30
  -6  -8  -5  262.17   13.40
   6  -8   5  240.98   12.60
   6  -8   5  246.08   13.00
   6  -8   5  237.28   13.20
   6   8   5  243.78   13.30
  -6   8  -5  246.58   12.60
   6   8   5  223.28   12.50
   8  -8   5   29.80    4.40
   8  -8   5   33.20    4.80
   8  -8   5   25.80    3.80
  -8  -8  -5   22.50    3.90
  -8  -8  -5   32.70    4.00
   8   8   5   31.10    4.30
   8   8   5   21.60    3.50
  -8   8  -5   25.30    3.60
 -10  -8  -5  223.08   12.20
  10  -8   5  202.08   11.90
 -10  -8  -5  217.88   13.00
  10  -8   5  220.08   13.00
  10   8   5  200.08   12.00
 -10   8  -5  200.68   11.70
  17  -9  -5    7.80    3.00
 -17  -9   5    9.60    3.20
 -17  -9   5    6.00    3.10
 -17   9   5    6.10    3.10
 -17   9   5   10.30    2.80
  15  -9  -5   18.30    3.70
 -15  -9   5   11.40    3.30
  15  -9  -5   14.90    3.10
 -15  -9   5   15.60    3.50
 -15   9   5   18.00    4.20
 -15   9   5   21.50    3.50
  13  -9  -5    4.90    2.20
 -13  -9   5    4.20    2.10
 -13  -9   5    6.80    2.60
 -13  -9   5    9.00    3.00
  13  -9  -5    2.90    2.10
  13  -9  -5    7.50    2.50
 -13   9   5    5.70    2.10
 -13   9   5    4.10    2.40
 -11  -9   5   17.30    3.00
 -11  -9   5   20.60    3.40
  11  -9  -5   14.50    3.10
 -11  -9   5   18.40    3.50
  11  -9  -5   22.90    3.40
 -11   9   5   16.30    2.80
 -11   9   5   20.70    2.50
 -11   9   5   18.90    3.80
  -9  -9   5    7.80    2.40
   9  -9  -5    7.60    2.10
   9  -9  -5    6.70    2.10
  -9  -9   5   10.80    2.30
  -9  -9   5    8.70    2.20
  -9   9   5    7.60    2.10
  -9   9   5    6.40    2.30
  -9   9   5    8.20    1.70
  -7  -9   5  118.09    6.90
   7  -9  -5  101.99    6.60
  -7  -9   5   99.39    6.40
   7  -9  -5  109.09    6.90
  -7   9   5   97.99    7.00
  -7   9   5  107.49    6.70
  -7   9   5  105.99    6.10
  -5  -9   5    1.70    1.40
   5  -9  -5    0.10    1.40
  -5  -9   5    1.30    1.30
   5  -9  -5    1.40    1.30
  -5  -9   5    1.90    1.20
  -5   9   5    2.10    1.60
  -5   9   5    1.30    1.60
  -5   9   5    2.90    1.50
   5   9  -5    1.80    1.40
  -5   9   5    1.10    1.00
  -3  -9   5   17.90    2.80
  -3  -9   5   17.80    2.40
  -3  -9   5   14.50    2.20
  -3  -9   5   14.20    1.80
  -3   9   5   19.80    2.80
  -3   9   5   16.40    2.40
   3   9  -5   18.50    2.80
  -3   9   5   18.70    2.80
  -3   9   5   15.40    2.80
  -1  -9   5   74.39    5.00
  -1  -9   5   79.89    5.00
  -1  -9   5   84.19    4.80
   1  -9  -5   78.29    5.20
  -1   9   5   81.49    5.40
  -1   9   5   74.49    5.00
   1   9  -5   79.09    5.40
  -1   9   5   76.39    5.60
   1  -9   5    5.20    1.60
   1  -9   5    2.10    1.20
   1  -9   5    1.90    1.30
  -1  -9  -5    3.20    1.50
   1   9   5    3.10    1.60
   1   9   5    0.90    1.40
  -1   9  -5    2.70    1.50
   1   9   5    2.30    1.40
  -3  -9  -5   99.09    6.50
   3  -9   5  101.29    6.50
   3  -9   5   99.59    6.20
   3  -9   5  108.29    6.40
   3   9   5  102.89    6.70
   3   9   5   93.69    6.10
   3   9   5  100.49    6.90
  -3   9  -5   93.49    6.40
   5  -9   5   30.90    3.70
  -5  -9  -5   34.90    3.50
   5  -9   5   29.80    3.70
   5  -9   5   24.30    3.70
  -5  -9  -5   25.60    3.70
   5   9   5   28.20    3.40
  -5   9  -5   28.90    3.60
   5   9   5   27.30    4.10
   7  -9   5   22.60    3.60
  -7  -9  -5   32.20    4.30
  -7  -9  -5   26.30    3.50
   7  -9   5   23.50    3.70
   7  -9   5   19.10    3.60
   7   9   5   27.20    4.10
   7   9   5   23.00    3.50
  -7   9  -5   21.60    3.50
  -9  -9  -5   23.70    3.90
   9  -9   5   33.20    4.60
  -9  -9  -5   35.20    5.00
   9  -9   5   28.60    4.30
   9  -9   5   38.10    5.30
  -9   9  -5   30.80    4.30
   9   9   5   31.10    4.50
   9   9   5   28.20    4.00
  11  -9   5   14.70    3.70
 -11  -9  -5    9.40    2.80
  11  -9   5   15.30    3.50
 -11   9  -5   14.70    3.20
  11   9   5   16.50    3.50
  16 -10  -5   24.30    4.30
 -16 -10   5   29.20    4.80
 -16 -10   5   25.00    4.50
 -16  10   5   19.70    4.20
 -16  10   5   21.20    3.80
  14 -10  -5    1.00    1.90
 -14 -10   5    0.70    2.00
 -14 -10   5    2.50    2.00
  14 -10  -5    4.50    2.30
  14 -10  -5   -0.10    2.10
 -14  10   5   -2.30    1.70
 -14  10   5    3.20    2.00
 -12 -10   5    6.00    2.70
 -12 -10   5   11.40    2.70
  12 -10  -5   11.60    2.90
  12 -10  -5   10.70    2.70
 -12  10   5    6.80    2.50
 -12  10   5   10.00    2.60
  10 -10  -5  133.49    8.40
  10 -10  -5  129.59    8.30
 -10 -10   5  130.79    8.10
 -10 -10   5  121.29    8.50
 -10  10   5  122.19    8.40
 -10  10   5  134.29    7.30
 -10  10   5  131.79    8.10
  -8 -10   5   49.50    4.30
   8 -10  -5   60.79    5.00
   8 -10  -5   59.49    4.80
  -8  10   5   54.09    4.50
  -8  10   5   51.39    4.80
  -8  10   5   55.09    4.10
   6 -10  -5  441.66   20.50
   6 -10  -5  424.66   20.90
  -6 -10   5  437.36   20.20
  -6  10   5  432.16   20.70
  -6  10   5  453.95   20.20
   6  10  -5  428.36   20.60
  -6  10   5  425.26   21.00
   4 -10  -5    1.10    1.50
  -4 -10   5    0.20    1.00
   4 -10  -5    1.10    1.20
  -4 -10   5    0.60    1.30
  -4 -10   5   -0.80    0.90
  -4  10   5    1.00    1.20
  -4  10   5    2.00    1.50
   4  10  -5    0.30    1.50
  -4  10   5    3.30    1.60
  -4  10   5    0.50    1.40
  -2 -10   5  296.57   15.80
  -2 -10   5  363.26   16.00
   2 -10  -5  331.17   16.20
  -2 -10   5  348.27   15.60
  -2  10   5  335.37   16.20
   2  10  -5  345.47   16.40
  -2  10   5  348.27   16.90
  -2  10   5  330.97   16.60
  -2  10   5  350.86   16.50
   0 -10  -5   10.20    2.10
   0 -10   5    9.90    1.90
   0 -10   5   12.70    2.20
   0  10   5   12.80    2.10
   0  10   5   10.70    2.40
   0  10   5   13.60    2.50
   0  10  -5   12.40    2.50
   2 -10   5  160.88    8.90
   2 -10   5  166.18    9.30
   2 -10   5  176.38    9.30
   2  10   5  171.48    9.10
   2  10   5  172.98    9.90
   2  10   5  177.38    9.90
  -2  10  -5  156.78    9.40
   4 -10   5   99.29    7.00
   4 -10   5  102.69    6.70
  -4 -10  -5  111.69    7.10
   4 -10   5  116.09    7.10
   4  10   5  102.69    7.50
   4  10   5  118.49    6.80
  -4  10  -5  102.69    7.10
   4  10   5  110.69    7.40
   6 -10   5    7.90    2.60
  -6 -10  -5    6.00    2.20
   6 -10   5    5.20    2.20
   6 -10   5    7.20    2.20
   6  10   5    4.20    1.70
   6  10   5    8.00    2.60
  -6  10  -5    5.90    2.30
   8 -10   5  143.29    9.90
  -8 -10  -5  156.18    9.90
   8 -10   5  155.78    9.70
   8  10   5  170.88   10.10
  -8  10  -5  141.69    9.30
   8  10   5  149.49    9.10
  10 -10   5   22.50    4.20
  10 -10   5   19.10    3.80
 -10 -10  -5   15.90    3.80
  10 -10   5   19.30    4.20
 -10  10  -5   18.70    3.50
  10  10   5   19.40    3.80
  15 -11  -5  233.68   13.40
  15 -11  -5  225.38   13.40
 -15 -11   5  228.88   13.00
 -15 -11   5  212.38   13.60
 -15  11   5  224.98   12.60
 -15  11   5  191.18   13.00
 -13 -11   5   14.90    4.00
  13 -11  -5   19.30    3.60
  13 -11  -5   21.40    4.00
  13 -11  -5   11.90    3.30
 -13 -11   5   18.10    3.30
 -13  11   5   17.40    3.10
 -13  11   5   11.90    3.10
 -11 -11   5  618.04   28.40
  11 -11  -5  604.34   28.80
  11 -11  -5  611.84   28.90
 -11 -11   5  591.94   29.20
 -11  11   5  623.24   28.50
 -11  11   5  595.24   29.00
   9 -11  -5    3.40    1.80
  -9 -11   5    0.70    1.90
  -9 -11   5    2.30    1.60
   9 -11  -5   -0.40    1.80
  -9  11   5    1.40    1.70
  -9  11   5    4.50    1.90
  -9  11   5    1.70    1.10
   7 -11  -5  367.46   18.80
   7 -11  -5  377.46   18.40
  -7 -11   5  378.16   18.00
  -7  11   5  390.56   18.10
  -7  11   5  382.76   18.90
  -7  11   5  393.06   18.80
  -5 -11   5  107.09    6.40
   5 -11  -5  107.79    6.60
   5 -11  -5  108.39    7.20
  -5  11   5  109.29    7.20
  -5  11   5  121.09    6.90
   5  11  -5  106.89    7.00
  -5  11   5  111.29    7.20
  -3 -11   5    4.80    1.50
   3 -11  -5    6.60    1.70
  -3  11   5    7.00    2.00
  -3  11   5    4.60    2.00
  -3  11   5   10.40    2.10
  -3  11   5    8.20    2.00
   3  11  -5    6.30    1.90
  -1 -11   5  736.73   31.50
  -1 -11   5  669.83   31.50
   1 -11  -5  708.53   31.80
  -1  11   5  728.63   32.40
  -1  11   5  722.93   32.40
  -1  11   5  721.33   32.40
   1  11  -5  707.23   32.10
  -1  11   5  700.23   31.70
   1 -11   5   67.99    4.90
   1 -11   5   59.29    4.60
  -1 -11  -5   60.19    4.60
  -1  11  -5   66.39    5.10
   1  11   5   64.79    4.60
   1  11   5   63.19    5.30
   1  11   5   60.29    5.20
  -3 -11  -5  785.42   32.70
   3 -11   5  697.33   32.70
   3 -11   5  749.62   32.80
  -3  11  -5  678.53   32.90
   3  11   5  719.43   32.20
   3  11   5  696.03   33.40
   3  11   5  715.83   33.20
   5 -11   5  150.68    9.40
   5 -11   5  147.19    9.20
  -5 -11  -5  160.08    9.20
   5  11   5  149.99    8.70
  -5  11  -5  155.38    9.40
   5  11   5  150.28    9.80
   7 -11   5  311.17   16.50
   7 -11   5  313.27   16.40
  -7 -11  -5  307.57   16.10
  -7  11  -5  298.37   16.10
   7  11   5  302.47   16.40
  -9 -11  -5   14.60    3.30
   9 -11   5    7.90    3.10
   9 -11   5    9.40    3.30
  -9  11  -5   10.40    3.00
   9  11   5   17.20    3.50
 -14 -12   5   14.50    3.20
  14 -12  -5   12.80    3.40
 -14 -12   5   11.90    3.70
  14 -12  -5   20.40    4.00
  14 -12  -5   12.00    3.50
 -14  12   5   12.20    3.30
 -14  12   5   13.90    3.00
 -12 -12   5   27.50    3.90
  12 -12  -5   24.60    4.50
  12 -12  -5   31.90    4.60
  12 -12  -5   47.80    5.40
 -12 -12   5   39.50    5.60
 -12  12   5   39.00    4.70
 -12  12   5   28.50    4.30
  10 -12  -5    2.50    2.50
  10 -12  -5    0.40    1.60
 -10 -12   5   -0.80    1.30
 -10 -12   5   -0.70    1.60
 -10  12   5    2.30    1.90
 -10  12   5    0.20    1.70
 -10  12   5    2.40    1.40
  -8 -12   5  315.97   15.30
   8 -12  -5  300.07   16.30
   8 -12  -5  332.57   15.80
  -8  12   5  291.07   15.80
  -8  12   5  317.37   16.20
  -8  12   5  311.67   15.30
   6 -12  -5   62.59    4.30
  -6 -12   5   37.40    3.40
   6 -12  -5   35.20    4.60
  -6  12   5   37.70    4.10
  -6  12   5   35.80    4.50
  -6  12   5   42.60    4.00
   6  12  -5   42.10    4.70
   4 -12  -5  288.17   14.00
  -4 -12   5  276.77   13.60
   4 -12  -5  282.17   14.60
  -4  12   5  290.47   14.50
   4  12  -5  284.97   14.50
  -4  12   5  289.47   14.50
  -4  12   5  267.87   14.50
  -2 -12   5   37.30    3.30
  -2 -12   5   47.30    3.60
   2 -12  -5   37.80    3.50
  -2  12   5   44.20    4.90
  -2  12   5   41.20    4.50
  -2  12   5   42.90    4.60
   2  12  -5   37.00    4.20
   0 -12   5  137.29    7.70
   0 -12   5  124.29    7.40
   0 -12  -5  132.99    7.50
   0  12   5  141.69    8.60
   0  12  -5  133.89    8.00
   0  12   5  116.59    7.90
  -2 -12  -5   -0.10    1.20
   2 -12   5    0.50    1.70
   2 -12   5    1.10    1.40
  -2  12  -5    1.90    1.80
   2  12   5    1.50    1.80
   2  12   5    2.50    2.00
   4 -12   5    5.30    2.10
  -4 -12  -5    4.40    1.90
   4 -12   5   11.40    2.80
   4  12   5    4.20    2.20
  -4  12  -5    5.60    2.50
   4  12   5    2.90    2.30
   6 -12   5    9.80    3.10
  -6 -12  -5    8.70    2.40
   6 -12   5   10.50    2.90
   6  12   5   13.00    3.00
  -6  12  -5   11.00    2.90
  -8 -12  -5   41.40    5.00
   8 -12   5   31.30    5.00
   8 -12   5   49.40    6.00
   8  12   5   51.89    5.90
  -8  12  -5   31.50    4.70
  15 -13  -5    1.50    2.40
  15 -13  -5    1.00    2.80
 -15 -13   5    0.90    1.70
 -15 -13   5   -0.10    2.90
  15 -13  -5    1.90    2.20
 -15  13   5    0.10    2.10
 -13 -13   5    9.20    3.20
  13 -13  -5    8.30    2.60
 -13 -13   5    3.90    2.00
  13 -13  -5    6.30    2.50
  13 -13  -5    1.70    2.60
 -13  13   5    4.00    1.90
  11 -13  -5   34.30    4.40
 -11 -13   5   35.60    3.90
  11 -13  -5   31.00    4.70
 -11 -13   5   28.80    4.60
 -11  13   5   31.20    4.40
   9 -13  -5    8.20    2.20
  -9 -13   5   12.90    3.00
  -9 -13   5    5.30    1.80
   9 -13  -5    3.20    2.50
  -9  13   5    4.00    1.70
  -9  13   5    6.30    2.40
  -7 -13   5   18.50    2.60
   7 -13  -5   23.80    3.90
   7 -13  -5   20.10    3.00
  -7  13   5   22.60    3.20
  -7  13   5   22.10    3.70
   5 -13  -5    1.60    1.30
   5 -13  -5    2.90    1.90
  -5 -13   5   -0.60    0.90
  -5  13   5    2.60    1.80
   5  13  -5    2.00    1.90
  -5  13   5   -0.70    1.20
   3 -13  -5   28.70    3.90
  -3 -13   5   27.90    3.00
   3 -13  -5   38.30    3.30
  -3  13   5   28.70    3.90
   3  13  -5   31.60    3.90
  -3  13   5   36.80    4.20
   1 -13  -5   37.60    3.50
  -1 -13   5   39.70    4.00
  -1 -13   5   37.90    3.30
   1  13  -5   33.70    4.10
  -1  13   5   36.60    4.50
  -1  13   5   37.90    4.40
   1 -13   5    2.30    1.40
  -1 -13  -5    1.10    1.30
   1 -13   5    3.30    1.80
   1  13   5   -0.20    1.70
  -1  13  -5    2.40    1.80
   1  13   5   -0.40    1.60
   3 -13   5   74.19    5.90
  -3 -13  -5   62.49    4.90
   3 -13   5   68.69    5.20
  -3  13  -5   68.19    5.70
   3  13   5   57.49    6.20
   3  13   5   63.49    5.80
  -5 -13  -5    2.80    1.70
   5 -13   5    2.60    1.90
   5 -13   5    5.10    2.60
  -5  13  -5    5.80    2.40
   5  13   5    6.90    2.70
  -7 -13  -5   12.80    2.80
   7 -13   5   10.80    3.00
   7 -13   5   12.20    3.60
   7  13   5   15.30    3.50
  -7  13  -5    9.70    2.90
 -14 -14   5   74.89    6.10
  14 -14  -5   66.49    8.00
  14 -14  -5   74.59    7.70
 -14 -14   5   89.29    8.80
  14 -14  -5   86.69    7.00
  12 -14  -5   22.10    4.50
  12 -14  -5   20.80    3.60
 -12 -14   5   14.20    2.80
 -12 -14   5   18.80    4.20
  12 -14  -5   16.20    3.10
 -12  14   5   17.60    3.60
 -10 -14   5   43.00    3.90
  10 -14  -5   39.80    4.70
  10 -14  -5   37.00    5.30
 -10 -14   5   36.00    5.20
 -10  14   5   39.80    5.20
   8 -14  -5  296.17   16.10
   8 -14  -5  280.27   14.80
  -8 -14   5  304.27   14.50
  -8 -14   5  286.07   15.60
  -8  14   5  278.77   15.80
  -8  14   5  317.87   15.30
  -6 -14   5   16.80    2.40
   6 -14  -5   15.20    2.50
   6 -14  -5   15.30    3.20
   6  14  -5   17.70    3.40
  -6  14   5   11.30    2.90
  -6  14   5   15.60    2.80
  -4 -14   5  605.64   27.40
   4 -14  -5  634.24   29.00
   4 -14  -5  612.44   27.70
  -4  14   5  575.94   28.70
   4  14  -5  612.84   28.60
  -4  14   5  650.33   29.00
  -2 -14   5    2.90    1.40
  -2  14   5    1.20    1.90
  -2  14   5    4.80    2.00
   2  14  -5    4.20    2.10
   0 -14   5  431.06   21.10
   0 -14  -5  450.85   20.70
   0 -14   5  446.26   20.60
   0  14   5  455.15   21.80
   0  14  -5  432.26   21.40
   0  14   5  445.06   22.40
   2 -14   5   64.29    5.50
   2 -14   5   66.89    5.00
  -2 -14  -5   68.19    4.90
  -2  14  -5   70.59    5.90
   2  14   5   64.29    6.90
   2  14   5   66.39    5.80
  -4 -14  -5   16.50    2.70
   4 -14   5   14.00    2.80
   4 -14   5   17.30    3.50
   4  14   5   16.00    3.60
   4  14   5   20.10    3.80
  -4  14  -5   23.20    3.90
   6 -14   5  315.37   16.00
  -6 -14  -5  303.87   15.50
   6 -14   5  302.07   16.60
   6  14   5  291.87   16.20
  -6  14  -5  278.17   16.10
  13 -15  -5  138.69    9.00
  13 -15  -5  126.29   10.10
 -13 -15   5  125.69    8.10
 -11 -15   5    4.40    2.50
 -11 -15   5    2.50    1.40
  11 -15  -5    0.80    2.40
  11 -15  -5    1.80    1.60
 -11  15   5    1.00    2.10
   9 -15  -5  131.59    9.10
   9 -15  -5  121.99    7.80
  -9 -15   5  123.49    7.30
  -9 -15   5  135.09    8.90
  -9  15   5  118.49    8.90
   7 -15  -5    1.80    1.40
  -7 -15   5    0.60    1.10
   7 -15  -5   -1.70    1.60
  -7  15   5    1.50    1.60
  -7  15   5   -0.70    1.70
   5 -15  -5   71.99    6.10
   5 -15  -5   76.89    5.20
  -5 -15   5   71.59    4.70
  -5  15   5   74.39    6.10
   5  15  -5   73.29    6.00
  -5  15   5   55.09    6.10
  -3 -15   5  156.88    8.20
   3 -15  -5  156.78    9.50
   3 -15  -5  155.48    8.50
  -3  15   5  141.79    9.30
   3  15  -5  168.58    9.50
  -3  15   5  144.29    9.70
   1 -15  -5   79.19    5.20
  -1 -15   5   76.29    5.00
   1  15  -5   70.39    5.70
  -1  15   5   65.29    5.80
  -1  15   5   76.59    6.60
   1 -15   5  242.78   12.10
  -1 -15  -5  244.58   12.20
   1 -15   5  214.68   12.80
   1  15   5  238.78   13.80
   1  15   5  260.97   13.60
  -1  15  -5  224.18   12.90
   3 -15   5   79.59    5.60
   3 -15   5   77.69    6.30
  -3 -15  -5   69.69    5.30
  -3  15  -5   64.99    6.60
   3  15   5   75.49    6.60
   3  15   5   74.39    6.60
   5 -15   5  131.69    8.20
   5 -15   5  110.59    8.90
  -5 -15  -5  129.09    7.90
  -5  15  -5  127.09    9.00
   5  15   5  121.89    8.80
  10 -16  -5  168.58    9.90
 -10 -16   5  164.58    9.30
 -10 -16   5  180.18   11.00
  10 -16  -5  165.78   11.40
 -10  16   5  178.38   11.40
  -8 -16   5    8.50    2.70
  -8 -16   5   10.50    1.90
   8 -16  -5   12.70    2.50
   8 -16  -5    9.80    3.00
  -8  16   5    6.70    3.00
  -6 -16   5  147.79    8.10
   6 -16  -5  155.78    8.70
   6 -16  -5  154.88    9.90
  -6  16   5  161.78    9.90
  -6  16   5  149.99    9.80
  -4 -16   5   16.90    2.20
   4 -16  -5   11.10    2.10
   4 -16  -5   13.00    3.10
   4  16  -5   18.00    3.30
  -4  16   5   17.10    3.50
  -4  16   5   17.70    3.40
   2 -16  -5  107.09    7.40
   2 -16  -5   99.69    6.30
  -2 -16   5  101.49    6.00
  -2  16   5  106.79    8.00
  -2  16   5  107.19    7.50
   2  16  -5  104.49    7.20
   0 -16   5   12.30    2.10
   0 -16  -5   16.40    2.50
   0  16   5   14.80    3.30
   0  16  -5   21.70    3.50
   0  16   5   18.30    3.40
   2 -16   5   14.30    2.50
   2 -16   5   10.30    3.10
  -2 -16  -5   13.70    2.40
   2  16   5   12.40    3.20
  -2  16  -5   13.50    3.10
   2  16   5   11.40    3.20
   4 -16   5   14.60    2.70
   4 -16   5    9.70    3.40
  -4 -16  -5   14.50    2.70
   4  16   5   10.00    3.40
  -4  16  -5   10.30    3.00
   4  16   5   19.10    3.80
   9 -17  -5   23.60    4.60
   9 -17  -5   30.80    3.80
  -9 -17   5   29.70    4.70
  -9 -17   5   25.30    3.10
  -9  17   5   37.70    5.20
  -7 -17   5   43.80    5.30
   7 -17  -5   47.80    4.30
  -7 -17   5   49.70    3.80
   7 -17  -5   49.30    5.80
  -7  17   5   54.69    5.90
  -7  17   5   60.79    5.40
   5 -17  -5    3.00    1.50
   5 -17  -5    8.50    2.70
  -5 -17   5    4.20    1.30
  -5  17   5    6.00    2.50
  -5  17   5    2.40    2.10
   5  17  -5    5.00    2.50
   3 -17  -5    6.00    2.30
   3 -17  -5    6.80    1.80
  -3 -17   5   10.20    1.70
   3  17  -5    6.70    2.40
  -3  17   5    6.70    2.50
  -3  17   5    9.70    2.80
   1 -17  -5    7.60    1.90
   1 -17  -5    5.50    2.20
  -1 -17   5    5.70    1.60
  -1  17   5   10.70    2.70
   1  17  -5    7.00    2.30
  -1  17   5    9.40    3.00
   1 -17   5   17.80    2.60
  -1 -17  -5   21.60    3.00
   1  17   5   19.00    4.00
   1  17   5   17.60    3.40
  -1  17  -5   23.00    3.70
  -3 -17  -5   29.60    3.60
   3 -17   5   38.80    4.10
   3 -17   5   25.20    4.40
   3  17   5   28.80    4.60
   3  17   5   48.00    5.90
  -3  17  -5   29.80    4.60
  -8 -18   5    2.90    1.30
  -8 -18   5    6.40    2.40
   8 -18  -5    6.90    2.90
   8 -18  -5    3.10    1.60
  -8  18   5    1.40    2.00
   6 -18  -5  189.08   10.80
   6 -18  -5  216.68   12.40
  -6 -18   5  198.18   10.20
  -6  18   5  218.08   12.60
  -6  18   5  220.18   12.30
  -4 -18   5    2.00    1.10
   4 -18  -5    1.60    1.20
   4 -18  -5   -1.90    1.40
  -4  18   5    2.80    2.00
   4  18  -5    2.10    2.20
  -4  18   5    4.40    2.10
  -2 -18   5  156.88    8.20
   2 -18  -5  157.78   10.00
   2 -18  -5  158.38    8.60
  -2  18   5  138.29    9.60
  -2  18   5  166.18   10.40
   2  18  -5  150.08    9.70
   0 -18  -5   26.10    3.10
   0 -18   5   22.60    2.80
   0  18   5   35.90    5.20
   0  18   5   18.10    3.60
   0  18  -5   22.80    3.90
  -2 -18  -5  112.89    7.10
   2 -18   5  109.09    6.80
   2  18   5  114.19    8.50
   2  18   5  116.69    8.50
  -2  18  -5  118.19    8.30
  -3 -19   5   24.40    2.60
   3 -19  -5   20.40    2.80
   3 -19  -5   21.10    4.00
  -3  19   5   26.30    4.40
   3  19  -5   23.50    3.90
  -3  19   5   24.60    4.10
 -18   0   6   98.49   11.30
  18   0  -6   98.79    6.90
 -16   0   6  144.39   11.90
  16   0  -6  143.69    8.40
 -14   0   6  250.07   12.40
  14   0  -6  265.87   12.80
 -14   0   6  259.17   16.80
  12   0  -6   83.19    4.90
 -12   0   6   72.79    4.50
 -12   0   6   77.69    8.70
 -10   0   6 1237.18   50.59
 -10   0   6 1170.78   49.40
  10   0  -6 1213.88   49.60
 -10   0   6  982.30   52.89
   8   0  -6  108.69    5.40
  -8   0   6   97.59    5.30
  -8   0   6   98.59    8.40
  -8   0   6  117.09    6.30
  -8   0   6   84.69    7.40
  -6   0   6 1382.06   67.39
  -6   0   6 1556.74   65.89
  -6   0   6 1386.06   68.39
   6   0  -6 1678.03   64.99
  -6   0   6 1573.94   65.29
   6   0  -6 1626.74   65.89
  -4   0   6   22.30    2.20
  -4   0   6   17.30    3.40
  -4   0   6   23.40    2.10
  -4   0   6   22.90    2.70
   4   0  -6   23.20    1.70
   4   0  -6   24.80    2.60
  -2   0   6  359.26   16.10
   2   0  -6  376.76   15.80
  -2   0   6  337.07   16.20
   2   0  -6  371.16   16.70
  -2   0   6  372.96   16.80
  -2   0   6  338.67   17.60
   0   0   6  252.17   12.30
   0   0   6  244.58   12.00
   0   0  -6  263.37   12.40
   0   0   6  254.97   13.40
   2   0   6   19.60    2.60
  -2   0  -6   22.20    2.20
   2   0   6   19.60    2.40
   2   0   6   23.90    3.60
   2   0   6   22.40    2.60
   4   0   6  718.13   34.00
   4   0   6  720.53   32.70
  -4   0  -6  715.63   32.50
  -4   0  -6  749.62   32.00
   4   0   6  764.82   32.50
  -6   0  -6   51.79    4.30
   6   0   6   51.69    6.00
   6   0   6   59.39    4.50
  -8   0  -6  693.23   32.40
   8   0   6  742.63   32.70
   8   0   6  700.83   34.30
  10   0   6    1.60    2.70
 -10   0  -6    4.30    2.10
  10   0   6    0.40    1.70
 -19  -1   6   68.69    9.40
 -19   1   6   61.69    9.80
  17  -1  -6   17.60    3.20
 -17  -1   6   21.20    5.40
 -17  -1   6   20.00    3.10
  17   1  -6   14.50    2.80
 -17   1   6   17.40    5.40
 -15  -1   6  231.58   15.20
  15  -1  -6  217.98   11.30
 -15  -1   6  215.48   10.90
 -15   1   6  191.78   14.70
  15   1  -6  214.28   11.10
  13  -1  -6   68.09    4.70
 -13  -1   6   71.29    4.50
 -13  -1   6   65.79    8.20
 -13  -1   6   64.59    5.90
 -13   1   6   58.09    8.00
 -13   1   6   72.79    4.30
  13   1  -6   71.29    4.60
 -11  -1   6  333.67   16.10
 -11  -1   6  309.87   18.60
  11  -1  -6  337.87   15.20
 -11  -1   6  319.77   15.00
  11   1  -6  330.97   15.00
 -11   1   6  289.37   18.50
 -11   1   6  345.27   14.90
  -9  -1   6  266.37   13.40
  -9  -1   6  266.37   12.50
   9  -1  -6  284.87   12.60
  -9  -1   6  253.47   15.80
  -9   1   6  270.37   13.20
  -9   1   6  276.87   12.20
   9   1  -6  272.97   12.30
  -9   1   6  249.18   15.90
   7  -1  -6  358.36   16.10
  -7  -1   6  344.47   16.20
  -7  -1   6  320.77   17.70
  -7  -1   6  321.87   18.50
   7  -1  -6  352.76   15.30
  -7   1   6  315.37   18.50
  -7   1   6  348.07   16.00
  -7   1   6  333.47   15.60
   7   1  -6  358.16   15.10
  -7   1   6  335.47   17.80
   5  -1  -6 1276.67   51.79
  -5  -1   6 1237.58   52.79
  -5  -1   6 1163.08   55.09
  -5  -1   6 1268.97   51.99
   5  -1  -6 1236.98   52.69
  -5  -1   6 1103.49   53.99
  -5   1   6 1138.89   55.09
  -5   1   6 1237.88   52.59
   5   1  -6 1263.57   52.59
  -5   1   6 1134.89   54.09
  -5   1   6 1216.18   52.09
   5   1  -6 1342.67   51.59
   3  -1  -6   10.90    1.30
  -3  -1   6    9.50    1.40
  -3  -1   6    7.40    2.40
  -3  -1   6    6.60    1.30
   3  -1  -6    9.00    1.70
  -3   1   6    7.50    1.50
  -3   1   6    8.20    2.40
  -3   1   6    6.00    1.30
   3   1  -6    8.50    1.00
   3   1  -6    8.50    1.50
  -3   1   6    9.70    1.70
   3   1  -6    8.90    1.00
  -1  -1   6 1558.24   68.59
  -1  -1   6 1674.03   69.19
   1  -1  -6 1680.83   69.29
  -1  -1   6 1414.66   69.79
   1   1  -6 1639.54   68.29
  -1   1   6 1600.34   68.69
  -1   1   6 1771.12   69.09
  -1   1   6 1551.04   70.09
  -1   1   6 1646.84   68.19
   1  -1   6   37.00    3.00
   1  -1   6   32.40    4.20
  -1  -1  -6   37.80    3.30
   1  -1   6   39.30    3.30
   1  -1   6   38.10    3.10
   1   1   6   34.20    3.00
   1   1   6   33.20    2.90
   1   1   6   42.10    3.10
   1   1   6   34.40    4.20
  -1   1  -6   39.50    2.80
  -3  -1  -6  776.52   33.20
  -3  -1  -6  767.62   34.50
   3  -1   6  751.92   33.40
   3  -1   6  724.73   33.20
   3  -1   6  784.02   33.00
   3  -1   6  673.73   34.30
   3   1   6  754.42   34.60
   3   1   6  760.62   33.30
   3   1   6  750.02   33.10
  -3   1  -6  768.52   32.70
   5  -1   6   86.19    6.90
  -5  -1  -6   92.99    5.90
   5  -1   6   89.39    5.80
  -5   1  -6   90.39    5.30
   5   1   6   94.89    6.00
   5   1   6   87.99    5.80
  -5   1  -6   89.49    5.80
   5   1   6   91.89    7.00
  -7  -1  -6  166.98    9.40
   7  -1   6  173.48   11.10
   7  -1   6  171.18    9.50
   7   1   6  162.38    9.50
   7   1   6  164.58   10.80
  -7   1  -6  170.38    9.50
   9  -1   6  134.59   10.30
   9  -1   6  139.39    8.80
  -9  -1  -6  137.89    8.70
   9   1   6  150.18    9.00
   9   1   6  157.28   10.60
  -9   1  -6  157.38    9.10
  11  -1   6   11.80    4.10
  11  -1   6   16.30    3.20
 -11  -1  -6    6.40    2.30
 -11   1  -6    9.70    2.60
  11   1   6   13.10    3.10
  11   1   6    5.60    3.30
 -18  -2   6    1.60    3.00
 -18  -2   6    2.40    1.60
  18  -2  -6    3.60    2.10
 -18   2   6    1.90    3.10
  18   2  -6    2.00    1.80
 -16  -2   6  161.68   12.20
 -16  -2   6  162.28    8.80
  16  -2  -6  158.58    9.10
 -16   2   6  147.39   12.50
  16   2  -6  152.68    8.70
 -14  -2   6    6.10    3.30
  14  -2  -6    2.40    1.60
 -14  -2   6    3.20    1.40
 -14   2   6    3.60    3.60
  14   2  -6    2.90    1.40
 -12  -2   6  125.29    7.60
 -12  -2   6  111.19    6.50
 -12  -2   6  128.69    9.70
  12  -2  -6  114.49    6.60
  12   2  -6  116.89    6.30
 -12   2   6  114.39    9.90
  10  -2  -6  308.67   17.20
 -10  -2   6  289.27   13.80
  10  -2  -6  293.07   13.70
 -10  -2   6  281.37   16.80
 -10  -2   6  299.17   14.70
 -10   2   6  298.37   13.20
  10   2  -6  298.67   13.30
 -10   2   6  273.87   17.00
  -8  -2   6   52.39    4.10
  -8  -2   6   54.29    6.00
  -8  -2   6   54.79    6.80
   8  -2  -6   63.59    4.20
   8  -2  -6   57.79    3.50
   8   2  -6   51.29    3.00
  -8   2   6   49.70    3.70
  -8   2   6   53.59    3.80
  -8   2   6   53.29    3.00
  -8   2   6   37.70    5.90
  -8   2   6   48.30    5.90
  -6  -2   6  420.06   22.20
   6  -2  -6  465.05   20.10
  -6  -2   6  418.86   21.30
  -6  -2   6  426.46   19.90
   6  -2  -6  447.06   19.10
  -6   2   6  418.46   19.30
  -6   2   6  432.66   19.70
   6   2  -6  430.36   18.50
  -6   2   6  442.16   21.50
  -6   2   6  416.56   22.30
  -4  -2   6  136.59    6.40
  -4  -2   6  126.29    7.20
   4  -2  -6  147.89    7.50
   4  -2  -6  130.39    6.60
  -4  -2   6  135.09    6.60
  -4  -2   6  131.09    8.40
  -4   2   6  124.79    8.30
  -4   2   6  128.99    7.00
  -4   2   6  134.19    6.90
  -2  -2   6  241.58   13.10
   2  -2  -6  282.77   12.60
  -2  -2   6  245.78   11.70
  -2  -2   6  262.57   12.40
  -2   2   6  250.27   11.90
   2   2  -6  258.87   11.50
  -2   2   6  263.67   12.20
  -2   2   6  222.28   12.00
  -2   2   6  245.48   13.20
   0  -2  -6   94.29    5.80
   0  -2   6  103.79    5.80
   0  -2   6   85.49    6.30
   0  -2   6   93.29    5.30
   0   2  -6   87.09    5.30
   0   2   6   89.99    5.40
   0   2   6   81.39    6.20
   0   2   6   92.79    5.50
   0   2   6   99.19    4.90
  -2  -2  -6  139.39    7.20
   2  -2   6  121.79    8.20
   2  -2   6  134.99    7.00
   2  -2   6  118.39    7.00
  -2  -2  -6  139.19    7.70
   2   2   6  123.99    7.20
   2   2   6  128.49    7.20
   2   2   6  129.19    8.10
  -2   2  -6  145.09    7.00
   4  -2   6  110.09    6.60
  -4  -2  -6  109.89    6.50
   4  -2   6   99.39    7.60
  -4  -2  -6  126.69    7.40
   4  -2   6  121.09    7.00
   4  -2   6  112.79    7.40
   4   2   6  113.19    6.70
   4   2   6  109.49    6.60
  -4   2  -6  110.99    6.20
   4   2   6  102.49    7.60
   6  -2   6    4.40    2.50
  -6  -2  -6    9.40    2.10
   6  -2   6    3.90    1.70
   6   2   6    1.40    2.00
  -6   2  -6    4.60    1.60
  -6   2  -6    7.20    2.10
   6   2   6    5.40    2.90
   6   2   6    3.80    1.70
   8  -2   6  100.39    8.60
  -8  -2  -6  119.49    7.50
   8  -2   6  118.89    7.50
  -8   2  -6  115.49    7.00
   8   2   6  113.99    7.40
  -8   2  -6  114.69    7.50
   8   2   6  121.79    8.80
  10  -2   6   20.50    4.60
  10  -2   6   19.10    3.50
 -10  -2  -6   21.20    3.60
  10   2   6   20.50    4.50
 -10   2  -6   23.60    3.60
  10   2   6   24.80    3.80
 -10   2  -6   20.20    3.20
 -17  -3   6  244.98   15.70
  17  -3  -6  232.38   12.50
 -17  -3   6  230.98   12.30
 -17   3   6  231.68   16.50
  17   3  -6  232.78   12.20
 -15  -3   6   32.60    3.70
  15  -3  -6   32.40    3.80
 -15  -3   6   42.10    6.40
 -15   3   6   25.80    5.90
  15   3  -6   32.70    3.50
 -13  -3   6  927.21   41.60
  13  -3  -6  909.51   41.70
 -13  -3   6 1022.50   43.30
 -13  -3   6 1017.00   45.40
  13   3  -6  923.01   41.20
 -13   3   6  937.11   45.90
 -11  -3   6   66.29    5.10
  11  -3  -6   62.99    4.30
 -11  -3   6   61.29    4.30
 -11  -3   6   58.49    7.10
 -11   3   6   67.59    7.90
  11   3  -6   68.09    3.90
  -9  -3   6 1027.10   43.90
   9  -3  -6 1048.40   44.40
   9  -3  -6  963.50   43.40
  -9  -3   6  974.40   46.50
  -9  -3   6 1060.29   44.60
   9   3  -6  988.60   42.80
  -9   3   6 1010.80   47.20
  -9   3   6 1002.80   43.80
  -7  -3   6 1159.78   46.40
   7  -3  -6 1100.59   46.30
  -7  -3   6  990.20   47.30
  -7  -3   6 1048.20   48.50
   7  -3  -6 1053.99   45.40
  -7   3   6 1054.49   48.90
  -7   3   6 1032.70   47.70
  -7   3   6 1024.20   45.60
  -5  -3   6  221.08   13.30
  -5  -3   6  236.88   12.80
  -5  -3   6  247.58   11.70
   5  -3  -6  243.08   11.00
   5  -3  -6  234.98   11.60
  -5  -3   6  233.88   10.60
  -5   3   6  210.48   11.50
  -5   3   6  251.77   13.90
  -5   3   6  225.48   12.70
  -5   3   6  221.98   11.10
  -3  -3   6 2458.75  102.39
   3  -3  -6 2445.26  102.49
   3  -3  -6 2421.86  101.79
  -3  -3   6 2346.57  101.49
  -3  -3   6 2273.17  103.19
   3   3  -6 2578.84  101.49
  -3   3   6 2308.87  103.19
  -3   3   6 2464.25  102.29
  -1  -3   6  219.68   11.00
  -1  -3   6  239.28   11.60
   1  -3  -6  242.18   11.80
  -1  -3   6  236.28   12.30
  -1   3   6  245.28   12.40
   1   3  -6  216.08   11.10
  -1   3   6  231.58   11.40
  -1   3   6  224.68   11.20
  -1   3   6  243.38   11.30
   1  -3   6 2178.78   88.59
   1  -3   6 1929.31   89.19
   1  -3   6 2093.99   88.09
  -1  -3  -6 2104.49   88.79
   1   3   6 2110.19   88.29
   1   3   6 2076.19   88.19
   1   3   6 1991.40   87.49
  -1   3  -6 2159.38   88.09
   1   3   6 2045.20   89.19
  -3  -3  -6  120.99    7.10
  -3  -3  -6  118.49    6.50
   3  -3   6  120.49    6.90
   3  -3   6  115.19    7.70
   3  -3   6  102.99    6.40
   3  -3   6  112.29    6.10
   3   3   6  105.69    7.30
   3   3   6  102.09    6.40
   3   3   6  112.49    6.60
  -3   3  -6  109.09    6.20
  -5  -3  -6  964.30   42.30
   5  -3   6  907.61   43.70
   5  -3   6  994.80   42.90
   5  -3   6  928.21   42.40
  -5  -3  -6  988.40   43.30
   5   3   6  984.70   43.70
  -5   3  -6  964.30   42.00
   5   3   6  997.60   42.80
   5   3   6  949.40   42.40
   7  -3   6  346.97   19.80
   7  -3   6  369.66   18.30
  -7  -3  -6  375.76   18.20
   7   3   6  395.96   19.70
   7   3   6  396.76   18.40
  -7   3  -6  373.36   17.80
   9  -3   6   58.29    7.30
   9  -3   6   61.69    5.20
  -9  -3  -6   55.69    5.60
  -9   3  -6   66.99    5.40
  -9   3  -6   54.89    5.40
   9   3   6   67.49    5.30
   9   3   6   70.59    7.30
  11  -3   6  386.26   23.70
  11  -3   6  446.16   22.00
 -11  -3  -6  478.95   22.40
  11   3   6  445.66   23.70
  11   3   6  486.45   22.30
 -11   3  -6  444.86   21.60
 -11   3  -6  429.26   22.00
 -18  -4   6   34.10    6.40
 -18  -4   6   51.69    5.10
  18  -4  -6   38.10    4.80
 -18   4   6   43.10    5.20
 -18   4   6   59.39    8.90
  16  -4  -6  141.79    8.50
 -16  -4   6  137.09   10.60
 -16  -4   6  132.19    8.20
 -16   4   6  160.78   12.30
  16   4  -6  138.49    7.90
  14  -4  -6   32.60    3.70
 -14  -4   6   37.30    5.80
 -14  -4   6   31.60    3.70
 -14  -4   6   39.90    5.10
 -14   4   6   49.10    7.20
 -14   4   6   40.00    4.40
  14   4  -6   39.80    3.20
 -12  -4   6  427.06   21.90
 -12  -4   6  410.16   19.20
  12  -4  -6  399.96   19.10
 -12  -4   6  431.06   20.50
 -12   4   6  408.56   22.60
  12   4  -6  403.06   18.40
 -12   4   6  398.56   19.50
 -10  -4   6   48.60    6.00
  10  -4  -6   53.39    4.30
 -10  -4   6   48.70    4.30
 -10  -4   6   42.30    3.70
  10  -4  -6   42.60    3.50
 -10   4   6   44.20    3.80
 -10   4   6   45.60    6.30
  10   4  -6   38.70    3.50
  -8  -4   6  850.21   37.90
   8  -4  -6  909.91   38.00
  -8  -4   6  865.41   39.00
  -8  -4   6  811.82   39.60
   8  -4  -6  838.82   37.00
  -8   4   6  813.82   37.20
  -8   4   6  851.31   40.30
  -8   4   6  886.81   39.50
   6  -4  -6    9.70    1.60
  -6  -4   6    4.90    2.30
  -6  -4   6   11.50    3.10
  -6  -4   6    7.10    1.80
   6  -4  -6    9.20    1.90
  -6   4   6    9.40    1.70
  -6   4   6   19.40    3.80
  -6   4   6   10.60    2.80
   4  -4  -6  211.78   11.00
  -4  -4   6  204.88    9.80
  -4  -4   6  222.08   11.80
  -4  -4   6  220.88   10.90
   4  -4  -6  218.18   10.40
   4   4  -6  208.68   10.00
  -4   4   6  211.38   10.60
  -4   4   6  212.98   11.80
  -2  -4   6   11.80    1.70
   2  -4  -6    9.90    2.00
  -2  -4   6   10.40    2.40
  -2  -4   6   11.60    2.00
  -2   4   6    8.90    1.80
   2   4  -6   10.50    1.80
  -2   4   6   10.80    2.50
  -2   4   6   10.70    2.20
   0  -4   6    6.70    2.00
   0  -4  -6    6.40    1.70
   0  -4   6    5.50    1.60
   0  -4   6    6.30    1.50
   0   4  -6    3.90    1.50
   0   4   6    7.90    1.60
   0   4   6    6.60    1.60
   0   4   6    6.70    2.10
   0   4   6    7.00    1.70
   2  -4   6  223.78   11.90
   2  -4   6  220.08   11.20
  -2  -4  -6  215.28   11.50
   2  -4   6  205.38   10.70
  -2  -4  -6  228.58   10.60
  -2   4  -6  211.28   10.70
   2   4   6  216.08   10.20
   2   4   6  211.38   11.60
   2   4   6  200.98   10.90
   2   4   6  224.98   11.00
   4  -4   6   52.59    5.70
  -4  -4  -6   56.69    4.10
   4  -4   6   58.99    4.60
   4  -4   6   57.69    4.40
  -4  -4  -6   52.59    4.80
  -4   4  -6   51.09    4.00
   4   4   6   51.79    5.30
   4   4   6   55.49    4.40
   4   4   6   57.69    4.30
   6  -4   6  466.65   21.60
  -6  -4  -6  469.25   20.90
  -6  -4  -6  418.76   23.40
   6  -4   6  413.96   20.80
   6  -4   6  425.36   22.20
   6   4   6  434.96   21.90
   6   4   6  456.15   21.60
   6   4   6  435.06   20.90
  -6   4  -6  450.15   20.60
  -8  -4  -6   46.00    4.80
   8  -4   6   48.80    4.90
   8  -4   6   42.20    6.00
   8   4   6   50.99    5.00
  -8   4  -6   37.20    4.20
   8   4   6   56.39    6.10
 -10  -4  -6  254.47   13.80
  10  -4   6  243.88   13.70
  10  -4   6  264.67   15.80
  10   4   6  262.67   13.80
  10   4   6  257.47   15.00
 -10   4  -6  247.78   13.40
  17  -5  -6   13.40    2.80
 -17  -5   6   11.90    2.80
 -17  -5   6   19.80    4.50
 -17   5   6    8.60    4.20
 -17   5   6   12.50    3.10
 -15  -5   6   10.20    3.20
  15  -5  -6   14.10    2.70
 -15  -5   6   16.70    3.00
 -15  -5   6   17.30    4.20
 -15   5   6   13.50    3.00
 -15   5   6   23.70    5.20
  13  -5  -6    7.30    2.00
 -13  -5   6    7.50    2.90
 -13  -5   6    6.80    2.60
 -13  -5   6    3.80    1.90
 -13   5   6    3.80    2.90
 -13   5   6    4.90    2.10
  11  -5  -6  393.16   19.20
  11  -5  -6  370.46   18.20
 -11  -5   6  392.76   20.40
 -11  -5   6  388.16   19.40
 -11  -5   6  402.06   18.80
 -11   5   6  395.66   18.70
 -11   5   6  396.26   21.30
   9  -5  -6    9.50    2.20
  -9  -5   6    7.60    2.60
   9  -5  -6    5.30    1.70
  -9  -5   6    9.40    2.10
  -9  -5   6    7.50    2.10
  -9   5   6    7.50    3.00
  -9   5   6   11.00    2.10
  -7  -5   6  509.95   24.20
  -7  -5   6  523.65   23.50
   7  -5  -6  484.65   22.70
   7  -5  -6  524.65   23.60
  -7  -5   6  511.85   25.10
  -7   5   6  495.55   25.40
  -7   5   6  498.55   24.50
  -7   5   6  508.45   22.90
  -5  -5   6   14.60    2.40
   5  -5  -6   17.70    2.60
   5  -5  -6   17.20    2.30
  -5  -5   6   13.50    2.70
  -5  -5   6   11.90    3.20
  -5  -5   6   16.00    1.60
   5   5  -6   14.60    1.90
  -5   5   6   16.10    2.30
  -5   5   6   18.70    3.80
  -5   5   6   14.70    3.00
  -5   5   6   14.90    2.30
  -3  -5   6  355.36   17.50
  -3  -5   6  353.36   16.90
  -3  -5   6  350.96   16.00
  -3   5   6  369.66   17.10
  -3   5   6  351.86   16.70
   3   5  -6  350.36   16.40
  -3   5   6  375.06   17.70
  -1  -5   6   39.40    3.40
  -1  -5   6   35.40    2.80
  -1  -5   6   40.00    4.20
   1  -5  -6   34.50    3.80
  -1   5   6   30.00    3.50
   1   5  -6   36.90    3.60
  -1   5   6   52.09    4.30
  -1   5   6   34.70    3.50
   1  -5   6  180.68    9.90
   1  -5   6  180.78    9.30
  -1  -5  -6  188.48   10.10
  -1  -5  -6  201.98    9.20
   1  -5   6  189.98   10.30
   1   5   6  177.28    9.30
  -1   5  -6  171.18    9.50
   1   5   6  185.48    9.60
   1   5   6  180.88   10.20
   1   5   6  182.18    9.70
  -3  -5  -6   11.10    1.90
  -3  -5  -6   10.30    2.30
   3  -5   6    9.70    2.50
   3  -5   6   11.70    2.30
   3  -5   6    9.70    2.00
   3   5   6    6.60    1.80
   3   5   6    8.10    2.30
   3   5   6   13.10    2.30
  -3   5  -6    9.90    2.00
   5  -5   6  117.69    7.30
  -5  -5  -6   98.69    6.40
   5  -5   6  115.19    7.80
  -5  -5  -6   91.99    7.20
   5  -5   6  105.89    6.70
  -5   5  -6  108.79    6.60
   5   5   6  108.79    7.10
   5   5   6  113.99    7.50
   5   5   6  106.79    6.70
   7  -5   6   11.80    2.60
   7  -5   6   11.50    3.30
  -7  -5  -6   15.60    2.80
  -7   5  -6   11.10    2.40
   7   5   6   10.60    2.40
   7   5   6   10.00    3.00
   7   5   6   13.40    3.10
  -9  -5  -6   29.50    4.10
   9  -5   6   27.70    4.00
   9  -5   6   37.70    5.70
   9   5   6   27.00    3.80
   9   5   6   30.40    4.80
  -9   5  -6   29.10    3.80
 -11  -5  -6    2.60    1.90
  11  -5   6    6.00    3.10
  11  -5   6    0.80    2.10
 -11   5  -6    1.50    2.00
  11   5   6   10.40    3.30
  11   5   6    1.80    1.80
  18  -6  -6  101.99    7.60
 -18  -6   6  110.99    9.10
 -18  -6   6   89.89    7.20
 -18   6   6  117.39   10.50
 -18   6   6  108.39    8.10
  16  -6  -6   88.69    6.50
 -16  -6   6   95.19    7.90
 -16  -6   6   83.39    6.40
 -16  -6   6   74.09    8.20
 -16   6   6  107.69    9.60
 -16   6   6   88.19    6.90
 -14  -6   6  164.48   10.50
 -14  -6   6  153.98    9.30
  14  -6  -6  153.58    9.10
 -14  -6   6  148.69   10.50
 -14   6   6  165.98   11.90
 -14   6   6  158.28    9.50
 -12  -6   6    1.20    1.40
 -12  -6   6    2.40    2.00
  12  -6  -6    0.80    1.40
  12  -6  -6    1.10    1.40
 -12  -6   6    1.00    1.80
 -12   6   6   -0.10    2.10
 -12   6   6   -0.50    1.40
 -10  -6   6   14.20    3.40
 -10  -6   6   15.30    3.00
 -10  -6   6   12.80    2.60
  10  -6  -6    9.20    2.50
  10  -6  -6   10.70    2.10
 -10   6   6   21.60    4.30
 -10   6   6   11.70    2.30
   8  -6  -6  278.57   13.40
  -8  -6   6  288.97   15.30
   8  -6  -6  273.37   14.10
  -8  -6   6  276.27   14.10
  -8   6   6  262.07   13.40
  -8   6   6  285.67   15.80
  -8   6   6  273.57   13.30
  -6  -6   6   45.90    4.80
   6  -6  -6   43.50    3.60
  -6  -6   6   40.10    5.10
   6  -6  -6   45.10    4.00
  -6  -6   6   44.70    3.80
  -6   6   6   40.10    4.70
  -6   6   6   49.70    5.80
  -6   6   6   46.80    3.60
  -6   6   6   39.90    3.50
   4  -6  -6  431.16   20.60
   4  -6  -6  404.06   20.80
  -4  -6   6  491.85   21.50
  -4  -6   6  449.36   19.70
  -4  -6   6  447.06   20.80
  -4   6   6  449.26   20.80
  -4   6   6  451.75   22.40
   4   6  -6  458.05   20.30
  -4   6   6  452.15   21.50
  -4   6   6  451.75   20.60
   2  -6  -6    8.50    2.00
  -2  -6   6    5.40    1.60
  -2  -6   6    3.80    1.80
  -2  -6   6    9.10    1.50
  -2   6   6   10.00    2.10
  -2   6   6    6.20    1.70
   2   6  -6    8.50    1.80
  -2   6   6    7.70    2.10
   0  -6   6   18.40    2.80
   0  -6   6   16.60    2.50
   0  -6  -6   20.10    2.90
   0  -6   6   17.20    2.30
   0   6   6   20.20    2.80
   0   6   6   14.70    2.70
   0   6   6   18.20    2.70
   0   6  -6   16.00    2.60
  -2  -6  -6   91.49    6.30
   2  -6   6  100.79    6.60
   2  -6   6   86.89    5.60
  -2  -6  -6   95.59    5.50
   2  -6   6   92.99    6.30
  -2   6  -6   94.99    6.00
   2   6   6   88.19    6.20
   2   6   6   97.89    5.80
   2   6   6   94.59    6.20
  -4  -6  -6    2.10    1.30
   4  -6   6    0.90    1.50
   4  -6   6   -0.50    1.30
  -4  -6  -6    0.20    1.50
   4  -6   6    0.30    1.50
  -4   6  -6    0.20    1.20
   4   6   6    1.30    1.50
   4   6   6    1.30    1.40
   4   6   6   -0.50    1.30
   6  -6   6   84.49    6.90
   6  -6   6   92.59    6.60
  -6  -6  -6   91.29    6.00
  -6  -6  -6   79.79    6.50
   6  -6   6   74.89    5.80
   6   6   6   77.59    6.30
  -6   6  -6   82.39    5.80
   6   6   6   88.39    6.00
   6   6   6   89.39    6.70
   8  -6   6    4.30    2.60
   8  -6   6    5.30    2.20
  -8  -6  -6    5.50    2.20
  -8   6  -6    5.50    1.90
   8   6   6    2.80    2.10
   8   6   6    6.60    2.20
  10  -6   6   11.00    3.50
 -10  -6  -6    1.10    1.80
  10  -6   6    9.00    2.80
 -10   6  -6    8.40    2.30
  10   6   6    6.60    2.20
  10   6   6   10.10    3.20
 -17  -7   6   72.79    7.10
  17  -7  -6   67.79    6.10
 -17  -7   6   74.79    6.30
 -17  -7   6   76.49    8.10
 -17   7   6   78.49    6.60
 -17   7   6   80.79    9.60
 -15  -7   6  373.16   18.60
 -15  -7   6  355.66   19.30
  15  -7  -6  346.67   18.10
 -15  -7   6  342.77   19.30
 -15   7   6  381.96   21.00
 -15   7   6  374.26   18.50
  13  -7  -6  164.68    9.30
  13  -7  -6  144.89    9.10
 -13  -7   6  139.49   10.00
 -13  -7   6  161.78   10.40
 -13  -7   6  173.28    9.90
  13  -7  -6  154.48   10.00
 -13   7   6  168.58    8.70
 -13   7   6  161.88    9.50
 -13   7   6  170.68   11.60
 -11  -7   6  580.44   27.60
  11  -7  -6  587.64   26.90
  11  -7  -6  613.94   28.00
 -11  -7   6  601.04   27.90
 -11  -7   6  584.84   28.30
 -11   7   6  593.74   29.20
 -11   7   6  571.24   26.40
 -11   7   6  582.44   27.10
   9  -7  -6  290.77   14.20
   9  -7  -6  280.97   14.80
  -9  -7   6  290.47   14.80
  -9  -7   6  286.07   15.40
  -9   7   6  295.87   16.10
  -9   7   6  288.87   14.20
  -9   7   6  277.17   13.80
   7  -7  -6  643.64   28.10
  -7  -7   6  591.74   28.20
  -7  -7   6  612.94   29.20
  -7  -7   6  641.44   28.70
   7  -7  -6  570.94   28.30
  -7   7   6  622.74   27.70
  -7   7   6  642.34   29.90
  -7   7   6  610.74   27.90
  -7   7   6  637.44   29.10
   5  -7  -6 1222.28   56.59
  -5  -7   6 1344.37   57.69
  -5  -7   6 1301.07   56.89
  -5  -7   6 1320.27   56.59
   5  -7  -6 1303.77   56.49
  -5   7   6 1269.77   56.39
   5   7  -6 1324.37   55.99
  -5   7   6 1344.67   56.29
  -5   7   6 1263.67   57.09
  -5   7   6 1328.87   58.09
  -3  -7   6  300.37   14.90
  -3  -7   6  302.37   13.70
  -3  -7   6  298.17   14.70
   3   7  -6  284.57   14.30
  -3   7   6  301.87   15.00
  -3   7   6  307.87   15.30
  -3   7   6  303.27   14.60
  -1  -7   6 1734.83   72.49
  -1  -7   6 1678.73   71.49
   1  -7  -6 1573.84   72.39
  -1  -7   6 1669.73   72.29
   1   7  -6 1782.32   72.29
  -1   7   6 1653.23   72.49
  -1   7   6 1702.63   72.49
  -1   7   6 1658.63   72.19
   1  -7   6  342.67   16.00
   1  -7   6  322.17   15.10
  -1  -7  -6  309.17   15.90
   1  -7   6  333.77   16.00
  -1   7  -6  329.57   15.70
   1   7   6  295.47   15.70
   1   7   6  317.37   15.70
   1   7   6  310.07   15.60
   3  -7   6  973.40   43.00
  -3  -7  -6  982.40   43.20
   3  -7   6  936.11   42.20
   3  -7   6  958.70   42.90
   3   7   6  963.20   42.90
   3   7   6  992.10   42.30
  -3   7  -6  961.00   42.50
   3   7   6  929.91   42.70
   5  -7   6  490.25   23.70
   5  -7   6  542.95   24.20
  -5  -7  -6  505.15   22.80
  -5  -7  -6  475.65   23.80
   5  -7   6  465.05   22.90
  -5   7  -6  488.75   23.00
   5   7   6  476.85   23.30
   5   7   6  489.55   23.80
   7  -7   6  251.47   13.50
   7  -7   6  243.48   13.50
   7  -7   6  219.18   12.40
  -7  -7  -6  222.38   13.30
  -7  -7  -6  232.58   12.40
   7   7   6  238.48   13.10
   7   7   6  227.78   12.40
   7   7   6  232.88   13.30
  -7   7  -6  223.68   12.30
   9  -7   6  338.87   18.30
   9  -7   6  317.27   17.10
  -9  -7  -6  349.96   17.30
   9   7   6  339.17   17.00
   9   7   6  322.97   17.60
  -9   7  -6  333.97   17.00
 -16  -8   6   81.39    7.10
 -16  -8   6   80.49    7.40
 -16  -8   6   81.19    6.70
  16  -8  -6   70.29    6.20
 -16   8   6   72.49    8.50
 -16   8   6   87.89    6.80
 -14  -8   6  124.59    9.00
  14  -8  -6  130.39    8.20
  14  -8  -6  129.99    8.40
 -14  -8   6  148.79    9.20
 -14  -8   6  117.09    9.10
 -14   8   6  135.29    8.60
 -14   8   6  132.99   10.30
 -12  -8   6   36.10    4.90
  12  -8  -6   37.40    4.30
 -12  -8   6   44.80    5.30
 -12  -8   6   41.30    4.90
  12  -8  -6   40.70    5.10
 -12   8   6   39.20    3.40
 -12   8   6   42.40    4.70
 -12   8   6   47.00    6.10
 -10  -8   6   25.40    3.80
 -10  -8   6   22.50    3.70
 -10  -8   6   20.40    3.40
  10  -8  -6   23.80    3.70
  10  -8  -6   21.10    3.10
 -10   8   6   21.00    2.60
 -10   8   6   24.30    3.30
 -10   8   6   27.70    4.50
   8  -8  -6    1.60    1.40
  -8  -8   6    1.70    1.70
   8  -8  -6    1.60    1.50
  -8  -8   6    0.70    1.50
  -8   8   6   -0.10    1.00
  -8   8   6    1.10    1.50
  -8   8   6    2.10    1.90
  -6  -8   6    8.30    2.00
  -6  -8   6    8.80    2.50
   6  -8  -6    5.80    1.90
  -6  -8   6    9.40    2.30
   6  -8  -6    7.50    2.10
  -6   8   6   10.60    2.80
  -6   8   6   11.40    2.10
  -6   8   6    8.00    2.30
  -6   8   6    6.00    1.90
   6   8  -6    7.10    2.00
   4  -8  -6   12.20    2.40
  -4  -8   6   10.60    2.20
  -4  -8   6   15.30    3.00
   4  -8  -6   14.00    2.60
  -4  -8   6   10.70    2.30
   4   8  -6   12.50    2.30
  -4   8   6   14.70    2.70
  -4   8   6   10.50    2.30
  -4   8   6   15.80    3.20
  -4   8   6   13.70    2.20
   2  -8  -6   11.20    2.30
  -2  -8   6   12.80    2.30
  -2  -8   6   12.30    1.90
  -2  -8   6   13.00    2.40
  -2   8   6   13.50    2.60
  -2   8   6   14.20    2.40
   2   8  -6   12.80    2.40
  -2   8   6   15.50    2.70
   0  -8  -6    7.50    2.00
   0  -8   6    6.20    1.90
   0  -8   6    8.70    2.00
   0  -8   6    9.90    1.90
   0   8   6    9.50    2.30
   0   8   6    9.00    2.20
   0   8   6    6.60    2.10
   0   8  -6    6.90    1.90
  -2  -8  -6  105.09    6.90
   2  -8   6   94.89    6.50
   2  -8   6   92.39    6.50
   2  -8   6  107.99    6.30
   2   8   6   97.89    6.60
  -2   8  -6   89.59    6.40
   2   8   6   99.99    6.60
   2   8   6  102.79    6.60
  -4  -8  -6    7.00    2.20
   4  -8   6    5.40    2.00
   4  -8   6    5.20    2.20
   4  -8   6    3.30    2.00
   4   8   6    5.70    2.10
  -4   8  -6    6.10    2.00
   4   8   6    5.80    2.20
   6  -8   6    6.20    2.50
   6  -8   6    8.10    2.40
  -6  -8  -6    7.50    2.60
   6  -8   6    5.70    2.50
   6   8   6    9.30    2.80
   6   8   6    6.80    2.40
  -6   8  -6    8.80    2.50
   8  -8   6    1.80    2.20
  -8  -8  -6    8.40    2.80
   8  -8   6   15.90    3.70
   8  -8   6    7.60    2.80
  -8   8  -6    4.90    2.20
   8   8   6    8.00    2.70
   8   8   6    8.90    2.70
  10  -8   6    6.80    2.70
  10  -8   6    9.10    3.40
  10   8   6    6.20    2.80
 -10   8  -6   11.10    3.00
 -17  -9   6    0.30    2.20
 -17  -9   6   -2.30    2.10
  17  -9  -6    0.40    2.00
 -17   9   6    1.10    2.50
 -17   9   6   -0.90    2.00
 -15  -9   6    2.80    2.40
 -15  -9   6    2.20    2.20
  15  -9  -6    3.30    2.60
 -15   9   6    3.50    2.80
 -15   9   6    1.50    2.00
  13  -9  -6  262.37   14.90
 -13  -9   6  258.77   14.80
  13  -9  -6  254.17   14.10
 -13  -9   6  269.37   15.00
 -13   9   6  279.77   15.70
 -13   9   6  269.87   14.30
  11  -9  -6  139.39    8.10
 -11  -9   6  121.59    8.10
 -11  -9   6  117.39    8.00
  11  -9  -6  123.99    8.30
 -11  -9   6  108.69    8.20
 -11   9   6  114.99    6.80
 -11   9   6  119.29    8.70
 -11   9   6  106.19    7.50
  -9  -9   6  437.06   20.90
   9  -9  -6  431.16   20.90
   9  -9  -6  442.96   20.70
  -9  -9   6  424.36   20.60
  -9   9   6  408.56   21.60
  -9   9   6  429.16   20.50
  -9   9   6  409.06   19.70
   7  -9  -6    6.40    2.20
  -7  -9   6    2.10    1.50
  -7  -9   6    3.70    1.80
   7  -9  -6    4.10    1.70
  -7   9   6    5.50    2.20
  -7   9   6    3.60    1.50
  -7   9   6   15.70    2.70
  -5  -9   6  119.69    7.10
  -5  -9   6  119.09    7.60
   5  -9  -6  111.79    7.30
  -5  -9   6  116.79    7.00
   5  -9  -6  123.19    7.30
  -5   9   6  104.39    7.10
  -5   9   6  106.59    6.80
  -5   9   6  118.19    8.10
  -5   9   6  121.09    7.40
   5   9  -6  107.89    6.80
  -3  -9   6   19.00    2.90
  -3  -9   6   22.30    2.40
  -3  -9   6   19.90    2.80
  -3  -9   6   19.20    3.20
  -3   9   6   16.50    2.80
   3   9  -6   19.20    2.80
  -3   9   6   20.90    3.00
  -3   9   6   22.10    3.70
  -3   9   6   19.20    3.00
  -1  -9   6   67.99    4.40
  -1  -9   6   70.89    4.90
  -1  -9   6   62.39    4.90
   1  -9  -6   64.49    5.00
  -1   9   6   65.79    4.90
   1   9  -6   57.99    4.90
  -1   9   6   65.09    5.10
  -1   9   6   65.19    5.00
  -1  -9  -6   32.40    3.90
   1  -9   6   35.90    3.60
   1  -9   6   39.00    4.00
   1  -9   6   33.40    3.90
   1   9   6   29.00    3.80
   1   9   6   33.80    3.90
  -1   9  -6   28.00    3.70
   1   9   6   32.70    4.10
   3  -9   6   16.70    3.10
   3  -9   6   16.30    2.90
  -3  -9  -6   23.10    3.50
   3  -9   6   16.50    2.90
   3   9   6   15.80    3.00
  -3   9  -6   14.10    3.00
   3   9   6   16.60    3.00
   3   9   6   15.80    2.80
   5  -9   6    3.20    2.20
   5  -9   6    0.50    1.80
  -5  -9  -6    3.20    2.00
   5  -9   6    6.50    2.50
   5   9   6    3.20    1.90
   5   9   6    1.30    2.00
  -5   9  -6    6.00    2.20
   7  -9   6   65.59    6.50
   7  -9   6   64.39    5.60
   7  -9   6   54.99    6.30
  -7  -9  -6   62.69    6.60
   7   9   6   63.59    5.40
   7   9   6   60.69    6.50
  -7   9  -6   55.19    5.70
   9  -9   6   20.70    4.20
   9  -9   6   26.60    4.40
   9   9   6   23.70    4.00
  -9   9  -6   26.60    4.20
 -16 -10   6   99.59    8.00
  16 -10  -6   83.39    7.30
 -16 -10   6   98.59    8.00
 -16  10   6   78.29    7.80
 -16  10   6   93.59    7.20
  14 -10  -6   72.09    6.10
 -14 -10   6   80.49    6.90
  14 -10  -6   79.69    6.90
  14 -10  -6   76.69    6.50
 -14 -10   6   77.89    7.80
 -14  10   6   75.89    7.10
  12 -10  -6    4.50    2.30
  12 -10  -6    3.10    2.10
 -12 -10   6    3.20    2.10
 -12 -10   6   -2.80    1.70
 -12  10   6    0.50    2.00
 -12  10   6    1.20    1.80
 -12  10   6    1.30    1.30
 -10 -10   6    6.50    2.30
 -10 -10   6    1.40    2.00
  10 -10  -6    4.50    2.20
  10 -10  -6    7.90    2.40
 -10  10   6    3.60    1.40
 -10  10   6    4.50    2.30
 -10  10   6    2.40    1.80
   8 -10  -6    1.40    1.60
  -8 -10   6   -0.80    1.20
   8 -10  -6    1.40    1.70
  -8  10   6   -0.60    1.30
  -8  10   6    1.10    1.20
  -8  10   6    0.50    1.70
  -6 -10   6   28.40    3.50
   6 -10  -6   29.40    3.90
   6 -10  -6   23.50    3.30
   6  10  -6   30.70    3.80
  -6  10   6   30.60    3.90
  -6  10   6   35.20    3.70
  -6  10   6   35.20    4.60
   4 -10  -6    3.80    1.70
  -4 -10   6    1.00    1.20
   4 -10  -6    4.70    1.90
  -4 -10   6    6.30    2.30
  -4 -10   6    4.20    1.60
  -4  10   6    4.20    1.70
  -4  10   6    2.10    1.80
  -4  10   6    0.40    1.20
  -4  10   6    6.40    2.10
   4  10  -6    3.60    1.90
  -2 -10   6   17.80    2.40
   2 -10  -6   19.50    3.00
  -2 -10   6   18.00    2.70
  -2 -10   6   20.00    2.80
   2  10  -6   17.00    2.90
  -2  10   6   16.80    3.20
  -2  10   6   18.10    3.10
  -2  10   6   19.00    3.00
  -2  10   6   26.10    3.50
   0 -10   6   14.70    2.50
   0 -10   6   16.80    2.60
   0 -10  -6   15.60    2.70
   0 -10   6   14.00    2.60
   0  10   6   18.30    3.00
   0  10   6   16.50    2.90
   0  10   6   12.60    2.70
   0  10  -6   15.70    2.80
  -2 -10  -6    0.60    1.40
   2 -10   6    2.30    1.50
   2 -10   6    1.00    1.50
   2 -10   6    1.20    1.70
   2  10   6   -0.40    1.40
   2  10   6    2.70    1.90
  -2  10  -6    3.70    2.00
   2  10   6   -0.90    1.30
   4 -10   6    9.20    2.50
   4 -10   6   13.80    3.00
  -4 -10  -6   10.10    2.70
   4 -10   6    8.60    2.40
   4  10   6    6.80    2.10
  -4  10  -6   12.60    2.80
   4  10   6    6.40    2.60
   6 -10   6    4.20    2.30
   6 -10   6    3.10    2.30
   6 -10   6    3.00    2.10
  -6 -10  -6    4.40    2.30
  -6  10  -6    4.40    2.10
   6  10   6    4.50    2.00
   6  10   6    6.40    2.60
   8 -10   6    1.20    2.10
  -8 -10  -6   -0.20    1.80
   8 -10   6   -0.10    1.80
   8 -10   6    2.30    2.40
   8  10   6    2.50    2.10
   8  10   6   -0.20    1.70
  -8  10  -6   -1.10    1.80
  15 -11  -6   73.29    6.50
  15 -11  -6   90.99    7.40
 -15 -11   6   92.29    8.90
 -15  11   6   70.09    7.00
 -13 -11   6   56.79    6.00
 -13 -11   6   50.79    6.40
  13 -11  -6   58.09    6.50
  13 -11  -6   54.29    5.70
  13 -11  -6   46.70    5.80
 -13  11   6   59.59    6.70
 -13  11   6   50.99    5.70
  11 -11  -6  243.48   14.00
 -11 -11   6  265.17   13.80
 -11 -11   6  252.77   14.50
  11 -11  -6  267.17   14.20
 -11  11   6  252.17   12.80
 -11  11   6  245.98   14.30
 -11  11   6  237.38   13.70
  -9 -11   6  144.09    8.40
   9 -11  -6  144.69    9.10
   9 -11  -6  134.29    8.60
  -9  11   6  119.99    7.60
  -9  11   6  122.19    8.60
  -9  11   6  141.59    8.70
   7 -11  -6  320.27   17.10
   7 -11  -6  366.16   17.10
  -7 -11   6  350.06   16.70
  -7  11   6  326.17   17.10
  -7  11   6  330.57   17.40
  -7  11   6  332.67   16.50
   5 -11  -6  291.67   14.30
   5 -11  -6  299.67   14.90
  -5 -11   6  291.37   14.10
  -5  11   6  282.47   14.20
  -5  11   6  257.87   14.20
  -5  11   6  274.07   14.70
   5  11  -6  273.47   14.30
  -5  11   6  273.87   15.00
  -3 -11   6  255.77   12.80
   3 -11  -6  260.47   13.10
  -3  11   6  269.77   13.50
   3  11  -6  244.58   13.00
  -3  11   6  222.98   12.80
  -3  11   6  261.37   13.30
  -3  11   6  245.68   13.70
  -1 -11   6  514.95   25.40
   1 -11  -6  585.24   25.80
  -1 -11   6  551.64   25.00
  -1  11   6  535.55   25.60
  -1  11   6  554.14   26.10
   1  11  -6  565.44   25.80
  -1  11   6  566.24   26.10
   1 -11   6  320.37   15.90
  -1 -11  -6  337.07   16.30
   1 -11   6  296.87   16.00
   1  11   6  308.47   16.50
   1  11   6  376.46   17.30
   1  11   6  306.57   15.90
  -1  11  -6  318.67   16.30
   3 -11   6  314.97   15.50
   3 -11   6  304.67   15.10
  -3 -11  -6  312.07   15.30
   3  11   6  268.47   15.20
  -3  11  -6  268.87   15.10
   3  11   6  286.47   14.80
   3  11   6  279.87   15.70
   5 -11   6  135.89    8.90
  -5 -11  -6  138.79    8.90
   5 -11   6  144.39    9.20
  -5  11  -6  123.39    8.80
   5  11   6  130.49    9.20
   7 -11   6  223.08   13.00
  -7 -11  -6  229.98   13.10
   7 -11   6  222.68   13.40
   7  11   6  223.68   13.20
  -7  11  -6  215.38   12.90
 -14 -12   6  116.19    8.30
  14 -12  -6  121.09    8.80
 -14 -12   6  100.79    8.70
  14 -12  -6  128.49    9.00
  14 -12  -6  123.99    8.50
 -14  12   6  119.89    8.50
 -14  12   6   93.19    8.10
 -12 -12   6    3.30    2.50
  12 -12  -6    2.50    2.40
 -12 -12   6   -0.90    1.50
  12 -12  -6    2.70    2.00
 -12  12   6    0.10    1.90
 -12  12   6   -0.70    1.70
  10 -12  -6   46.80    5.50
 -10 -12   6   43.90    4.70
 -10 -12   6   40.60    5.20
  10 -12  -6   46.60    5.10
 -10  12   6   38.00    4.10
 -10  12   6   43.80    5.40
 -10  12   6   41.40    4.90
  -8 -12   6  176.88    9.90
   8 -12  -6  172.18   10.70
   8 -12  -6  192.68   10.40
  -8  12   6  176.88   10.50
  -8  12   6  171.58   10.60
  -8  12   6  154.58    9.50
   6 -12  -6    6.60    2.50
  -6 -12   6    3.90    1.70
   6 -12  -6    4.40    1.80
  -6  12   6    5.60    2.20
  -6  12   6    5.50    2.20
  -6  12   6    4.20    1.80
   6  12  -6    3.10    2.30
   4 -12  -6  190.28   10.10
   4 -12  -6  181.68   10.50
  -4 -12   6  166.08    9.50
   4  12  -6  181.18   10.20
  -4  12   6  166.78   10.20
  -4  12   6  181.88   10.60
  -4  12   6  173.78   10.10
  -4  12   6  171.88    9.90
  -2 -12   6   37.50    3.90
   2 -12  -6   31.80    3.90
  -2  12   6   44.90    5.50
   2  12  -6   35.70    4.10
  -2  12   6   34.20    4.50
  -2  12   6   31.60    4.20
   0 -12   6   61.19    4.80
   0 -12  -6   54.79    4.70
   0 -12   6   63.89    5.00
   0  12   6   59.29    5.20
   0  12   6   49.50    5.50
   0  12  -6   59.99    5.60
  -2 -12  -6   61.29    5.10
   2 -12   6   62.19    5.40
   2 -12   6   67.29    5.40
   2  12   6   62.39    6.60
  -2  12  -6   65.29    6.10
   2  12   6   59.99    6.10
   4 -12   6    2.90    1.90
   4 -12   6    2.10    2.20
  -4 -12  -6    1.30    1.60
  -4  12  -6    1.70    2.00
   4  12   6    1.00    2.10
  -6 -12  -6   59.49    5.50
   6 -12   6   55.19    6.30
   6 -12   6   59.09    6.50
  -6  12  -6   59.99    6.50
   6  12   6   63.59    6.90
 -13 -13   6    0.90    2.70
  13 -13  -6   -1.00    2.20
 -13 -13   6    0.70    1.70
  13 -13  -6    4.00    2.10
  13 -13  -6    2.80    2.00
 -13  13   6    3.80    2.40
 -11 -13   6  219.78   13.10
  11 -13  -6  233.68   12.60
 -11 -13   6  212.38   11.90
  11 -13  -6  201.48   12.90
 -11  13   6  207.58   12.60
   9 -13  -6    0.80    2.10
   9 -13  -6    3.30    2.00
  -9 -13   6    0.30    1.50
  -9 -13   6   10.30    2.80
  -9  13   6    0.70    1.40
  -9  13   6    1.90    2.10
   7 -13  -6  201.38   11.10
   7 -13  -6  195.98   11.70
  -7 -13   6  198.98   10.70
  -7  13   6  196.88   11.80
  -7  13   6  202.88   11.20
   5 -13  -6    9.40    2.70
   5 -13  -6   11.40    2.40
  -5 -13   6   11.50    2.30
  -5  13   6   11.10    2.80
  -5  13   6    9.30    2.50
   5  13  -6   21.40    3.40
  -3 -13   6   85.19    5.60
   3 -13  -6   76.79    5.70
   3 -13  -6   83.29    6.40
  -3  13   6   86.79    6.40
   3  13  -6   73.49    5.80
  -3  13   6   77.49    6.20
  -1 -13   6   60.39    4.80
   1 -13  -6   62.79    4.90
  -1  13   6   59.09    5.90
  -1  13   6   68.09    5.90
   1  13  -6   54.79    5.50
  -1 -13  -6   52.29    4.40
   1 -13   6   58.99    4.70
   1 -13   6   48.60    5.00
   1  13   6   49.40    5.70
  -1  13  -6   49.60    5.20
   1  13   6   42.00    5.60
   3 -13   6    1.50    2.00
  -3 -13  -6   -0.60    1.30
   3 -13   6    1.00    1.60
   3  13   6   -0.10    1.90
  -3  13  -6    0.70    1.90
   3  13   6    0.90    2.20
  -5 -13  -6  129.09    8.40
   5 -13   6  122.89    8.60
   5 -13   6  124.99    9.00
   5  13   6  135.19    9.20
  -5  13  -6  121.09    8.80
 -12 -14   6   22.40    3.50
  12 -14  -6   22.40    3.80
 -12 -14   6   20.80    4.30
  12 -14  -6   25.80    4.60
 -12  14   6   21.80    4.10
  10 -14  -6   50.29    5.30
 -10 -14   6   52.69    6.10
 -10 -14   6   53.29    4.60
  10 -14  -6   50.09    6.20
 -10  14   6   43.00    5.50
  -8 -14   6   60.19    4.90
   8 -14  -6   60.79    5.20
   8 -14  -6   78.59    6.50
  -8  14   6   69.29    5.50
  -8  14   6   61.49    6.70
   6 -14  -6   45.50    5.50
  -6 -14   6   45.10    3.90
   6 -14  -6   46.80    4.20
   6  14  -6   41.50    5.00
  -6  14   6   41.00    4.80
  -6  14   6   44.50    5.40
   4 -14  -6    5.80    2.30
  -4 -14   6    2.90    1.50
   4 -14  -6    3.90    1.70
  -4  14   6    1.00    1.90
  -4  14   6    3.50    2.20
   4  14  -6    4.50    2.30
   2 -14  -6   13.20    2.50
  -2 -14   6    7.30    1.90
  -2  14   6   11.80    3.00
   2  14  -6    8.90    2.50
  -2  14   6    8.40    2.60
   0 -14   6    4.00    1.80
   0 -14  -6    6.50    2.00
   0  14  -6    5.60    2.30
   0  14   6    4.90    2.30
   0  14   6    4.10    2.40
  -2 -14  -6    3.10    1.70
   2 -14   6    4.00    2.40
   2 -14   6    3.20    1.80
  -2  14  -6    1.70    2.00
   2  14   6    3.50    2.30
   2  14   6    2.70    2.40
   4 -14   6   45.40    5.70
   4 -14   6   59.39    5.20
  -4 -14  -6   53.19    4.90
   4  14   6   44.80    5.90
  -4  14  -6   45.80    5.60
  11 -15  -6    0.80    2.70
  11 -15  -6   -0.50    1.50
 -11 -15   6    0.50    1.40
 -11 -15   6   -2.70    1.70
 -11  15   6   -1.10    1.70
  -9 -15   6   73.59    6.20
  -9 -15   6   70.29    5.20
   9 -15  -6   61.69    5.50
   9 -15  -6   67.49    7.10
  -9  15   6   76.29    5.90
  -9  15   6   65.79    7.30
  -7 -15   6  113.79    6.80
   7 -15  -6  105.99    8.10
   7 -15  -6  111.49    7.20
  -7  15   6  103.29    8.00
  -7  15   6  112.19    7.70
  -5 -15   6   13.70    2.40
   5 -15  -6   12.00    3.20
   5 -15  -6   13.90    2.60
   5  15  -6   13.30    3.10
  -5  15   6   23.70    3.80
  -5  15   6   10.60    2.90
   3 -15  -6  365.26   18.20
  -3 -15   6  345.57   16.80
   3 -15  -6  363.96   17.30
   3  15  -6  348.17   17.80
  -3  15   6  329.07   17.80
  -3  15   6  354.96   18.60
  -1 -15   6    2.00    1.50
  -1  15   6    1.70    2.20
  -1  15   6    3.80    2.10
   1  15  -6    0.00    1.70
  -1 -15  -6  257.27   13.60
   1 -15   6  278.67   13.80
  -1  15  -6  247.28   14.00
   1  15   6  265.77   15.30
   1  15   6  261.87   14.60
  -3 -15  -6   14.40    2.80
   3 -15   6   12.20    3.30
   3 -15   6   12.20    2.70
   3  15   6    8.20    3.00
   3  15   6   14.60    3.70
  -3  15  -6   10.60    3.00
  10 -16  -6   44.90    6.20
  10 -16  -6   52.69    5.50
 -10 -16   6   49.20    4.30
 -10 -16   6   45.90    5.80
 -10  16   6   57.49    6.80
  -8 -16   6   -0.20    1.10
   8 -16  -6   -1.20    2.00
   8 -16  -6    1.10    1.50
  -8 -16   6    1.50    1.70
  -8  16   6    1.10    2.10
  -8  16   6   -0.20    1.60
   6 -16  -6  132.79    9.10
  -6 -16   6  120.09    7.30
   6 -16  -6  131.19    7.90
  -6  16   6  135.29    9.00
  -6  16   6  125.19    8.80
   4 -16  -6   14.10    2.70
   4 -16  -6   14.60    3.30
  -4 -16   6   14.80    2.40
  -4  16   6   22.10    4.00
   4  16  -6   15.00    3.30
  -4  16   6   17.70    3.40
   2 -16  -6   34.70    4.00
   2 -16  -6   31.20    4.50
  -2 -16   6   32.70    3.60
  -2  16   6   27.00    4.60
   2  16  -6   36.60    4.50
  -2  16   6   35.10    4.50
   0 -16  -6   21.00    3.20
   0 -16   6   25.20    3.30
   0  16  -6   23.00    3.70
   0  16   6   20.90    4.20
   0  16   6   22.30    3.90
  -2 -16  -6    3.40    1.70
   2 -16   6    5.90    2.00
  -2  16  -6    1.40    1.90
   2  16   6    1.60    2.00
   2  16   6    0.30    2.30
  -7 -17   6    6.30    1.70
   7 -17  -6    2.60    2.50
   7 -17  -6    7.70    2.10
  -7  17   6    4.90    2.70
  -7  17   6    3.60    2.20
   5 -17  -6  176.18    9.60
   5 -17  -6  175.68   10.90
  -5 -17   6  160.68    9.00
   5  17  -6  160.88   10.30
  -5  17   6  167.88   10.90
  -5  17   6  165.98   10.70
  -3 -17   6    4.90    1.60
   3 -17  -6    0.20    1.90
   3 -17  -6   -0.40    1.20
   3  17  -6    0.60    1.90
  -3  17   6   -0.60    1.60
  -3  17   6    5.90    2.30
   1 -17  -6  137.49    9.10
   1 -17  -6  129.59    8.00
  -1 -17   6  131.39    7.70
  -1  17   6  142.99    9.10
  -1  17   6  126.79    9.50
   1  17  -6  131.89    8.80
   1 -17   6    1.30    1.40
  -1 -17  -6    1.00    1.50
   1  17   6    3.00    2.30
   1  17   6    2.20    2.10
  -1  17  -6   -0.20    1.90
 -18   0   7   -3.20    2.60
  18   0  -7   -0.50    1.40
 -16   0   7    0.40    3.20
  16   0  -7   -0.60    1.40
  14   0  -7   -0.70    1.00
 -14   0   7    0.90    2.90
 -12   0   7   -1.90    2.50
  12   0  -7    0.70    1.10
 -10   0   7    0.40    0.80
  10   0  -7   -0.40    0.80
 -10   0   7    0.80    2.50
  -8   0   7    0.10    2.40
  -8   0   7    1.20    1.10
  -8   0   7   -2.30    2.00
   8   0  -7   -0.10    0.80
  -8   0   7    0.40    0.90
  -6   0   7   -1.10    0.70
  -6   0   7    1.10    1.10
  -6   0   7    1.40    2.40
  -6   0   7    0.90    2.10
  -4   0   7    1.80    2.00
  -4   0   7    0.90    1.00
  -2   0   7    1.40    1.90
  -2   0   7    1.20    1.00
  -2   0   7   -0.30    1.00
   0   0   7    1.70    1.80
   0   0   7   -0.70    0.90
   0   0   7   -0.20    1.10
   2   0   7    0.50    1.20
   2   0   7    0.40    1.10
   2   0   7   -0.50    1.60
   4   0   7    1.20    2.40
   4   0   7   -0.30    1.40
   6   0   7    0.90    2.40
   6   0   7   -2.80    1.20
  -8   0  -7   -0.90    1.40
   8   0   7   -0.10    1.60
   8   0   7   -1.90    2.10
  17  -1  -7  120.59    7.70
 -17  -1   7  140.09   11.70
 -17   1   7  101.09   11.90
 -15  -1   7  120.79   11.00
  15  -1  -7  127.09    7.40
 -15   1   7  121.09   11.20
  15   1  -7  123.89    7.20
 -13  -1   7   75.69    9.30
  13  -1  -7   83.09    5.20
 -13  -1   7   72.49    4.90
  13   1  -7   84.89    5.00
 -13   1   7   85.69    9.90
 -11  -1   7   94.19    5.50
  11  -1  -7   97.19    5.60
 -11  -1   7   99.19    6.50
 -11  -1   7   93.09    8.80
  11   1  -7  101.19    5.80
 -11   1   7   92.99    9.10
  -9  -1   7   31.80    3.60
  -9  -1   7   30.50    2.60
   9  -1  -7   34.10    2.60
  -9  -1   7   29.20    5.00
  -9  -1   7   35.50    6.10
  -9   1   7   31.40    3.30
  -9   1   7   34.10    6.00
  -9   1   7   30.20    5.50
  -7  -1   7    2.00    2.50
   7  -1  -7    1.80    0.90
  -7  -1   7    1.30    1.20
  -7  -1   7    0.10    2.00
  -7  -1   7    1.10    1.00
  -7   1   7    1.40    2.10
  -7   1   7    1.60    2.40
  -7   1   7    0.10    0.90
  -7   1   7   -0.40    1.00
  -5  -1   7  215.78   12.90
   5  -1  -7  234.28   10.40
  -5  -1   7  233.48   11.60
  -5  -1   7  206.28   13.70
  -5   1   7  230.48   11.40
  -5   1   7  209.18   12.90
  -5   1   7  205.38   13.80
  -5   1   7  237.38   11.00
  -3  -1   7   41.50    5.30
   3  -1  -7   42.00    2.70
  -3  -1   7   46.50    3.70
  -3  -1   7   38.60    3.10
  -3   1   7   40.70    3.70
  -3   1   7   49.40    5.60
  -3   1   7   43.20    3.30
  -1  -1   7   20.90    2.80
  -1  -1   7   17.50    2.30
  -1  -1   7   18.70    3.50
  -1   1   7   19.10    3.50
  -1   1   7   16.90    2.30
  -1   1   7   20.00    2.60
   1  -1   7    4.30    1.50
   1  -1   7    3.80    1.50
   1  -1   7    4.70    1.70
   1  -1   7    3.80    2.20
   1   1   7    1.00    1.90
   1   1   7    5.80    1.70
   1   1   7    2.20    1.30
   3  -1   7    7.70    2.10
   3  -1   7    6.80    1.70
   3  -1   7    4.00    2.30
   3   1   7    5.30    2.50
   3   1   7    5.10    1.80
   3   1   7    7.60    1.90
   5  -1   7   23.40    4.40
   5  -1   7   22.20    3.30
   5   1   7   23.30    4.20
   5   1   7   18.10    2.90
   7  -1   7   60.39    5.20
   7  -1   7   67.89    7.80
  -7  -1  -7   52.49    5.40
   7   1   7   64.49    7.60
   7   1   7   64.39    5.20
   9  -1   7    0.60    2.70
   9  -1   7    5.70    2.30
  -9  -1  -7   -1.90    1.40
   9   1   7    0.20    2.90
   9   1   7    1.50    2.00
  18  -2  -7   57.99    5.70
 -18  -2   7   59.79    8.70
 -18   2   7   51.59    8.90
 -16  -2   7   29.30    6.20
  16  -2  -7   33.30    3.80
 -16   2   7   29.40    6.80
  14  -2  -7   17.00    2.60
 -14  -2   7   18.00    4.90
 -14  -2   7   22.40    2.90
 -14   2   7   17.40    5.10
 -12  -2   7   26.30    2.90
  12  -2  -7   28.90    3.10
 -12  -2   7   26.60    3.80
 -12  -2   7   20.30    5.00
 -12   2   7   28.10    5.70
 -12   2   7   27.70    3.50
  10  -2  -7  173.88    8.60
 -10  -2   7  171.48    8.70
 -10  -2   7  162.48    9.50
 -10  -2   7  158.98   11.70
 -10   2   7  162.68    8.90
 -10   2   7  168.68   12.30
  -8  -2   7  117.79    9.60
   8  -2  -7  109.39    5.90
  -8  -2   7  121.59    7.10
  -8  -2   7  118.19    8.60
  -8   2   7  103.39    6.20
  -8   2   7  105.19    9.20
  -8   2   7  113.19    8.70
  -6  -2   7  102.09    6.40
  -6  -2   7   96.89    8.40
   6  -2  -7   98.29    5.40
  -6  -2   7   99.19    7.80
   6  -2  -7  105.79    6.40
  -6  -2   7  104.59    5.80
  -6   2   7  105.09    5.90
  -6   2   7  109.29    8.00
  -6   2   7   95.09    8.40
   4  -2  -7   54.49    4.30
   4  -2  -7   59.99    3.60
  -4  -2   7   53.89    3.70
  -4  -2   7   60.99    4.50
  -4  -2   7   52.79    5.80
  -4   2   7   61.99    4.30
  -4   2   7   61.59    6.30
  -2  -2   7   10.90    1.70
  -2  -2   7   13.40    3.00
  -2  -2   7   17.00    2.50
  -2   2   7   12.50    2.90
  -2   2   7    9.30    1.90
  -2   2   7    9.60    1.90
   0  -2  -7   62.19    5.10
   0  -2   7   57.19    4.00
   0  -2   7   54.59    4.30
   0  -2   7   47.60    5.50
   0   2   7   54.59    4.20
   0   2   7   55.79    4.10
   0   2   7   56.09    5.80
   2  -2   7    6.70    2.00
   2  -2   7    2.80    2.20
   2  -2   7    4.50    1.50
   2  -2   7    9.10    2.10
   2   2   7    4.10    1.50
   2   2   7    2.40    1.40
   2   2   7    9.00    2.80
   4  -2   7   10.80    2.40
   4  -2   7   13.20    3.40
   4   2   7   10.70    2.40
   4   2   7   11.00    2.30
   4   2   7   13.00    3.20
   6  -2   7   27.30    5.10
  -6  -2  -7   30.80    4.00
   6  -2   7   30.30    3.80
   6   2   7   27.80    4.80
   6   2   7   28.90    3.80
  -8  -2  -7    8.20    2.50
   8  -2   7   11.30    2.70
   8  -2   7   12.90    3.90
   8   2   7   12.40    2.80
   8   2   7    9.50    3.60
  17  -3  -7   39.50    4.40
 -17  -3   7   29.00    6.10
 -17   3   7   33.90    4.80
 -17   3   7   50.29    8.40
 -15  -3   7   21.40    5.10
 -15  -3   7   23.50    3.10
  15  -3  -7   21.10    3.20
 -15   3   7   23.30    5.60
 -15   3   7   19.10    3.30
 -13  -3   7   48.70    5.40
 -13  -3   7   48.50    7.00
  13  -3  -7   46.50    4.00
 -13  -3   7   43.70    3.80
 -13   3   7   54.99    7.90
 -13   3   7   48.10    4.90
 -11  -3   7   18.20    2.70
 -11  -3   7   20.70    4.50
 -11  -3   7   16.90    3.10
  11  -3  -7   22.80    2.70
 -11   3   7   19.60    2.80
 -11   3   7   18.80    4.80
  -9  -3   7  260.27   16.00
   9  -3  -7  261.57   12.60
  -9  -3   7  283.27   13.90
  -9   3   7  266.37   16.40
  -9   3   7  259.97   13.00
  -7  -3   7   21.40    4.70
   7  -3  -7   19.40    2.20
   7  -3  -7   22.60    3.00
  -7  -3   7   19.00    2.90
  -7  -3   7   19.80    3.90
  -7   3   7   19.10    2.50
  -7   3   7   20.20    4.40
  -7   3   7   23.90    4.20
   5  -3  -7  118.29    7.30
  -5  -3   7  128.69    7.50
  -5  -3   7  119.99    8.60
  -5  -3   7  119.29    9.20
   5  -3  -7  121.49    6.50
  -5  -3   7  128.99    6.40
  -5   3   7  120.49    8.60
  -5   3   7  133.29    9.70
  -5   3   7  125.69    7.00
  -3  -3   7   -0.10    1.10
  -3  -3   7    0.70    0.90
   3  -3  -7    0.90    1.20
  -3  -3   7    1.00    1.80
   3  -3  -7    1.60    1.00
  -3   3   7   -0.40    1.70
  -3   3   7    1.30    1.30
  -3   3   7    1.40    1.30
   1  -3  -7  194.48   10.20
  -1  -3   7  172.48    9.20
  -1  -3   7  180.98   10.70
  -1  -3   7  191.68   10.00
  -1   3   7  192.38   10.90
  -1   3   7  174.28    9.40
  -1   3   7  175.18    9.60
   1  -3   7   11.00    2.10
  -1  -3  -7    9.30    2.20
   1  -3   7    8.30    2.00
   1  -3   7    9.90    2.70
   1   3   7    7.20    2.40
   1   3   7    7.60    1.90
   1   3   7    8.40    1.90
   3  -3   7    2.30    1.60
   3  -3   7    2.80    2.10
   3  -3   7    1.40    1.30
   3   3   7    3.20    1.70
   3   3   7    3.30    2.10
   3   3   7    2.40    1.50
   5  -3   7    8.10    3.10
   5  -3   7    8.90    2.30
  -5  -3  -7   13.10    2.50
   5   3   7    8.40    2.30
   5   3   7    7.70    2.20
   5   3   7    5.40    2.50
  -7  -3  -7    0.30    1.40
   7  -3   7   -0.50    1.60
   7  -3   7    4.50    2.70
   7   3   7    0.80    1.80
   7   3   7    1.40    2.30
  -9  -3  -7   43.30    4.90
   9  -3   7   29.90    4.40
   9  -3   7   27.40    5.90
   9   3   7   45.70    5.10
   9   3   7   37.90    5.90
 -18  -4   7   -0.90    2.60
  18  -4  -7    1.20    1.80
 -18   4   7    0.20    3.50
 -18   4   7    1.30    2.30
  16  -4  -7    0.60    1.60
 -16  -4   7    0.90    1.50
 -16  -4   7    0.90    2.70
 -16   4   7   -1.10    2.70
 -16   4   7   -0.50    1.90
 -14  -4   7   94.19    7.40
 -14  -4   7  100.49    8.70
  14  -4  -7   88.79    6.10
 -14  -4   7   86.79    6.00
 -14   4   7   89.09   10.20
 -14   4   7   90.59    6.50
 -12  -4   7   22.10    3.60
 -12  -4   7   24.00    4.90
  12  -4  -7   24.50    3.10
 -12  -4   7   25.60    3.30
 -12   4   7   24.10    3.30
 -12   4   7   29.20    5.60
 -10  -4   7  236.78   12.60
  10  -4  -7  213.88   11.20
 -10  -4   7  222.88   14.10
 -10  -4   7  236.98   11.80
 -10   4   7  231.78   14.70
 -10   4   7  227.28   11.70
  -8  -4   7   36.10    5.50
   8  -4  -7   40.30    3.30
   8  -4  -7   43.40    4.00
  -8  -4   7   38.40    5.30
  -8  -4   7   45.90    4.60
  -8   4   7   41.90    3.50
  -8   4   7   43.50    6.20
  -8   4   7   34.00    5.20
  -6  -4   7  170.68    9.60
  -6  -4   7  177.78   10.70
   6  -4  -7  173.28    9.60
  -6  -4   7  173.28   11.40
   6  -4  -7  173.78    8.70
  -6   4   7  161.68   10.60
  -6   4   7  174.68   11.70
  -6   4   7  167.78    9.00
  -4  -4   7   95.69    6.10
   4  -4  -7   96.69    5.50
  -4  -4   7   89.09    5.10
   4  -4  -7   90.49    6.10
  -4  -4   7   84.39    6.70
  -4   4   7   92.39    6.00
  -4   4   7   86.99    6.90
  -4   4   7   90.59    5.90
  -2  -4   7   30.60    3.00
  -2  -4   7   38.10    4.00
   2  -4  -7   42.30    3.80
  -2  -4   7   38.60    4.70
  -2   4   7   32.30    3.50
  -2   4   7   35.40    4.50
  -2   4   7   34.20    3.70
   0  -4   7  330.17   17.10
   0  -4  -7  340.47   16.60
   0  -4   7  328.27   15.60
   0  -4   7  334.67   16.30
   0   4   7  311.97   15.90
   0   4   7  327.97   17.00
   0   4   7  341.77   16.00
  -2  -4  -7   77.29    5.90
   2  -4   7   86.29    5.70
   2  -4   7   82.99    5.40
   2  -4   7   80.79    5.80
   2  -4   7   77.29    6.50
   2   4   7   79.29    5.50
   2   4   7   84.09    6.50
   2   4   7   85.39    5.70
   4  -4   7  172.78   10.80
   4  -4   7  153.58    9.10
  -4  -4  -7  171.68    9.30
   4   4   7  171.28    9.70
   4   4   7  169.58    9.50
   4   4   7  152.88   10.10
   6  -4   7   21.60    4.30
  -6  -4  -7   24.20    3.50
   6  -4   7   23.80    3.40
   6   4   7   18.40    3.10
   6   4   7   20.00    3.90
   8  -4   7   19.60    4.60
  -8  -4  -7   12.70    2.90
   8  -4   7   18.20    3.40
   8   4   7   13.20    2.90
   8   4   7   17.70    4.30
  17  -5  -7  120.99    8.00
 -17  -5   7  115.79    9.80
 -17  -5   7  121.79    8.00
 -17   5   7   97.69   11.50
 -17   5   7  139.89    8.90
  15  -5  -7   83.39    6.00
 -15  -5   7   75.89    5.90
 -15  -5   7   75.39    8.60
 -15  -5   7   80.69    7.30
 -15   5   7   89.59    6.60
 -15   5   7   82.79    9.70
 -13  -5   7  115.39    8.60
  13  -5  -7  125.59    7.60
 -13  -5   7  121.39    9.50
 -13  -5   7  113.19    7.50
 -13   5   7  129.49    8.00
 -13   5   7  146.49   11.00
 -11  -5   7   14.00    2.90
 -11  -5   7    7.00    2.20
 -11  -5   7    9.80    3.30
  11  -5  -7   10.90    2.20
 -11   5   7   16.90    4.50
 -11   5   7   14.50    2.60
  -9  -5   7   48.70    4.50
   9  -5  -7   42.40    4.80
   9  -5  -7   50.19    3.90
  -9  -5   7   43.20    6.00
  -9   5   7   52.99    4.00
  -9   5   7   52.09    6.80
   7  -5  -7   72.39    4.70
   7  -5  -7   67.89    5.30
  -7  -5   7   64.29    6.60
  -7  -5   7   75.29    6.80
  -7  -5   7   77.29    5.60
  -7   5   7   75.69    6.40
  -7   5   7   72.89    5.00
  -7   5   7   72.79    7.10
  -5  -5   7   53.89    4.50
  -5  -5   7   47.40    6.10
   5  -5  -7   52.09    4.40
   5  -5  -7   53.39    3.90
  -5  -5   7   54.79    5.70
  -5   5   7   53.99    6.50
  -5   5   7   54.59    4.30
   5   5  -7   52.79    3.50
  -5   5   7   45.50    4.10
  -5   5   7   52.79    5.80
  -3  -5   7  200.38   11.10
   3  -5  -7  184.98    9.90
  -3  -5   7  194.28   10.50
  -3  -5   7  178.88    9.30
   3  -5  -7  188.28   10.50
   3   5  -7  193.68    9.50
  -3   5   7  191.98   11.10
  -3   5   7  187.88   10.10
  -3   5   7  200.88   10.50
  -1  -5   7    2.40    1.50
   1  -5  -7    2.20    1.50
  -1  -5   7    4.50    1.40
  -1  -5   7    1.70    1.90
   1   5  -7    4.50    1.60
  -1   5   7    6.40    2.20
  -1   5   7    4.60    1.60
  -1   5   7    4.10    1.60
   1  -5   7    8.80    2.00
   1  -5   7    2.80    1.60
   1  -5   7   11.00    2.70
  -1  -5  -7    9.50    2.30
  -1   5  -7    8.00    2.10
   1   5   7    9.00    2.50
   1   5   7    3.40    1.70
   3  -5   7   10.60    2.90
   3  -5   7    7.10    2.10
  -3  -5  -7   11.20    2.60
   3  -5   7    8.00    2.40
   3   5   7    7.10    2.30
   3   5   7    9.60    2.30
   3   5   7    8.50    2.50
  -3   5  -7   10.90    2.40
  -5  -5  -7   33.00    3.90
   5  -5   7   39.10    5.30
   5  -5   7   33.60    4.10
  -5   5  -7   34.50    4.10
   5   5   7   32.00    4.50
   5   5   7   33.70    4.30
   5   5   7   35.10    4.10
   7  -5   7   42.30    4.90
   7  -5   7   45.60    6.20
  -7  -5  -7   52.89    5.30
   7   5   7   38.60    5.40
   7   5   7   50.69    5.20
   9  -5   7   29.00    5.50
   9  -5   7   32.50    4.50
  -9  -5  -7   28.80    4.30
   9   5   7   32.70    4.50
   9   5   7   30.40    5.20
 -16  -6   7   85.59    6.70
  16  -6  -7   90.39    6.60
 -16  -6   7   82.59    8.00
 -16  -6   7   95.99    8.30
 -16   6   7   98.29    9.40
 -16   6   7   90.69    7.00
  14  -6  -7   14.60    2.90
 -14  -6   7   20.00    4.30
 -14  -6   7   19.10    3.40
 -14  -6   7   24.60    4.40
 -14   6   7   20.40    5.10
 -14   6   7   23.70    3.70
  12  -6  -7    9.40    2.20
 -12  -6   7   10.30    2.60
 -12  -6   7   10.00    2.90
 -12  -6   7   14.80    3.80
 -12   6   7   13.00    2.60
 -12   6   7   15.60    4.20
 -10  -6   7   13.60    2.70
 -10  -6   7   16.10    3.10
  10  -6  -7   12.20    2.80
 -10  -6   7   14.10    3.60
  10  -6  -7   18.40    2.70
 -10   6   7   15.30    2.60
 -10   6   7   18.20    4.20
  -8  -6   7    0.40    2.10
  -8  -6   7    5.70    2.00
   8  -6  -7    0.60    1.40
  -8  -6   7   -1.20    1.80
   8  -6  -7    2.10    1.40
  -8   6   7    2.20    1.40
  -8   6   7    2.80    1.40
  -8   6   7    3.20    2.20
  -8   6   7    3.60    2.40
   6  -6  -7    0.20    1.30
  -6  -6   7   -0.80    1.30
  -6  -6   7    0.60    1.90
   6  -6  -7    0.20    1.20
  -6  -6   7   -1.00    1.60
  -6   6   7    1.20    2.30
  -6   6   7    0.40    1.30
  -6   6   7    0.90    1.80
  -6   6   7    2.60    1.50
  -4  -6   7   82.59    4.70
   4  -6  -7   83.09    5.50
   4  -6  -7   75.39    5.80
  -4  -6   7   80.89    5.80
  -4  -6   7   89.39    6.40
  -4   6   7   76.89    5.40
   4   6  -7   77.79    5.00
  -4   6   7   96.29    6.20
  -4   6   7   81.89    6.60
  -4   6   7   84.69    7.20
   2  -6  -7   80.69    5.90
  -2  -6   7   84.49    6.10
  -2  -6   7   88.89    5.90
  -2  -6   7   80.69    4.90
  -2   6   7   76.49    5.60
  -2   6   7   82.69    6.30
  -2   6   7   72.29    5.40
   2   6  -7   78.39    5.20
   0  -6  -7   53.59    4.70
   0  -6   7   49.50    3.90
   0  -6   7   59.29    5.10
   0  -6   7   39.60    4.50
   0   6  -7   50.79    4.20
   0   6   7   51.99    4.10
   0   6   7   50.89    4.30
   0   6   7   50.79    5.30
  -2  -6  -7   25.50    3.90
   2  -6   7   24.70    3.60
   2  -6   7   25.30    3.30
   2  -6   7   31.00    4.20
  -2   6  -7   26.80    3.60
   2   6   7   29.50    3.70
   2   6   7   31.70    4.30
   4  -6   7   89.09    6.60
   4  -6   7   89.59    7.00
   4  -6   7   78.89    5.80
  -4  -6  -7   82.99    6.70
  -4   6  -7   74.79    5.80
   4   6   7   78.99    6.60
   4   6   7   76.79    6.20
   4   6   7   83.69    6.00
   6  -6   7   53.59    6.40
   6  -6   7   49.40    5.20
   6   6   7   47.20    5.80
   6   6   7   45.70    5.10
   6   6   7   46.70    5.60
  -6   6  -7   52.49    5.10
   8  -6   7   13.80    3.00
   8  -6   7   13.60    3.90
   8   6   7   12.10    3.30
   8   6   7   12.90    3.10
 -17  -7   7   29.60    5.10
 -17  -7   7   38.20    4.80
  17  -7  -7   27.00    4.20
 -17   7   7   30.80    4.80
 -17   7   7   26.30    5.50
  15  -7  -7   33.80    4.40
 -15  -7   7   29.70    4.20
 -15  -7   7   35.20    5.40
 -15  -7   7   33.30    5.40
 -15   7   7   33.20    4.60
 -15   7   7   36.10    6.30
 -13  -7   7   27.80    4.50
 -13  -7   7   37.60    5.50
  13  -7  -7   30.20    4.00
 -13  -7   7   35.50    4.40
 -13   7   7   29.60    3.50
 -13   7   7   34.70    4.40
 -13   7   7   38.00    6.00
 -11  -7   7  120.79    8.90
  11  -7  -7  118.49    7.40
 -11  -7   7  130.39    8.60
  11  -7  -7  119.69    8.20
 -11  -7   7  122.49    8.00
 -11   7   7  123.49    9.70
 -11   7   7  120.89    7.30
 -11   7   7  111.29    7.60
   9  -7  -7   26.80    3.30
   9  -7  -7   28.50    4.00
  -9  -7   7   25.50    3.80
  -9  -7   7   26.00    4.40
  -9   7   7   24.70    3.10
  -9   7   7   27.30    4.80
  -9   7   7   15.10    2.70
  -7  -7   7  685.73   31.30
  -7  -7   7  661.73   30.80
  -7  -7   7  648.34   32.00
   7  -7  -7  675.23   31.00
   7  -7  -7  674.93   30.30
  -7   7   7  658.33   30.10
  -7   7   7  656.63   30.30
  -7   7   7  667.93   31.60
  -7   7   7  693.93   32.80
  -5  -7   7   83.89    6.10
   5  -7  -7   78.09    6.00
  -5  -7   7   77.69    6.70
  -5  -7   7   96.19    6.70
   5  -7  -7   94.99    5.90
  -5   7   7   80.39    5.60
   5   7  -7   90.09    5.40
  -5   7   7   83.49    6.00
  -5   7   7   80.99    7.10
  -5   7   7   89.89    6.80
   3  -7  -7  854.31   39.80
  -3  -7   7  881.01   40.00
  -3  -7   7  899.71   38.50
  -3  -7   7  916.81   39.90
  -3   7   7  866.01   39.40
   3   7  -7  855.31   39.00
  -3   7   7  939.71   39.90
  -3   7   7  888.51   40.30
  -1  -7   7   29.20    3.20
  -1  -7   7   33.90    4.20
   1  -7  -7   24.90    3.60
  -1  -7   7   28.90    3.70
  -1   7   7   31.30    4.20
  -1   7   7   27.40    3.50
  -1   7   7   32.60    3.90
   1   7  -7   31.60    3.60
   1  -7   7  141.69    8.60
   1  -7   7  137.39    8.70
   1  -7   7  133.49    7.80
  -1  -7  -7  133.69    8.60
  -1   7  -7  145.59    8.30
   1   7   7  133.49    7.90
   1   7   7  130.99    8.50
   1   7   7  124.59    8.10
   3  -7   7  226.58   12.20
   3  -7   7  204.18   11.10
   3  -7   7  203.58   12.00
  -3  -7  -7  197.08   12.00
  -3   7  -7  211.78   11.50
   3   7   7  204.38   11.80
   3   7   7  210.28   12.00
   5  -7   7    2.40    2.10
   5  -7   7    2.60    2.20
  -5  -7  -7    4.20    2.10
   5  -7   7    2.90    2.10
   5   7   7    0.80    1.80
   5   7   7    5.10    2.30
  -5   7  -7    2.60    1.70
   7  -7   7  178.98   10.90
   7  -7   7  188.28   11.90
   7   7   7  204.88   11.80
  -7   7  -7  173.78   10.70
 -16  -8   7   35.80    5.50
 -16  -8   7   29.20    4.70
  16  -8  -7   24.70    4.00
 -16   8   7   33.20    4.80
 -16   8   7   28.50    5.70
 -14  -8   7   26.50    4.70
  14  -8  -7   31.00    4.30
 -14  -8   7   41.40    5.40
 -14  -8   7   37.30    4.90
 -14   8   7   28.70    5.30
 -14   8   7   25.40    4.10
 -12  -8   7   96.49    8.00
 -12  -8   7  105.39    8.10
  12  -8  -7  116.19    7.40
  12  -8  -7  106.69    8.00
 -12  -8   7  118.39    8.10
 -12   8   7  109.39    9.10
 -12   8   7  118.99    7.70
 -12   8   7  115.29    6.90
  10  -8  -7   42.20    5.20
 -10  -8   7   33.30    4.60
 -10  -8   7   39.00    5.10
  10  -8  -7   43.40    4.60
 -10  -8   7   41.40    4.90
 -10   8   7   35.40    3.80
 -10   8   7   36.90    4.40
 -10   8   7   48.70    6.20
   8  -8  -7  243.78   13.50
  -8  -8   7  264.87   14.40
   8  -8  -7  260.87   13.10
  -8  -8   7  249.68   13.40
  -8   8   7  241.28   12.70
  -8   8   7  241.18   13.00
  -8   8   7  253.07   14.90
   6  -8  -7    5.00    2.00
  -6  -8   7   11.20    2.90
   6  -8  -7    5.40    2.00
  -6  -8   7    8.30    2.40
  -6  -8   7    6.50    2.10
  -6   8   7    4.70    2.20
  -6   8   7    5.80    2.00
  -6   8   7   11.00    3.20
  -6   8   7    6.80    2.00
  -4  -8   7    6.30    2.40
  -4  -8   7    1.30    1.50
   4  -8  -7    0.40    1.30
   4  -8  -7    4.00    1.80
  -4  -8   7   -0.90    1.40
  -4   8   7    1.10    1.70
  -4   8   7    3.10    1.70
  -4   8   7    0.20    1.30
  -4   8   7    1.20    2.20
   4   8  -7   -1.00    1.30
   2  -8  -7  253.67   13.70
  -2  -8   7  251.57   13.50
  -2  -8   7  257.27   12.50
  -2  -8   7  261.67   13.50
  -2   8   7  226.88   13.50
   2   8  -7  266.77   13.10
  -2   8   7  267.27   13.60
  -2   8   7  264.57   13.40
   0  -8  -7  135.19    8.50
   0  -8   7  134.39    7.60
   0  -8   7  126.59    8.30
   0  -8   7  134.49    8.40
   0   8   7  125.19    8.20
   0   8   7  130.39    8.20
   0   8   7  124.59    8.10
   0   8  -7  142.39    8.00
  -2  -8  -7  249.18   13.30
   2  -8   7  241.88   13.10
   2  -8   7  229.08   12.20
   2  -8   7  241.28   13.20
   2   8   7  232.58   12.90
  -2   8  -7  235.08   12.70
   2   8   7  225.98   14.30
   2   8   7  232.48   12.90
   4  -8   7  150.68    8.80
   4  -8   7  132.69    9.10
   4  -8   7  148.39    9.40
  -4  -8  -7  137.59    9.30
  -4   8  -7  145.29    8.90
   4   8   7  130.69    8.80
   4   8   7  135.19    9.20
   6  -8   7   75.99    7.70
   6  -8   7   77.49    7.40
  -6  -8  -7   47.00    8.60
   6  -8   7   68.89    5.80
   6   8   7   66.89    5.90
  -6   8  -7   62.29    6.30
   6   8   7   79.29    6.70
   8  -8   7   13.20    3.70
   8  -8   7    6.90    2.60
  -8   8  -7   12.30    3.00
   8   8   7    7.20    2.90
 -15  -9   7   61.59    7.00
 -15  -9   7   65.49    7.00
  15  -9  -7   63.49    6.60
 -15   9   7   49.40    7.10
 -15   9   7   66.59    5.90
  13  -9  -7    9.40    3.40
  13  -9  -7    9.30    2.80
 -13  -9   7    1.40    2.20
 -13  -9   7    5.10    2.60
 -13   9   7    7.20    3.10
 -13   9   7    7.50    2.70
 -13   9   7    8.60    2.10
  11  -9  -7   51.69    5.90
  11  -9  -7   50.49    5.40
 -11  -9   7   50.89    6.00
 -11  -9   7   56.29    6.00
 -11  -9   7   59.99    6.20
 -11   9   7   55.59    4.40
 -11   9   7   48.80    6.30
 -11   9   7   54.39    5.60
   9  -9  -7   13.60    3.00
   9  -9  -7    9.50    2.50
  -9  -9   7   17.70    3.40
  -9  -9   7   10.80    2.70
  -9   9   7   10.20    3.20
  -9   9   7   12.90    2.40
  -9   9   7    9.50    2.50
   7  -9  -7   40.40    4.60
   7  -9  -7   46.90    5.10
  -7  -9   7   34.10    4.80
  -7  -9   7   39.90    4.60
  -7   9   7   40.30    4.50
  -7   9   7   45.10    4.40
  -7   9   7   43.70    5.70
  -7   9   7   36.80    5.00
   5  -9  -7   31.60    4.00
  -5  -9   7   34.20    4.10
   5  -9  -7   29.00    3.90
  -5  -9   7   32.70    4.00
  -5  -9   7   32.80    4.60
  -5   9   7   29.30    3.90
   5   9  -7   26.50    3.40
  -5   9   7   31.00    3.70
  -5   9   7   30.50    4.80
  -5   9   7   32.00    4.20
   3  -9  -7   12.20    2.70
  -3  -9   7    9.90    2.60
   3  -9  -7   11.10    2.50
  -3  -9   7   10.90    2.50
  -3   9   7   11.60    3.20
  -3   9   7   12.00    2.50
   3   9  -7   11.30    2.40
  -3   9   7   11.90    2.60
  -3   9   7   18.50    3.30
   1  -9  -7   14.50    2.90
  -1  -9   7   16.90    3.00
  -1  -9   7   17.60    2.60
  -1  -9   7   14.60    2.80
   1   9  -7   25.70    3.40
  -1   9   7   17.50    3.10
  -1   9   7   13.00    2.90
  -1   9   7   17.80    3.10
   1  -9   7    7.50    2.10
   1  -9   7    4.20    2.10
   1  -9   7    3.60    2.00
  -1  -9  -7    7.40    2.40
   1   9   7    7.40    2.30
   1   9   7    5.20    2.10
  -1   9  -7    7.60    2.30
   1   9   7    7.00    2.30
  -3  -9  -7    6.60    2.40
   3  -9   7    8.80    2.70
   3  -9   7    3.10    2.00
   3  -9   7    9.40    2.60
  -3   9  -7    4.70    2.20
   3   9   7    8.30    2.50
   3   9   7    5.90    2.30
   5  -9   7   10.00    2.90
   5  -9   7   13.60    3.10
   5  -9   7   15.30    3.70
  -5  -9  -7   10.00    2.90
  -5   9  -7   13.40    3.10
   5   9   7   11.30    3.00
   5   9   7   11.40    3.30
   7  -9   7    0.80    2.20
   7  -9   7   -0.50    1.90
   7   9   7   -0.60    1.80
   7   9   7    1.10    1.80
  -7   9  -7    0.70    1.80
 -14 -10   7  227.98   13.70
  14 -10  -7  209.58   12.70
 -14 -10   7  239.78   13.60
 -14  10   7  206.08   13.80
 -14  10   7  225.78   13.00
  12 -10  -7    2.80    2.10
 -12 -10   7    1.40    1.90
  12 -10  -7   -0.10    1.90
 -12 -10   7    5.80    2.80
 -12  10   7    0.40    1.30
 -12  10   7    4.40    2.70
 -12  10   7    0.10    2.00
  10 -10  -7  161.88   10.20
  10 -10  -7  170.38   10.50
 -10 -10   7  177.58   10.50
 -10 -10   7  178.18   10.70
 -10  10   7  168.88   10.30
 -10  10   7  160.68   11.00
 -10  10   7  160.98    9.30
   8 -10  -7    9.70    2.80
  -8 -10   7    8.30    2.40
   8 -10  -7    7.80    2.50
  -8  10   7    9.50    2.10
  -8  10   7    6.00    2.60
  -8  10   7    4.30    2.20
   6 -10  -7   79.59    6.00
   6 -10  -7   67.89    5.70
  -6 -10   7   70.39    5.60
  -6  10   7   67.39    5.40
   6  10  -7   71.19    5.40
  -6  10   7   75.59    6.70
  -6  10   7   78.49    6.10
  -6  10   7   62.19    5.70
   4 -10  -7   95.39    6.70
  -4 -10   7   78.89    6.10
   4 -10  -7   97.99    6.70
  -4  10   7   77.89    6.40
  -4  10   7   89.69    7.20
  -4  10   7   87.59    6.50
  -4  10   7   83.89    6.10
   4  10  -7   88.99    6.20
  -2 -10   7   71.59    5.90
  -2 -10   7   87.69    6.20
  -2  10   7   83.19    6.30
  -2  10   7   92.09    6.60
  -2  10   7   80.49    6.80
  -2  10   7   84.09    6.30
   2  10  -7   79.09    5.80
   0 -10   7  235.48   12.10
   0 -10  -7  238.28   12.90
   0 -10   7  212.98   12.20
   0 -10   7  234.38   12.80
   0  10   7  236.48   13.00
   0  10   7  224.48   12.60
   0  10   7  233.48   12.90
   0  10  -7  237.38   12.50
   2 -10   7   85.49    6.70
   2 -10   7   86.69    6.30
   2 -10   7   84.69    6.20
  -2 -10  -7   91.99    6.70
   2  10   7   87.69    6.80
   2  10   7   76.39    6.10
   2  10   7   73.29    6.30
  -2  10  -7   80.79    6.30
  -4 -10  -7  262.67   14.10
   4 -10   7  262.97   13.60
   4 -10   7  231.88   13.40
   4 -10   7  233.38   13.90
   4  10   7  262.27   14.50
   4  10   7  232.78   13.30
  -4  10  -7  230.18   13.40
   6 -10   7   31.90    6.50
   6 -10   7   26.90    4.60
   6 -10   7   40.50    5.20
  -6 -10  -7   44.30    5.60
   6  10   7   39.50    5.50
   6  10   7   32.20    4.60
  -6  10  -7   36.30    4.90
  15 -11  -7   62.99    6.80
 -15 -11   7   47.00    6.30
 -15 -11   7   67.49    7.00
 -15  11   7   59.69    6.80
 -15  11   7   51.49    6.70
 -13 -11   7   17.40    4.00
  13 -11  -7   19.70    3.80
  13 -11  -7   18.20    3.70
 -13 -11   7   16.80    3.70
 -13  11   7   19.60    3.90
 -13  11   7   17.40    4.00
  11 -11  -7    5.30    2.50
  11 -11  -7   10.40    3.00
 -11 -11   7    8.10    2.60
 -11 -11   7    8.90    3.00
 -11  11   7    4.90    1.90
 -11  11   7    7.40    2.80
 -11  11   7    6.30    2.70
   9 -11  -7  385.86   18.80
   9 -11  -7  362.36   18.60
  -9 -11   7  376.66   18.40
  -9  11   7  343.07   19.10
  -9  11   7  338.57   17.60
  -9  11   7  368.66   18.70
   7 -11  -7   66.79    5.50
  -7 -11   7   63.39    5.20
   7 -11  -7   60.29    6.10
  -7  11   7   55.89    6.00
  -7  11   7   62.79    6.80
  -7  11   7   52.29    4.80
  -5 -11   7  497.25   24.50
   5 -11  -7  518.15   25.10
   5 -11  -7  545.35   24.90
  -5  11   7  535.25   24.70
  -5  11   7  514.95   25.00
  -5  11   7  531.85   25.00
   5  11  -7  505.25   24.50
  -5  11   7  520.25   25.90
   3 -11  -7   60.59    5.20
   3 -11  -7   52.99    5.60
  -3 -11   7   61.09    5.10
   3  11  -7   65.99    5.30
  -3  11   7   52.89    6.20
  -3  11   7   61.29    5.20
  -3  11   7   57.79    5.30
  -3  11   7   53.59    5.60
   1 -11  -7  502.95   24.50
  -1 -11   7  522.25   24.60
   1  11  -7  509.35   24.30
  -1  11   7  532.25   24.80
  -1  11   7  511.35   24.60
  -1  11   7  503.55   24.90
  -1 -11  -7   22.70    3.60
   1 -11   7   23.80    3.50
   1 -11   7   19.50    3.50
   1  11   7   19.20    3.40
   1  11   7   17.50    3.50
  -1  11  -7   21.70    3.50
   1  11   7   23.80    3.90
  -3 -11  -7   36.30    4.80
   3 -11   7   43.60    5.00
   3 -11   7   37.00    4.90
   3  11   7   33.60    4.40
   3  11   7   29.90    4.70
   3  11   7   39.30    5.10
  -3  11  -7   31.80    4.40
   5 -11   7  207.48   12.40
   5 -11   7  204.68   12.80
  -5 -11  -7  214.98   12.60
  -5  11  -7  209.08   12.30
   5  11   7  210.28   12.90
  14 -12  -7   20.90    3.70
 -14 -12   7    8.60    2.90
  14 -12  -7    9.10    3.50
  14 -12  -7   17.70    3.90
 -14 -12   7   13.20    4.00
 -14  12   7    8.10    3.10
 -14  12   7   12.50    3.50
 -12 -12   7   39.20    5.60
  12 -12  -7   41.60    5.60
 -12 -12   7   46.60    5.30
  12 -12  -7   45.30    5.50
 -12  12   7   31.80    4.80
 -12  12   7   38.70    5.30
  10 -12  -7    2.10    2.40
 -10 -12   7    1.90    2.20
  10 -12  -7    4.10    2.00
 -10 -12   7    3.00    2.00
 -10  12   7    2.20    2.20
 -10  12   7    4.50    2.40
 -10  12   7    3.10    1.70
  -8 -12   7    8.70    2.30
   8 -12  -7    4.10    2.10
   8 -12  -7    6.70    2.60
  -8  12   7    8.00    2.70
  -8  12   7    5.80    2.70
  -8  12   7    8.70    2.30
   6 -12  -7    0.20    2.00
  -6 -12   7    2.90    1.80
   6 -12  -7    2.60    1.80
  -6  12   7    2.20    1.70
  -6  12   7    4.40    2.20
   6  12  -7    3.90    2.10
  -6  12   7    2.70    2.10
   4 -12  -7    6.50    2.50
  -4 -12   7    7.50    2.30
   4 -12  -7    9.00    2.50
  -4  12   7   10.20    2.80
  -4  12   7    6.60    2.30
   4  12  -7   11.80    2.70
  -4  12   7    7.40    2.80
  -4  12   7    9.80    2.60
  -2 -12   7   57.99    4.90
   2  12  -7   58.79    5.60
  -2  12   7   50.99    5.70
  -2  12   7   50.09    5.40
   0 -12   7    3.60    1.90
   0 -12  -7    1.10    1.80
   0  12  -7    0.00    1.70
   0  12   7    1.90    2.20
   0  12   7    1.80    2.00
   2 -12   7  108.69    8.00
   2 -12   7  121.79    7.90
  -2 -12  -7  118.89    8.00
  -2  12  -7  110.59    7.80
   2  12   7  120.59    8.70
   2  12   7  112.29    8.30
   4 -12   7   34.10    4.80
  -4 -12  -7   23.00    3.80
   4 -12   7   33.40    4.80
   4  12   7   28.40    4.80
  -4  12  -7   24.70    4.20
  13 -13  -7   -2.50    2.40
 -13 -13   7   -2.10    2.20
  13 -13  -7    0.40    2.00
 -13 -13   7    0.40    1.70
 -13  13   7   -0.70    2.20
  11 -13  -7   64.39    7.20
  11 -13  -7   59.69    6.30
 -11 -13   7   61.09    6.70
 -11 -13   7   55.39    5.80
 -11  13   7   65.79    7.00
 -11  13   7   59.09    5.00
   9 -13  -7    3.50    2.60
  -9 -13   7    5.30    2.10
   9 -13  -7    0.20    1.70
  -9  13   7    2.10    2.30
  -9  13   7    2.70    1.70
  -7 -13   7    0.90    1.40
   7 -13  -7    0.30    1.50
   7 -13  -7   -1.50    1.90
  -7  13   7    2.10    1.70
  -7  13   7    1.50    1.90
   5 -13  -7   85.69    6.90
  -5 -13   7   94.49    6.30
   5 -13  -7   77.59    6.10
  -5  13   7   85.89    6.60
  -5  13   7   84.89    6.50
   5  13  -7   85.59    6.40
   3 -13  -7   32.70    4.20
   3 -13  -7   33.30    4.60
  -3 -13   7   31.00    3.90
  -3  13   7   36.30    4.60
  -3  13   7   25.30    4.00
   3  13  -7   26.00    3.90
   1 -13  -7   24.00    3.70
  -1 -13   7   19.30    3.30
  -1  13   7   25.20    4.10
  -1  13   7   18.60    3.80
   1  13  -7   21.50    3.50
  -1 -13  -7    4.20    2.00
   1 -13   7   15.00    3.00
   1  13   7    0.20    2.00
   1  13   7    3.50    2.40
  -1  13  -7    1.60    1.90
  -3 -13  -7    4.60    1.90
   3 -13   7   -2.10    1.90
   3 -13   7    3.00    2.10
   3  13   7    2.80    2.50
  -3  13  -7    6.60    2.50
  12 -14  -7  225.78   14.20
  12 -14  -7  232.58   13.50
 -12 -14   7  250.47   14.30
 -12 -14   7  232.28   13.00
 -12  14   7  221.08   14.00
 -10 -14   7    5.10    2.50
  10 -14  -7    1.10    2.60
  10 -14  -7    6.00    2.40
 -10 -14   7    1.20    1.70
 -10  14   7    3.40    2.50
 -10  14   7    5.40    2.20
  -8 -14   7  276.77   14.70
   8 -14  -7  295.07   16.20
   8 -14  -7  302.27   15.30
  -8  14   7  283.97   15.10
  -8  14   7  267.37   15.80
   6 -14  -7    5.90    2.60
  -6 -14   7    6.00    2.00
   6 -14  -7    6.30    2.30
  -6  14   7    3.20    2.00
  -6  14   7    8.30    2.60
   6  14  -7    6.10    2.70
  -4 -14   7   33.70    4.00
   4 -14  -7   39.40    4.50
   4 -14  -7   31.40    4.50
   4  14  -7   35.50    4.60
  -4  14   7   31.70    4.40
  -4  14   7   35.50    4.90
   2 -14  -7  240.38   13.60
   2 -14  -7  259.97   13.20
  -2 -14   7  224.88   12.70
  -2  14   7  247.58   14.10
  -2  14   7  218.58   13.10
   2  14  -7  254.07   13.30
   0 -14  -7    9.20    2.50
   0 -14   7   12.90    2.80
   0  14  -7   14.50    2.90
   0  14   7   13.70    3.30
   0  14   7   16.00    3.70
   2 -14   7  284.07   14.70
  -2 -14  -7  274.77   14.60
   2  14   7  258.37   15.70
   2  14   7  251.87   15.00
   9 -15  -7   39.50    5.70
  -9 -15   7   38.80    4.30
   9 -15  -7   32.50    4.50
  -9 -15   7   43.00    5.40
  -9  15   7   39.10    5.40
  -9  15   7   39.60    4.80
   7 -15  -7   91.69    6.90
  -7 -15   7  101.89    6.80
   7 -15  -7  103.09    8.30
  -7  15   7  121.19    8.00
  -7  15   7  108.99    8.00
  -5 -15   7   22.30    3.30
   5 -15  -7   28.40    4.40
   5 -15  -7   27.00    3.80
  -5  15   7   29.70    4.40
  -5  15   7   25.80    4.10
   5  15  -7   23.90    4.00
   3 -15  -7  109.99    7.90
  -3 -15   7  114.09    7.20
   3 -15  -7  104.89    7.20
   3  15  -7  108.59    7.70
  -3  15   7   96.69    8.10
  -3  15   7  113.39    8.00
   1 -15  -7   19.60    3.30
  -1 -15   7   17.40    3.10
   1  15  -7   17.70    3.30
  -1  15   7   18.50    3.50
  -1  15   7   16.90    3.80
  -1 -15  -7   43.30    5.10
   1 -15   7   48.90    5.20
   1  15   7   51.49    6.50
  -1  15  -7   54.59    5.70
   1  15   7   51.79    6.20
   8 -16  -7   53.59    5.70
  -8 -16   7   63.79    5.00
   8 -16  -7   64.39    7.20
  -8  16   7   57.19    6.10
  -8  16   7   79.19    6.90
  -6 -16   7    0.90    1.20
   6 -16  -7    0.50    1.50
   6 -16  -7    4.50    2.40
  -6  16   7    2.50    2.00
  -6  16   7    0.10    2.10
   4 -16  -7   88.79    7.10
  -4 -16   7   88.69    6.10
   4 -16  -7   82.69    6.30
   4  16  -7   88.89    6.90
  -4  16   7   88.99    6.90
  -4  16   7   89.49    7.40
   2 -16  -7    8.10    2.30
  -2 -16   7    6.00    1.90
   2 -16  -7    4.10    2.30
  -2  16   7    7.80    3.00
   2  16  -7    8.10    2.70
  -2  16   7    2.30    2.10
 -16   0   8   82.39   10.70
 -14   0   8  612.14   33.00
 -12   0   8  308.67   15.00
 -12   0   8  288.97   18.90
 -10   0   8  500.45   22.30
 -10   0   8  459.25   26.60
  -8   0   8  777.62   38.90
  -8   0   8  910.31   37.60
  -8   0   8  739.13   40.00
  -6   0   8  314.07   18.70
  -6   0   8  299.27   17.30
  -4   0   8 1870.11   82.49
  -2   0   8   44.30    3.70
  -2   0   8   42.40    5.60
   0   0   8 1982.20   94.19
   0   0   8 2225.88   92.49
   0   0   8 2272.77   92.49
   2   0   8  168.08   11.80
   2   0   8  189.28   10.30
   2   0   8  197.58   10.30
   4   0   8  632.04   32.10
   4   0   8  668.03   30.00
   6   0   8  466.75   22.10
   6   0   8  437.36   24.10
 -17  -1   8   20.80    5.60
 -17   1   8   10.00    4.70
 -15  -1   8   17.40    5.30
 -15   1   8   19.00    6.00
 -15   1   8   23.50    3.70
 -13  -1   8   37.70    6.90
 -13   1   8   28.30    6.60
 -13   1   8   39.60    4.30
 -11  -1   8   80.69    9.20
 -11  -1   8   61.69    4.70
 -11   1   8   71.49    9.20
 -11   1   8   70.49    5.00
  -9  -1   8   43.40    3.50
  -9  -1   8   35.60    6.10
  -9  -1   8   42.90    3.50
  -9  -1   8   53.09    7.90
  -9   1   8   38.80    3.50
  -9   1   8   36.80    6.10
  -9   1   8   39.10    6.80
  -7  -1   8  156.88    8.90
  -7  -1   8  163.88   10.90
  -7  -1   8  133.39   11.20
  -7   1   8  144.89   11.60
  -7   1   8  163.18   11.00
  -5  -1   8   18.60    4.20
  -5  -1   8   34.80    3.90
  -5  -1   8   27.90    5.40
  -5   1   8   30.30    5.10
  -5   1   8   25.90    5.30
  -3  -1   8   57.49    4.10
  -3  -1   8   52.79    6.30
  -3   1   8   51.59    6.20
  -1  -1   8   43.90    3.60
  -1  -1   8   37.00    3.90
  -1  -1   8   39.90    5.60
  -1   1   8   45.90    5.70
  -1   1   8   39.20    3.90
  -1   1   8   37.80    4.00
   1  -1   8   34.10    3.70
   1  -1   8   26.10    4.70
   1  -1   8   33.60    3.70
   1   1   8   30.30    3.60
   1   1   8   28.50    3.50
   1   1   8   29.10    4.80
   3  -1   8  152.68   10.50
   3  -1   8  140.89    8.40
   3   1   8  138.89    8.50
   3   1   8  145.29    8.60
   3   1   8  136.99   10.10
   5  -1   8   76.19    8.20
   5  -1   8   73.89    5.90
   5   1   8   70.79    5.70
   5   1   8   72.59    7.90
   7  -1   8   62.79    5.40
   7  -1   8   48.40    7.10
   7   1   8   49.70    5.40
   7   1   8   57.19    7.30
 -16  -2   8   16.90    5.00
 -16   2   8   18.00    3.40
 -16   2   8   12.10    5.20
 -14  -2   8    2.30    3.20
 -14   2   8    0.70    3.10
 -14   2   8    3.20    2.10
 -12  -2   8   89.99   10.00
 -12   2   8   83.29   10.30
 -12   2   8   82.59    5.90
 -10  -2   8   27.40    3.10
 -10  -2   8   26.10    3.70
 -10  -2   8   30.20    3.20
 -10  -2   8   26.40    5.60
 -10   2   8   28.90    3.30
 -10   2   8   29.60    6.20
  -8  -2   8   68.69    7.50
  -8  -2   8   64.49    5.20
  -8  -2   8   56.59    7.80
  -8   2   8   67.29    7.70
  -8   2   8   60.39    4.50
  -8   2   8   65.39    8.30
  -6  -2   8   98.19    8.80
  -6  -2   8   79.69    8.20
  -6  -2   8   92.49    6.20
  -6   2   8   72.69    7.90
  -6   2   8   88.39    8.50
  -4  -2   8   66.29    7.00
  -4  -2   8   65.49    5.10
  -4  -2   8   60.09    4.20
  -4   2   8   63.09    7.10
  -2  -2   8   63.49    6.90
  -2  -2   8   71.69    4.80
  -2  -2   8   72.19    5.30
  -2   2   8   71.09    7.20
  -2   2   8   70.89    5.10
   0  -2   8   10.40    2.10
   0  -2   8    6.90    2.80
   0  -2   8    8.10    2.10
   0   2   8    7.70    2.90
   0   2   8    6.60    2.00
   0   2   8    8.70    2.00
   2  -2   8   51.69    4.30
   2  -2   8   43.00    6.00
   2   2   8   48.30    4.80
   2   2   8   51.99    6.20
   2   2   8   43.70    4.60
   4  -2   8   16.80    4.20
   4  -2   8   15.10    2.90
   4   2   8   17.10    3.10
   4   2   8   12.30    3.70
   6  -2   8    0.00    2.30
   6  -2   8    1.90    1.70
   6   2   8    0.30    1.90
   6   2   8   -0.90    2.20
 -17  -3   8  107.49   10.20
 -17   3   8   88.79   11.70
 -17   3   8  107.99    7.70
  15  -3  -8   38.70    4.20
 -15  -3   8   48.70    7.30
 -15   3   8   33.70    7.00
 -15   3   8   39.90    4.80
 -13  -3   8   -0.30    1.10
 -13  -3   8   -0.20    2.70
  13  -3  -8   -0.50    1.30
 -13   3   8   -1.90    2.50
 -13   3   8   -1.10    1.60
 -11  -3   8  319.67   18.60
  11  -3  -8  296.87   14.40
 -11  -3   8  303.67   15.90
 -11  -3   8  299.67   14.70
 -11   3   8  293.67   14.90
 -11   3   8  306.97   18.90
   9  -3  -8   28.70    3.00
  -9  -3   8   32.50    4.10
  -9  -3   8   28.70    5.60
  -9  -3   8   35.70    5.70
  -9   3   8   34.30    3.70
  -9   3   8   32.50    6.20
  -9   3   8   43.40    6.30
   7  -3  -8  219.48   11.20
  -7  -3   8  214.58   12.00
  -7  -3   8  232.68   14.80
  -7  -3   8  223.58   13.60
  -7   3   8  231.38   11.60
  -7   3   8  231.28   15.00
  -7   3   8  222.58   13.80
  -5  -3   8   33.60    5.90
  -5  -3   8   28.90    3.00
  -5  -3   8   31.30    3.80
  -5  -3   8   15.90    4.10
  -5   3   8   27.20    4.70
  -5   3   8   32.80    5.60
  -3  -3   8   76.19    5.60
  -3  -3   8   79.99    6.80
  -3  -3   8   70.79    4.80
  -3   3   8   65.79    7.00
  -3   3   8   76.49    5.40
  -1  -3   8   21.20    2.80
  -1  -3   8   15.00    3.60
  -1  -3   8   22.30    3.40
  -1   3   8   15.40    3.60
  -1   3   8   16.40    2.70
   1  -3   8   34.60    3.70
   1  -3   8   27.60    3.40
   1  -3   8   23.30    4.50
   1   3   8   22.80    4.30
   1   3   8   20.80    3.20
   1   3   8   27.20    3.50
   3  -3   8  225.88   14.10
   3  -3   8  232.98   12.50
   3   3   8  240.08   12.70
   3   3   8  247.18   12.80
   3   3   8  224.58   14.00
   5  -3   8   95.49    6.70
   5  -3   8  102.69    8.80
   5   3   8   92.09    6.70
   5   3   8   88.09    8.90
   7  -3   8  179.48   11.00
   7  -3   8  187.58   13.30
   7   3   8  191.68   12.90
   7   3   8  201.38   11.40
 -16  -4   8  329.47   20.60
  16  -4  -8  335.37   17.30
 -16   4   8  356.26   18.20
 -16   4   8  398.66   22.80
  14  -4  -8   76.09    5.70
 -14  -4   8   87.89    6.00
 -14  -4   8  111.69    9.30
 -14   4   8   78.19    6.30
 -14   4   8   80.39   10.10
 -12  -4   8  417.26   23.40
 -12  -4   8  462.65   21.70
  12  -4  -8  402.66   19.70
 -12  -4   8  404.26   20.00
 -12   4   8  411.86   20.20
 -12   4   8  454.05   24.60
  10  -4  -8  411.26   19.60
 -10  -4   8  442.36   23.80
 -10  -4   8  444.46   20.40
 -10  -4   8  449.76   21.40
 -10   4   8  416.96   24.10
 -10   4   8  412.36   20.20
   8  -4  -8  200.28   10.30
  -8  -4   8  201.98   12.70
  -8  -4   8  208.58   11.60
  -8  -4   8  194.68   13.70
  -8   4   8  199.78   10.70
  -8   4   8  228.78   14.70
  -8   4   8  213.68   13.20
   6  -4  -8 1139.39   48.60
  -6  -4   8 1160.08   52.79
  -6  -4   8 1137.99   51.39
  -6  -4   8 1125.09   50.09
  -6   4   8 1070.19   51.39
  -6   4   8 1160.18   49.70
  -6   4   8 1129.39   49.50
  -6   4   8 1090.99   52.79
   4  -4  -8  133.69    7.40
  -4  -4   8  135.89    8.50
  -4  -4   8  135.69    9.50
  -4  -4   8  146.19    7.50
  -4   4   8  133.09    8.20
  -4   4   8  144.89    9.90
  -2  -4   8 1423.36   61.49
  -2  -4   8 1429.26   63.79
  -2  -4   8 1500.95   62.79
  -2   4   8 1420.26   63.79
  -2   4   8 1392.86   62.19
   0  -4   8   78.19    5.30
   0  -4   8   86.99    7.20
   0  -4   8   77.69    6.00
   0   4   8   73.79    6.50
   0   4   8   76.29    5.60
   2  -4   8 1054.99   49.20
   2  -4   8 1072.09   47.20
   2   4   8 1106.39   49.10
   2   4   8 1074.59   47.60
   2   4   8 1052.69   47.50
   4  -4   8  159.38    9.70
   4  -4   8  158.58   11.20
   4   4   8  160.78   10.90
   4   4   8  171.58   10.20
   4   4   8  170.78    9.90
   6  -4   8  296.07   15.90
   6  -4   8  314.17   18.00
   6   4   8  292.37   17.30
   6   4   8  320.27   16.30
 -17  -5   8  119.89   10.30
  17  -5  -8  113.09    7.80
 -17   5   8  126.59    8.80
 -17   5   8  122.19   11.50
 -15  -5   8    2.90    1.80
  15  -5  -8    3.20    1.80
 -15  -5   8    3.50    2.90
 -15   5   8    3.70    3.50
 -15   5   8    4.10    2.40
  13  -5  -8  155.78    9.00
 -13  -5   8  162.48   11.80
 -13  -5   8  159.18   10.50
 -13  -5   8  161.98    9.30
 -13   5   8  149.59    9.30
 -13   5   8  164.18   12.80
 -11  -5   8    3.50    3.00
 -11  -5   8    2.30    1.90
 -11  -5   8    4.00    1.90
  11  -5  -8    5.00    1.70
 -11   5   8    3.00    1.80
 -11   5   8    4.60    3.40
  -9  -5   8  227.18   14.10
  -9  -5   8  259.77   13.70
   9  -5  -8  240.28   12.10
  -9  -5   8  238.38   15.20
  -9   5   8  253.87   14.90
  -9   5   8  245.28   15.80
  -9   5   8  234.48   12.50
   7  -5  -8   60.29    4.30
  -7  -5   8   60.69    5.30
  -7  -5   8   55.29    7.10
   7  -5  -8   72.79    6.10
  -7  -5   8   65.79    6.90
  -7   5   8   59.29    4.90
  -7   5   8   57.69    4.80
  -7   5   8   56.99    6.60
  -7   5   8   59.39    7.70
   5  -5  -8   86.69    5.40
  -5  -5   8   86.39    7.90
  -5  -5   8   83.69    6.20
   5  -5  -8   73.59    5.90
  -5  -5   8   92.29    7.10
  -5   5   8   90.39    7.40
  -5   5   8   83.59    6.10
  -5   5   8   75.89    5.70
  -5   5   8   62.59    7.90
  -3  -5   8  145.69    8.10
  -3  -5   8  157.08    9.40
  -3  -5   8  145.79    9.90
   3  -5  -8  162.18    8.60
   3  -5  -8  159.68    9.60
  -3   5   8  154.68    9.00
  -3   5   8  165.38   10.40
  -1  -5   8   68.19    6.80
   1  -5  -8   60.09    6.70
  -1  -5   8   71.79    5.70
  -1  -5   8   63.29    4.70
  -1   5   8   64.89    5.10
  -1   5   8   72.09    7.00
   1  -5   8   43.50    4.40
   1  -5   8   37.20    4.70
   1  -5   8   47.60    5.90
   1   5   8   55.49    6.00
   1   5   8   44.70    4.80
   3  -5   8   27.50    4.70
   3  -5   8   30.40    3.80
   3   5   8   27.80    4.50
   3   5   8   24.00    3.80
   5  -5   8  104.29    8.50
   5  -5   8   93.39    6.80
   5   5   8  102.29    7.20
   5   5   8   91.79    7.80
   7  -5   8    5.00    2.50
   7  -5   8    2.00    2.70
   7   5   8    8.10    2.70
   7   5   8    0.40    2.60
 -16  -6   8   -0.10    1.70
  16  -6  -8   -0.10    1.80
 -16  -6   8    2.90    2.60
 -16   6   8    1.60    3.10
 -16   6   8    3.90    2.20
 -14  -6   8  142.99   10.70
  14  -6  -8  136.39    8.60
 -14  -6   8  149.59    9.10
 -14  -6   8  135.29   10.00
 -14   6   8  146.99    9.20
 -14   6   8  142.19    8.70
 -14   6   8  153.68   11.90
 -12  -6   8    6.80    2.70
 -12  -6   8    2.50    1.90
 -12  -6   8    2.80    2.70
  12  -6  -8   -0.10    1.30
 -12   6   8    2.00    1.50
 -12   6   8    3.10    1.90
 -10  -6   8  315.77   16.40
 -10  -6   8  305.77   15.70
  10  -6  -8  297.87   14.90
 -10  -6   8  294.47   17.30
 -10   6   8  303.27   15.40
 -10   6   8  291.07   15.20
 -10   6   8  325.97   18.60
   8  -6  -8   22.60    3.00
  -8  -6   8   23.80    3.60
  -8  -6   8   30.00    4.70
  -8  -6   8   17.00    4.30
   8  -6  -8   21.60    3.60
  -8   6   8   19.90    3.10
  -8   6   8   23.10    4.60
  -8   6   8   29.00    5.40
  -8   6   8   18.70    3.10
   6  -6  -8  183.68   10.70
  -6  -6   8  181.68   10.70
  -6  -6   8  180.88   12.20
  -6  -6   8  189.38   11.40
   6  -6  -8  184.88    9.70
  -6   6   8  177.78   10.30
  -6   6   8  171.18   10.00
  -6   6   8  182.88   12.50
  -6   6   8  177.18   11.40
   4  -6  -8  187.48   11.30
   4  -6  -8  194.98   10.60
  -4  -6   8  195.58   11.30
  -4  -6   8  212.88   12.30
  -4   6   8  201.78   12.30
  -4   6   8  206.68   13.50
  -4   6   8  215.68   11.30
  -4   6   8  195.28   11.00
  -2  -6   8   14.70    2.30
  -2  -6   8   12.90    3.30
  -2  -6   8   11.90    2.70
  -2   6   8    9.90    2.50
  -2   6   8   18.80    3.60
   0  -6   8  272.67   15.00
   0  -6  -8  287.07   15.30
   0  -6   8  274.07   14.00
   0  -6   8  307.77   15.70
   0   6   8  280.77   15.50
   0   6   8  278.47   14.70
   2  -6   8   32.80    5.00
   2  -6   8   29.40    4.30
   2  -6   8   30.30    3.80
   2   6   8   30.00    4.60
   2   6   8   30.00    4.10
   4  -6   8   12.50    2.90
   4  -6   8   17.70    4.00
   4   6   8   13.90    3.40
   4   6   8   14.70    3.30
   6  -6   8  146.09   10.40
   6  -6   8  129.29    8.90
  15  -7  -8   64.79    5.70
 -15  -7   8   66.59    7.80
 -15  -7   8   71.19    6.10
 -15  -7   8   76.09    7.20
 -15   7   8   65.09    8.60
 -15   7   8   73.69    5.60
 -15   7   8   70.39    6.10
 -13  -7   8  102.99    8.50
 -13  -7   8  116.69    7.70
  13  -7  -8   95.09    6.80
 -13  -7   8   97.99    8.00
 -13   7   8   95.19    6.70
 -13   7   8   97.79    9.10
 -11  -7   8    9.80    3.00
 -11  -7   8   11.60    2.70
  11  -7  -8   13.70    2.70
 -11  -7   8   14.50    3.90
 -11   7   8    9.30    2.40
 -11   7   8    4.90    3.10
 -11   7   8    8.40    2.20
  -9  -7   8  174.58   10.90
  -9  -7   8  174.38   11.90
   9  -7  -8  163.58   10.60
   9  -7  -8  178.68    9.90
  -9   7   8  190.48   10.20
  -9   7   8  176.88   10.20
  -9   7   8  180.28   12.50
  -7  -7   8    7.40    3.00
  -7  -7   8    5.40    2.30
   7  -7  -8    8.50    2.50
   7  -7  -8    9.30    2.30
  -7  -7   8    5.50    2.20
  -7   7   8    6.20    2.80
  -7   7   8    2.50    2.80
  -7   7   8    7.20    2.10
  -7   7   8    4.70    2.10
  -5  -7   8  226.88   14.20
   5  -7  -8  237.48   12.40
  -5  -7   8  229.48   13.40
  -5  -7   8  245.38   13.20
   5  -7  -8  234.58   13.10
  -5   7   8  243.78   14.90
  -5   7   8  241.68   12.90
  -5   7   8  232.68   12.50
  -5   7   8  236.18   13.80
   3  -7  -8    1.10    1.50
  -3  -7   8   -2.60    1.30
   3  -7  -8    3.60    1.80
  -3  -7   8    0.30    2.00
  -3   7   8   -0.20    1.30
  -3   7   8    1.30    2.10
  -3   7   8   -3.10    1.30
   1  -7  -8    3.00    2.00
  -1  -7   8    0.60    1.80
  -1  -7   8    4.90    1.70
  -1  -7   8    4.90    2.20
  -1   7   8    1.00    2.00
  -1   7   8    5.20    2.00
   1  -7   8   79.09    5.70
   1  -7   8   83.49    6.70
   1  -7   8   96.79    7.10
  -1  -7  -8   74.19    6.50
   1   7   8   85.79    6.50
   1   7   8   76.09    6.70
   3  -7   8   13.70    3.50
   3  -7   8   12.60    3.10
   3  -7   8    9.60    2.60
   3   7   8    7.70    2.90
   3   7   8   10.70    2.90
   5  -7   8  120.19    9.10
   5   7   8  118.99    8.90
 -14  -8   8   25.00    4.20
 -14  -8   8   21.90    4.40
 -14  -8   8   19.40    4.20
  14  -8  -8   21.90    3.70
 -14   8   8   23.80    5.20
 -14   8   8   21.50    3.90
 -14   8   8   20.90    3.30
 -12  -8   8  154.48   10.50
 -12  -8   8  152.38   10.70
 -12  -8   8  166.88   10.30
  12  -8  -8  155.38    9.40
 -12   8   8  162.18    9.20
 -12   8   8  161.68    9.80
 -12   8   8  155.18   11.70
 -10  -8   8   65.19    6.10
  10  -8  -8   77.59    6.60
 -10  -8   8   77.89    6.90
  10  -8  -8   80.99    5.90
 -10   8   8   73.39    5.80
 -10   8   8   68.89    8.20
 -10   8   8   74.29    5.60
  -8  -8   8  259.17   14.50
   8  -8  -8  267.97   13.90
  -8  -8   8  283.57   15.80
   8  -8  -8  256.27   14.60
  -8   8   8  267.97   15.30
  -8   8   8  269.37   14.30
  -8   8   8  263.17   16.30
  -8   8   8  275.97   14.00
   6  -8  -8   44.00    4.80
  -6  -8   8   55.09    5.90
  -6  -8   8   50.29    5.50
   6  -8  -8   45.20    5.30
  -6  -8   8   47.20    6.00
  -6   8   8   45.20    5.10
  -6   8   8   51.49    4.50
  -6   8   8   53.89    6.80
  -6   8   8   43.70    5.70
  -4  -8   8  456.85   21.60
   4  -8  -8  410.66   21.50
  -4  -8   8  438.46   22.70
   4  -8  -8  420.36   20.90
  -4  -8   8  451.95   21.80
  -4   8   8  430.26   21.10
  -4   8   8  475.65   21.50
  -4   8   8  393.16   21.70
  -4   8   8  427.16   23.10
  -2  -8   8   69.99    6.00
  -2  -8   8   65.89    5.80
  -2   8   8   66.59    5.90
  -2   8   8   57.39    5.80
  -2   8   8   63.79    6.60
   0  -8  -8  318.57   17.50
   0  -8   8  328.47   17.60
   0  -8   8  349.96   16.50
   0  -8   8  346.17   17.60
   0   8   8  330.37   17.60
   2  -8   8   63.69    6.70
   2  -8   8   64.49    5.40
  -2  -8  -8   55.09    6.30
   2   8   8   65.69    6.60
   2   8   8   66.69    5.80
   4  -8   8  196.18   12.00
   4  -8   8  176.28   11.00
   4  -8   8  197.68   12.20
   4   8   8  172.38   11.30
   4   8   8  198.58   12.00
 -15  -9   8  277.37   15.60
  15  -9  -8  273.37   14.90
 -15   9   8  254.07   16.50
 -13  -9   8    6.20    2.70
  13  -9  -8    3.00    2.30
 -13  -9   8    6.70    2.60
 -13   9   8    3.30    2.30
 -13   9   8    2.50    2.50
 -13   9   8    4.60    1.90
  11  -9  -8  122.69    9.40
 -11  -9   8  113.19    8.30
 -11  -9   8  118.19    8.50
  11  -9  -8  120.29    7.80
 -11   9   8  106.89    7.10
 -11   9   8  105.69    7.80
 -11   9   8  102.19    9.10
   9  -9  -8  108.29    8.10
  -9  -9   8  112.59    8.70
   9  -9  -8  110.99    7.50
  -9  -9   8  118.39    8.30
  -9   9   8   98.39    7.50
  -9   9   8  115.69    9.20
  -9   9   8  114.39    7.30
   7  -9  -8   65.49    5.50
   7  -9  -8   74.49    6.20
  -7  -9   8   69.69    6.00
  -7  -9   8   65.69    6.40
  -7  -9   8   64.89    6.60
  -7   9   8   69.49    5.40
  -7   9   8   63.99    5.70
  -7   9   8   59.99    6.70
  -7   9   8   66.59    7.80
   5  -9  -8  207.18   11.80
  -5  -9   8  195.78   11.90
  -5  -9   8  223.28   13.10
  -5  -9   8  197.28   12.00
   5  -9  -8  217.08   12.20
  -5   9   8  207.28   11.90
  -5   9   8  213.78   13.50
  -5   9   8  214.08   11.80
  -5   9   8  218.28   12.50
  -3  -9   8   20.20    4.10
   3  -9  -8   19.30    3.40
   3  -9  -8   18.40    3.70
  -3  -9   8   25.90    4.10
  -3  -9   8   20.90    3.70
  -3   9   8   27.70    4.90
  -3   9   8   26.90    4.20
  -3   9   8   29.20    3.90
  -3   9   8   22.80    3.70
  -1  -9   8  136.49    8.90
   1  -9  -8  139.39    9.00
  -1  -9   8  125.39    8.50
  -1   9   8  120.69    8.60
  -1   9   8  121.19    8.40
   1  -9   8   72.09    6.40
   1  -9   8   69.29    5.60
   1  -9   8   74.59    6.20
  -1  -9  -8   71.09    6.30
   1   9   8   68.39    6.80
   1   9   8   62.79    5.80
   3  -9   8   10.80    3.20
  -3  -9  -8   13.20    3.30
   3  -9   8   14.60    3.50
   3  -9   8   16.80    3.30
   3   9   8   14.60    3.40
   3   9   8   10.50    3.00
   5  -9   8   45.40    5.60
   5  -9   8   58.49    6.70
   5   9   8   48.60    6.10
   5   9   8   51.39    6.20
  14 -10  -8    1.20    2.30
 -14 -10   8    4.70    2.50
 -14 -10   8    2.10    2.60
 -14  10   8    1.20    2.70
 -14  10   8    0.00    2.00
 -12 -10   8  318.37   17.90
 -12 -10   8  350.46   18.00
  12 -10  -8  339.27   17.30
 -12  10   8  307.77   18.60
 -12  10   8  324.67   16.50
 -10 -10   8   -0.50    1.60
  10 -10  -8    3.00    2.20
  10 -10  -8   -0.70    2.10
 -10  10   8   -1.50    1.70
 -10  10   8    1.80    2.10
 -10  10   8    1.10    1.50
  -8 -10   8  271.17   14.30
   8 -10  -8  261.17   14.40
   8 -10  -8  263.37   14.20
  -8  10   8  261.27   13.70
  -8  10   8  265.77   15.60
  -8  10   8  228.28   14.00
   6 -10  -8  102.49    7.40
   6 -10  -8   89.99    7.10
  -6 -10   8   96.09    7.20
  -6  10   8   97.69    7.00
  -6  10   8  111.19    7.50
  -6  10   8   92.79    7.40
  -6  10   8   96.59    8.40
   4 -10  -8  193.18   11.50
   4 -10  -8  204.98   11.50
  -4 -10   8  187.18   11.30
   4  10  -8  182.68   10.70
  -4  10   8  206.58   11.50
  -4  10   8  196.58   11.80
  -4  10   8  207.48   11.50
  -4  10   8  176.68   12.40
   2 -10  -8  171.48   10.00
  -2 -10   8  134.49    9.30
  -2  10   8  144.19    9.70
  -2  10   8  145.09    9.50
  -2  10   8  154.38   10.70
  -2  10   8  140.19    9.30
   2  10  -8  152.98    9.70
   0 -10  -8  109.99    7.80
   0 -10   8   93.39    7.40
   0  10   8   89.49    7.30
   0  10   8   98.49    7.50
  -2 -10  -8  183.98   11.30
   2 -10   8  171.08   11.30
   2 -10   8  186.78   10.70
   2  10   8  171.18   10.90
   2  10   8  181.28   11.40
   4 -10   8  111.39    8.00
   4 -10   8   95.19    8.40
  -4 -10  -8  134.09   11.90
   4  10   8  112.19    8.20
 -13 -11   8   13.30    3.80
  13 -11  -8   13.10    3.50
 -13 -11   8   12.70    3.40
 -13  11   8   14.10    3.90
 -13  11   8   16.80    3.80
  11 -11  -8   12.60    3.40
 -11 -11   8   20.80    4.10
  11 -11  -8   23.60    4.20
 -11 -11   8   16.50    3.40
 -11  11   8   11.90    2.60
 -11  11   8   15.50    4.00
 -11  11   8   23.20    4.00
   9 -11  -8   12.10    3.20
  -9 -11   8   10.90    2.80
   9 -11  -8   14.10    3.30
  -9  11   8    8.00    2.30
  -9  11   8    5.10    2.70
  -9  11   8   10.00    3.10
   7 -11  -8    1.30    2.10
   7 -11  -8    1.40    1.80
  -7 -11   8    1.70    1.90
  -7  11   8    3.60    2.30
  -7  11   8    4.50    1.90
  -7  11   8    3.80    2.70
  -5 -11   8   -0.90    1.60
   5 -11  -8    1.10    1.80
   5 -11  -8    4.30    2.30
  -5  11   8    1.90    1.90
   5  11  -8    2.00    2.00
  -5  11   8    1.50    2.10
  -5  11   8   -1.00    2.00
  -5  11   8    6.00    2.90
   3 -11  -8    2.60    2.10
   3 -11  -8    1.60    1.80
  -3 -11   8    1.10    1.70
   3  11  -8    1.70    1.90
  -3  11   8    0.40    2.20
  -3  11   8    1.10    1.80
  -3  11   8    2.70    2.00
  -3  11   8    3.20    2.50
  -1 -11   8   -0.30    1.60
  -1  11   8    0.50    1.90
  -1  11   8   -1.70    1.90
  -1  11   8    2.00    2.30
   1  11  -8   -1.50    1.60
  -1  11   8    2.80    1.90
  -1 -11  -8    2.90    2.10
   1 -11   8    5.50    2.60
  -1  11  -8    9.00    3.00
   1  11   8    5.40    2.50
   1  11   8    4.40    2.30
   3 -11   8   23.80    3.90
  -3 -11  -8   24.30    4.20
   3 -11   8   15.10    3.60
   3  11   8   18.20    4.00
 -12 -12   8    7.40    2.80
 -12 -12   8    2.20    2.30
  12 -12  -8   11.00    3.30
  12 -12  -8    3.50    2.30
 -12  12   8    7.00    3.00
 -12  12   8    6.10    2.70
 -12  12   8    4.50    1.80
  10 -12  -8  141.89    9.90
 -10 -12   8  155.98    9.70
  10 -12  -8  162.68   10.10
 -10 -12   8  145.29    9.80
 -10  12   8  131.99    9.90
 -10  12   8  138.89    8.90
 -10  12   8  147.49   10.10
  -8 -12   8    1.30    1.70
   8 -12  -8    1.80    2.20
   8 -12  -8    4.20    2.00
  -8  12   8    0.80    2.10
  -8  12   8    0.00    1.50
  -8  12   8    3.70    2.40
   6 -12  -8  128.99    9.40
  -6 -12   8  147.69    9.20
   6 -12  -8  150.88    9.30
  -6  12   8  142.99    9.30
  -6  12   8  138.59    9.00
  -6  12   8  131.49   10.00
  -4 -12   8   64.79    5.70
   4 -12  -8   62.79    5.70
   4 -12  -8   67.89    6.80
  -4  12   8   58.09    6.10
   4  12  -8   61.59    5.90
  -4  12   8   65.39    5.80
   2 -12  -8    2.90    2.00
   2 -12  -8    4.90    2.20
  -2 -12   8    2.60    1.90
  -2  12   8    4.60    2.50
  -2  12   8    1.50    1.90
   2  12  -8    1.10    2.00
   0 -12   8   84.79    6.90
   0 -12  -8   79.69    6.70
   0  12   8   88.99   10.00
   0  12   8   83.39    7.20
   0  12  -8   90.89    6.60
   2 -12   8   14.20    3.60
  -2 -12  -8   24.00    4.10
   2  12   8   19.50    4.00
  -2  12  -8   21.80    5.40
  11 -13  -8    1.70    2.00
 -11 -13   8    2.80    2.50
  11 -13  -8    2.50    2.60
 -11 -13   8    2.40    1.80
 -11  13   8    0.60    1.80
 -11  13   8    0.60    2.30
   9 -13  -8   35.10    5.40
  -9 -13   8   26.90    4.00
   9 -13  -8   36.40    4.80
  -9  13   8   30.70    4.10
  -9  13   8   37.60    5.40
  -7 -13   8  121.79    8.00
   7 -13  -8  109.79    8.00
   7 -13  -8  109.29    8.60
  -7  13   8  116.09    8.40
  -7  13   8  111.19    7.90
   5 -13  -8    3.30    2.40
   5 -13  -8    1.20    1.80
  -5 -13   8    0.80    1.70
  -5  13   8    1.50    1.90
   5  13  -8   -0.90    1.80
  -5  13   8   -0.30    1.80
   3 -13  -8  113.19    7.90
   3 -13  -8  112.29    8.20
  -3 -13   8  111.89    7.70
   3  13  -8  101.99    7.40
  -3  13   8  109.79    8.20
  -3  13   8  114.89    8.00
   1 -13  -8    9.40    2.70
  -1 -13   8    7.00    2.40
  -1  13   8    8.80    2.70
   1  13  -8   10.80    2.80
  -1  13   8   14.10    3.60
  -1 -13  -8   16.00    3.40
   1 -13   8   15.60    3.50
  -1  13  -8   16.30    3.20
   1  13   8   21.80    4.40
   8 -14  -8    5.00    2.90
  -8 -14   8    5.30    2.20
   8 -14  -8    4.70    2.10
  -8  14   8    3.80    2.10
  -8  14   8    7.10    3.00
  -6 -14   8  193.78   11.00
   6 -14  -8  175.58   11.10
  -6  14   8  195.98   11.60
  -6  14   8  188.08   11.60
   4 -14  -8   21.10    3.90
  -4 -14   8   13.30    2.90
   4 -14  -8   23.30    3.80
  -4  14   8   10.30    3.30
  -4  14   8   14.50    3.20
   4  14  -8   18.40    3.50
  -2 -14   8  281.37   14.90
   2 -14  -8  268.57   15.20
   2 -14  -8  271.17   15.00
  -2  14   8  258.77   15.70
  -2  14   8  283.27   15.30
   2  14  -8  283.07   14.90
 -16   0   9   -2.20    2.90
 -16   0   9   -2.30    1.80
 -14   0   9   -2.70    3.00
 -14   0   9   -1.20    1.40
 -12   0   9    2.80    3.80
 -10   0   9    2.60    3.40
 -10   0   9   -3.00    2.40
  -8   0   9    2.40    3.10
  -8   0   9    1.70    3.00
  -6   0   9    2.00    3.50
  -6   0   9   -2.50    2.60
  -4   0   9    0.80    2.60
  -2   0   9    1.10    1.50
  -2   0   9    1.30    2.50
  -2   0   9    1.80    1.50
   0   0   9    0.30    1.60
   0   0   9   -0.50    1.20
   0   0   9    1.00    2.60
   2   0   9    1.60    1.70
   2   0   9    0.20    2.90
   4   0   9   -0.40    1.60
   4   0   9    0.30    2.90
 -15  -1   9   31.70    4.10
 -15  -1   9   33.20    7.40
 -15   1   9   33.50    7.30
 -15   1   9   36.90    4.50
 -13  -1   9   34.50    7.00
 -13   1   9   33.50    4.10
 -13   1   9   32.90    7.20
 -11  -1   9   52.79    8.30
 -11   1   9   57.99    9.00
  -9  -1   9   48.30    8.20
  -9  -1   9   49.60    7.30
  -9   1   9   46.00    8.00
  -9   1   9   45.60    7.30
  -7  -1   9   39.30    6.30
  -7  -1   9   54.59    8.10
  -7   1   9   40.40    7.40
  -7   1   9   48.10    6.80
  -5  -1   9   30.40    5.50
  -5  -1   9   24.60    5.80
  -5   1   9   30.40    5.60
  -5   1   9   26.10    5.70
  -3  -1   9   53.79    4.30
  -3  -1   9   38.20    6.20
  -3   1   9   48.10    6.50
  -3   1   9   48.80    4.90
  -1  -1   9    1.70    1.40
  -1  -1   9    0.90    1.60
  -1  -1   9    1.70    2.70
  -1   1   9   -0.50    1.40
  -1   1   9    1.60    1.60
  -1   1   9    1.50    2.50
   1  -1   9    2.10    1.60
   1  -1   9   -2.90    2.10
   1  -1   9    1.40    1.60
   1   1   9    2.50    1.60
   1   1   9   -5.10    1.90
   1   1   9    2.60    1.80
   3  -1   9    0.20    2.60
   3  -1   9    3.30    1.80
   3   1   9    3.70    3.00
   3   1   9    3.10    1.80
   5  -1   9    4.50    2.10
   5  -1   9    3.20    3.10
   5   1   9    0.10    3.00
   5   1   9    2.90    2.10
 -16  -2   9  152.08   12.90
 -16   2   9  149.69    9.60
 -16   2   9  150.18   13.60
 -14  -2   9  182.78   14.30
 -14   2   9  185.98   15.00
 -14   2   9  180.58   10.60
 -12  -2   9  129.99   11.50
 -12   2   9  121.99   11.30
 -12   2   9  109.99    7.30
 -10  -2   9  157.28   12.60
 -10   2   9  140.09   12.40
  -8  -2   9   20.70    4.80
  -8  -2   9   13.70    4.70
  -8   2   9   21.10    5.50
  -8   2   9   15.10    4.40
  -6  -2   9    3.90    3.40
  -6  -2   9    5.30    3.20
  -6   2   9    1.20    3.30
  -6   2   9    3.30    2.80
  -4  -2   9   -0.90    2.40
  -4  -2   9   -0.70    1.20
  -4   2   9    3.20    2.90
  -4   2   9    0.50    1.50
  -2  -2   9   -1.00    1.20
  -2  -2   9    1.40    2.60
  -2   2   9    1.50    1.60
  -2   2   9   -1.70    2.50
   0  -2   9   10.40    2.40
   0  -2   9   14.10    3.90
   0  -2   9    8.90    2.30
   0   2   9   11.60    2.60
   0   2   9   10.90    2.70
   0   2   9    6.90    3.40
   2  -2   9    5.30    3.20
   2  -2   9    6.90    2.30
   2   2   9    6.50    2.30
   2   2   9    6.30    2.20
   2   2   9   11.50    3.80
   4  -2   9   12.20    4.20
   4  -2   9    4.60    2.20
   4   2   9    5.10    3.20
   4   2   9    3.80    2.00
 -15  -3   9    3.70    3.70
 -15   3   9    1.50    3.50
 -15   3   9    0.00    1.70
 -13  -3   9   34.70    6.80
 -13   3   9   32.90    4.10
 -13   3   9   32.10    6.90
 -11  -3   9   13.40    4.80
 -11   3   9   18.00    2.90
 -11   3   9   18.40    5.60
  -9  -3   9   11.60    3.90
  -9  -3   9    7.10    4.00
  -9   3   9    9.70    4.50
  -9   3   9    8.50    4.10
  -7  -3   9   17.70    4.90
  -7  -3   9   18.50    4.50
  -7   3   9   12.30    4.00
  -7   3   9    6.90    3.90
  -5  -3   9   24.40    5.40
  -5  -3   9   15.70    4.20
  -5   3   9   19.30    5.20
  -5   3   9   16.10    3.00
  -5   3   9   17.20    4.30
  -3  -3   9   43.30    4.20
  -3  -3   9   46.70    6.30
  -3   3   9   41.40    4.60
  -3   3   9   49.20    6.50
  -1  -3   9    4.70    1.80
  -1  -3   9    5.00    3.10
  -1  -3   9    3.90    1.90
  -1   3   9    2.80    1.90
  -1   3   9    3.60    2.90
   1  -3   9   34.50    5.70
   1  -3   9   37.60    4.10
   1   3   9   23.40    4.90
   1   3   9   28.30    4.00
   1   3   9   32.70    4.00
   3  -3   9   31.30    5.70
   3  -3   9   35.20    4.40
   3   3   9   31.10    5.40
   3   3   9   34.90    4.50
   5  -3   9   57.29    7.80
   5  -3   9   68.49    5.80
   5   3   9   62.49    8.00
   5   3   9   68.99    6.00
 -16   4   9   10.20    2.90
 -14  -4   9  106.49    9.70
 -14   4   9   94.19   11.40
 -14   4   9   86.79    6.80
 -12  -4   9    1.80    2.80
 -12   4   9    0.70    1.40
 -12   4   9    0.40    3.30
 -10  -4   9   -2.70    2.80
 -10  -4   9    2.20    1.40
 -10   4   9    2.80    1.90
 -10   4   9   -1.00    2.80
  -8  -4   9   89.49    9.00
  -8  -4   9   64.89    8.60
  -8  -4   9   81.89    6.60
  -8   4   9   88.59    9.10
  -8   4   9   83.99    6.30
  -8   4   9   84.09   10.10
  -6  -4   9   18.60    3.60
  -6  -4   9   22.00    5.20
  -6  -4   9   10.70    3.60
  -6   4   9   17.30    3.10
  -6   4   9   22.10    5.40
  -6   4   9   25.00    5.10
  -4  -4   9   97.39    9.40
  -4  -4   9   91.59    6.90
  -4   4   9   89.09    9.10
  -4   4   9   88.99    6.40
  -2  -4   9   19.20    4.50
  -2  -4   9   26.30    3.30
  -2   4   9   33.00    5.30
  -2   4   9   30.10    4.00
   0  -4   9   76.69    8.40
   0  -4   9   76.89    5.60
   0   4   9   90.59    7.70
   0   4   9   83.19    6.20
   2  -4   9    3.70    3.10
   2  -4   9    1.90    1.80
   2   4   9    2.00    1.80
   2   4   9   -3.50    1.90
   4  -4   9    2.70    2.00
   4  -4   9    1.00    2.80
   4   4   9    1.40    2.70
   4   4   9    5.10    2.30
 -15  -5   9   -1.80    2.30
 -15   5   9   -1.70    3.00
 -15   5   9    0.30    2.00
 -13  -5   9    8.20    3.80
 -13   5   9   18.80    5.50
 -13   5   9   12.40    2.80
 -11  -5   9  102.69    9.60
 -11  -5   9  125.69    7.60
 -11  -5   9  104.59    8.10
 -11   5   9   97.29    7.20
 -11   5   9  113.09    7.60
 -11   5   9  109.19   10.20
  -9  -5   9   40.70    6.70
  -9  -5   9   39.20    6.00
  -9  -5   9   48.40    5.60
  -9   5   9   47.60    5.00
  -9   5   9   37.90    6.30
  -9   5   9   35.50    4.50
  -9   5   9   47.90    7.70
  -7  -5   9   35.00    6.50
  -7  -5   9   40.50    5.20
  -7  -5   9   34.00    5.50
  -7   5   9   41.20    4.60
  -7   5   9   41.50    6.10
  -7   5   9   46.10    7.30
  -5  -5   9   17.40    3.60
  -5  -5   9   19.30    4.90
  -5  -5   9   18.90    4.40
  -5   5   9   16.90    4.80
  -5   5   9   26.20    5.10
  -5   5   9    9.70    2.60
  -3  -5   9    7.50    2.60
  -3  -5   9    3.40    3.00
  -3   5   9    8.30    2.30
  -3   5   9    3.20    2.90
  -1  -5   9   11.50    2.40
  -1  -5   9   15.20    4.00
  -1   5   9    8.10    2.50
  -1   5   9    3.00    2.70
   1  -5   9   10.00    2.50
   1  -5   9    9.70    3.50
   1   5   9    5.80    3.10
   1   5   9    5.20    2.30
   3  -5   9   32.20    5.30
   3  -5   9   28.00    3.90
   3   5   9   39.10    5.80
   3   5   9   41.90    5.00
 -14  -6   9   12.80    3.80
 -14  -6   9   10.90    3.70
 -14   6   9    7.60    4.50
 -14   6   9   10.10    2.80
 -14   6   9   11.90    2.80
 -12  -6   9   64.69    7.10
 -12  -6   9   65.29    5.50
 -12  -6   9   56.99    7.60
 -12   6   9   50.49    5.50
 -12   6   9   60.19    5.30
 -12   6   9   40.90    7.10
 -10  -6   9   66.79    7.00
 -10  -6   9   63.49    8.10
 -10   6   9   65.19    5.50
 -10   6   9   68.49    5.60
 -10   6   9   62.79    8.50
  -8  -6   9   33.00    5.30
  -8  -6   9   29.90    5.70
  -8  -6   9   29.80    4.40
  -8   6   9   27.80    3.90
  -8   6   9   31.20    6.40
  -8   6   9   30.80    4.10
  -8   6   9   31.50    5.50
  -6  -6   9   18.50    4.70
  -6  -6   9   17.00    3.90
  -6  -6   9   16.60    3.50
  -6   6   9   16.10    4.60
  -6   6   9   14.60    3.10
  -6   6   9   17.70    4.30
  -4  -6   9   11.50    3.90
  -4  -6   9    7.20    3.20
  -4  -6   9    8.30    2.60
  -4   6   9    3.70    3.10
  -4   6   9    4.00    2.00
  -4   6   9    3.50    2.80
  -2  -6   9   48.40    6.20
  -2  -6   9   41.40    5.30
  -2   6   9   47.70    5.30
  -2   6   9   51.29    6.40
   0  -6   9   -0.70    2.20
   0  -6   9    1.40    1.70
   0   6   9   -2.00    1.70
   0   6   9   -2.30    1.30
   2  -6   9    7.20    2.20
   2  -6   9    2.40    2.60
   2   6   9   -0.40    1.50
   2   6   9    0.90    2.40
   4  -6   9   -1.90    2.40
   4  -6   9    1.40    1.80
   4   6   9   -1.40    2.00
  13  -7  -9   -1.10    1.60
 -13  -7   9    0.80    1.90
 -13  -7   9   -2.50    2.10
 -13  -7   9    0.60    2.20
 -13   7   9    0.80    2.00
 -13   7   9    0.80    1.70
 -13   7   9    1.30    2.80
 -11  -7   9  193.48   13.30
 -11  -7   9  221.98   12.10
  11  -7  -9  201.88   10.90
 -11  -7   9  192.88   12.40
 -11   7   9  182.68   11.30
 -11   7   9  187.18   11.20
 -11   7   9  203.68   14.10
  -9  -7   9   -1.80    1.70
  -9  -7   9   -0.60    2.30
   9  -7  -9   -2.80    1.20
  -9   7   9   -1.90    1.50
  -9   7   9    4.60    3.40
  -9   7   9   -0.40    1.50
  -7  -7   9  108.49    8.50
  -7  -7   9  109.09    8.20
   7  -7  -9  105.09    7.00
  -7  -7   9  120.49    9.50
  -7   7   9  114.29    7.60
  -7   7   9  107.09    8.40
  -7   7   9  109.19    8.80
  -7   7   9  106.49    9.70
  -5  -7   9  104.89    8.20
  -5  -7   9   99.09    8.70
  -5  -7   9   95.29    7.40
  -5   7   9   80.99    9.50
  -5   7   9   90.79    6.80
  -5   7   9  100.29    8.20
  -3  -7   9    1.50    2.50
  -3  -7   9    1.90    2.00
  -3   7   9    1.30    2.60
  -3   7   9    1.70    2.80
  -3   7   9   -1.10    1.50
  -1  -7   9  163.28   11.00
  -1  -7   9  172.78   11.30
  -1   7   9  173.98   10.50
  -1   7   9  180.98   11.50
   1  -7   9   40.80    4.60
   1  -7   9   32.40    5.20
   1   7   9   25.90    4.30
   1   7   9   34.40    5.10
   3  -7   9  370.46   20.30
   3  -7   9  360.86   18.80
   3   7   9  379.26   19.70
 -14  -8   9    9.90    3.40
  14  -8  -9    8.10    2.60
 -14  -8   9    8.00    2.90
 -14   8   9   12.30    3.00
 -14   8   9   13.00    3.40
 -14   8   9   17.30    4.90
 -12  -8   9    3.50    2.80
  12  -8  -9    7.00    2.40
 -12  -8   9    4.70    2.30
 -12  -8   9    9.80    3.10
 -12   8   9    5.60    2.60
 -12   8   9    4.20    3.60
 -12   8   9    5.50    2.20
 -10  -8   9   36.80    5.50
 -10  -8   9   30.90    5.30
 -10   8   9   48.00    5.00
 -10   8   9   35.20    6.30
 -10   8   9   44.00    5.20
  -8  -8   9   74.79    8.30
  -8  -8   9   75.69    7.70
   8  -8  -9   85.29    6.10
  -8  -8   9   66.19    6.40
  -8   8   9   76.89    6.10
  -8   8   9   84.69    8.60
  -8   8   9   71.09    6.30
  -8   8   9   95.49    8.90
  -6  -8   9  116.39    9.50
  -6  -8   9  117.29    8.60
   6  -8  -9  112.99    7.70
  -6  -8   9  112.99    8.70
  -6   8   9  130.59    9.30
  -6   8   9  114.79   10.10
  -6   8   9  124.19    8.10
  -4  -8   9  123.79    8.80
  -4  -8   9  122.79    9.50
   4  -8  -9  110.99    7.70
  -4  -8   9  110.49    8.30
  -4   8   9  112.89    8.80
  -4   8   9  106.99    9.80
  -4   8   9  113.39    7.90
  -2  -8   9  143.09    9.80
  -2  -8   9  134.99    9.50
  -2   8   9  134.09    9.80
  -2   8   9  137.89    9.00
   0  -8   9   16.20    3.70
   0  -8   9   24.40    4.30
   0   8   9   13.10    3.10
   0   8   9   10.30    3.40
   2  -8   9    8.50    2.90
   2  -8   9    2.10    1.90
   2   8   9    4.60    2.40
   2   8   9    6.10    3.00
 -13  -9   9   13.40    3.40
 -13  -9   9   12.20    3.60
  13  -9  -9   16.10    3.50
 -13   9   9   18.30    3.90
 -13   9   9   12.20    2.90
 -13   9   9   12.70    4.40
 -11  -9   9    1.20    2.00
  11  -9  -9    1.10    1.90
 -11  -9   9    4.40    2.30
 -11   9   9    1.80    1.90
 -11   9   9    2.40    2.90
 -11   9   9    0.50    2.00
   9  -9  -9   23.80    4.00
  -9  -9   9   31.20    4.80
  -9   9   9   33.20    4.40
  -9   9   9   25.80    4.30
  -9   9   9   29.70    5.60
   7  -9  -9    0.10    1.90
  -7  -9   9    2.10    2.00
  -7   9   9    0.60    1.90
  -7   9   9   -1.20    2.50
  -7   9   9    0.10    1.60
  -7   9   9    1.60    2.60
  -5  -9   9   29.70    4.70
  -5  -9   9   19.00    4.90
  -5  -9   9   21.10    4.00
   5  -9  -9   19.40    3.90
   5  -9  -9   18.70    3.50
  -5   9   9   25.50    5.20
  -5   9   9   21.40    3.70
  -5   9   9   17.50    3.90
  -3  -9   9   33.10    5.00
   3  -9  -9   39.20    5.90
  -3  -9   9   42.50    6.20
  -3  -9   9   32.20    4.90
   3  -9  -9   40.80    4.90
  -3   9   9   29.50    4.40
  -3   9   9   36.00    6.00
  -3   9   9   33.50    5.20
  -1  -9   9    2.70    2.40
  -1  -9   9    3.30    2.20
  -1   9   9   -0.80    1.60
  -1   9   9    3.30    2.70
   1  -9   9   49.40    6.30
   1  -9   9   43.70    5.80
   1   9   9   44.10    5.90
   1   9   9   44.80    5.80
 -12 -10   9   10.70    3.30
  12 -10  -9    9.90    3.00
 -12 -10   9   11.80    3.40
 -12  10   9   10.30    3.70
 -12  10   9   11.60    2.80
 -12  10   9   16.60    3.60
  10 -10  -9   29.40    4.60
 -10 -10   9   19.50    3.90
 -10  10   9   22.30    5.00
 -10  10   9   21.50    3.50
 -10  10   9   18.50    3.70
   8 -10  -9  175.58   10.30
  -8 -10   9  148.99   10.20
  -8  10   9  161.98    9.90
  -8  10   9  152.18   10.10
  -8  10   9  151.58   11.50
   6 -10  -9    4.50    2.40
   6 -10  -9    5.50    2.50
  -6 -10   9    3.20    2.20
  -6  10   9    5.10    2.90
  -6  10   9    5.90    3.20
  -6  10   9    9.10    2.60
  -6  10   9    6.80    2.50
   4 -10  -9  189.18   11.50
   4 -10  -9  171.68   10.80
  -4 -10   9  168.38   11.10
  -4  10   9  194.78   13.00
  -4  10   9  173.98   11.00
  -4  10   9  169.58   11.40
   2 -10  -9    9.00    3.00
   2 -10  -9   14.70    3.20
  -2 -10   9    4.90    2.60
  -2  10   9   10.60    3.20
  -2  10   9    8.40    3.70
  -2  10   9   10.30    2.90
   0 -10   9  108.99    8.80
   0  10   9  123.59    9.20
   0  10   9  128.39    9.20
  11 -11  -9   -0.80    2.10
 -11 -11   9    3.90    2.30
 -11 -11   9    3.50    2.60
 -11  11   9    1.40    2.00
 -11  11   9    1.70    2.70
 -11  11   9    1.80    1.90
  -9 -11   9  279.47   15.10
  -9  11   9  257.27   14.70
  -9  11   9  234.88   15.40
   7 -11  -9   23.90    4.10
  -7 -11   9   19.80    3.80
   7 -11  -9   20.60    4.00
  -7  11   9   23.60    5.00
  -7  11   9   19.20    3.70
  -7  11   9   25.30    4.00
  -5 -11   9    9.90    3.00
   5 -11  -9   13.60    3.30
   5 -11  -9   10.20    3.10
  -5  11   9   11.60    3.70
  -5  11   9   12.40    3.10
  -5  11   9    7.80    2.70
  -5  11   9   13.10    3.70
  -3 -11   9  222.18   13.50
   3 -11  -9  234.48   13.70
   3 -11  -9  255.27   13.70
  -3  11   9  209.78   13.70
  -3  11   9  239.58   13.80
   1 -11  -9   11.90    3.20
   1 -11  -9   14.10    3.20
  -1 -11   9   11.00    3.10
  -1  11   9    9.90    3.10
  -1  11   9   16.40    3.80
  -1  11   9   11.80    4.00
   8 -12  -9   19.80    4.10
  -8 -12   9   19.70    3.60
   8 -12  -9   22.80    4.00
  -8  12   9   18.20    3.50
  -8  12   9   24.30    4.30
   6 -12  -9  141.59    9.50
   6 -12  -9  133.79    9.30
  -6  12   9  128.89    9.20
  -6  12   9  132.09    9.10
  -4 -12   9   17.60    3.70
   4 -12  -9   27.00    4.30
   4 -12  -9   16.50    3.70
  -4  12   9   18.20    4.00
  -2 -12   9   90.59    7.50
   2 -12  -9   96.19    7.50
   2 -12  -9   98.09    7.80
  -2  12   9   97.69    8.10
 -14   0  10   26.80    7.00
 -12   0  10  248.98   17.90
 -10   0  10   11.90    4.70
 -10   0  10   12.30    4.80
  -8   0  10  649.04   33.70
  -8   0  10  649.54   35.50
  -6   0  10   44.80    7.00
  -6   0  10   44.70    8.00
  -4   0  10  173.38   10.20
  -4   0  10  164.48   12.70
  -2   0  10   64.99    8.30
  -2   0  10   67.29    5.50
   0   0  10    1.00    1.80
   0   0  10    3.90    3.30
   0   0  10   -0.70    1.60
   2   0  10  235.48   13.10
   2   0  10  238.58   15.80
 -13  -1  10  109.09   12.50
 -13   1  10  128.69   12.20
 -11  -1  10   57.69    9.20
 -11   1  10   57.69    9.50
  -9  -1  10   95.59   11.50
  -9  -1  10   74.69    9.50
  -9   1  10   71.69    9.40
  -9   1  10   72.69   10.50
  -7  -1  10  248.88   17.40
  -7  -1  10  228.58   15.80
  -7   1  10  228.08   17.20
  -7   1  10  240.88   16.10
  -5  -1  10    5.60    4.40
  -5  -1  10    6.70    4.00
  -5   1  10   10.30    4.00
  -5   1  10    3.70    3.60
  -5   1  10    4.80    2.10
  -3  -1  10  552.04   25.70
  -3  -1  10  515.15   28.40
  -3   1  10  542.15   25.70
  -3   1  10  536.65   28.60
  -1  -1  10    0.50    1.60
  -1  -1  10   -5.10    2.30
  -1  -1  10    1.60    1.50
  -1   1  10    5.40    3.40
  -1   1  10   -1.60    1.40
   1  -1  10  246.08   16.20
   1  -1  10  242.38   13.50
   1   1  10  261.37   16.60
   1   1  10  253.57   13.70
 -14  -2  10   88.09   11.30
 -14   2  10   81.09   11.20
 -12  -2  10   98.49   11.50
 -12   2  10  107.79   12.70
 -10  -2  10   22.50    6.10
 -10  -2  10   35.70    6.70
 -10   2  10   39.40    7.00
 -10   2  10   32.00    7.30
  -8  -2  10  212.08   14.60
  -8  -2  10  234.08   16.40
  -8   2  10  200.68   16.00
  -8   2  10  209.88   14.80
  -6  -2  10   40.20    6.70
  -6  -2  10   49.50    8.20
  -6   2  10   37.60    4.60
  -6   2  10   43.20    6.90
  -6   2  10   40.70    7.80
  -4  -2  10  141.79   11.50
  -4   2  10  148.19   12.90
  -4   2  10  149.49    9.40
  -4   2  10  157.08   11.90
  -2  -2  10   64.09    5.10
  -2  -2  10   63.79    5.40
  -2  -2  10   54.79    7.60
  -2   2  10   76.09    8.80
  -2   2  10   58.79    5.90
   0  -2  10   58.29    5.10
   0  -2  10   58.59    8.10
   0   2  10   56.79    7.80
   0   2  10   65.09    5.70
   2  -2  10   51.19    5.60
   2  -2  10   62.49    8.30
   2   2  10   51.49    7.30
   2   2  10   52.09    5.60
 -13  -3  10    7.50    4.20
 -13   3  10    2.80    3.90
 -11  -3  10  427.96   25.40
 -11   3  10  428.56   26.10
  -9  -3  10  199.38   15.30
  -9  -3  10  196.28   14.00
  -9   3  10  212.98   16.00
  -9   3  10  203.98   14.70
  -7  -3  10   85.49   11.00
  -7  -3  10  103.99   10.60
  -7   3  10   85.29   11.00
  -7   3  10   89.59   10.00
  -7   3  10   99.69    7.10
  -5  -3  10  736.13   37.30
  -5  -3  10  674.83   35.10
  -5   3  10  698.03   37.30
  -5   3  10  696.33   32.60
  -5   3  10  702.23   35.50
  -3  -3  10   15.50    4.40
  -3   3  10   13.90    2.90
  -3   3  10   19.30    5.00
  -1  -3  10  768.72   38.40
  -1  -3  10  778.32   35.20
  -1   3  10  775.22   38.30
   1  -3  10   26.50    3.70
   1  -3  10   28.00    5.90
   1   3  10   16.70    4.80
   1   3  10   23.10    4.00
 -12  -4  10    4.90    3.90
 -12   4  10    4.60    3.80
 -10  -4  10  262.07   18.00
 -10   4  10  280.27   15.10
 -10   4  10  280.37   19.20
  -8  -4  10   33.00    5.90
  -8  -4  10   22.40    5.90
  -8   4  10   29.00    4.10
  -8   4  10   28.70    5.80
  -8   4  10   18.30    5.60
  -6  -4  10  161.28   11.80
  -6  -4  10  134.29   12.30
  -6   4  10  135.89   12.40
  -6   4  10  167.38   12.30
  -6   4  10  154.08    9.50
  -4  -4  10    2.40    3.10
  -4  -4  10   -0.60    2.80
  -4   4  10    3.40    3.60
  -4   4  10    6.00    3.80
  -4   4  10    3.70    2.00
  -2  -4  10    9.70    3.80
  -2  -4  10    5.20    2.40
  -2   4  10    9.90    4.00
  -2   4  10    5.30    2.40
   0  -4  10   31.90    4.10
   0  -4  10   42.90    6.50
   0   4  10   33.80    4.60
   0   4  10   32.90    6.10
 -13  -5  10   77.89    9.90
 -13   5  10   92.69   11.70
 -13   5  10   94.79    7.30
 -11  -5  10   17.90    5.10
 -11   5  10   15.70    3.30
 -11   5  10    9.90    4.60
  -9  -5  10  232.28   16.40
  -9  -5  10  264.87   16.00
  -9   5  10  234.98   13.80
  -9   5  10  243.98   17.30
  -9   5  10  269.47   16.60
  -7  -5  10    4.30    3.00
  -7  -5  10    4.00    3.20
  -7   5  10   -0.60    2.90
  -7   5  10    1.00    1.90
  -7   5  10   -2.00    2.70
  -5  -5  10   84.69   10.20
  -5  -5  10  101.09    8.60
  -5   5  10   80.09    6.60
  -5   5  10   83.09    9.40
  -5   5  10   79.19   10.20
  -3  -5  10    8.40    3.70
  -3   5  10    6.70    3.60
  -3   5  10    8.90    2.70
  -1  -5  10   55.99    7.40
  -1   5  10   56.09    7.20
  -1   5  10   57.99    6.20
   1  -5  10    3.00    1.90
   1  -5  10    0.10    2.70
   1   5  10   -1.70    1.60
   1   5  10    3.10    3.00
 -12  -6  10   21.90    5.20
 -12   6  10   22.60    5.80
 -12   6  10   27.40    4.10
 -10  -6  10   85.09   10.00
 -10   6  10   84.99   10.80
 -10   6  10   87.49    6.80
  -8  -6  10   11.30    3.80
  -8  -6  10   12.90    4.60
  -8   6  10   13.90    4.40
  -8   6  10    7.10    2.60
  -8   6  10    8.40    4.60
  -6  -6  10  234.28   15.20
  -6  -6  10  252.27   16.50
  -6   6  10  247.28   14.00
  -6   6  10  238.18   15.60
  -6   6  10  277.77   17.60
  -4  -6  10    0.20    2.70
  -4  -6  10    0.60    2.30
  -4   6  10    2.20    1.80
  -4   6  10    1.70    2.70
  -4   6  10    1.00    3.30
  -2  -6  10   33.40    5.70
  -2   6  10   38.90    6.20
  -2   6  10   26.60    4.30
   0  -6  10   42.40    6.50
   0   6  10   27.60    5.40
   0   6  10   43.80    5.40
 -11  -7  10   87.99    7.10
 -11  -7  10   75.09    8.80
 -11   7  10   79.19   10.10
 -11   7  10   73.29    6.50
  -9  -7  10  233.68   15.70
  -9  -7  10  243.58   14.70
  -9   7  10  232.68   13.50
  -9   7  10  246.08   16.90
  -7  -7  10  286.67   17.10
  -7  -7  10  302.77   16.90
  -7  -7  10  290.67   18.40
  -7   7  10  297.07   19.10
  -7   7  10  293.47   17.70
  -7   7  10  306.97   16.20
  -5  -7  10  117.19   10.50
  -5  -7  10  105.79    9.80
  -5  -7  10  101.89    9.00
  -5   7  10  123.59   11.10
  -5   7  10  108.19    9.30
  -5   7  10  115.59    8.20
  -3  -7  10  525.05   28.10
  -3  -7  10  588.94   30.10
  -3   7  10  537.05   26.90
  -3   7  10  544.75   28.50
  -3   7  10  580.14   30.40
  -1  -7  10   66.59    7.90
  -1   7  10   67.19    6.90
  -1   7  10   73.19    8.40
 -10  -8  10   -0.80    1.90
 -10   8  10    1.80    2.00
 -10   8  10    0.80    2.70
  -8  -8  10    1.40    2.20
  -8  -8  10    1.70    2.70
  -8  -8  10    2.50    2.90
  -8   8  10    3.30    3.20
  -8   8  10    3.80    3.20
  -8   8  10   -1.20    1.50
  -6  -8  10    2.90    2.30
  -6  -8  10    0.00    2.40
  -6  -8  10    3.60    2.90
  -6   8  10    2.30    2.80
  -6   8  10    2.20    1.90
  -6   8  10    0.00    3.30
  -4  -8  10   20.50    4.50
  -4  -8  10    7.90    2.80
  -4  -8  10   21.30    5.10
  -4   8  10   18.30    4.90
  -4   8  10   14.00    4.30
  -4   8  10   14.00    3.40
  -2  -8  10   -1.40    2.20
  -2   8  10   -2.00    2.70
  -2   8  10    3.10    3.00
  -2   8  10    0.90    1.90
  -9  -9  10   36.10    5.40
  -9   9  10   32.50    6.30
  -9   9  10   35.40    4.60
  -7  -9  10   76.69    7.20
  -7   9  10   89.09    9.40
  -7   9  10   88.89    7.10
  -7   9  10   79.29    9.50
  -5  -9  10   10.90    3.30
  -5   9  10   12.40    4.00
  -5   9  10    7.10    3.80
  -5   9  10   17.10    3.50
  -3  -9  10   29.30    5.00
  -3   9  10   30.90    5.50
  -3   9  10   26.20    4.30
  -3   9  10   17.80    4.80
 -10   0  11   -4.40    3.60
 -10   0  11   -0.20    3.80
  -8   0  11    1.00    3.40
  -8   0  11    0.00    3.60
  -6   0  11   -0.50    3.20
  -6   0  11   -1.70    1.50
  -6   0  11   -1.10    3.10
  -4   0  11   -1.60    2.80
  -4   0  11    2.20    2.00
  -4   0  11    2.70    3.60
  -9  -1  11    5.10    4.70
  -9  -1  11   14.00    5.10
  -9   1  11    8.80    5.20
  -9   1  11   17.60    5.50
  -7  -1  11    7.00    5.00
  -7  -1  11    7.00    4.40
  -7   1  11    8.10    2.70
  -7   1  11   11.30    4.70
  -7   1  11   12.80    5.70
  -5  -1  11   -0.60    3.40
  -5  -1  11    5.40    4.40
  -5  -1  11    3.60    2.30
  -5   1  11    5.80    2.40
  -5   1  11   10.90    4.80
  -5   1  11   10.50    5.20
  -3  -1  11   18.10    3.50
  -3  -1  11   17.10    5.90
  -3   1  11   16.50    5.40
  -3   1  11   11.70    2.90
 -10  -2  11   27.20    6.60
 -10  -2  11   33.20    6.50
 -10   2  11   25.70    6.20
 -10   2  11   19.30    6.40
  -8  -2  11   61.49    8.80
  -8  -2  11   66.39   10.20
  -8   2  11   67.89   10.50
  -8   2  11   57.19    8.60
  -8   2  11   47.60    5.70
  -6  -2  11   40.90    7.40
  -6  -2  11   44.80    8.70
  -6   2  11   47.30    8.80
  -6   2  11   31.90    6.70
  -6   2  11   46.90    5.50
  -4  -2  11   17.40    3.60
  -4  -2  11   25.10    6.80
  -4  -2  11   42.20    7.40
  -4   2  11   27.60    4.20
  -4   2  11   25.20    6.70
  -4   2  11   28.40    6.20
  -9  -3  11   17.40    5.70
  -9  -3  11   17.60    5.10
  -9   3  11   18.40    6.20
  -9   3  11   19.90    5.70
  -9   3  11   18.00    3.80
  -7  -3  11   50.49    7.80
  -7  -3  11   45.60    8.50
  -7   3  11   46.50    5.50
  -7   3  11   36.00    7.90
  -7   3  11   48.30    7.70
  -5  -3  11    2.30    3.30
  -5  -3  11    1.70    3.50
  -5   3  11    3.10    3.60
  -5   3  11    8.90    4.60
  -5   3  11    0.40    2.20
  -8  -4  11   54.79    9.00
  -8  -4  11   67.19    8.70
  -8   4  11   76.09    6.50
  -8   4  11   73.79   10.90
  -8   4  11   53.49    8.60
  -6  -4  11    3.00    3.50
  -6  -4  11    0.00    3.20
  -6   4  11    3.80    2.40
  -6   4  11    7.40    4.40
  -6   4  11    2.80    3.60
_computing_structure_solution     'SHELXT 2014/4 (Sheldrick, 2014)'
;
_shelx_hkl_checksum              10838
_shelx_res_file
;
    shelx.res created by SHELXL-2014/7
TITL EL15_D176_DRX17_NS40A_2_a.res in C2/c
CELL  0.71073  11.7846  12.8314   6.8064   90.000  111.001   90.000
ZERR     4.00   0.0004   0.0004   0.0002    0.000    0.001    0.000
LATT   7
SYMM  - X,   Y, 1/2 - Z
SFAC  O    V    FE   CO   AG
UNIT  48   12   4.10    7.90    7.88
MERG   2
SHEL 40 0.62
ACTA
FMAP   2
PLAN   10
BOND   $H
L.S.  10
TEMP    23.00
WGHT    0.009300    2.397500
EXTI    0.001898
FVAR       0.16645
AG1   5    0.000000    0.500000    0.000000    10.50000    0.03724    0.01563 =
         0.01248   -0.00330    0.00860   -0.01172
AG2   5    0.500000    0.508397    0.750000    10.48500    0.01181    0.04845 =
         0.01618    0.00000    0.00390    0.00000
CO1   4    0.291937    0.661591    0.379092    10.48750    0.00722    0.00611 =
         0.00852   -0.00036    0.00522    0.00168
FE1   3    0.292324    0.661985    0.381429    10.51250    0.00594    0.00821 =
         0.00322   -0.00068    0.00065   -0.00266
CO2   4    0.000000    0.733640    0.750000    10.50000    0.00710    0.00870 =
         0.00779    0.00000    0.00380    0.00000
V1    2    0.271064    0.386723    0.382550    11.00000    0.00651    0.00586 =
         0.00488    0.00004    0.00212    0.00018
V2    2    0.000000    0.705811    0.250000    10.50000    0.00679    0.00648 =
         0.00465    0.00000    0.00161    0.00000
O1    1    0.341597    0.325947    0.623908    11.00000    0.01187    0.01113 =
         0.00807    0.00129    0.00383    0.00265
O2    1    0.284717    0.316264    0.174351    11.00000    0.01287    0.01207 =
         0.00825   -0.00066    0.00446   -0.00072
O3    1    0.121243    0.394628    0.335240    11.00000    0.00942    0.01131 =
         0.01561   -0.00047    0.00452    0.00070
O4    1    0.337314    0.508448    0.398789    11.00000    0.01319    0.00871 =
         0.01558    0.00101    0.00602   -0.00018
O5    1    0.036990    0.776538    0.485197    11.00000    0.00914    0.01361 =
         0.00777   -0.00191    0.00362   -0.00182
O6    1    0.115584    0.623375    0.266329    11.00000    0.00880    0.01032 =
         0.01367   -0.00213    0.00235    0.00004
HKLF 4
REM  EL15_D176_DRX17_NS40A_2_a.res in C2/c
REM R1 =  0.0179 for    1987 Fo > 4sig(Fo)  and  0.0196 for all    2113 data
REM    104 parameters refined using      0 restraints
END
WGHT      0.0096      2.3796
REM Highest difference peak  0.800,  deepest hole -1.657,  1-sigma level  0.171
Q1    1   0.5249  0.5472  0.7308  11.00000  0.05    0.80
Q2    1   0.3162  0.3769  0.5291  11.00000  0.05    0.63
Q3    1  -0.0528  0.7372  0.6406  11.00000  0.05    0.60
Q4    1   0.0530  0.4990  0.1340  11.00000  0.05    0.59
Q5    1   0.3740  0.3326  0.5184  11.00000  0.05    0.57
Q6    1   0.1002  0.4843  0.1940  11.00000  0.05    0.55
Q7    1   0.3755  0.4872  0.5468  11.00000  0.05    0.54
Q8    1   0.0980  0.6575  0.2030  11.00000  0.05    0.53
Q9    1   0.2885  0.6145  0.4653  11.00000  0.05    0.48
Q10   1   0.4759  0.4339  0.6857  11.00000  0.05    0.47
;
_shelx_res_checksum              37311
loop_
_space_group_symop_operation_xyz
'x, y, z'
'-x, y, -z+1/2'
'x+1/2, y+1/2, z'
'-x+1/2, y+1/2, -z+1/2'
'-x, -y, -z'
'x, -y, z-1/2'
'-x+1/2, -y+1/2, -z'
'x+1/2, -y+1/2, z-1/2'
loop_
_atom_site_type_symbol
_atom_site_label
_atom_site_fract_x
_atom_site_fract_y
_atom_site_fract_z
_atom_site_U_iso_or_equiv
_atom_site_adp_type
_atom_site_calc_flag
_atom_site_occupancy
Ag Ag1 0.0000 0.5000 0.0000 0.02187(6) Uani d 1
Ag Ag2 0.5000 0.50840(2) 0.7500 0.02578(6) Uani d 0.97
Co Co1 0.2919(4) 0.6616(4) 0.3791(8) 0.0066(12) Uani d 0.4875
Fe Fe1 0.2923(4) 0.6620(4) 0.3814(8) 0.0061(12) Uani d 0.5125
Co Co2 0.0000 0.73364(2) 0.7500 0.00755(6) Uani d 1
V V1 0.27106(2) 0.38672(2) 0.38255(4) 0.00573(5) Uani d 1
V V2 0.0000 0.70581(3) 0.2500 0.00609(6) Uani d 1
O O1 0.34160(11) 0.32595(9) 0.62391(19) 0.0103(2) Uani d 1
O O2 0.28472(11) 0.31626(10) 0.17435(19) 0.0109(2) Uani d 1
O O3 0.12124(11) 0.39463(10) 0.3352(2) 0.0121(2) Uani d 1
O O4 0.33731(12) 0.50845(9) 0.3988(2) 0.0123(2) Uani d 1
O O5 0.03699(11) 0.77654(10) 0.48520(19) 0.0100(2) Uani d 1
O O6 0.11558(11) 0.62338(9) 0.2663(2) 0.0114(2) Uani d 1
loop_
_atom_site_aniso_label
_atom_site_aniso_U_11
_atom_site_aniso_U_22
_atom_site_aniso_U_33
_atom_site_aniso_U_12
_atom_site_aniso_U_13
_atom_site_aniso_U_23
Ag1 0.03724(13) 0.01563(9) 0.01248(9) -0.01172(8) 0.00860(8) -0.00330(6)
Ag2 0.01181(9) 0.04845(15) 0.01618(10) 0.000 0.00390(8) 0.000
Co1 0.0072(18) 0.0061(17) 0.0085(18) 0.0017(12) 0.0052(12) -0.0004(12)
Fe1 0.0059(17) 0.0082(18) 0.0032(15) -0.0027(12) 0.0007(11) -0.0007(11)
Co2 0.00710(12) 0.00870(12) 0.00779(13) 0.000 0.00380(10) 0.000
V1 0.00651(10) 0.00586(10) 0.00488(10) 0.00018(7) 0.00212(8) 0.00004(7)
V2 0.00679(14) 0.00648(13) 0.00465(14) 0.000 0.00161(11) 0.000
O1 0.0119(5) 0.0111(5) 0.0081(5) 0.0027(4) 0.0038(4) 0.0013(4)
O2 0.0129(5) 0.0121(5) 0.0083(5) -0.0007(4) 0.0045(4) -0.0007(4)
O3 0.0094(5) 0.0113(5) 0.0156(6) 0.0007(4) 0.0045(4) -0.0005(4)
O4 0.0132(5) 0.0087(5) 0.0156(6) -0.0002(4) 0.0060(5) 0.0010(4)
O5 0.0091(5) 0.0136(5) 0.0078(5) -0.0018(4) 0.0036(4) -0.0019(4)
O6 0.0088(5) 0.0103(5) 0.0137(5) 0.0000(4) 0.0024(4) -0.0021(4)
loop_
_atom_type_symbol
_atom_type_description
_atom_type_scat_dispersion_real
_atom_type_scat_dispersion_imag
_atom_type_scat_source
O O 0.0106 0.0060 'International Tables Vol C Tables 4.2.6.8 and 6.1.1.4'
V V 0.3005 0.5294 'International Tables Vol C Tables 4.2.6.8 and 6.1.1.4'
Fe Fe 0.3463 0.8444 'International Tables Vol C Tables 4.2.6.8 and 6.1.1.4'
Co Co 0.3494 0.9721 'International Tables Vol C Tables 4.2.6.8 and 6.1.1.4'
Ag Ag -0.8971 1.1015 'International Tables Vol C Tables 4.2.6.8 and 6.1.1.4'
loop_
_geom_angle_atom_site_label_1
_geom_angle_atom_site_label_2
_geom_angle_atom_site_label_3
_geom_angle_site_symmetry_1
_geom_angle_site_symmetry_3
_geom_angle
O6 Ag1 O6 5_565 . 180.0
O6 Ag1 O3 5_565 6_565 105.99(4)
O6 Ag1 O3 . 6_565 74.01(4)
O6 Ag1 O3 5_565 2 74.01(4)
O6 Ag1 O3 . 2 105.99(4)
O3 Ag1 O3 6_565 2 180.0
O6 Ag1 O3 5_565 . 107.57(4)
O6 Ag1 O3 . . 72.43(4)
O3 Ag1 O3 6_565 . 116.87(5)
O3 Ag1 O3 2 . 63.13(5)
O6 Ag1 O3 5_565 5_565 72.43(4)
O6 Ag1 O3 . 5_565 107.57(4)
O3 Ag1 O3 6_565 5_565 63.13(5)
O3 Ag1 O3 2 5_565 116.87(5)
O3 Ag1 O3 . 5_565 180.0
O4 Ag2 O4 . 2_656 179.97(6)
O4 Ag2 O4 . 6_566 87.12(4)
O4 Ag2 O4 2_656 6_566 92.89(4)
O4 Ag2 O4 . 5_666 92.89(4)
O4 Ag2 O4 2_656 5_666 87.12(4)
O4 Ag2 O4 6_566 5_666 169.99(6)
O6 Co1 O1 . 6_565 105.6(2)
O6 Co1 O4 . . 90.1(2)
O1 Co1 O4 6_565 . 89.02(19)
O6 Co1 O5 . 7_566 170.0(3)
O1 Co1 O5 6_565 7_566 79.4(2)
O4 Co1 O5 . 7_566 98.73(19)
O6 Co1 O2 . 6_566 90.4(2)
O1 Co1 O2 6_565 6_566 161.7(3)
O4 Co1 O2 . 6_566 99.9(2)
O5 Co1 O2 7_566 6_566 83.40(18)
O6 Co1 O2 . 4 81.15(16)
O1 Co1 O2 6_565 4 90.9(2)
O4 Co1 O2 . 4 170.8(3)
O5 Co1 O2 7_566 4 90.3(2)
O2 Co1 O2 6_566 4 82.90(17)
O6 Fe1 O4 . . 89.8(2)
O6 Fe1 O1 . 6_565 105.0(2)
O4 Fe1 O1 . 6_565 88.6(2)
O6 Fe1 O5 . 7_566 170.5(3)
O4 Fe1 O5 . 7_566 98.8(2)
O1 Fe1 O5 6_565 7_566 79.3(2)
O6 Fe1 O2 . 6_566 90.7(2)
O4 Fe1 O2 . 6_566 100.2(2)
O1 Fe1 O2 6_565 6_566 162.1(3)
O5 Fe1 O2 7_566 6_566 83.95(17)
O6 Fe1 O2 . 4 81.09(17)
O4 Fe1 O2 . 4 170.3(2)
O1 Fe1 O2 6_565 4 90.6(2)
O5 Fe1 O2 7_566 4 90.5(2)
O2 Fe1 O2 6_566 4 83.31(18)
O5 Co2 O5 2_556 . 149.23(7)
O5 Co2 O1 2_556 4_556 85.91(5)
O5 Co2 O1 . 4_556 76.96(5)
O5 Co2 O1 2_556 3_455 76.96(5)
O5 Co2 O1 . 3_455 85.91(5)
O1 Co2 O1 4_556 3_455 111.91(7)
O5 Co2 O3 2_556 5_566 96.48(5)
O5 Co2 O3 . 5_566 107.40(5)
O1 Co2 O3 4_556 5_566 162.94(5)
O1 Co2 O3 3_455 5_566 85.03(5)
O5 Co2 O3 2_556 6_566 107.40(5)
O5 Co2 O3 . 6_566 96.48(5)
O1 Co2 O3 4_556 6_566 85.03(5)
O1 Co2 O3 3_455 6_566 162.94(5)
O3 Co2 O3 5_566 6_566 78.12(7)
O3 V1 O4 . . 112.11(6)
O3 V1 O2 . . 105.86(6)
O4 V1 O2 . . 110.50(6)
O3 V1 O1 . . 108.79(6)
O4 V1 O1 . . 107.01(6)
O2 V1 O1 . . 112.65(6)
O6 V2 O6 . 2 102.86(8)
O6 V2 O5 . 2 108.27(6)
O6 V2 O5 2 2 109.38(6)
O6 V2 O5 . . 109.37(6)
O6 V2 O5 2 . 108.27(6)
O5 V2 O5 2 . 117.68(8)
loop_
_geom_bond_atom_site_label_1
_geom_bond_atom_site_label_2
_geom_bond_site_symmetry_2
_geom_bond_distance
Ag1 O6 5_565 2.4244(12)
Ag1 O6 . 2.4244(12)
Ag1 O3 6_565 2.5051(13)
Ag1 O3 2 2.5051(13)
Ag1 O3 . 2.5960(13)
Ag1 O3 5_565 2.5960(13)
Ag2 O4 . 2.4708(14)
Ag2 O4 2_656 2.4709(14)
Ag2 O4 6_566 2.4779(14)
Ag2 O4 5_666 2.4779(14)
Co1 O6 . 2.001(5)
Co1 O1 6_565 2.028(6)
Co1 O4 . 2.028(5)
Co1 O5 7_566 2.053(5)
Co1 O2 6_566 2.061(5)
Co1 O2 4 2.157(5)
Fe1 O6 . 2.007(5)
Fe1 O4 . 2.033(5)
Fe1 O1 6_565 2.040(6)
Fe1 O5 7_566 2.045(5)
Fe1 O2 6_566 2.047(5)
Fe1 O2 4 2.154(5)
Co2 O5 2_556 2.0747(12)
Co2 O5 . 2.0748(12)
Co2 O1 4_556 2.1156(12)
Co2 O1 3_455 2.1156(12)
Co2 O3 5_566 2.1197(13)
Co2 O3 6_566 2.1197(13)
V1 O3 . 1.6804(13)
V1 O4 . 1.7319(12)
V1 O2 . 1.7363(12)
V1 O1 . 1.7375(12)
V2 O6 . 1.6965(12)
V2 O6 2 1.6965(12)
V2 O5 2 1.7539(12)
V2 O5 . 1.7539(12)

_cod_database_fobs_code 2241747
