#------------------------------------------------------------------------------
#$Date: 2020-11-28 07:19:17 +0200 (Sat, 28 Nov 2020) $
#$Revision: 259272 $
#$URL: file:///home/coder/svn-repositories/cod/cif/2/24/36/2243688.cif $
#------------------------------------------------------------------------------
#
# This file is available in the Crystallography Open Database (COD),
# http://www.crystallography.net/. The original data for this entry
# were provided by IUCr Journals, http://journals.iucr.org/.
#
# The file may be used within the scientific community so long as
# proper attribution is given to the journal article from which the
# data were obtained.
#
data_2243688
loop_
_publ_author_name
'Chong, Saehwa'
'Perry, Samuel'
'Riley, Brian J.'
'Nelson, Zayne J.'
_publ_section_title
;
 Crystal structures and comparisons of potassium rare-earth molybdates
 K<i>RE</i>(MoO~4~)~2~ (<i>RE</i> = Tb, Dy, Ho, Er, Yb, and Lu)
;
_journal_coeditor_code           RU2071
_journal_issue                   12
_journal_name_full               'Acta Crystallographica Section E'
_journal_page_first              1871
_journal_page_last               1875
_journal_paper_doi               10.1107/S205698902001542X
_journal_volume                  76
_journal_year                    2020
_chemical_formula_iupac          'K Ho (Mo O4)2'
_chemical_formula_moiety         'K Ho Mo2 O8'
_chemical_formula_sum            'Ho K Mo2 O8'
_chemical_formula_weight         523.91
_chemical_name_systematic
;
Potassium holmium bis(molybdate)
;
_space_group_IT_number           60
_space_group_name_Hall           '-P 2n 2ab'
_space_group_name_H-M_alt        'P b c n'
_symmetry_cell_setting           orthorhombic
_symmetry_space_group_name_Hall  '-P 2n 2ab'
_symmetry_space_group_name_H-M   'P b c n'
_atom_sites_solution_primary     dual
_cell_angle_alpha                90
_cell_angle_beta                 90
_cell_angle_gamma                90
_cell_formula_units_Z            4
_cell_length_a                   5.0770(15)
_cell_length_b                   18.161(5)
_cell_length_c                   7.934(2)
_cell_measurement_reflns_used    2917
_cell_measurement_temperature    273
_cell_measurement_theta_max      28.802
_cell_measurement_theta_min      3.410
_cell_volume                     731.5(3)
_computing_cell_refinement
;
APEX3 (Bruker, 2014)
;
_computing_data_collection
;
APEX3 (Bruker, 2014)
;
_computing_data_reduction
;
APEX3 (Bruker, 2014)
;
_computing_molecular_graphics
;
<i>OLEX2</i> (Dolomanov <i>et al.</i>,  2009)
;
_computing_publication_material
;
publCIF (Westrip, 2010)
;
_computing_structure_refinement
;
SHELXL (Sheldrick, 2015b)
;
_computing_structure_solution
;
SHELXT (Sheldrick, 2015a)
;
_diffrn_ambient_temperature      273
_diffrn_measured_fraction_theta_full 1.000
_diffrn_measured_fraction_theta_max 0.966
_diffrn_measurement_device_type  'Bruker APEXII CCD'
_diffrn_measurement_method       '\f and \w scans'
_diffrn_radiation_source         'X-ray tube'
_diffrn_radiation_type           MoK\a
_diffrn_radiation_wavelength     0.71073
_diffrn_reflns_av_R_equivalents  0.0323
_diffrn_reflns_av_unetI/netI     0.0237
_diffrn_reflns_limit_h_max       6
_diffrn_reflns_limit_h_min       -6
_diffrn_reflns_limit_k_max       24
_diffrn_reflns_limit_k_min       -24
_diffrn_reflns_limit_l_max       10
_diffrn_reflns_limit_l_min       -10
_diffrn_reflns_number            7665
_diffrn_reflns_theta_full        25.242
_diffrn_reflns_theta_max         28.894
_diffrn_reflns_theta_min         2.243
_exptl_absorpt_coefficient_mu    14.660
_exptl_absorpt_correction_T_max  0.3432
_exptl_absorpt_correction_T_min  0.2483
_exptl_absorpt_correction_type   multi-scan
_exptl_absorpt_process_details
;
(SADABS; Krause et al., 2015)
;
_exptl_crystal_colour            'light red'
_exptl_crystal_density_diffrn    4.757
_exptl_crystal_description       plate
_exptl_crystal_F_000             936
_exptl_crystal_size_max          0.06
_exptl_crystal_size_mid          0.06
_exptl_crystal_size_min          0.04
_refine_diff_density_max         1.513
_refine_diff_density_min         -1.374
_refine_ls_extinction_method     none
_refine_ls_goodness_of_fit_all   1.254
_refine_ls_goodness_of_fit_ref   1.254
_refine_ls_matrix_type           full
_refine_ls_number_constraints    0
_refine_ls_number_parameters     56
_refine_ls_number_reflns         936
_refine_ls_number_restraints     0
_refine_ls_R_factor_all          0.0316
_refine_ls_R_factor_gt           0.0266
_refine_ls_shift/su_max          0.001
_refine_ls_shift/su_mean         0.000
_refine_ls_structure_factor_coef Fsqd
_refine_ls_weighting_details
'w=1/[\s^2^(Fo^2^)+11.6090P] where P=(Fo^2^+2Fc^2^)/3'
_refine_ls_weighting_scheme      calc
_refine_ls_wR_factor_all         0.0611
_refine_ls_wR_factor_ref         0.0625
_reflns_number_gt                818
_reflns_number_total             936
_reflns_threshold_expression     'I > 2\s(I)'
_iucr_refine_instructions_details
;
TITL khomo2o8_a.res in Pbcn
 khomo2o8.res created by SHELXL-2016/4 at 13:48:18 on 22-Sep-2020
REM Old TITL KHoMo2O8 in Pbcn
REM SHELXT solution in Pbcn
REM R1 0.071, Rweak 0.000, Alpha 0.059, Orientation as input
REM Formula found by SHELXT: O8 K Mo2 Ho
CELL 0.71073 5.077 18.1608 7.9336 90 90 90
ZERR 4 0.0015 0.0052 0.0023 0 0 0
LATT 1
SYMM 0.5-X,0.5-Y,0.5+Z
SYMM -X,+Y,0.5-Z
SYMM 0.5+X,0.5-Y,-Z
SFAC Ho K Mo O
UNIT 4 4 8 32
L.S. 20
PLAN  20
SIZE 0.06 0.06 0.04
TEMP 0
list 4
fmap 2
acta
REM <olex2.extras>
REM <HklSrc "%.\\KHoMo2O8.hkl">
REM </olex2.extras>
WGHT    0.000000   11.609000
FVAR       0.19476
Ho1   1    0.000000    0.494234    0.750000    10.50000    0.00566    0.00940 =
         0.00606    0.00000   -0.00040    0.00000
Mo1   3    0.479092    0.601792    0.516144    11.00000    0.00575    0.00845 =
         0.00758    0.00032   -0.00009    0.00040
K1    2    0.500000    0.771025    0.250000    10.50000    0.01767    0.01320 =
         0.01154    0.00000    0.00127    0.00000
O4    4    0.609487    0.689412    0.522659    11.00000    0.01274    0.01395 =
         0.00995    0.00158    0.00021   -0.00112
O2    4    0.750260    0.534190    0.494132    11.00000    0.00798    0.01428 =
         0.00611   -0.00050    0.00372    0.00163
O1    4    0.258314    0.593926    0.692321    11.00000    0.00717    0.01322 =
         0.00855    0.00008    0.00146   -0.00009
O3    4    0.270022    0.600768    0.338925    11.00000    0.01259    0.01185 =
         0.00349   -0.00003   -0.00045   -0.00078
HKLF 4
REM  khomo2o8_a.res in Pbcn
REM R1 =  0.0266 for     818 Fo > 4sig(Fo)  and  0.0316 for all     936 data
REM     56 parameters refined using      0 restraints
END
WGHT      0.0000     11.6089
REM Highest difference peak  1.513,  deepest hole -1.374,  1-sigma level  0.232
Q1    1   0.5703  0.6014  0.4447  11.00000  0.05    1.51
Q2    1   0.5000  0.8134  0.2500  10.50000  0.05    0.91
Q3    1   0.5526  0.4895  0.4720  11.00000  0.05    0.83
Q4    1   0.3349  0.5932  0.4165  11.00000  0.05    0.81
Q5    1   0.1332  0.4930  0.8228  11.00000  0.05    0.78
Q6    1   0.4473  0.5639  0.5262  11.00000  0.05    0.78
Q7    1   0.2210  0.5468  0.2369  11.00000  0.05    0.77
Q8    1   0.5856  0.5440  0.4589  11.00000  0.05    0.76
Q9    1   0.2460  0.5322  0.7304  11.00000  0.05    0.75
Q10   1   0.3200  0.6007  0.6253  11.00000  0.05    0.75
Q11   1   0.4707  0.6609  0.5385  11.00000  0.05    0.74
Q12   1   0.5499  0.6596  0.4491  11.00000  0.05    0.73
Q13   1  -0.0276  0.5654  0.7617  11.00000  0.05    0.71
Q14   1   0.0000  0.4519  0.7500  10.50000  0.05    0.67
Q15   1   1.0271  0.6881  0.4540  11.00000  0.05    0.64
Q16   1   0.2411  0.5646  0.5436  11.00000  0.05    0.63
Q17   1   0.0511  0.6079  0.7009  11.00000  0.05    0.63
Q18   1   0.3675  0.6302  0.3670  11.00000  0.05    0.62
Q19   1   0.6844  0.6422  0.5145  11.00000  0.05    0.61
Q20   1  -0.0065  0.6108  0.3116  11.00000  0.05    0.60
  REM The information below was added by Olex2.
  REM
  REM R1 = 0.0266 for 818 Fo > 4sig(Fo) and 0.0316 for all 8603 data
  REM n/a parameters refined using n/a restraints
  REM Highest difference peak 1.51, deepest hole -1.37
  REM Mean Shift 0, Max Shift -0.001.
  REM +++ Tabular Listing of Refinement Information +++
  REM R1_all = 0.0316
  REM R1_gt = 0.0266
  REM wR_ref = 0.0625
  REM GOOF = 1.254
  REM Shift_max = -0.001
  REM Shift_mean = 0
  REM Reflections_all = 8603
  REM Reflections_gt = 818
  REM Parameters = n/a
  REM Hole = -1.37
  REM Peak = 1.51
  REM Flack = n/a
;
_cod_data_source_file            ru2071sup1.cif
_cod_data_source_block           Ho_Molybdate
_cod_original_cell_volume        731.5(4)
_cod_original_formula_sum        'K Ho Mo2 O8'
_cod_database_code               2243688
_shelx_res_checksum              70745
loop_
_space_group_symop_operation_xyz
'x, y, z'
'-x+1/2, -y+1/2, z+1/2'
'-x, y, -z+1/2'
'x+1/2, -y+1/2, -z'
'-x, -y, -z'
'x-1/2, y-1/2, -z-1/2'
'x, -y, z-1/2'
'-x-1/2, y-1/2, z'
loop_
_atom_site_type_symbol
_atom_site_label
_atom_site_fract_x
_atom_site_fract_y
_atom_site_fract_z
_atom_site_U_iso_or_equiv
_atom_site_adp_type
_atom_site_calc_flag
_atom_site_occupancy
_atom_site_disorder_assembly
_atom_site_disorder_group
Ho Ho1 0.000000 0.49423(2) 0.750000 0.00704(12) Uani d 1 . .
Mo Mo1 0.47909(9) 0.60179(3) 0.51614(6) 0.00726(13) Uani d 1 . .
K K1 0.500000 0.77102(11) 0.250000 0.0141(4) Uani d 1 . .
O O4 0.6095(9) 0.6894(3) 0.5227(6) 0.0122(9) Uani d 1 . .
O O2 0.7503(9) 0.5342(2) 0.4941(5) 0.0095(8) Uani d 1 . .
O O1 0.2583(8) 0.5939(2) 0.6923(5) 0.0096(8) Uani d 1 . .
O O3 0.2700(9) 0.6008(2) 0.3389(5) 0.0093(8) Uani d 1 . .
loop_
_atom_site_aniso_label
_atom_site_aniso_U_11
_atom_site_aniso_U_22
_atom_site_aniso_U_33
_atom_site_aniso_U_12
_atom_site_aniso_U_13
_atom_site_aniso_U_23
Ho1 0.00566(18) 0.0094(2) 0.00606(18) 0.000 -0.00040(14) 0.000
Mo1 0.0058(2) 0.0084(3) 0.0076(2) 0.00040(19) -0.00009(17) 0.00032(17)
K1 0.0177(9) 0.0132(9) 0.0115(8) 0.000 0.0013(8) 0.000
O4 0.013(2) 0.014(2) 0.010(2) -0.0011(18) 0.0002(17) 0.0016(17)
O2 0.0080(19) 0.014(2) 0.0061(19) 0.0016(17) 0.0037(18) -0.0005(17)
O1 0.0072(19) 0.013(2) 0.0085(19) -0.0001(17) 0.0015(16) 0.0001(17)
O3 0.013(2) 0.012(2) 0.0035(19) -0.0008(19) -0.0005(15) 0.0000(16)
loop_
_atom_type_symbol
_atom_type_description
_atom_type_scat_dispersion_real
_atom_type_scat_dispersion_imag
_atom_type_scat_source
Ho Ho -0.2175 4.6783 'International Tables Vol C Tables 4.2.6.8 and 6.1.1.4'
K K 0.2009 0.2494 'International Tables Vol C Tables 4.2.6.8 and 6.1.1.4'
Mo Mo -1.6832 0.6857 'International Tables Vol C Tables 4.2.6.8 and 6.1.1.4'
O O 0.0106 0.0060 'International Tables Vol C Tables 4.2.6.8 and 6.1.1.4'
loop_
_diffrn_standard_refln_index_h
_diffrn_standard_refln_index_k
_diffrn_standard_refln_index_l
? ? ?
loop_
_geom_angle_atom_site_label_1
_geom_angle_atom_site_label_2
_geom_angle_atom_site_label_3
_geom_angle_site_symmetry_1
_geom_angle_site_symmetry_3
_geom_angle
_geom_angle_publ_flag
Ho1 Ho1 Ho1 5_567 5_566 173.96(2) ?
Ho1 Ho1 K1 5_567 2_565 86.979(11) ?
Ho1 Ho1 K1 5_566 2_565 86.979(11) ?
O2 Ho1 Ho1 7_466 5_566 145.79(11) ?
O2 Ho1 Ho1 5_666 5_566 36.49(11) ?
O2 Ho1 Ho1 1_455 5_566 34.33(10) ?
O2 Ho1 Ho1 3_656 5_566 142.68(10) ?
O2 Ho1 Ho1 7_466 5_567 36.49(11) ?
O2 Ho1 Ho1 5_666 5_567 145.79(11) ?
O2 Ho1 Ho1 1_455 5_567 142.68(10) ?
O2 Ho1 Ho1 3_656 5_567 34.33(10) ?
O2 Ho1 K1 1_455 2_565 73.13(10) ?
O2 Ho1 K1 3_656 2_565 73.13(10) ?
O2 Ho1 K1 5_666 2_565 102.57(11) ?
O2 Ho1 K1 7_466 2_565 102.57(11) ?
O2 Ho1 O2 3_656 1_455 146.3(2) ?
O2 Ho1 O2 7_466 1_455 117.06(18) ?
O2 Ho1 O2 7_466 3_656 70.81(17) ?
O2 Ho1 O2 5_666 1_455 70.81(17) ?
O2 Ho1 O2 5_666 3_656 117.06(18) ?
O2 Ho1 O2 5_666 7_466 154.9(2) ?
O1 Ho1 Ho1 . 5_566 75.99(11) ?
O1 Ho1 Ho1 3_556 5_566 99.12(11) ?
O1 Ho1 Ho1 . 5_567 99.12(11) ?
O1 Ho1 Ho1 3_556 5_567 75.99(11) ?
O1 Ho1 K1 3_556 2_565 37.49(11) ?
O1 Ho1 K1 . 2_565 37.50(11) ?
O1 Ho1 O2 3_556 7_466 72.64(15) ?
O1 Ho1 O2 . 1_455 84.17(15) ?
O1 Ho1 O2 3_556 3_656 84.17(15) ?
O1 Ho1 O2 3_556 1_455 68.97(15) ?
O1 Ho1 O2 . 7_466 130.07(15) ?
O1 Ho1 O2 . 3_656 68.97(15) ?
O1 Ho1 O2 3_556 5_666 130.06(15) ?
O1 Ho1 O2 . 5_666 72.64(15) ?
O1 Ho1 O1 . 3_556 75.0(2) ?
O1 Ho1 O3 3_556 7_566 150.57(15) ?
O1 Ho1 O3 3_556 5_566 108.19(16) ?
O1 Ho1 O3 . 7_566 108.19(16) ?
O1 Ho1 O3 . 5_566 150.57(15) ?
O3 Ho1 Ho1 7_566 5_566 110.11(10) ?
O3 Ho1 Ho1 7_566 5_567 74.62(10) ?
O3 Ho1 Ho1 5_566 5_567 110.11(10) ?
O3 Ho1 Ho1 5_566 5_566 74.62(10) ?
O3 Ho1 K1 5_566 2_565 138.22(11) ?
O3 Ho1 K1 7_566 2_565 138.21(11) ?
O3 Ho1 O2 7_566 3_656 70.64(15) ?
O3 Ho1 O2 7_566 7_466 84.58(15) ?
O3 Ho1 O2 5_566 3_656 139.83(14) ?
O3 Ho1 O2 5_566 5_666 84.58(15) ?
O3 Ho1 O2 7_566 5_666 76.70(15) ?
O3 Ho1 O2 7_566 1_455 139.83(14) ?
O3 Ho1 O2 5_566 7_466 76.70(15) ?
O3 Ho1 O2 5_566 1_455 70.64(15) ?
O3 Ho1 O3 5_566 7_566 83.6(2) ?
K1 Mo1 K1 . 2_565 78.20(2) ?
K1 Mo1 K1 . 2_665 76.49(2) ?
K1 Mo1 K1 2_565 2_665 81.14(4) ?
O4 Mo1 K1 . 2_665 36.25(15) ?
O4 Mo1 K1 . . 41.04(15) ?
O4 Mo1 K1 . 2_565 70.92(15) ?
O4 Mo1 O2 . . 109.2(2) ?
O4 Mo1 O1 . . 106.8(2) ?
O4 Mo1 O3 . . 105.4(2) ?
O2 Mo1 K1 . 2_665 86.25(14) ?
O2 Mo1 K1 . 2_565 156.40(13) ?
O2 Mo1 K1 . . 118.13(13) ?
O1 Mo1 K1 . 2_565 43.60(14) ?
O1 Mo1 K1 . . 121.56(14) ?
O1 Mo1 K1 . 2_665 95.64(14) ?
O1 Mo1 O2 . . 118.95(19) ?
O3 Mo1 K1 . 2_565 90.59(14) ?
O3 Mo1 K1 . 2_665 141.28(15) ?
O3 Mo1 K1 . . 64.79(14) ?
O3 Mo1 O2 . . 111.44(19) ?
O3 Mo1 O1 . . 104.1(2) ?
Mo1 K1 Mo1 3_655 4_566 138.79(2) ?
Mo1 K1 Mo1 3_655 . 69.05(4) ?
Mo1 K1 Mo1 3_655 2_564 103.92(2) ?
Mo1 K1 Mo1 . 4_566 103.92(2) ?
Mo1 K1 Mo1 4_566 2_564 105.89(5) ?
Mo1 K1 Mo1 . 2_564 138.79(2) ?
O4 K1 Mo1 2_664 . 126.98(10) ?
O4 K1 Mo1 . . 24.98(10) ?
O4 K1 Mo1 4_466 2_564 72.85(10) ?
O4 K1 Mo1 3_655 3_655 24.98(10) ?
O4 K1 Mo1 3_655 2_564 79.11(10) ?
O4 K1 Mo1 2_664 3_655 79.93(10) ?
O4 K1 Mo1 4_466 3_655 126.98(10) ?
O4 K1 Mo1 . 4_566 79.11(10) ?
O4 K1 Mo1 . 2_564 148.80(10) ?
O4 K1 Mo1 3_655 4_566 148.80(10) ?
O4 K1 Mo1 2_664 2_564 89.01(10) ?
O4 K1 Mo1 2_664 4_566 72.85(10) ?
O4 K1 Mo1 . 3_655 89.73(11) ?
O4 K1 Mo1 4_466 4_566 89.01(10) ?
O4 K1 Mo1 3_655 . 89.73(11) ?
O4 K1 Mo1 4_466 . 79.93(10) ?
O4 K1 O4 3_655 2_664 76.52(11) ?
O4 K1 O4 . 2_664 121.30(6) ?
O4 K1 O4 2_664 4_466 150.0(2) ?
O4 K1 O4 . 4_466 76.52(11) ?
O4 K1 O4 3_655 4_466 121.30(6) ?
O4 K1 O4 . 3_655 112.9(2) ?
O4 K1 O1 3_655 2_564 104.69(13) ?
O4 K1 O1 . 2_564 135.12(13) ?
O4 K1 O1 . 4_566 104.69(13) ?
O4 K1 O1 4_466 4_566 90.09(14) ?
O4 K1 O1 4_466 2_564 63.11(13) ?
O4 K1 O1 3_655 4_566 135.13(13) ?
O4 K1 O1 2_664 4_566 63.11(13) ?
O4 K1 O1 2_664 2_564 90.09(14) ?
O4 K1 O3 2_664 . 128.28(13) ?
O4 K1 O3 2_664 3_655 81.63(12) ?
O4 K1 O3 3_655 . 65.85(13) ?
O4 K1 O3 4_466 . 81.63(12) ?
O4 K1 O3 4_466 3_655 128.28(13) ?
O4 K1 O3 . 3_655 65.85(13) ?
O4 K1 O3 . . 52.94(12) ?
O4 K1 O3 3_655 3_655 52.93(12) ?
O1 K1 Mo1 4_566 3_655 142.71(9) ?
O1 K1 Mo1 4_566 2_564 81.34(10) ?
O1 K1 Mo1 2_564 . 142.71(9) ?
O1 K1 Mo1 2_564 3_655 129.66(9) ?
O1 K1 Mo1 4_566 . 129.66(9) ?
O1 K1 Mo1 4_566 4_566 26.09(9) ?
O1 K1 Mo1 2_564 4_566 81.34(10) ?
O1 K1 Mo1 2_564 2_564 26.09(9) ?
O1 K1 O1 4_566 2_564 59.05(18) ?
O1 K1 O3 4_566 3_655 132.01(12) ?
O1 K1 O3 2_564 . 132.01(12) ?
O1 K1 O3 2_564 3_655 157.36(11) ?
O1 K1 O3 4_566 . 157.36(11) ?
O3 K1 Mo1 . 4_566 132.03(7) ?
O3 K1 Mo1 . 3_655 51.26(8) ?
O3 K1 Mo1 3_655 2_564 132.03(7) ?
O3 K1 Mo1 3_655 4_566 115.66(8) ?
O3 K1 Mo1 3_655 3_655 28.14(7) ?
O3 K1 Mo1 . 2_564 115.66(8) ?
O3 K1 Mo1 3_655 . 51.26(8) ?
O3 K1 Mo1 . . 28.14(7) ?
O3 K1 O3 . 3_655 47.61(15) ?
Mo1 O4 K1 . 2_665 122.2(2) ?
Mo1 O4 K1 . . 114.0(2) ?
K1 O4 K1 . 2_665 121.97(17) ?
Ho1 O2 Ho1 5_666 1_655 109.19(17) ?
Mo1 O2 Ho1 . 1_655 119.50(19) ?
Mo1 O2 Ho1 . 5_666 128.2(2) ?
Ho1 O1 K1 . 2_565 112.98(16) ?
Mo1 O1 Ho1 . . 125.3(2) ?
Mo1 O1 K1 . 2_565 110.32(19) ?
Ho1 O3 K1 5_566 . 145.41(16) ?
Mo1 O3 Ho1 . 5_566 127.5(2) ?
Mo1 O3 K1 . . 87.06(16) ?
loop_
_geom_bond_atom_site_label_1
_geom_bond_atom_site_label_2
_geom_bond_site_symmetry_2
_geom_bond_distance
_geom_bond_publ_flag
Ho1 Ho1 5_566 3.9723(11) ?
Ho1 Ho1 5_567 3.9723(11) ?
Ho1 K1 2_565 4.263(2) ?
Ho1 O2 7_466 2.372(4) ?
Ho1 O2 5_666 2.372(4) ?
Ho1 O2 1_455 2.501(4) ?
Ho1 O2 3_656 2.501(4) ?
Ho1 O1 3_556 2.282(4) ?
Ho1 O1 . 2.282(4) ?
Ho1 O3 7_566 2.314(4) ?
Ho1 O3 5_566 2.314(4) ?
Mo1 K1 . 3.7303(18) ?
Mo1 K1 2_665 3.9713(14) ?
Mo1 K1 2_565 3.8332(14) ?
Mo1 O4 . 1.724(5) ?
Mo1 O2 . 1.853(4) ?
Mo1 O1 . 1.797(4) ?
Mo1 O3 . 1.762(4) ?
K1 Mo1 2_564 3.8332(14) ?
K1 Mo1 3_655 3.7303(18) ?
K1 Mo1 4_566 3.8332(14) ?
K1 O4 . 2.680(5) ?
K1 O4 4_466 2.775(5) ?
K1 O4 3_655 2.681(5) ?
K1 O4 2_664 2.775(5) ?
K1 O1 4_566 2.819(5) ?
K1 O1 2_564 2.819(5) ?
K1 O3 . 3.380(5) ?
K1 O3 3_655 3.380(5) ?
O4 K1 2_665 2.775(5) ?
O2 Ho1 1_655 2.501(4) ?
O2 Ho1 5_666 2.372(4) ?
O1 K1 2_565 2.819(5) ?
O3 Ho1 5_566 2.314(4) ?
loop_
_refln_index_h
_refln_index_k
_refln_index_l
_refln_F_squared_meas
_refln_F_squared_sigma
1 0 0 0.1 0.7
1 0 0 0 0.9
-1 0 0 -0.3 0.6
-1 0 0 0.9 0.9
-2 0 0 5603.14 269.17
2 0 0 5646.54 268.87
2 0 0 5630.64 269.17
-2 0 0 5764.42 268.77
-3 0 0 0.8 1.5
-3 0 0 0.8 1.1
3 0 0 0.3 1.5
3 0 0 2 1.3
-4 0 0 5835.22 268.87
4 0 0 5615.94 269.67
4 0 0 5633.24 269.07
-4 0 0 5504.55 269.57
5 0 0 3.2 2.5
-5 0 0 5.6 2.9
5 0 0 4.6 3.1
-6 0 0 1276.47 64.19
0 0 -1 -0.3 0.5
0 0 -1 -0.5 0.7
0 0 -1 0.7 0.5
0 0 -1 0.2 0.4
-1 0 1 -0.4 0.9
1 0 1 -0.5 0.5
1 0 1 0.6 1.1
1 0 -1 -0.1 0.8
-1 0 1 -0.2 0.7
-1 0 -1 0.3 1
-1 0 -1 0.6 0.7
2 0 1 -0.7 0.8
-2 0 -1 1.9 1
-2 0 1 0.2 1
2 0 -1 -0.9 0.9
2 0 -1 2.3 1.2
-2 0 1 0.5 0.9
2 0 1 2 1.4
-2 0 -1 -1.3 1.1
-3 0 -1 0.8 1.3
3 0 -1 -0.5 1.4
3 0 1 0.6 1.7
-3 0 -1 0.8 1.5
3 0 -1 -1.1 1.3
-3 0 1 -0.5 1.1
-3 0 1 0.7 1.3
3 0 1 -0.2 1.1
4 0 -1 -0.3 1.7
4 0 1 2 1.7
4 0 -1 1 2.2
-4 0 -1 0.5 2.1
4 0 1 2 2.4
-4 0 -1 -2.6 1.7
-4 0 1 0.9 1.7
-4 0 1 -0.9 1.7
5 0 -1 -0.5 2.5
-5 0 1 0.6 3
5 0 1 -1.2 3
-5 0 -1 -0.4 2.9
5 0 -1 3 3
-6 0 1 1.1 4
-6 0 -1 4.9 4
6 0 1 6.9 4.3
0 0 -2 18.2 1.6
0 0 -2 18.3 1.7
0 0 -2 14.8 1.8
0 0 -2 13.1 1.5
-1 0 -2 10.2 1.2
-1 0 2 19.9 2.1
-1 0 2 13.7 1.6
1 0 2 11 1.4
1 0 -2 13.4 1.6
-1 0 -2 10.4 1.7
-2 0 -2 35.2 2.5
-2 0 2 29.4 3
2 0 -2 32.6 2.9
2 0 2 32.1 2.4
-2 0 2 35.1 2.8
-2 0 -2 38 3.6
2 0 2 37.6 3.6
3 0 2 15.4 2
3 0 2 22.6 3.1
-4 0 -2 156.88 9.8
4 0 2 149.99 9.3
-4 0 2 149.99 9.3
-4 0 2 149.49 9
4 0 2 148.39 10
4 0 -2 156.08 9.3
4 0 -2 151.38 9.4
-5 0 2 45.3 5.2
-5 0 2 44.4 4.7
5 0 2 50.79 6.2
5 0 -2 41.6 4.9
6 0 -2 114.79 11
-6 0 -2 123.69 10.2
6 0 2 101.49 10.4
0 0 -3 0.4 1.2
0 0 -3 0.6 0.9
0 0 -3 -0.3 0.9
0 0 -3 -0.8 0.8
-1 0 -3 -0.6 1.1
-1 0 3 2.2 1.9
1 0 -3 1.3 1
1 0 3 0.2 0.8
-1 0 -3 -1 0.8
-1 0 -3 2.2 1.6
-2 0 3 0.1 1.2
2 0 3 0.1 1.5
-2 0 -3 -1 1.3
-2 0 3 2.1 1.3
2 0 -3 0.8 1.2
-2 0 -3 -0.2 0.9
2 0 3 0.9 1
-3 0 3 2.6 1.6
3 0 3 -0.2 1.1
-3 0 3 2.5 1.5
3 0 3 -0.2 1.9
-3 0 -3 -0.8 1.8
3 0 -3 1.2 1.6
-4 0 3 1.2 2.1
-4 0 -3 2.3 2.5
-4 0 3 0.8 1.9
4 0 3 2.3 2.7
4 0 -3 -1.2 1.8
5 0 -3 -1.5 2.2
-5 0 3 0 2.2
5 0 3 -2.6 3.4
-5 0 -3 -0.2 3
-6 0 -3 2.7 4.2
6 0 -3 3.2 3.4
6 0 3 1.7 4.6
0 0 -4 9999 456.85
0 0 -4 9549.74 456.75
0 0 -4 9262.37 457.05
0 0 -4 9679.93 456.85
1 0 -4 1.9 1.3
-1 0 -4 1.2 1.4
-1 0 -4 1.2 1.9
1 0 -4 0.4 1.2
-1 0 -4 1 1
-1 0 4 2.4 2.4
-1 0 -4 0.9 1
-2 0 4 5666.53 270.07
-2 0 -4 5641.94 270.07
-2 0 -4 5436.76 269.17
2 0 4 5703.53 270.27
2 0 -4 5819.12 269.97
-2 0 4 5734.23 269.97
-3 0 -4 10.2 2.7
-3 0 4 14.2 2.6
3 0 4 6.3 2.6
-3 0 4 8.8 2.3
3 0 -4 16 2.8
4 0 -4 3253.17 150.88
4 0 4 3085.19 151.68
-4 0 4 3093.79 150.58
-4 0 -4 3100.79 151.18
-5 0 4 42.9 5
-5 0 -4 37.2 5.6
5 0 -4 34.2 4.8
5 0 4 34.2 6.3
6 0 4 1271.87 65.69
-6 0 -4 1290.57 65.09
6 0 -4 1265.37 63.79
0 0 -5 -1 1.1
0 0 -5 0.2 1.7
0 0 -5 -0.8 1.2
-1 0 -5 -0.2 1.3
-1 0 5 3.4 2.7
1 0 -5 0.3 1.3
1 0 -5 0 1.3
-1 0 -5 0.7 1.2
-1 0 -5 0.5 2
-1 0 -5 3.4 1.7
2 0 5 0.4 1.8
-2 0 5 1.2 1.6
-2 0 -5 1.1 1.9
-2 0 5 0 1.8
2 0 -5 1 1.5
-2 0 -5 -1 1.4
2 0 5 -0.3 1.8
-3 0 5 0.7 1.8
3 0 -5 1.9 1.7
-3 0 -5 2.5 2.2
3 0 5 0.6 2.3
4 0 -5 -1.2 2
4 0 5 0.9 2.9
-4 0 5 7.4 2.7
-4 0 -5 0.9 3.1
5 0 5 2.8 3.9
5 0 -5 -3.5 2.5
-5 0 5 -1.5 2.7
-5 0 -5 1.5 3.6
-6 0 5 1.7 3.7
0 0 -6 29 3.3
0 0 -6 25.5 3.9
0 0 6 24.8 4.3
0 0 -6 26.9 3.2
-1 0 6 70.29 8
-1 0 -6 82.99 5.6
-1 0 -6 83.89 5.7
-1 0 -6 97.89 6.3
1 0 -6 73.09 5.8
-1 0 -6 85.29 7
-2 0 -6 420.06 21.1
-2 0 -6 371.86 20
2 0 -6 376.06 20.7
2 0 6 391.16 21.3
-2 0 6 418.06 21
-3 0 -6 50.29 5.6
-4 0 -6 50.69 6.5
4 0 -6 51.09 5.9
-4 0 6 43.1 5.5
4 0 6 43.5 6.5
5 0 -6 151.98 11.1
5 0 6 154.38 12.7
-5 0 6 157.28 11
-5 0 -6 170.78 12.3
0 0 -7 1.8 1.9
0 0 7 0 2.7
0 0 -7 1.6 1.7
-1 0 -7 3.6 2
-1 0 -7 5.2 2.1
1 0 -7 7.5 2.2
-1 0 -7 6 2.5
-1 0 7 4.4 3.9
-1 0 7 4 2.2
-2 0 7 1.5 2.2
2 0 7 -0.2 2.7
-2 0 -7 1.3 2.5
2 0 -7 -1.2 1.9
3 0 7 1.6 3.3
3 0 -7 0.5 2.2
-3 0 7 2.9 2.6
-3 0 -7 7.6 3.2
-4 0 -7 -2.3 3.4
4 0 7 -0.5 3.6
4 0 -7 1.6 2.8
-4 0 7 4.3 2.9
0 0 8 2524.85 125.59
0 0 -8 2648.44 123.89
0 0 -8 2523.35 123.69
-1 0 -8 11.5 2.9
-1 0 8 9.9 2.9
-1 0 -8 6.3 2.9
1 0 -8 8.2 2.6
1 0 8 5.8 3.4
2 0 -8 2268.87 108.79
-2 0 -8 2216.48 108.99
2 0 8 2259.07 109.49
-2 0 8 2210.38 108.99
-3 0 8 48 6.2
-3 0 -8 45.4 6.3
3 0 8 55.49 7.5
3 0 -8 49.99 5.9
-4 0 -8 1190.48 63.99
4 0 8 1336.27 65.29
4 0 -8 1271.97 64.29
-4 0 8 1272.17 64.09
0 0 -9 0 2.8
1 0 -9 4.7 2.7
-1 0 9 3.3 3.1
1 0 9 3.4 4.8
-2 0 -9 4.9 3.6
2 0 -9 2.3 2.8
2 0 9 0 4
-2 0 9 0 2.7
-3 0 9 10.5 4
3 0 -9 -1.4 2.8
-3 0 -9 2.2 3.6
3 0 9 -1.7 4.7
0 0 10 123.19 9.8
-1 0 10 36.5 5.7
1 0 -10 25 4.7
2 0 -10 245.28 15.6
0 1 0 0 0.3
0 -1 0 0.8 0.5
0 -1 0 -0.1 0.4
0 1 0 0 0.3
-1 -1 0 11.4 1.5
-1 1 0 10.9 1.3
1 -1 0 10.1 1.5
1 1 0 10.6 1.2
1 -1 0 9.5 1
1 1 0 9.4 1.3
-1 -1 0 8.3 0.9
-1 1 0 11.1 1.2
2 1 0 4.1 1.4
-2 1 0 1 1.1
-2 1 0 2.7 1
2 -1 0 2.2 1.4
2 -1 0 2.4 1
-2 -1 0 6.7 1.5
-2 -1 0 5.6 1
2 1 0 2.4 1.1
3 1 0 144.29 8.3
-3 1 0 149.59 8.6
3 -1 0 159.18 9
-3 1 0 151.88 8.2
3 1 0 152.98 8.8
-3 -1 0 150.08 8
3 -1 0 138.59 8.1
-3 -1 0 143.79 8.7
-4 1 0 34.9 4
5 -1 0 84.89 7.7
5 1 0 76.89 7.3
5 1 0 70.09 6.1
-5 -1 0 69.19 7.1
-5 1 0 72.29 6.6
6 -1 0 22.4 5.2
-6 1 0 18.1 5
-6 -1 0 38.3 5.8
0 -1 -1 0.8 0.6
0 -1 -1 0.2 0.5
0 1 -1 0.7 0.5
0 1 -1 -0.3 0.4
0 1 -1 0.2 0.6
0 -1 -1 -0.1 0.8
1 -1 -1 48.8 2.9
-1 1 -1 45.9 3
-1 1 -1 47.2 3.1
-1 -1 1 51.09 2.9
-1 -1 1 46.1 3.3
1 1 1 50.19 3
1 -1 -1 49.7 3.2
-1 1 1 50.39 3
-1 1 1 45.9 2.8
1 1 -1 46.5 3
1 -1 1 48.3 3.3
-1 -1 -1 49.99 3.2
-1 -1 -1 45.2 3.6
2 1 1 0.4 1.3
2 -1 -1 -0.9 1
-2 1 -1 -0.4 0.9
-2 1 -1 -1.7 1.1
2 -1 -1 0.3 1.2
-2 -1 1 0.5 0.9
-2 -1 1 0.1 1.1
2 1 1 -0.5 0.8
2 1 -1 0.5 1
2 -1 1 0.7 1.4
-2 1 1 1.9 1
2 -1 1 -0.7 0.8
-2 -1 -1 0.1 1.3
-2 1 1 -0.8 0.9
2 1 -1 0.6 1.1
-3 1 -1 20.1 2.5
3 1 1 12.9 2.6
3 -1 -1 14.8 2.6
-3 -1 1 16.6 2.5
3 1 1 17.1 2.1
-3 -1 1 17.3 2.1
3 -1 -1 20.5 2.5
-3 1 -1 12.9 2.4
-3 -1 -1 16.1 2.7
3 -1 1 19.6 3.1
3 -1 1 13.4 2
3 1 -1 18.8 2.6
-3 -1 -1 12.9 2
3 1 -1 14.7 2.3
-3 1 1 14.6 2.3
-3 1 1 14.6 2.1
-4 1 -1 63.79 5.8
4 1 1 53.59 4.6
4 -1 -1 58.79 5.6
-4 1 -1 55.39 4.7
-4 -1 1 55.99 5.1
4 -1 -1 51.09 4.6
4 1 1 61.69 5.6
-4 -1 1 55.19 4.4
4 -1 1 64.99 6.2
4 -1 1 54.49 4.5
-4 1 1 57.99 4.5
-4 -1 -1 67.59 6.1
4 1 -1 51.49 4.7
-4 1 1 57.09 5.4
4 1 -1 50.39 5.1
5 -1 -1 13.9 4
-5 -1 1 12.3 3.6
5 1 1 13.5 4.1
5 -1 -1 9.5 2.9
-5 1 -1 11.5 3.4
5 -1 1 12.8 3.9
-5 1 1 10.1 3
5 1 -1 7.6 3
-5 1 1 16 3.7
-5 -1 -1 8.1 3.5
6 1 1 137.89 11.1
-6 1 -1 138.39 11.1
-6 -1 1 146.99 11.2
-6 -1 -1 139.39 11.1
6 -1 1 144.09 11.4
0 -1 -2 -0.3 0.7
0 -1 -2 0.8 1.2
0 1 -2 -0.3 1
0 1 -2 0 0.6
0 -1 -2 -0.1 0.8
0 1 -2 -0.3 0.7
0 1 -2 0 0.9
0 -1 -2 0.9 0.8
-1 1 -2 8010.5 379.06
1 -1 -2 7730.03 379.06
-1 -1 2 8287.67 379.56
-1 1 -2 8047 378.76
1 1 2 8101.19 379.06
1 -1 -2 8031.3 378.96
-1 1 2 7810.92 378.96
1 -1 2 7863.01 379.16
-1 1 2 8759.52 378.96
-1 -1 -2 7780.62 379.06
1 1 -2 7794.02 378.96
1 -1 2 7949.1 378.66
-1 -1 -2 7673.13 379.46
1 1 -2 7963.3 378.96
2 -1 -2 0.9 1.2
2 -1 -2 0 1
2 1 2 0 1.4
-2 1 -2 0.5 1
-2 1 -2 -1.3 1.3
-2 -1 2 0.8 1.1
2 1 2 1.5 0.9
-2 -1 2 -0.2 1.2
2 1 -2 -0.3 1.1
2 -1 2 0.1 0.7
-2 1 2 0.6 1
-2 -1 -2 0.6 1.4
-2 1 2 0.6 1
2 -1 2 -0.6 1.4
-3 -1 2 4192.68 200.48
3 1 2 3891.01 200.18
3 1 2 4262.27 201.28
3 -1 -2 4222.48 200.78
-3 -1 2 4102.89 200.78
3 -1 -2 4269.27 200.68
-3 1 -2 4244.48 201.08
-3 -1 -2 4314.27 201.08
3 -1 2 4433.66 201.38
-3 1 2 4270.87 200.58
3 1 -2 4177.28 200.78
-3 1 2 4107.89 200.58
4 1 2 9.2 2.3
-4 1 -2 8.4 2.9
-4 -1 2 16.8 2.6
4 -1 -2 16.2 3.3
-4 -1 2 9.2 2.6
4 1 2 12.8 3.3
4 -1 -2 13 2.6
4 1 -2 5.7 2.6
-4 1 2 14 2.6
4 1 -2 9.3 2.6
-4 1 2 6.6 2.3
-4 -1 -2 6.9 2.9
4 -1 2 13.4 3.5
-5 -1 2 1673.83 85.99
5 1 2 1868.51 87.69
5 -1 -2 1796.32 86.29
-5 -1 2 1727.23 86.69
-5 1 -2 1787.52 87.19
5 1 -2 1784.42 86.49
-5 1 2 1746.73 86.09
-5 1 2 1755.02 86.89
5 -1 2 1772.22 87.49
-5 -1 -2 1824.12 87.19
-6 1 -2 12.6 4.8
6 1 2 6.2 4.7
-6 -1 -2 5 4.1
6 1 -2 9.8 3.8
6 -1 2 8.9 4.7
0 1 -3 -0.9 0.8
0 1 -3 0.6 1.2
0 1 -3 0.8 0.9
0 -1 -3 0.7 0.9
0 -1 -3 -0.9 1.2
0 -1 -3 0 0.9
0 1 -3 -0.5 0.9
0 -1 -3 0.3 0.9
1 -1 -3 341.37 17.7
-1 1 -3 395.26 17.5
1 -1 -3 376.86 17.9
1 1 3 347.67 17.8
-1 1 -3 352.46 18
-1 1 -3 352.86 17.6
-1 -1 -3 355.86 18.5
-1 -1 -3 349.37 17.5
-1 1 3 361.76 17.9
-1 -1 -3 339.47 17.9
1 1 -3 343.97 17.8
1 1 -3 359.56 17.9
1 -1 3 349.87 18
2 1 3 1 1.5
-2 -1 3 0.2 1.3
2 -1 -3 1.1 1.1
2 1 3 1.8 1.2
-2 1 -3 0.9 1.5
-2 -1 3 2.3 1.2
-2 1 -3 2 1.1
-2 1 3 0.2 1
-2 1 3 0 1.2
2 1 -3 2.5 1.3
2 -1 3 0.3 0.9
-2 -1 -3 1 1.7
2 -1 3 3.2 1.7
-3 1 -3 129.39 7.2
3 -1 -3 128.39 7.8
3 1 3 126.49 7.2
3 1 3 122.99 8.3
-3 -1 3 116.19 7.7
-3 1 -3 128.39 8.1
-3 -1 3 129.69 7.6
3 -1 -3 126.89 8
-3 -1 -3 122.49 8.2
-3 1 3 112.89 7.4
3 1 -3 135.99 7.8
3 -1 3 126.79 8.3
-3 1 3 124.69 7.6
-4 1 -3 96.79 7.1
4 1 3 86.69 7.1
4 -1 -3 83.09 6.3
-4 -1 3 82.19 6.5
-4 -1 3 83.29 6.1
4 1 -3 88.29 6.5
-4 1 3 86.09 6.2
-4 -1 -3 85.29 7
4 -1 3 87.09 7.3
-4 1 3 80.69 6.2
-5 -1 3 35.1 4.6
5 -1 -3 62.99 5.8
-5 -1 3 44.7 7
5 1 3 38.3 6.2
-5 1 -3 42.3 5.9
-5 -1 -3 36.1 5.8
-5 1 3 42.5 5
5 1 -3 46.1 5.3
5 -1 3 35.9 6
6 1 3 87.59 10
6 -1 -3 94.49 8.3
-6 1 -3 116.99 10.6
6 1 -3 98.09 8.6
-6 -1 -3 103.59 10.3
6 -1 3 103.89 10.8
0 -1 -4 16.5 2.4
0 1 -4 8.7 1.8
0 1 -4 11.4 1.6
0 1 -4 8.2 1.5
1 -1 -4 68.19 4.5
-1 1 -4 66.69 4.7
-1 1 -4 62.49 4.2
-1 1 -4 65.89 4.1
-1 -1 4 75.59 6.4
1 -1 -4 58.09 4.4
-1 -1 -4 71.09 5.5
1 1 -4 67.39 4.5
-1 -1 -4 66.89 4.3
-1 1 4 73.59 5.7
1 -1 4 64.99 4.7
-1 -1 -4 68.69 4.7
-1 1 4 74.49 4.7
-1 -1 -4 65.49 4.1
1 1 -4 68.09 4.6
-2 -1 4 26.4 3.2
2 -1 -4 23.7 2.7
-2 1 -4 10.5 1.6
-2 1 -4 11.4 2.3
-2 -1 4 22.3 2.6
2 -1 4 5.4 1.8
2 -1 4 7 2.3
-2 1 4 19.5 2.5
2 1 -4 16.9 2.4
-2 1 4 16.2 2.3
-3 -1 4 98.69 6.8
3 -1 -4 99.79 6.7
3 1 4 102.09 7.4
-3 1 -4 94.89 5.9
3 1 4 102.99 6.2
-3 1 -4 105.49 7.1
-3 -1 4 98.69 6.6
-3 -1 -4 98.09 7
3 -1 4 91.19 7.2
-3 1 4 94.19 6.5
3 1 -4 90.19 6.6
-3 1 4 90.59 6.3
-4 1 -4 37.9 4.9
-4 1 4 39.7 4.4
4 -1 4 31.1 4.8
5 -1 -4 134.49 9.4
5 1 4 131.09 10.7
-5 -1 4 132.49 9.2
-5 1 -4 127.99 10.3
5 -1 4 135.39 11
-5 1 4 137.79 9.3
-5 -1 -4 136.39 10.3
5 1 -4 145.09 9.7
-6 1 -4 61.99 8.4
6 1 4 77.99 8.9
6 -1 -4 51.09 6.5
-6 1 4 44.8 6.3
6 -1 4 52.09 8.5
6 1 -4 61.69 7.1
-6 -1 -4 87.29 9.5
0 1 -5 2.3 1.3
0 1 -5 1.8 1.3
0 -1 -5 1.5 2
0 1 -5 2.4 1.7
0 -1 -5 2.2 1.4
0 -1 5 1.7 2.1
0 -1 -5 -1.2 1.1
0 -1 -5 3.1 1.3
-1 1 -5 57.39 4.1
1 -1 -5 48.5 4.4
-1 1 -5 54.79 4.5
1 -1 -5 52.79 4.3
-1 -1 5 66.59 7.5
-1 1 -5 60.69 4
-1 1 5 63.09 6.5
-1 -1 -5 58.59 5.7
-1 -1 -5 56.99 4.4
1 1 -5 55.19 4.3
-1 -1 -5 57.79 4.1
1 1 -5 54.29 4.2
-1 -1 -5 59.89 4
1 -1 5 48 4.5
-1 1 5 52.79 4.4
-2 -1 5 8.6 2.8
2 -1 -5 3.9 1.8
2 1 5 5.5 2.4
-2 -1 5 6.2 2
-2 1 -5 6.6 2.2
-2 1 -5 4.2 1.7
2 1 5 2.9 2
-2 1 5 4 2.1
-2 -1 -5 4.3 2.1
2 -1 5 8.7 2.7
2 1 -5 4.3 1.8
2 -1 5 1.6 1.8
-2 -1 -5 5.5 1.6
-2 1 5 9 2.1
-3 -1 5 4.4 2.5
3 1 5 5.5 2.8
-3 1 -5 4.1 2.5
3 -1 -5 7.5 2.3
-3 -1 5 10.2 2.6
3 1 -5 6.4 2.2
3 -1 5 6.6 3
-3 1 5 9 2.4
-3 -1 -5 9 3
-4 1 -5 37.4 5.3
4 1 5 37.2 5.7
4 -1 -5 29.1 4.4
-4 -1 5 38.6 4.7
-4 -1 -5 34.4 5.2
-4 1 5 33.8 4.6
4 -1 5 44.6 6
4 1 -5 38.1 4.9
5 -1 -5 5.4 3.1
-5 1 -5 13.9 4.5
5 1 5 2.1 4
-5 -1 5 7.3 3.2
-5 -1 -5 4.9 4.2
5 1 -5 4.7 3
-5 1 5 10.4 3.3
5 -1 5 5.3 4.4
-6 1 5 80.79 8.5
0 1 -6 1.7 1.6
0 1 -6 2.2 1.5
0 -1 -6 -0.6 1.4
0 -1 6 -0.8 2.4
0 -1 -6 -0.3 1.5
0 -1 -6 1.4 2.3
0 1 -6 2.8 2.3
-1 1 -6 3208.78 149.59
-1 1 -6 3089.79 148.99
1 -1 -6 3065.49 149.39
-1 1 -6 3080.09 148.89
-1 -1 6 3140.59 151.18
-1 1 6 2902.61 150.48
-1 -1 -6 3089.49 150.18
1 1 -6 3109.49 149.39
1 -1 6 3346.27 149.69
-1 -1 -6 3090.69 148.99
-1 -1 -6 3105.99 149.39
-1 1 6 3144.99 149.49
1 1 -6 3110.89 149.29
-1 -1 -6 3128.59 149.09
-2 1 -6 17.1 3.1
-2 -1 6 14.8 3
-2 -1 6 10.3 3.6
2 1 6 17.4 3.6
2 -1 -6 14.7 2.9
2 1 6 18.5 3.4
-2 1 -6 18.9 2.9
-2 -1 -6 19.1 3.3
2 1 -6 17.8 3
2 -1 6 14.2 3.2
-2 1 6 15 2.9
-3 -1 6 1944.21 95.29
-3 1 -6 1947.31 95.69
3 1 6 1992.1 96.19
3 -1 -6 1955.5 95.29
3 1 -6 1951.9 95.29
-3 1 6 1900.01 95.29
-3 -1 -6 1984.2 95.59
3 -1 6 2002.7 96.29
-4 -1 6 24.1 4.3
4 -1 -6 29.4 4.5
-4 1 -6 32 5.4
4 1 6 35.4 5.9
-4 1 6 25.2 4.3
-4 -1 -6 34.5 5.4
4 -1 6 25.7 5.3
4 1 -6 29.4 4.6
-5 -1 6 1232.48 60.09
5 1 6 1134.19 61.59
-5 1 -6 1216.48 61.19
5 -1 -6 1190.88 60.19
5 -1 6 1244.38 62.19
-5 1 6 1191.78 60.09
5 1 -6 1209.88 60.29
-5 -1 -6 1168.18 60.89
0 1 7 4 3.1
0 1 -7 4.5 2.2
0 -1 -7 2.9 1.9
0 -1 7 1.3 3
0 1 -7 7.7 2
0 -1 -7 2.9 3
0 -1 -7 1.1 1.8
-1 1 -7 328.07 17.5
-1 -1 7 322.37 19.7
1 -1 -7 304.27 17.2
-1 1 -7 300.47 16.9
-1 1 7 338.07 17.5
1 -1 7 336.67 17.7
-1 -1 -7 320.97 17
1 1 -7 310.27 17.2
-1 -1 -7 339.57 17
-1 -1 -7 315.27 17.4
1 1 -7 322.17 17.3
-1 -1 -7 290.57 18.2
-2 1 -7 5.7 3.7
-2 -1 7 6.6 2.5
-2 1 -7 11.5 3.2
2 1 7 5.8 3.2
2 -1 -7 1.4 2.4
-2 -1 -7 4.5 2.8
-2 1 7 8.9 2.5
2 1 -7 3.7 2.3
2 -1 7 6.6 3.1
-3 1 -7 160.68 10.7
-3 -1 7 165.18 10.4
3 1 7 156.28 11.3
3 -1 -7 147.89 10.2
3 1 -7 139.39 10
-3 1 7 164.78 10.4
-3 -1 -7 158.38 10.7
3 -1 7 147.19 11.1
-4 -1 7 29.7 5.2
4 -1 -7 31.2 4.9
4 1 7 24.7 5.7
-4 1 -7 37 5.9
4 -1 7 24.4 5.8
-4 -1 -7 25.1 5.3
4 1 -7 30.2 4.8
-4 1 7 31.8 5.2
0 1 -8 21.5 3.5
-1 1 -8 148.39 9.2
-1 -1 8 142.69 9.6
1 -1 -8 129.39 9.1
-1 1 -8 138.99 9.7
-1 -1 -8 142.89 9.1
1 1 -8 143.69 9.3
-1 -1 -8 154.18 9.8
-1 1 8 137.69 9.5
-2 -1 8 22.6 4.1
-2 1 -8 25 4.4
2 -1 -8 34.6 4.2
-2 1 8 46.4 5.2
2 1 -8 27.1 4
2 -1 8 17.9 4.7
3 1 8 138.29 10.9
-3 -1 8 138.39 9.7
3 -1 -8 131.89 9.7
-3 1 -8 131.29 10.1
-3 1 8 127.09 9.6
-3 -1 -8 135.29 9.9
3 -1 8 134.19 10.9
3 1 -8 130.39 9.6
-4 -1 8 52.09 7.1
4 -1 -8 66.29 7.8
-4 1 -8 65.39 7.7
4 1 -8 62.69 7.7
-4 -1 -8 115.39 9
-4 1 8 74.09 7.8
4 -1 8 61.49 8.6
0 1 -9 3.9 2.8
0 -1 -9 3.1 2.8
0 1 9 -0.2 2.7
-1 1 -9 80.19 7.7
1 -1 -9 82.99 7.1
-1 -1 9 85.09 8.1
1 1 -9 86.59 7.9
1 -1 9 92.99 10.6
-1 1 9 102.79 8.9
-2 1 -9 6.9 3.7
2 -1 -9 -2 2.5
2 1 9 8.4 4.6
-2 -1 9 3.9 3.2
2 1 -9 10.1 3.2
-2 1 9 10.1 3.7
-2 -1 -9 2.7 3.6
-3 1 -9 39.7 6.1
3 1 9 30.1 6.7
3 -1 -9 49.4 6.2
-3 -1 9 34.4 6.4
3 -1 9 48.6 7.6
-3 1 9 31.2 5.5
-3 -1 -9 34 6
3 1 -9 27.2 5.2
0 1 10 1.5 3.7
0 -1 10 4.8 3.7
1 -1 -10 880.61 46.1
-1 -1 10 901.41 46.6
-1 1 10 974.8 46.8
1 1 -10 872.61 46.2
2 1 -10 16.5 4.2
0 -2 0 3579.44 174.48
0 -2 0 3664.73 174.48
0 2 0 3676.83 174.38
0 2 0 3775.12 174.28
-1 -2 0 0.2 1.2
-1 -2 0 0.2 1
-1 2 0 -0.1 0.7
1 -2 0 0.1 0.6
-1 2 0 -0.3 0.8
1 -2 0 -0.4 1
1 2 0 -0.6 0.8
2 -2 0 947.21 45.1
2 2 0 905.11 44.7
2 -2 0 911.61 44.5
-2 2 0 894.81 44.7
-2 -2 0 924.21 45
2 2 0 941.31 44.9
-2 -2 0 949.6 44.4
-2 2 0 932.31 44.7
-3 2 0 3 1.5
-3 -2 0 0.8 1.1
3 2 0 0.2 1.2
3 2 0 0.9 1.5
-3 -2 0 2 1.7
3 -2 0 0.1 1.2
-3 2 0 0.3 1.2
3 -2 0 0.5 1.8
-4 2 0 1948.51 89.89
4 -2 0 1879.51 89.69
-4 -2 0 1847.12 90.49
-4 2 0 1896.51 90.29
4 2 0 1848.22 89.89
4 2 0 1829.52 90.29
4 -2 0 1793.02 90.59
5 2 0 4.5 2.8
5 -2 0 7.1 3.3
5 2 0 2.4 3
-5 -2 0 2.8 3
-5 2 0 5.8 3.1
6 -2 0 426.56 25.1
-6 -2 0 445.76 25.1
-6 2 0 461.05 24.9
0 2 -1 51.59 2.8
0 -2 -1 50.79 3
0 -2 -1 56.49 3.4
0 -2 1 51.39 3.6
0 2 -1 54.09 3
0 2 1 54.09 2.9
-1 -2 1 43.3 3.3
1 -2 -1 44.9 2.7
1 -2 -1 48.4 3.2
1 2 1 45.3 2.9
-1 2 -1 40.1 2.8
-1 2 -1 34.6 2.8
1 -2 1 40.7 3.1
1 2 -1 41.2 2.6
-1 -2 -1 41.7 3
-1 -2 -1 40.1 3.4
-1 2 1 44.6 2.8
1 2 -1 40.7 2.8
-2 -2 1 13.9 2.2
-2 -2 1 14.4 1.7
2 -2 -1 15.2 2.2
-2 2 -1 17.3 2.1
-2 2 -1 10.7 1.9
2 2 1 14.3 2.1
2 2 1 12.6 1.7
2 -2 -1 11.1 1.6
-2 -2 -1 15.7 2.3
2 2 -1 14 1.9
2 -2 1 15 2.4
2 -2 1 13.7 1.4
2 2 -1 14.5 1.8
-2 2 1 12 1.7
-2 2 1 14 1.8
3 -2 -1 66.89 4.6
-3 2 -1 76.09 4.8
-3 2 -1 74.39 5.1
-3 -2 1 72.59 5.2
3 2 1 69.49 5.2
3 -2 -1 67.49 5.2
-3 -2 1 71.09 4.5
3 2 1 64.59 4.6
3 -2 1 76.19 5.5
3 2 -1 67.59 4.8
-3 2 1 69.89 4.7
-3 -2 -1 68.49 5.3
-3 2 1 66.99 4.7
3 2 -1 66.19 4.8
3 -2 1 61.09 4.3
-4 -2 1 6.2 1.9
4 2 1 3.4 2.1
4 -2 -1 5.4 2.1
4 -2 -1 4.7 2.6
-4 2 -1 7.3 2.4
4 2 1 6.4 2.6
-4 -2 1 2.5 2.3
-4 2 -1 6 2.5
4 2 -1 2.1 1.9
-4 -2 -1 5.7 2.6
-4 2 1 3.6 2.2
4 -2 1 11.4 3
4 2 -1 10.7 2.6
-4 2 1 6.7 2
4 -2 1 5.1 2
-5 2 -1 305.67 17.3
5 -2 -1 280.87 17.2
5 2 1 295.47 16.5
-5 -2 1 322.87 17.4
5 -2 -1 289.57 16.3
5 2 1 307.07 17.4
-5 2 1 301.57 16.5
5 2 -1 307.97 16.8
5 -2 1 281.37 17.5
-5 -2 -1 307.97 17.4
-5 2 1 300.67 17
-6 -2 1 6 4.3
6 2 1 10.9 4.4
-6 2 -1 7.1 4.7
-6 -2 -1 2.2 4.1
6 2 -1 2.9 4.5
6 -2 1 5 4.2
0 -2 -2 466.45 23.6
0 2 2 481.75 23.2
0 -2 2 506.25 23.9
0 2 -2 481.05 23.3
0 -2 -2 469.35 23.3
0 -2 -2 477.35 23.1
0 2 -2 475.15 23.1
-1 -2 2 7.1 2.1
1 -2 -2 5.6 1.2
1 -2 -2 2.6 1.7
-1 2 -2 5.5 1.4
-1 2 -2 5.8 1.2
1 2 2 4 1.3
1 -2 2 5.3 1.5
-1 2 2 6.2 1.3
-1 -2 -2 6.1 1.9
1 2 -2 7 1.3
1 2 -2 5.2 1.2
-1 -2 -2 6.1 1.5
2 2 2 598.24 28.8
-2 -2 2 573.04 29.3
2 -2 -2 617.34 29.2
-2 2 -2 571.84 29.1
2 -2 -2 565.44 28.9
-2 2 -2 592.24 28.8
-2 -2 2 602.54 28.9
2 2 -2 585.04 29
-2 -2 -2 591.64 29.2
-2 2 2 600.74 29
-2 2 2 557.24 28.6
2 -2 2 601.04 29.4
3 -2 -2 8 1.8
-3 2 -2 2.6 1.8
3 2 2 5.3 1.6
3 2 2 9.1 2.3
3 -2 -2 8 2.2
-3 2 -2 5.3 2
-3 2 2 9 1.8
-3 2 2 8.9 1.7
3 2 -2 11.6 2.1
-3 -2 -2 10.1 2.3
3 -2 2 3.5 1.3
3 -2 2 4.5 2.3
-4 -2 2 159.78 9.9
4 -2 -2 170.18 9.6
-4 -2 2 163.18 9.3
4 2 2 162.38 10.3
4 -2 -2 161.48 10
-4 2 -2 162.08 10.1
-4 2 -2 122.99 9.4
4 2 2 155.78 9.3
-4 -2 -2 170.28 10.3
-4 2 2 161.38 9.5
-4 2 2 158.38 9.5
4 -2 2 150.78 10.4
4 2 -2 168.78 9.8
5 -2 -2 12.8 3
5 2 2 24.6 4.5
-5 -2 2 14.9 3.5
-5 2 -2 15.5 3.7
5 -2 2 12.1 3.9
-5 2 2 18 3.3
5 2 -2 20 3.6
-5 -2 -2 24.6 4.4
-6 -2 2 207.28 14.9
-6 2 -2 234.08 14.9
6 2 2 211.68 14.8
6 -2 2 197.98 14.8
6 2 -2 238.08 13.9
-6 -2 -2 203.48 14.5
0 -2 -3 132.49 7.8
0 -2 -3 134.19 7.4
0 -2 3 138.79 8.2
0 2 -3 129.79 7.2
0 -2 -3 144.19 7.3
0 2 -3 145.39 7.4
0 -2 -3 136.29 7.2
-1 2 -3 254.07 13.1
1 -2 -3 270.47 13.4
-1 -2 3 216.88 14.6
-1 2 -3 273.47 12.9
1 -2 -3 255.37 13.5
1 2 3 274.97 13.5
-1 2 -3 257.17 13.5
-1 -2 -3 246.18 12.8
1 -2 3 262.67 13.5
1 2 -3 257.07 13.3
-1 2 3 274.67 13.4
-1 -2 -3 269.27 13.4
-1 -2 -3 258.07 14
1 2 -3 257.47 13.3
-2 2 -3 252.27 13
-2 -2 3 275.17 13.4
-2 -2 3 275.17 14
2 -2 -3 251.77 13.4
-2 2 -3 244.08 13.5
2 2 3 254.57 13.4
2 -2 -3 220.78 13.8
2 2 -3 262.87 13.4
-2 2 3 245.28 13.3
2 -2 3 248.98 13.8
-2 -2 -3 256.67 14.4
-2 -2 -3 250.67 13.6
-3 -2 3 393.66 20.9
-3 2 -3 438.06 20.7
3 2 3 409.86 21.7
3 -2 -3 432.96 21.5
-3 -2 3 390.06 21.3
-3 2 -3 418.06 21.5
3 2 3 410.06 20.8
3 -2 -3 415.36 21.1
-3 2 3 387.76 20.7
3 2 -3 418.06 21.2
-3 2 3 396.46 21
3 -2 3 403.46 21.8
-3 -2 -3 411.16 21.5
-4 2 -3 43.4 5
4 -2 -3 37.4 4.3
4 2 3 28.8 4.8
-4 -2 3 42.1 4.8
4 -2 -3 44 6
-4 -2 3 37.2 4.1
4 2 3 28 4.7
-4 2 3 42 4.5
4 2 -3 49.99 5
-4 -2 -3 37.7 4.9
4 -2 3 31.3 5
-5 -2 3 85.79 6.9
5 -2 -3 89.99 7.2
5 2 3 101.19 9.4
-5 -2 3 92.59 7.9
-5 2 -3 99.39 8.2
-5 2 3 91.09 7.2
-5 -2 -3 91.89 8.3
5 2 -3 94.49 7.4
5 -2 3 101.29 9.7
-6 2 -3 38.7 6.7
6 -2 -3 36.4 6.8
6 2 3 36.3 6.8
-6 -2 -3 42 7.1
6 -2 3 29.7 6.9
6 2 -3 47.2 6.2
0 -2 -4 1780.92 88.09
0 -2 -4 1842.72 88.69
0 -2 -4 1876.51 88.09
0 -2 -4 1835.02 88.29
0 2 -4 1807.52 88.09
0 -2 4 1865.21 89.19
0 2 -4 1876.21 88.29
-1 2 -4 6.1 1.7
-1 2 -4 4 1.1
1 2 4 7.9 1.8
-1 -2 4 5.7 3.1
1 -2 -4 2.5 1.6
1 -2 -4 7.4 1.8
-1 2 -4 5.2 1.4
-1 -2 -4 6.6 2.3
-1 -2 -4 4.9 1.6
-1 2 4 5.4 1.6
1 -2 4 3.7 1.6
1 2 -4 6.9 1.7
-1 2 4 1.4 2
-1 -2 -4 3.4 1.2
1 2 -4 8.4 1.7
-2 -2 4 1058.29 52.19
-2 -2 4 1115.29 52.99
2 2 4 981.1 52.29
-2 2 -4 1065.09 51.69
2 -2 -4 1109.39 52.19
2 -2 -4 1065.49 52.19
-2 2 -4 1088.19 52.39
-2 -2 -4 1090.49 52.39
-2 2 4 1078.99 52.19
-2 -2 -4 1103.19 53.29
2 -2 4 991.5 51.59
2 2 -4 1093.79 52.19
2 -2 4 1061.49 52.59
-3 -2 4 12.8 2.6
3 2 4 9.8 2.4
-3 2 -4 16.5 2.3
-3 2 -4 11.2 2.7
-3 -2 4 11.3 2.9
3 2 4 10.4 3
3 -2 -4 8.2 2.3
3 -2 -4 15.2 3.6
-3 -2 -4 10.6 2.9
-3 2 4 12.9 2.5
3 -2 4 9.3 2.8
3 2 -4 12.7 2.6
-4 2 -4 1154.58 57.79
4 -2 -4 1206.18 57.29
4 2 4 1128.99 58.09
-4 -2 4 1085.69 57.29
-4 -2 4 1209.08 57.19
-4 -2 -4 1181.08 57.89
-4 2 4 1169.68 57.19
4 2 -4 1154.88 57.29
4 -2 4 1138.09 58.19
-5 2 -4 17.6 4.4
5 2 4 11.1 4.2
5 -2 -4 5.6 3
-5 -2 4 6.8 3
-5 2 4 5.2 2.7
-5 -2 -4 9.1 3.8
5 2 -4 9.2 3.2
5 -2 4 16.9 4.3
-6 2 -4 422.36 25.3
6 2 4 427.06 25.7
6 -2 -4 426.66 23.9
-6 2 4 413.96 23.6
-6 -2 -4 442.56 27.5
6 2 -4 428.26 24
6 -2 4 442.96 28.1
0 -2 -5 501.25 26.1
0 -2 -5 493.95 25.5
0 2 -5 524.95 25.6
0 -2 -5 526.15 25.6
0 -2 5 513.25 26.8
0 -2 -5 510.55 25.5
0 2 -5 511.35 25.4
1 -2 -5 50.09 4.5
-1 2 -5 47.6 3.5
-1 -2 5 42.3 6.2
-1 2 -5 49.8 4.2
-1 2 -5 43.1 3.6
1 -2 -5 49.8 4.6
-1 -2 -5 45.5 4.3
-1 2 5 43.4 5.3
1 2 -5 45.6 3.9
1 2 -5 46.9 4.2
-1 2 5 48.4 4.4
-1 -2 -5 45.2 4.1
-1 -2 -5 48.2 5.4
-1 -2 -5 41.5 3.4
1 -2 5 47 4.2
2 -2 -5 174.58 9.8
2 -2 -5 162.48 9.7
-2 2 -5 165.28 9.2
-2 -2 5 169.88 9.7
-2 2 -5 166.98 9.9
2 2 5 143.39 9.8
-2 -2 5 180.78 10.9
2 2 -5 171.38 9.7
-2 -2 -5 160.48 9.8
2 -2 5 167.28 10.2
-2 -2 -5 146.19 10.8
-2 2 5 161.88 9.7
3 -2 -5 33.9 4.3
3 2 5 29.1 4.6
-3 2 -5 40.7 4.8
-3 2 -5 39.3 4.3
-3 -2 5 30 4
-3 -2 5 29.9 4.6
-3 -2 -5 31 4.5
3 2 -5 45.1 4.7
3 -2 5 36.6 4.9
-3 2 5 37.5 4.3
4 -2 -5 118.99 8.4
-4 2 -5 115.39 8.9
4 2 5 124.79 9.6
-4 -2 5 109.29 8.2
4 -2 5 135.29 9.7
-4 2 5 112.29 8.2
4 2 -5 130.09 8.6
-4 -2 -5 108.89 8.9
5 2 5 208.28 14.7
-5 2 -5 216.58 14.1
-5 -2 5 209.68 12.9
5 -2 -5 205.68 13.2
-5 -2 -5 206.68 14
-5 2 5 198.58 12.9
5 2 -5 204.68 13.2
5 -2 5 214.18 14.9
0 2 -6 203.28 10.8
0 -2 6 179.58 12.1
0 2 -6 181.68 10.4
0 -2 -6 189.38 11.5
0 -2 -6 185.68 10.6
-1 2 -6 25.4 3.5
1 -2 -6 38.3 4.3
-1 -2 6 33.6 6
-1 2 -6 25.5 3
-1 2 -6 23.9 3.2
-1 2 6 27.1 4.9
1 2 -6 29.8 3.6
1 2 -6 24.2 3.3
1 -2 6 22.2 3.5
-1 2 6 43 4.2
-1 -2 -6 45.7 3.5
-2 -2 6 486.95 25.8
2 -2 -6 495.25 25.8
-2 2 -6 506.65 26
2 2 6 493.95 26
-2 -2 6 480.45 27
-2 2 -6 485.65 25.1
-2 2 6 512.95 25.9
2 -2 6 520.55 26.4
2 2 -6 498.35 25.8
-2 -2 -6 496.85 27.2
-2 -2 -6 510.05 26
-3 2 -6 8.2 3.2
3 -2 -6 14.2 2.9
3 2 6 26.6 4.5
-3 -2 6 14.7 2.9
3 2 -6 10.8 2.7
3 -2 6 5.5 3.1
-3 2 6 16.3 3.1
-4 2 -6 111.59 9.4
-4 -2 6 118.39 8.6
4 -2 -6 118.49 8.6
4 2 6 122.19 9.9
-4 -2 -6 107.49 9.1
4 -2 6 117.79 9.8
-4 2 6 104.29 8.4
4 2 -6 127.19 8.8
5 2 6 54.79 7.3
-5 -2 6 21 4.4
-5 2 -6 26.7 5.5
5 -2 -6 23.3 4.4
5 2 -6 27.6 4.7
-5 -2 -6 36 6.3
-5 2 6 20.8 4.3
5 -2 6 11.4 5.4
0 -2 -7 427.86 22.7
0 -2 7 444.96 24.6
0 -2 -7 407.66 23.5
0 2 -7 439.46 22.6
0 2 -7 450.75 22.8
0 2 7 453.15 22.9
0 2 7 447.76 24
1 -2 -7 0.2 1.8
-1 -2 7 -2.4 3.4
-1 2 -7 0.3 2.2
-1 2 -7 0.3 2
-1 -2 -7 7.8 3.5
-1 2 7 1.3 2.1
1 -2 7 1.2 2.2
-1 -2 -7 1.5 2
-1 -2 -7 3.7 2.1
1 2 -7 3.2 2.1
1 2 -7 4.8 2.3
-1 -2 -7 9.6 2.7
-2 2 -7 314.37 17.4
2 -2 -7 313.97 17.2
-2 -2 7 283.57 17.1
-2 2 -7 290.77 16.4
2 -2 7 323.17 17.8
2 2 -7 298.67 17
-2 -2 -7 316.77 17.3
-2 2 7 339.37 17.4
3 2 7 75.09 7.9
3 -2 -7 63.49 6.5
-3 -2 7 48.8 5.9
-3 2 -7 72.99 7.3
3 2 -7 61.39 6.4
-3 2 7 61.89 6.5
-3 -2 -7 58.89 6.9
3 -2 7 60.29 7.2
-4 -2 7 158.38 10.6
-4 2 -7 155.48 11.1
4 2 7 133.69 11.5
4 -2 -7 146.99 10.4
4 -2 7 149.49 11.9
-4 -2 -7 137.29 10.9
4 2 -7 137.19 10.3
-4 2 7 160.48 10.6
0 2 -8 755.42 37.6
0 -2 -8 739.73 37.5
0 2 -8 732.03 37.3
0 2 8 741.23 37.6
0 -2 8 753.62 39.8
-1 -2 8 11 6.7
-1 2 -8 14.5 2.9
1 -2 -8 7.9 2.6
-1 2 8 4.4 2.8
-1 -2 -8 3.1 4.1
1 2 -8 11.6 3
1 2 -8 11.4 2.8
-1 -2 -8 9.6 3.1
2 2 8 586.04 30.3
2 -2 -8 574.24 29.4
-2 -2 8 517.65 29.4
-2 2 -8 538.95 29.6
-2 2 8 544.35 29.4
2 2 -8 578.34 29.4
-2 -2 -8 568.24 29.6
2 -2 8 576.54 30.1
3 2 8 21.4 5.4
3 -2 -8 18 4
-3 2 -8 25.4 4.7
-3 -2 8 19.4 4.2
3 -2 8 28.2 5.2
-3 -2 -8 21.8 4.7
-3 2 8 32.6 5
3 2 -8 29.1 4.5
4 2 8 513.95 29.4
-4 2 -8 494.05 28.6
-4 -2 8 492.95 27.9
4 -2 -8 510.75 30
-4 -2 -8 518.35 28.2
4 2 -8 501.15 28.9
4 -2 8 504.65 29.3
-4 2 8 511.95 29.4
0 2 -9 221.18 13.9
0 2 9 245.08 14.4
0 -2 9 232.58 18.4
0 -2 -9 242.78 14.1
-1 -2 9 3.1 3
1 -2 -9 8.1 3
-1 2 -9 7.6 3.2
1 -2 9 8.9 5.4
1 2 -9 4.3 2.8
-1 2 9 11.1 3.7
2 -2 -9 365.06 20.2
-2 2 -9 356.46 20.6
-2 -2 9 327.07 20.2
2 2 9 375.56 21.5
-2 2 9 368.06 20.5
-2 -2 -9 329.37 20.7
2 2 -9 382.86 20.3
3 2 9 71.09 9.3
-3 -2 9 69.59 8.7
-3 2 -9 78.09 8.6
3 -2 -9 69.59 7.7
-3 2 9 72.19 8.2
-3 -2 -9 72.59 8.2
3 -2 9 80.49 9.6
3 2 -9 69.09 7.8
0 2 -10 143.29 10.2
1 -2 -10 15.2 3.8
-1 -2 10 12.1 4.1
-1 2 10 21 5
2 2 -10 204.98 13.4
2 -2 10 211.78 17.2
0 -3 0 -0.3 1.3
0 -3 0 1.5 1.5
0 3 0 -0.3 0.8
0 3 0 1.1 0.9
-1 -3 0 4778.12 225.18
-1 3 0 4598.34 224.78
-1 3 0 4927.11 224.98
1 -3 0 4574.04 224.68
-1 -3 0 4762.92 224.98
1 3 0 4871.21 224.98
1 -3 0 4647.53 225.18
2 -3 0 0 1.3
2 3 0 -0.5 1
-2 3 0 1.5 1.1
-2 -3 0 -0.5 1.3
-2 3 0 0.4 1
2 3 0 -0.7 1
2 -3 0 -0.6 0.7
3 -3 0 1734.03 85.49
3 3 0 1844.62 85.89
-3 -3 0 1719.23 86.29
-3 3 0 1762.42 85.89
3 -3 0 1785.52 86.39
-3 3 0 1875.21 85.89
3 3 0 1774.02 85.99
4 3 0 4.9 2.3
-4 3 0 0.4 1.9
4 -3 0 2.9 1.7
-4 -3 0 1.4 2.2
4 3 0 3.7 1.9
-4 3 0 4.2 1.8
4 -3 0 3.3 2.4
5 3 0 947.71 46.3
-5 -3 0 891.41 47
-5 3 0 968.2 46.3
5 3 0 905.41 46.7
5 -3 0 903.81 47.2
-5 3 0 946.11 46.6
-6 -3 0 8.4 4.5
6 -3 0 6.3 4.4
0 -3 -1 0.9 0.8
0 3 -1 0.2 0.6
0 -3 1 0 0.8
0 3 -1 0.2 0.8
0 3 1 0.7 0.6
0 -3 1 0.6 1.6
0 -3 -1 3.3 1.4
1 3 1 364.16 19.2
-1 -3 1 390.26 19.5
1 -3 -1 394.06 18.9
1 -3 -1 426.66 19.5
-1 3 -1 358.96 19.1
-1 3 -1 400.46 19.1
1 3 -1 404.26 18.9
1 -3 1 373.46 19.3
-1 -3 -1 392.06 19.2
-1 -3 -1 380.26 19.4
1 3 -1 368.26 19
-1 3 1 394.36 19
2 -3 -1 226.78 12
2 -3 -1 241.48 12.5
-2 -3 1 241.78 12.6
2 3 1 236.38 12.2
-2 3 -1 260.67 12.4
-2 -3 1 223.38 11.9
-2 3 -1 224.78 12.2
2 3 -1 233.18 12.2
-2 3 1 234.78 12.1
2 -3 1 240.98 12.7
-2 -3 -1 236.28 12.5
-2 -3 -1 237.28 12.9
-2 3 1 224.08 11.9
-3 -3 1 225.58 11.8
3 -3 -1 221.28 11.9
-3 3 -1 244.08 12.3
3 3 1 228.58 12.5
-3 3 -1 232.28 12.4
3 -3 -1 227.38 12.6
-3 -3 1 228.18 12.6
3 3 1 239.98 12.2
3 3 -1 224.08 12.2
3 -3 1 233.08 12.9
3 -3 1 212.88 11.5
-3 -3 -1 222.68 12.6
-3 3 1 229.78 12
-3 3 1 217.68 12
3 3 -1 213.28 12
4 -3 -1 206.68 11.5
-4 -3 1 211.28 11.3
-4 3 -1 205.98 12.1
4 -3 -1 228.48 12.6
4 3 1 203.88 11.6
-4 3 -1 224.58 11.9
4 3 1 199.68 12.2
-4 -3 1 199.38 12.2
4 3 -1 196.18 11.8
-4 3 1 192.78 11.6
-4 3 1 216.18 11.8
4 -3 1 213.58 12.7
-4 -3 -1 203.08 12.4
4 3 -1 209.68 11.9
5 3 1 74.29 7.6
-5 -3 1 77.89 7.1
5 -3 -1 79.59 7.7
-5 3 -1 80.09 7.1
5 3 1 72.79 6.4
5 3 -1 71.49 6.4
-5 3 1 73.59 6.1
-5 3 1 81.09 6.9
-5 -3 -1 87.49 8.1
5 -3 1 71.79 7.9
-6 3 -1 251.87 15.7
6 3 1 226.28 18.4
-6 -3 1 240.68 15.9
6 -3 1 215.98 15.7
6 3 -1 245.88 15
-6 -3 -1 260.97 15.9
0 -3 2 2.3 1.7
0 3 -2 -0.2 0.7
0 -3 -2 0.7 0.9
0 -3 -2 1.5 1.4
0 3 2 0.2 0.7
0 3 -2 0.5 0.9
-1 3 -2 282.27 14.6
1 3 2 303.17 14.9
1 -3 -2 291.97 14.5
-1 3 -2 301.27 14.5
1 -3 -2 245.08 14.9
-1 -3 -2 289.57 15.1
1 3 -2 288.27 14.5
-1 -3 -2 292.67 14.6
1 3 -2 283.27 14.4
-1 3 2 303.17 14.6
1 -3 2 291.97 14.7
2 -3 -2 7.4 2.1
2 -3 -2 4.2 1.4
-2 3 -2 2.6 1.5
2 3 2 6.9 1.6
-2 -3 2 5.3 1.4
-2 3 -2 5.5 1.5
-2 -3 2 4.1 1.9
-2 -3 -2 3.7 1.7
2 -3 2 6.7 2.1
-2 3 2 5.6 1.4
2 3 -2 3.1 1.5
-2 -3 -2 3.5 2.3
3 3 2 480.15 24.5
-3 3 -2 485.45 24.3
3 -3 -2 465.65 24.4
3 -3 -2 471.95 23.9
-3 3 -2 437.36 24
3 3 2 483.65 23.9
-3 -3 2 489.65 23.8
-3 -3 2 487.95 24.5
-3 -3 -2 489.35 24.5
-3 3 2 444.96 23.6
3 3 -2 477.85 24.1
3 -3 2 475.65 24.8
-3 3 2 487.15 24
4 3 2 -1.2 1.9
-4 -3 2 3.6 1.9
-4 3 -2 8.8 2.7
4 3 2 3.5 2.6
4 -3 -2 3.7 1.9
-4 3 -2 3.5 2.5
4 -3 -2 6.5 2.8
-4 -3 2 1.9 2.3
-4 -3 -2 3.1 2.4
-4 3 2 5.1 2
4 3 -2 3.2 2.1
-4 3 2 6.3 2.4
4 -3 2 5.3 2.9
5 3 2 398.26 21.4
-5 -3 2 371.36 20.9
5 -3 -2 342.37 20.8
-5 3 -2 389.76 21
5 -3 -2 371.46 20
5 3 -2 368.96 20.5
5 -3 2 374.06 21.7
-5 3 2 379.76 20.2
-5 -3 -2 378.66 21.2
-6 3 -2 33.4 5.3
-6 -3 2 13.6 4.6
6 3 2 9.9 4.6
-6 -3 -2 10.4 4.4
6 3 -2 5 4
0 -3 -3 1 1
0 -3 3 0.1 1.7
0 -3 -3 1 0.9
0 -3 -3 0.6 1.5
0 3 -3 -1.1 0.9
0 3 3 0.2 0.9
0 3 -3 0.3 0.8
-1 3 -3 6.8 1
-1 3 -3 6.1 1.6
1 -3 -3 9.3 2.1
-1 -3 3 8.6 3
1 -3 -3 6.7 1.5
1 3 3 8.4 1.7
-1 3 -3 6.8 1.4
1 3 -3 7.2 1.5
-1 -3 -3 5.4 2.2
1 3 -3 9.3 1.7
1 -3 3 6 1.7
-1 -3 -3 7.9 1.7
-1 3 3 6.8 1.5
-2 3 -3 75.39 5.7
2 -3 -3 84.99 5.5
-2 -3 3 94.29 6.4
2 -3 -3 79.49 6.4
2 3 3 77.59 5.6
-2 3 -3 95.79 5.3
2 3 -3 83.89 5.5
-2 3 3 84.59 5.5
2 -3 3 95.59 6.1
-2 -3 -3 86.19 6.7
-2 -3 -3 84.79 5.8
-3 3 -3 2.5 1.9
3 3 3 2 1.6
-3 -3 3 3.3 2.2
-3 -3 3 1.8 1.6
3 -3 -3 1 1.5
-3 3 -3 3.6 1.7
3 3 3 0.2 1.8
3 -3 -3 3.3 2.5
-3 3 3 1.9 1.4
-3 3 3 0.3 1.3
3 -3 3 -0.3 2.1
3 3 -3 4 1.8
-3 -3 -3 -0.4 2
4 3 3 269.07 15.9
-4 -3 3 261.87 14.8
-4 3 -3 261.17 15.1
-4 -3 3 267.17 15.6
-4 3 -3 277.27 15.7
4 -3 -3 268.87 15
4 3 3 255.47 14.7
4 -3 -3 282.17 15.8
4 -3 3 295.97 16.4
-4 -3 -3 287.57 15.9
4 3 -3 270.27 15.3
-4 3 3 293.57 15.2
5 -3 -3 -0.5 2.4
-5 3 -3 -2.4 2.8
5 3 3 2.5 3.5
-5 -3 3 3.7 3.3
-5 -3 -3 -0.2 3.1
5 3 -3 -0.5 2.6
-5 3 3 -2.7 2.1
5 -3 3 -0.7 3.5
6 3 3 135.29 11.7
-6 3 -3 134.69 11.4
6 3 -3 139.39 10.5
-6 -3 -3 154.98 12
6 -3 3 124.29 11.8
-6 3 3 134.49 10
0 3 -4 -1.3 1.1
0 3 -4 0.7 1
0 -3 -4 1.3 1.2
0 3 4 1 1.1
0 -3 4 1.7 2.2
0 -3 -4 -2.4 1.5
0 -3 -4 -1.8 1
1 3 4 2614.54 121.59
1 -3 -4 2597.64 121.49
-1 3 -4 2580.74 120.89
-1 3 -4 2567.04 121.29
-1 3 -4 2544.35 121.59
1 -3 -4 2486.55 121.69
-1 -3 4 2573.94 123.49
-1 3 4 2524.05 121.39
-1 -3 -4 2410.56 120.89
-1 -3 -4 2508.45 121.39
1 3 -4 2537.75 121.39
1 -3 4 2568.04 121.59
-1 -3 -4 2479.45 122.19
1 3 -4 2532.45 121.39
-2 3 -4 -0.2 1.4
-2 -3 4 1 2.1
-2 3 -4 -0.4 1.2
2 -3 -4 2.6 1.8
2 3 4 4.3 2.1
2 -3 -4 1.3 1.5
-2 3 4 0.2 1.3
-2 -3 -4 -0.7 2.3
-2 -3 -4 2 1.8
2 3 -4 2.8 1.5
2 3 -4 2.5 1.4
2 -3 4 -0.6 1.6
-3 3 -4 1368.06 68.29
3 -3 -4 1423.46 68.09
3 3 4 1388.66 67.79
3 3 4 1395.86 68.59
-3 3 -4 1440.76 67.49
-3 -3 4 1410.36 68.59
-3 -3 4 1419.96 67.99
-3 -3 -4 1375.76 68.39
3 3 -4 1350.26 67.99
3 -3 4 1362.26 68.69
-3 3 4 1406.66 68.09
4 3 4 7.7 3
-4 -3 4 8.7 2.8
4 -3 -4 4.4 2.4
-4 3 -4 4.5 2.7
-4 -3 4 11.9 2.7
4 3 -4 7.8 2.6
-4 -3 -4 9.5 3.5
4 -3 4 0.6 3.1
-4 3 4 8.4 2.5
-5 3 -4 746.23 38.1
5 -3 -4 755.72 37.2
-5 -3 4 698.53 36.8
5 3 4 705.03 38.3
5 -3 4 733.43 38.8
5 3 -4 710.93 37.2
-5 -3 -4 709.93 38.1
-5 3 4 723.63 37.1
6 -3 -4 7 4.2
-6 3 -4 19.9 5.2
6 3 4 19.1 6.1
6 3 -4 19.1 4.8
-6 3 4 10.8 4.2
0 3 -5 2.3 1.5
0 3 -5 -1.1 1.2
0 -3 -5 0.7 1.4
0 -3 -5 -0.6 1.9
0 -3 5 1.8 2.4
0 3 5 0.8 1.4
0 -3 -5 1.7 1.3
1 -3 -5 680.63 34.2
-1 3 -5 702.73 33.8
-1 3 -5 675.23 34.2
-1 3 -5 713.13 33.4
-1 -3 5 707.93 36.2
1 3 5 699.83 34.2
1 -3 -5 670.73 34
1 -3 5 687.13 34.1
1 3 -5 689.73 33.9
-1 -3 -5 709.03 35
-1 -3 -5 653.93 33.9
1 3 -5 671.13 33.9
-1 -3 -5 663.63 33.4
-1 3 5 660.63 33.9
-2 3 -5 88.19 5.7
2 -3 -5 85.39 6.2
2 -3 -5 85.69 6.4
2 3 5 86.79 6.7
-2 -3 5 89.99 7.5
-2 3 -5 87.09 6.4
-2 3 5 85.99 6.1
2 3 -5 93.19 6.1
-2 -3 -5 90.79 7.6
2 -3 5 94.89 6.7
-2 -3 -5 91.79 6.5
2 3 -5 86.19 6.1
-3 3 -5 440.36 22.6
-3 -3 5 428.96 22.8
-3 3 -5 423.66 21.4
3 3 5 386.06 21.9
-3 -3 5 426.76 22.1
3 3 5 408.26 22.7
3 -3 -5 431.16 22.2
3 -3 5 415.06 22.8
-3 3 5 428.76 22.2
3 3 -5 404.26 22
-3 -3 -5 418.16 22.4
4 -3 -5 120.49 8.1
-4 -3 5 114.59 8
4 3 5 118.39 9.2
-4 3 -5 97.69 8.5
-4 -3 5 101.49 8.6
4 -3 5 104.69 9.1
-4 3 5 105.99 7.9
4 3 -5 108.79 8
-4 -3 -5 114.59 8.8
-5 3 -5 280.67 17.5
5 3 5 323.27 18.4
-5 -3 5 276.47 16.3
5 -3 -5 276.67 16.6
-5 3 5 286.27 16.6
-5 -3 -5 265.37 17.4
5 3 -5 290.47 16.8
5 -3 5 261.47 18
0 -3 -6 3 1.8
0 -3 -6 4 1.8
0 -3 6 0.8 2.7
0 3 -6 4.3 1.7
0 -3 -6 3.7 2.4
0 3 6 2.8 1.8
0 3 -6 4 1.7
-1 -3 6 323.57 19.1
-1 3 -6 283.37 16.1
1 3 6 315.47 16.7
-1 3 -6 301.27 16.6
1 -3 -6 293.97 16.8
1 -3 -6 314.97 16.5
-1 -3 -6 303.97 17.6
1 -3 6 307.37 16.6
1 3 -6 307.97 16.3
-1 -3 -6 317.37 16.4
-1 -3 -6 296.37 15.9
-1 3 6 311.87 16.5
1 3 -6 326.77 16.5
-2 -3 6 5.8 3.5
2 3 6 7.8 2.7
2 -3 -6 5 2.1
-2 3 -6 10 2.8
2 3 -6 8.7 2.3
-2 3 6 3.2 1.9
-2 -3 -6 5.2 2.5
2 -3 6 3.4 2.3
-2 -3 -6 7.8 3.6
-3 -3 6 371.46 20.2
3 -3 -6 378.56 20.3
-3 -3 6 356.36 20.9
3 3 6 380.06 21
-3 3 -6 353.96 20.4
-3 3 6 363.26 20.2
-3 -3 -6 412.36 20.7
3 3 -6 370.56 20.2
3 -3 6 366.66 20.9
-4 -3 6 8.2 3
4 -3 -6 5.6 2.8
4 3 6 9.5 3.9
-4 3 6 10.1 2.9
-4 -3 -6 5.8 3.5
4 3 -6 9.6 3.1
-5 -3 6 249.18 15.6
5 -3 -6 277.57 16.1
-5 3 -6 248.28 16.8
5 3 6 242.88 17.3
-5 -3 -6 247.98 16.7
5 3 -6 265.27 15.9
5 -3 6 264.17 17.8
-5 3 6 274.37 16
0 -3 7 -1.3 3.1
0 3 7 2.1 2
0 3 -7 2.2 2
0 -3 -7 4.4 2
0 3 -7 1.5 1.9
0 -3 -7 3.3 3.3
-1 3 -7 67.59 5.6
-1 -3 7 74.99 9.4
1 3 7 70.59 6.2
1 -3 -7 65.69 5.7
-1 3 -7 68.99 6.1
1 -3 7 67.59 6
-1 3 7 84.79 6
1 3 -7 82.09 5.9
-1 -3 -7 80.89 8.1
-1 -3 -7 66.09 5.8
1 3 -7 75.39 5.9
-2 3 -7 32.7 4.7
-2 -3 7 47.1 5.3
2 3 7 48.8 5.8
-2 -3 7 34.3 6.8
2 -3 -7 45.5 5.1
-2 3 -7 43.9 4.7
-2 -3 -7 38.7 6.7
2 3 -7 47 5.1
-2 3 7 50.99 5.4
2 -3 7 47.8 5.6
-2 -3 -7 42.1 5.1
-3 -3 7 73.89 7.4
-3 3 -7 70.19 7.5
3 3 7 84.09 8.4
3 -3 -7 77.99 7.3
-3 -3 -7 77.99 7.8
3 3 -7 73.59 6.6
3 -3 7 74.29 7.9
-3 3 7 74.19 7.3
4 3 7 77.39 8.9
4 -3 -7 79.69 7.9
-4 -3 7 92.29 8.3
-4 3 -7 83.99 8.8
-4 -3 -7 85.49 8.7
-4 3 7 76.49 8
4 -3 7 73.29 8.9
4 3 -7 80.59 8
0 3 -8 2.9 2.4
0 -3 -8 3.3 2.4
0 -3 8 4.6 4
0 3 8 8.3 2.8
1 -3 -8 924.41 45.4
1 3 8 939.61 45.8
-1 3 -8 893.81 45.1
-1 -3 8 893.21 48.7
-1 -3 -8 881.61 46.7
1 3 -8 917.71 45.4
1 3 -8 861.21 45.1
1 -3 8 898.41 47.3
-1 3 8 922.51 45.5
-2 -3 8 2.3 2.4
2 -3 -8 2.4 2.3
-2 3 -8 2.2 2.8
-2 3 -8 3.5 3.5
-2 -3 -8 10 3.5
-2 3 8 9.4 3
2 3 -8 1.7 2.6
2 -3 8 5.5 3.6
-3 -3 8 634.34 34.1
3 -3 -8 659.03 34.1
-3 3 -8 647.24 34.6
3 3 8 677.93 35.6
3 3 -8 663.83 34
-3 3 8 650.93 34.2
3 -3 8 644.84 34.9
-3 -3 -8 634.54 34.3
-4 -3 8 13 4.4
-4 3 -8 12.7 5.7
4 3 8 11.8 5.5
4 -3 8 11 5.6
4 3 -8 15.2 5.2
-4 -3 -8 15.3 5.2
0 -3 9 -1.1 5.1
0 3 9 3 3
0 3 -9 -1.6 2.7
0 -3 -9 5.3 2.9
1 -3 -9 494.55 26.8
-1 3 -9 491.55 26.4
1 3 -9 506.45 26.6
1 -3 9 483.95 29.2
1 3 -9 520.45 26.9
-1 3 9 519.15 27
2 3 9 7.7 4.6
2 -3 -9 15.5 3.7
-2 -3 9 9.4 3.5
-2 3 -9 18.3 4.4
2 3 -9 10.1 3.5
-2 3 9 14.7 3.9
3 3 9 433.76 25.4
3 -3 -9 431.56 27.1
-3 3 -9 403.76 23.9
3 3 -9 412.96 23.3
-3 -3 -9 392.66 23.6
-3 3 9 420.06 25.2
3 -3 9 435.76 25.1
0 -3 -10 4.2 3.5
0 3 -10 14.1 4
-1 -3 10 248.28 14.7
1 -3 -10 238.98 14.3
-1 3 -10 181.88 16.5
-1 3 10 229.18 14.7
1 -3 10 202.98 17.7
2 -3 10 11.8 7.2
2 3 -10 8.2 3.6
0 -4 0 16.5 2.3
0 -4 0 14.1 2.4
0 4 0 16.8 1.9
0 4 0 16.5 1.7
-1 4 0 1.6 1
-1 -4 0 3.6 1.6
1 4 0 3 1.2
1 -4 0 3.1 1.4
1 -4 0 2.2 0.7
-1 4 0 0.3 0.8
-1 -4 0 2.3 1.4
2 -4 0 352.56 18.5
2 4 0 378.66 18.2
-2 4 0 360.46 17.9
-2 -4 0 339.67 18.4
-2 4 0 363.86 18.1
3 4 0 2.4 1.5
-3 -4 0 2.5 1.9
3 -4 0 2.3 2
3 4 0 0.7 1.5
3 -4 0 0.9 1.2
-3 4 0 1.5 1.5
-3 4 0 1.4 1.5
4 4 0 76.69 5.8
4 -4 0 65.69 4.9
4 -4 0 66.59 6.5
-4 4 0 73.29 5.4
-4 4 0 76.59 5.7
-4 -4 0 62.19 5.9
4 4 0 63.69 5.4
5 4 0 10.1 3.6
5 -4 0 7 3.5
-5 4 0 9.6 3.2
5 4 0 11 3.1
-6 -4 0 155.48 11.6
6 -4 0 136.69 11.5
0 -4 1 104.39 5.7
0 4 -1 103.19 5.4
0 4 1 104.09 5.7
0 -4 -1 103.29 6.2
0 -4 1 109.79 6.6
0 4 1 101.19 5.4
0 4 -1 106.49 5.6
1 -4 -1 59.09 3.5
-1 -4 1 58.69 4.5
-1 4 -1 60.99 3.9
-1 4 -1 53.19 3.6
1 4 1 47.9 3.8
1 -4 -1 66.19 4.4
1 -4 1 57.69 4
1 4 -1 57.29 3.7
-1 -4 -1 57.99 4.2
-1 4 1 60.69 3.6
-1 -4 -1 58.09 3.9
1 4 -1 54.79 3.3
2 -4 -1 92.39 5.5
2 4 1 97.09 5.9
-2 4 -1 88.09 5.7
2 -4 -1 99.49 6.3
-2 -4 1 89.99 6.3
-2 4 -1 100.29 6.1
-2 -4 1 98.89 5.4
2 -4 1 100.19 6.3
-2 -4 -1 99.09 6.5
-2 4 1 98.69 5.7
-2 4 1 97.49 5.3
2 4 -1 92.29 5.8
-2 -4 -1 101.79 6.1
3 -4 -1 205.08 11.2
3 4 1 182.38 10.8
-3 4 -1 192.18 10.7
3 -4 -1 181.48 10.2
-3 4 -1 201.58 10.7
-3 -4 1 181.08 10
3 4 1 189.38 10.5
-3 -4 1 195.18 11.2
-3 4 1 198.58 10.5
3 4 -1 183.38 10.6
3 -4 1 215.58 11.5
-3 4 1 186.38 10.2
3 4 -1 184.08 10.3
-3 -4 -1 179.88 11
-4 4 -1 20.8 3.4
4 4 1 17.3 3
-4 4 -1 22.2 3.4
4 -4 -1 28.5 4.2
-4 -4 1 21.4 3.8
4 -4 -1 14.3 2.6
4 4 1 25.5 3.9
4 -4 1 21.9 4.1
4 4 -1 24.9 3.5
-4 -4 -1 26.2 4
-4 4 1 17.4 3
-4 4 1 18.8 3.1
4 4 -1 26.5 3.5
-5 -4 1 66.59 7.1
-5 4 -1 51.29 7
5 4 1 59.29 6.7
5 4 1 60.19 5.9
-5 4 -1 70.99 6.7
5 -4 -1 52.69 6.7
-5 4 1 58.09 5.9
5 4 -1 66.99 6.4
5 -4 1 51.59 6.7
-5 -4 -1 76.99 7.6
6 -4 -1 20.8 5.6
-6 -4 1 20.8 5.6
-6 4 -1 23.5 5.3
6 4 -1 24.6 4.9
6 -4 1 19.5 5.4
-6 -4 -1 38.2 6.1
0 -4 -2 6609.64 304.57
0 4 2 6484.05 303.87
0 4 -2 6239.58 303.77
0 -4 -2 6306.67 304.07
0 4 -2 6350.46 304.07
0 -4 2 6436.46 304.87
-1 -4 2 2.4 2.3
1 -4 -2 -1.4 1.7
-1 4 -2 2.5 1.3
1 -4 -2 2.1 1.1
1 4 2 4.6 1.7
-1 4 -2 2.5 1.2
1 -4 2 2.6 1.5
-1 -4 -2 2.6 1.4
1 4 -2 3.3 1.1
1 4 -2 3.3 1.2
-1 -4 -2 1.9 1.8
-1 4 2 2.4 1.1
2 -4 -2 8497.45 388.56
-2 4 -2 7380.36 388.46
-2 4 -2 8242.67 388.76
2 4 2 8005.1 388.76
-2 -4 2 8383.46 389.26
2 -4 -2 8524.25 389.16
-2 4 2 8263.67 388.56
2 -4 2 8334.37 389.16
-2 -4 -2 8084.99 389.36
-2 -4 -2 8216.48 388.86
2 4 -2 8185.88 388.36
2 4 -2 8036.9 388.66
3 4 2 15.7 2.5
3 -4 -2 16.8 2.5
3 -4 -2 15.2 3
-3 -4 2 11.6 2.7
-3 4 -2 14.7 2.7
3 4 2 14.2 2.7
-3 -4 2 13 2.1
-3 4 -2 15 2.8
3 -4 2 15.5 3.1
-3 4 2 17 2.5
3 4 -2 15.3 2.6
-3 4 2 8.4 1.8
-3 -4 -2 12.8 2.7
-4 -4 2 2645.84 125.09
4 -4 -2 2537.15 124.19
-4 -4 2 2529.35 123.99
4 4 2 2508.25 124.29
-4 4 -2 2668.03 124.89
4 4 2 2568.44 125.09
4 -4 -2 2596.14 125.09
4 4 -2 2668.83 124.69
-4 -4 -2 2480.35 125.09
4 -4 2 2575.74 125.49
-4 4 2 2681.33 124.49
-5 4 -2 4.3 3.2
5 4 2 5 3.7
-5 -4 2 6.1 3.2
5 4 2 7.7 3.7
5 -4 -2 10.5 2.9
5 -4 -2 5.3 3.6
5 4 -2 8.1 3.1
-5 -4 -2 0.5 3.1
-5 4 2 3.3 2.7
5 -4 2 8.1 4
-6 4 -2 1653.93 82.09
-6 -4 2 1696.63 82.09
6 4 2 1635.94 82.19
-6 -4 -2 1675.13 82.29
6 4 -2 1657.63 81.29
-6 4 2 1567.64 81.49
6 -4 2 1644.44 82.99
0 -4 3 132.49 8.4
0 -4 -3 129.79 7.8
0 4 -3 136.89 7.3
0 -4 -3 131.89 7.3
0 4 -3 125.59 6.9
0 4 3 131.89 7.1
1 -4 -3 60.09 4.7
-1 4 -3 61.69 4.1
1 -4 -3 60.29 4.2
-1 4 -3 55.49 4.2
-1 -4 3 58.29 6.6
1 4 3 62.59 4.4
-1 -4 -3 54.19 4.1
-1 4 3 64.19 4.1
1 4 -3 62.49 4.1
1 4 -3 61.69 4
1 -4 3 58.19 4.3
-1 -4 -3 68.49 5.1
2 4 3 260.47 16.1
-2 -4 3 330.17 17.1
-2 4 -3 314.77 16.3
2 -4 -3 301.47 17
2 -4 -3 313.17 16.1
-2 4 -3 329.97 15.9
-2 -4 -3 298.67 17
2 4 -3 296.17 16
-2 -4 -3 316.87 16.3
2 4 -3 308.27 15.9
-2 4 3 326.47 16.1
2 -4 3 311.07 16.6
3 -4 -3 400.96 21.1
-3 -4 3 390.56 20
3 -4 -3 376.26 20.1
-3 4 -3 389.56 20
3 4 3 367.16 20.6
-3 4 -3 392.26 20.5
-3 -4 3 388.56 20.9
3 4 3 390.66 20.2
-3 4 3 395.46 20.2
3 -4 3 410.86 21.1
-3 -4 -3 371.66 20.5
3 4 -3 394.56 20.3
-4 -4 3 114.69 7.7
-4 4 -3 135.39 8.1
-4 4 -3 126.79 8.6
4 4 3 113.69 7.8
4 4 3 123.89 8.8
-4 -4 3 129.19 8.8
4 -4 -3 111.09 7.8
4 -4 -3 122.39 8.9
4 -4 3 109.89 9
4 4 -3 112.59 8.1
-4 4 3 119.09 7.9
-4 -4 -3 114.09 8.7
-5 -4 3 7.1 3.6
5 -4 -3 -1.6 2.6
-5 4 -3 9.2 3.8
5 4 3 8 4
5 -4 3 6.7 3.8
-5 4 3 6.8 2.8
-5 -4 -3 9.9 3.9
5 4 -3 6.9 3.2
-6 -4 3 90.19 13.4
-6 4 -3 80.49 9.1
6 4 3 76.39 9.2
6 -4 3 70.09 9.4
-6 4 3 85.79 8.4
-6 -4 -3 86.29 9.5
6 4 -3 91.69 8.6
0 -4 -4 440.06 22.3
0 -4 4 411.46 22.8
0 4 4 427.16 21.4
0 -4 -4 429.66 21.7
0 -4 -4 440.76 21.3
0 4 -4 429.16 21.3
0 4 -4 433.66 21.6
-1 -4 4 1.7 3.4
1 -4 -4 1.1 1.3
-1 4 -4 1.4 1.4
-1 4 -4 2.5 1.3
-1 4 -4 1.6 0.9
1 4 4 1.6 1.1
1 -4 -4 4.6 2
1 4 4 2.3 1.5
-1 4 4 2.8 1.4
1 -4 4 0.8 1.4
-1 -4 -4 2.9 1.5
-1 -4 -4 2.5 2.3
1 4 -4 3.5 1.5
1 4 -4 1.3 1.3
2 -4 -4 54.49 5.2
-2 4 -4 68.79 4.6
2 4 4 51.29 5.4
2 -4 -4 63.39 4.8
-2 -4 4 57.79 6.4
-2 4 -4 54.79 4.7
-2 -4 -4 58.19 6.3
2 4 -4 64.19 4.7
2 4 -4 55.39 4.5
-2 4 4 60.29 4.6
2 -4 4 67.29 5.2
-2 -4 -4 67.49 5.1
3 -4 -4 26.8 4.7
3 -4 -4 21.5 3.2
-3 4 -4 34.4 4.2
-3 -4 4 21.4 3.3
3 4 4 20.7 3.3
-3 4 -4 26.4 3.2
3 4 4 27.1 3.9
-3 -4 4 23.6 4
-3 -4 -4 28 4
3 4 -4 29.9 3.8
-3 4 4 18 3.2
3 -4 4 23.5 4
-4 -4 4 243.78 13.5
4 4 4 242.28 14.6
4 -4 -4 235.28 13.6
-4 4 -4 241.08 14.3
-4 -4 4 213.28 14.1
4 -4 4 248.58 15
-4 -4 -4 256.47 14.6
4 4 -4 223.48 13.7
-4 4 4 224.28 13.5
-5 4 -4 34.4 5.3
5 -4 -4 19.1 3.8
5 4 4 24.4 5.1
-5 -4 4 21.2 4.9
-5 -4 4 19.6 3.8
5 4 -4 23.8 4.2
-5 4 4 29.7 4.2
-5 -4 -4 28.4 5.3
5 -4 4 26.5 5.5
-6 4 -4 92.09 9.8
6 4 4 86.09 10.2
-6 4 4 85.29 8.4
6 4 -4 94.59 9
0 -4 5 -2.4 2.3
0 -4 -5 3.8 1.6
0 -4 -5 2.7 2.2
0 4 -5 1.1 1.3
0 4 5 -0.6 1.3
0 4 -5 -0.8 1.3
0 -4 -5 3.5 1.6
1 -4 -5 27.1 3.4
-1 4 -5 26.7 3.5
-1 4 -5 30 2.7
1 4 5 31 3.6
1 4 5 28.3 2.8
-1 4 -5 25.2 3.1
-1 -4 5 37.5 6.6
1 -4 -5 32.6 4.1
1 4 -5 30.9 3.4
1 -4 5 27 3.3
-1 4 5 27.6 3.3
-1 -4 -5 34.9 3.6
1 4 -5 33.6 3.6
-1 -4 -5 36.2 4.7
2 -4 -5 0.1 2.1
-2 -4 5 5.7 3
2 4 5 5 2.4
2 -4 -5 -0.4 1.5
-2 4 -5 0.9 1.6
-2 4 -5 -0.5 1.8
2 -4 5 1.5 2
-2 -4 -5 0.5 2.2
-2 -4 -5 2.1 2.8
-2 4 5 -0.3 1.5
2 4 -5 0.7 1.6
2 4 -5 1 1.6
3 4 5 68.29 6.7
-3 4 -5 63.69 6.3
3 -4 -5 60.99 5.3
-3 4 -5 55.09 4.9
-3 -4 5 58.59 5.7
-3 -4 5 69.99 7.4
3 4 5 56.09 5.8
3 4 -5 70.89 6.3
-3 4 5 57.79 5.7
-3 -4 -5 61.69 6.3
3 -4 5 63.29 6.7
-4 -4 5 7.5 3.6
-4 -4 5 3.3 2.6
-4 4 -5 2.8 3.1
4 -4 -5 4.3 2.5
4 4 5 9.4 3.8
-4 4 5 8.5 2.9
4 4 -5 5.3 2.8
4 -4 5 7.9 3.8
-4 -4 -5 0.4 3.3
-5 4 -5 49.3 7.1
-5 -4 5 47.6 5.9
5 -4 -5 44.1 5.9
5 4 5 47.7 7.2
5 4 -5 58.19 6.6
5 -4 5 54.99 7.8
-5 -4 -5 54.89 7.2
-5 4 5 50.89 6.2
0 4 6 3654.93 178.48
0 -4 6 3745.43 180.48
0 4 -6 3776.52 178.78
0 -4 -6 3563.94 179.38
0 4 -6 3859.81 178.48
0 -4 -6 3819.62 178.88
1 4 6 25.6 3
-1 4 -6 21.4 3.1
-1 4 -6 22.4 3.6
1 4 6 16.5 3.1
1 -4 -6 20 3.7
1 -4 -6 20.7 3.1
-1 -4 6 14.9 5.1
-1 -4 -6 26.3 3.4
-1 -4 -6 18.6 4.2
1 4 -6 33.2 3.7
1 4 -6 20 3.1
1 -4 6 22.4 3.3
-1 4 6 25 3.3
2 4 6 2677.13 127.79
2 -4 -6 2725.23 127.39
-2 4 -6 2552.44 126.69
-2 4 -6 2567.24 127.49
-2 4 6 2680.93 127.39
-2 -4 -6 2677.03 127.29
2 -4 6 2554.14 127.49
2 4 -6 2686.53 127.19
-2 -4 -6 2697.53 128.79
2 4 -6 2601.24 127.19
-3 -4 6 11.5 4
-3 -4 6 17.1 3.4
-3 4 -6 12.3 3.4
3 4 6 10.5 3.6
-3 4 -6 10.1 2.8
3 -4 -6 14.2 3.2
-3 4 6 6.7 2.8
3 -4 6 6.5 3.5
-3 -4 -6 13.6 3.7
3 4 -6 12.3 3.1
4 -4 -6 1924.21 91.49
-4 -4 6 1859.11 91.29
-4 4 -6 1901.21 92.19
4 4 6 1853.51 92.59
4 -4 6 1878.41 92.79
-4 -4 -6 1837.42 91.89
-4 4 6 1857.31 91.39
4 4 -6 1823.42 91.39
-5 -4 6 48.2 6.2
5 4 6 62.29 8.5
-5 4 -6 62.09 7.9
5 -4 -6 61.89 7
-5 4 6 57.19 6.9
5 -4 6 55.59 8.4
5 4 -6 55.49 6.7
-5 -4 -6 55.99 8.1
0 4 7 211.68 12
0 -4 -7 200.88 13.2
0 4 -7 209.68 11.8
0 4 -7 212.58 12.1
0 -4 -7 207.08 12.2
0 -4 7 223.68 14.5
1 -4 -7 1.2 1.9
1 -4 -7 -1.9 3.9
1 4 7 1.5 2.3
-1 -4 7 0.1 4.3
-1 4 -7 1.1 2.1
1 -4 7 0.2 2.4
1 4 -7 0 1.9
-1 -4 -7 1.5 2.4
-1 4 7 1.8 2.1
1 4 -7 -0.9 1.9
-1 -4 -7 0.5 3.3
2 -4 -7 240.98 13.5
-2 4 -7 232.48 12.9
-2 4 -7 252.97 13.9
-2 -4 7 178.68 15.1
2 4 7 231.28 14
2 4 -7 215.48 13.2
-2 4 7 229.38 13.4
-2 -4 -7 224.28 13.4
2 -4 7 230.48 13.8
2 4 -7 229.08 13.3
-2 -4 -7 217.38 15.1
3 -4 -7 64.59 6.6
-3 4 -7 64.19 7.2
-3 -4 7 71.89 7.1
3 4 7 65.29 7.7
3 -4 7 68.89 7.8
3 4 -7 69.39 6.8
-3 4 7 69.89 6.9
-3 -4 -7 68.79 7.2
-4 4 -7 189.88 13.4
4 -4 -7 197.88 13
-4 -4 7 180.38 12.6
4 4 7 212.78 14.4
4 4 -7 193.48 12.7
-4 4 7 205.38 13
4 -4 7 200.48 14.5
-4 -4 -7 201.48 13.6
0 4 -8 365.56 19.5
0 -4 -8 358.56 19.4
0 4 8 355.86 19.3
0 -4 8 348.97 21.8
0 -4 -8 353.16 20.8
-1 4 -8 6.8 2.6
1 4 8 5.5 3.2
1 -4 -8 6.3 2.5
-1 -4 8 11 5.8
1 -4 8 11.6 4.7
1 4 -8 9.5 2.7
-1 -4 -8 17.4 5.1
1 4 -8 10.1 3
-1 4 8 6.9 2.7
-2 4 -8 93.49 8.3
-2 -4 8 100.89 8
2 -4 -8 114.39 8.1
-2 4 -8 97.49 7.6
2 -4 8 111.19 9.4
-2 -4 -8 103.59 8.4
2 4 -8 106.49 8
-2 4 8 106.39 8.2
-2 -4 -8 129.99 12
-3 -4 8 62.09 7.1
3 -4 -8 63.49 7
3 4 8 77.19 8.5
-3 4 8 67.99 7.1
3 4 -8 82.89 7.1
-3 -4 -8 77.79 7.7
3 -4 8 72.69 8.2
-4 -4 -8 250.77 17
4 -4 8 290.37 18.8
0 -4 -9 1 2.6
0 4 9 2.6 3.7
0 4 -9 -2.4 2.5
0 -4 9 -2.6 4.8
1 4 9 3.9 4.1
1 -4 -9 13.6 3.4
-1 4 -9 3.2 3
1 4 -9 7.5 3.3
-1 4 9 7.9 3.4
-1 -4 -9 10.3 5.5
1 -4 9 2.8 5
2 -4 -9 35.8 5.2
-2 -4 9 39.7 5.8
2 4 -9 35.7 5.4
-2 4 9 48.3 6.1
3 4 9 42.2 7.4
-3 4 -9 53.39 7.5
-3 -4 -9 49.1 7.2
3 4 -9 39.1 5.9
0 4 -10 1006.7 49.4
0 -4 -10 938.51 49.2
1 -4 -10 5 3.6
-1 4 -10 -0.7 3.4
1 -4 10 -1 6.5
-1 4 10 9.4 4.3
2 4 10 1063.59 57.89
2 4 -10 1029.1 52.79
0 5 0 0.6 1.1
0 5 0 1.2 1.1
0 -5 0 1.9 1.8
0 -5 0 -0.5 1.8
-1 -5 0 8935.01 419.06
-1 -5 0 8753.22 418.76
-1 5 0 8772.12 418.66
1 -5 0 8649.43 418.26
1 5 0 8938.71 418.76
-1 5 0 8703.73 418.36
1 -5 0 9007.6 418.96
2 -5 0 0.7 0.9
-2 5 0 0.8 1.1
-2 5 0 -1.7 1
-2 -5 0 1.2 1.7
2 -5 0 0.3 1.6
2 5 0 -2.7 1.1
-2 -5 0 1.4 1.8
-3 5 0 5268.97 251.47
3 5 0 5225.78 251.67
3 -5 0 5330.07 252.27
-3 -5 0 5396.46 252.17
3 5 0 5213.98 251.57
-3 5 0 5532.05 251.67
3 -5 0 5009.1 250.97
-4 -5 0 1.3 2.4
4 5 0 -0.4 1.8
4 5 0 2.8 2.2
4 -5 0 -0.5 2.6
-4 5 0 3.2 1.9
-4 5 0 1 2
-5 5 0 3067.99 142.69
5 5 0 2959 142.59
-5 5 0 2826.22 142.49
-5 -5 0 2937.61 143.49
5 -5 0 3008.3 143.69
6 5 0 -1.8 3.8
6 -5 0 1.4 4.3
-6 -5 0 -1.8 4
0 -5 1 0.3 1.3
0 -5 -1 -0.7 1.5
0 5 1 0.7 1.1
0 5 -1 -0.5 0.9
0 -5 1 -1.6 2
0 -5 -1 -0.3 1.1
0 5 -1 -0.3 0.8
0 5 1 0.1 0.8
-1 -5 1 1.8 1.8
1 5 1 2.3 1.4
1 -5 -1 3 1.9
-1 5 -1 2.5 1.4
1 -5 -1 1.5 1
-1 5 -1 1.5 1
1 5 -1 0.9 0.9
-1 -5 -1 4.1 1.6
1 5 -1 3.5 1.3
-1 -5 -1 0.7 1.6
-1 5 1 2.5 1
1 -5 1 1 1.4
-2 5 -1 2.7 1.4
2 -5 -1 4.5 1.3
2 5 1 4 1.5
2 -5 -1 2.4 1.8
-2 5 -1 4 1.8
-2 -5 1 2.8 1.9
2 -5 1 4.6 1.9
2 5 -1 2.9 1.1
-2 -5 -1 3.7 1.8
2 5 -1 4.7 1.6
-2 -5 -1 2.8 2.1
-2 5 1 1.3 1.2
3 -5 -1 1.2 1.9
-3 -5 1 0.2 1.2
-3 5 -1 0.2 1.5
3 5 1 0.4 1.6
3 -5 -1 1.7 1.4
-3 5 -1 -1.6 1.6
3 5 1 -2 1.4
-3 -5 1 0.1 2
-3 5 1 -1 1.3
-3 -5 -1 0.1 1.9
3 -5 1 -1 2
3 5 -1 -1 1.5
-3 5 1 -0.6 1.3
-4 -5 1 1.5 2.4
4 -5 -1 -0.4 2.6
-4 5 -1 -2.7 2.1
4 -5 -1 0.6 1.8
-4 5 -1 0.1 2
4 5 1 -1.4 2.2
4 5 1 0.1 2
-4 5 1 0.3 2
4 5 -1 -1 1.9
-4 5 1 2.3 1.9
-4 -5 -1 1.3 2.4
4 -5 1 0.9 2.5
-5 -5 1 2.3 3.3
5 5 1 1.9 2.8
-5 5 -1 2.3 2.9
5 -5 -1 2.4 3.4
5 5 1 3.8 3.3
-5 5 -1 -3.1 3.4
-5 -5 -1 -2.3 3.1
5 -5 1 2.9 3.5
5 5 -1 -3.2 2.5
-5 5 1 5.8 2.8
6 -5 -1 -3.2 4.2
-6 -5 1 1.5 4.3
6 5 -1 -1.1 3.7
-6 -5 -1 -0.6 4
6 -5 1 -0.3 4.4
0 5 2 2.1 0.8
0 5 -2 2.9 1.1
0 -5 -2 3.6 1.8
0 -5 2 4.5 2.2
0 -5 -2 1.3 1
0 5 -2 0.5 0.8
1 5 2 84.79 5.9
1 -5 -2 83.79 6.1
-1 5 -2 88.69 5.3
-1 -5 2 84.29 6.7
-1 5 -2 88.59 5.3
1 -5 -2 86.49 5.1
1 -5 2 86.09 5.5
1 5 -2 87.49 5.2
-1 -5 -2 93.39 5.4
-1 5 2 86.09 5.1
-1 -5 -2 78.89 5.9
1 5 -2 84.99 5
-2 5 -2 13 2.2
-2 5 -2 6.4 1.8
2 -5 -2 10.8 2.7
2 5 2 8.9 2
-2 -5 2 9.2 2.6
2 -5 -2 13.5 2.1
-2 -5 -2 16.3 3
-2 5 2 9.5 1.8
-2 -5 -2 9.1 2.2
2 5 -2 8.7 1.7
2 5 -2 8.3 1.9
2 -5 2 7.7 2.3
-3 -5 2 8.4 2.7
3 -5 -2 10.5 2.9
3 -5 -2 6.6 1.8
-3 5 -2 7.5 2.2
-3 -5 2 6.8 1.8
3 5 2 8.9 2.3
-3 5 -2 6 2.3
3 -5 2 13.3 3
3 5 -2 4.9 1.9
-3 5 2 6.8 1.9
-3 -5 -2 7.7 2.5
4 -5 -2 24.6 4.2
-4 -5 2 21.8 3.1
4 5 2 21.8 3.9
4 5 2 27.3 3.6
-4 -5 2 25.5 4.1
-4 5 -2 22.1 3.7
4 -5 -2 20.2 3.2
-4 5 -2 23 3.9
-4 5 2 24.3 3.5
-4 -5 -2 22.9 4.2
4 -5 2 26.2 4.6
4 5 -2 27.6 3.8
5 5 2 37.7 5.6
-5 -5 2 43.9 5.9
5 -5 -2 38.7 6
-5 5 -2 40.7 5.5
5 5 2 35.7 5
5 -5 2 44.7 6.3
-5 -5 -2 43.5 6.2
5 5 -2 39.3 5.3
-5 5 2 35.9 4.8
6 5 2 21.2 5.4
-6 5 -2 15.7 4.9
-6 -5 2 19.8 5.3
6 5 -2 20.8 4.8
6 -5 2 21.2 5.6
0 -5 -3 -0.6 1
0 -5 -3 -0.6 1.6
0 5 3 0.8 0.9
0 5 -3 0.9 0.9
0 5 -3 -0.1 1.1
0 -5 3 -0.8 2.1
1 -5 -3 1.4 1.3
-1 5 -3 3.2 1.5
-1 5 -3 0.4 1.3
1 5 3 4.2 1.6
-1 -5 3 -1.4 2.7
1 -5 -3 1.4 1.9
1 5 -3 0.5 1.2
-1 5 3 3.7 1.4
-1 -5 -3 2.6 1.5
1 5 -3 2.2 1.2
-1 -5 -3 5.1 2.3
1 -5 3 3.8 1.7
2 -5 -3 -3.5 2.3
-2 -5 3 3.1 2.2
-2 5 -3 1.9 1.7
-2 5 -3 2.3 1.6
2 -5 -3 1.7 1.5
2 5 3 5.5 2.1
2 -5 3 -1.1 1.8
-2 -5 -3 3.7 2.5
-2 -5 -3 1.1 1.7
2 5 -3 2.8 1.5
-2 5 3 0 1.4
2 5 -3 3.2 1.6
3 5 3 3.7 2.1
-3 5 -3 -0.8 1.9
-3 -5 3 0.8 1.6
3 -5 -3 1.1 2.5
-3 -5 3 0.2 2.2
3 -5 -3 0.6 1.6
-3 5 -3 1.4 1.8
-3 5 3 2.7 1.7
3 5 -3 -0.9 1.6
-3 -5 -3 2.5 3.2
-3 -5 -3 5.3 2.4
3 -5 3 1.9 2.4
4 5 3 1.9 2.4
-4 -5 3 3.6 2.9
-4 -5 3 1.3 1.9
-4 5 -3 -2 2.3
-4 5 -3 3.9 2.5
4 -5 -3 -3 2.9
4 5 3 -1.8 2.5
4 -5 -3 -2.8 1.7
4 -5 3 -2.8 2.6
-4 -5 -3 1.1 2.7
4 5 -3 -0.5 2
-4 5 3 1.6 2.1
-5 -5 3 3.8 3.8
5 5 3 2.3 3.4
-5 5 -3 5.3 3.4
5 -5 -3 0.4 2.6
5 5 -3 10 3.6
-5 5 3 2.9 2.9
-5 -5 -3 -0.1 3.4
5 -5 3 2.9 3.9
6 5 3 -3.1 4.3
-6 -5 3 0.3 4.7
-6 5 -3 2.8 4.5
6 -5 3 -0.8 5
-6 -5 -3 6.4 4.5
6 5 -3 -4 3.7
-6 5 3 4.6 3.6
0 5 4 -0.2 1.1
0 -5 -4 -2 1.1
0 5 -4 -0.9 1
0 -5 4 -1.8 2.3
0 -5 -4 2.7 2.2
0 5 -4 -1.1 1.2
1 -5 -4 5012.7 241.28
-1 5 -4 5049.69 241.38
1 5 4 5139.09 241.58
1 -5 -4 5109.09 241.78
-1 5 -4 5192.58 240.38
-1 5 -4 5180.68 241.18
-1 -5 4 4862.31 243.48
-1 -5 -4 4952.4 241.08
1 -5 4 4967.4 241.28
-1 5 4 5040.5 241.18
1 5 -4 5206.58 241.08
-1 -5 -4 4966.5 242.08
1 5 -4 5132.59 241.18
2 -5 -4 32.1 4.6
-2 -5 4 31.2 5.1
2 -5 -4 41.3 4.2
-2 5 -4 45.1 4.1
-2 5 -4 45.7 4.5
2 5 4 46.1 5.1
2 -5 4 34.8 4.4
2 5 -4 46 4
-2 -5 -4 50.99 4.8
2 5 -4 45.3 4.2
-2 -5 -4 52.19 5.8
-2 5 4 46.1 3.9
-3 5 -4 4000.1 189.98
3 -5 -4 4110.29 191.28
-3 -5 4 4134.39 191.38
-3 5 -4 3869.71 190.48
-3 -5 4 3971.7 190.08
3 -5 -4 3874.11 190.18
3 5 4 3809.72 190.28
-3 -5 -4 3858.01 191.58
-3 -5 -4 3992.1 190.58
-3 5 4 4058.69 190.38
3 5 -4 4050.19 190.38
3 -5 4 3966.9 190.98
4 5 4 25.1 4.1
-4 -5 4 33.4 5.2
4 5 4 31.7 5.1
-4 5 -4 22.1 4.4
-4 5 -4 26.9 4.1
-4 -5 4 29.3 4
4 -5 -4 29.1 4.1
-4 5 4 32.4 4.1
4 -5 4 23.6 5.1
-4 -5 -4 29.6 4.7
4 5 -4 32.1 4.3
-5 5 -4 2076.59 97.59
5 -5 -4 1935.41 96.39
5 5 4 1957.6 97.89
-5 -5 4 1990.8 97.39
5 -5 4 1983.2 98.29
-5 5 4 2001.6 96.79
5 5 -4 1954.1 96.89
-5 -5 -4 1943.61 97.69
6 5 4 30.4 7
-6 5 -4 18 6.2
-6 5 4 19.1 4.8
0 -5 -5 -0.4 1.4
0 -5 -5 0.6 2.3
0 -5 5 -0.9 2.7
0 -5 -5 0.8 1.4
0 5 -5 -3 1.2
0 5 -5 -1.9 1.2
0 5 5 -0.5 1.3
1 -5 -5 -0.6 1.4
1 -5 -5 3.7 2.5
1 5 5 2.1 1.4
-1 -5 5 6.7 4.2
1 5 5 2.7 1.9
-1 5 -5 2.5 1.9
-1 5 -5 2.3 1.6
1 5 -5 -1.1 1.5
-1 5 5 0.3 1.5
-1 -5 -5 4.1 2.9
-1 -5 -5 3.8 1.9
1 5 -5 0.5 1.5
1 -5 5 1.6 1.8
-2 5 -5 1.2 1.6
2 -5 -5 -1.5 2.3
2 5 5 0.7 2.4
-2 5 -5 -1.4 1.7
2 -5 -5 -0.4 1.5
-2 -5 5 0 2.7
-2 5 5 0.6 1.7
2 5 -5 0 1.6
-2 -5 -5 -0.4 1.9
-2 -5 -5 2.5 3
2 -5 5 2.4 2.2
2 5 -5 0.4 1.8
3 5 5 0.9 2.4
-3 -5 5 1.8 3.2
3 -5 -5 0.1 2
-3 -5 5 -0.4 1.9
3 -5 -5 0.7 3.1
-3 5 -5 0.6 2.4
-3 5 -5 0.9 2.1
-3 5 5 -2.9 1.8
3 5 -5 2.5 2
-3 -5 -5 0.2 4
-3 -5 -5 -0.9 2.6
3 -5 5 0.9 2.7
-4 5 -5 3.6 3.1
4 -5 -5 1 2.4
4 5 5 -0.8 3.1
-4 -5 5 2.9 3.4
-4 -5 5 1.3 2.4
4 5 -5 1.2 2.4
-4 5 5 4.5 2.8
-4 -5 -5 3.6 3.3
4 -5 5 2 3.4
-5 5 -5 0 3.6
5 5 5 -7.3 3.7
5 -5 -5 2 3.2
-5 -5 5 -1.4 2.8
-5 5 5 -3.6 2.7
5 5 -5 0.5 3
5 -5 5 2.4 4.3
-5 -5 -5 -4.1 3.8
0 5 -6 -0.7 1.5
0 -5 -6 1.5 2.9
0 -5 6 -1.2 3
0 5 -6 3.9 1.9
0 -5 -6 1.9 1.7
0 5 6 2.4 1.7
1 -5 -6 75.09 6.8
1 5 6 78.49 6.2
-1 5 -6 81.09 5.8
1 5 6 81.59 5.4
-1 -5 6 80.49 9.7
1 -5 -6 78.19 6
-1 -5 -6 79.59 5.9
1 5 -6 85.49 6
-1 5 6 84.79 5.9
1 -5 6 68.09 5.9
1 5 -6 81.69 5.8
-1 -5 -6 87.69 7.6
-2 5 -6 52.19 4.9
2 -5 -6 57.99 6.3
2 -5 -6 54.19 5.3
-2 -5 6 33.9 6.5
-2 5 -6 47.3 5.5
2 5 6 43.9 5.5
-2 5 6 51.59 5.2
-2 -5 -6 66.79 5.5
2 5 -6 57.39 5.5
-2 -5 -6 54.99 6.9
2 -5 6 49.9 5.6
2 5 -6 52.99 5.3
-3 -5 6 95.89 9.4
3 5 6 55.29 6.8
-3 5 -6 67.39 5.9
3 -5 -6 85.19 6.5
-3 5 -6 73.99 6.9
-3 -5 6 71.89 6.2
3 -5 6 80.99 7.3
-3 -5 -6 82.29 7.5
3 5 -6 73.49 6.5
-3 5 6 77.09 6.4
-4 -5 6 45.9 5.7
4 -5 -6 55.09 6.3
-4 5 -6 62.39 6.8
4 -5 6 55.39 7.4
-4 -5 -6 68.79 7.4
4 5 -6 58.09 6.5
-4 5 6 48 5.9
5 -5 -6 38.9 5.8
-5 5 -6 48.2 7.2
-5 -5 6 27.4 5.1
5 5 6 31.3 6.7
-5 -5 -6 43.5 7.2
5 5 -6 35.3 5.6
5 -5 6 40.5 7.6
-5 5 6 30.6 5.3
0 -5 7 1.4 3.4
0 -5 -7 1.3 3.1
0 -5 -7 0.2 1.8
0 5 -7 -3.5 1.9
0 5 7 2 2
1 -5 -7 7.3 3.5
-1 5 -7 7 2.7
1 5 7 4.6 2.9
1 -5 -7 6.1 2.5
-1 -5 7 3.6 5
1 -5 7 5.6 3.9
1 5 -7 9.3 2.7
-1 5 7 5.9 2.5
-1 -5 -7 2.3 3.6
1 5 -7 6.7 2.4
-2 -5 7 6 4.8
2 -5 -7 -2.1 2
-2 5 -7 -0.4 2.3
-2 5 -7 1.6 2.6
2 5 7 -1.4 3
-2 -5 -7 -0.8 2.7
-2 5 7 1.1 2.1
2 -5 7 1.3 2.9
2 5 -7 0.8 2.2
-2 -5 -7 4.5 4.1
2 5 -7 0.1 2.2
3 5 7 3.3 3.2
-3 -5 7 2.6 2.7
-3 -5 7 1.3 4.4
3 -5 -7 -0.3 2.3
-3 5 -7 3.8 3.5
-3 -5 -7 7.1 3.6
3 -5 7 2.6 3.6
-3 5 7 3.4 2.6
3 5 -7 2.4 2.5
-4 -5 7 1 3.1
4 5 7 4.6 4.4
-4 5 -7 2.4 3.7
4 -5 -7 1.8 2.9
-4 5 7 -2.4 3
4 -5 7 1.1 4.4
-4 -5 -7 9.5 4.2
4 5 -7 2.1 2.9
0 5 -8 -0.4 2.5
0 5 8 2.3 2.5
0 -5 8 3.5 4.5
0 -5 -8 2.2 2.4
0 -5 -8 0.1 3.8
1 5 8 1919.81 92.09
-1 5 -8 1842.62 91.29
1 -5 -8 1878.61 91.69
-1 -5 8 1819.62 95.19
-1 -5 -8 1901.11 93.19
1 -5 8 1877.01 93.89
-1 5 8 1955.7 91.69
1 5 -8 1855.21 91.29
1 5 -8 1858.01 91.59
2 -5 -8 29.9 4.7
-2 5 -8 31.5 5.2
2 5 8 27 9.2
-2 5 -8 38.2 4.9
-2 -5 8 26.5 7.5
-2 5 8 39.1 5.2
-2 -5 -8 31.2 6.8
2 5 -8 37.9 5.1
2 5 -8 48.4 5.7
3 5 8 1526.95 77.79
3 -5 -8 1557.34 76.79
-3 -5 8 1547.05 76.89
-3 5 -8 1544.35 77.29
3 -5 8 1590.34 77.89
-3 5 8 1562.24 76.89
-3 -5 -8 1508.95 76.89
3 5 -8 1583.04 76.79
4 -5 8 85.39 10.4
-4 -5 -8 77.49 8.9
0 -5 9 -2.4 4.9
0 5 -9 2.8 3
0 -5 -9 -2.8 2.4
1 -5 -9 1.4 2.7
1 5 9 1.1 3.8
-1 -5 9 1.3 7.1
-1 5 -9 0.3 3
1 5 -9 3.4 3.2
1 -5 9 -4.4 5.1
-1 5 9 0.6 3.1
-1 -5 -9 -3.7 4.8
-2 -5 9 -2.6 2.7
2 -5 -9 -0.9 2.8
2 5 -9 -0.9 2.9
2 -5 9 4.2 5.6
-2 -5 -9 -5.2 5.6
-2 5 9 0 3.3
3 5 9 -5.6 4.2
3 5 -9 1.3 3.2
0 5 -10 9.3 3.9
0 -5 10 8.7 7.8
0 -5 -10 7.3 3.6
-1 5 -10 127.99 10
1 -5 -10 137.79 10.3
-1 5 10 142.89 10.8
1 -5 10 143.79 15.2
2 5 10 60.39 9.1
0 6 0 134.79 7.4
0 -6 0 136.19 8.2
0 -6 0 141.59 8.1
0 6 0 141.89 7.6
-1 6 0 1.7 1
-1 -6 0 1.5 1.6
1 6 0 0.5 1.1
-1 6 0 0.2 1.2
-1 -6 0 2.1 1.7
1 -6 0 0.5 1.6
-2 -6 0 122.99 7.7
2 -6 0 129.39 6.8
-2 6 0 122.09 7.4
-2 6 0 119.09 7
2 6 0 135.79 7.7
2 -6 0 134.49 8
-2 -6 0 141.39 8.2
-3 6 0 0.6 1.4
-3 -6 0 3.6 2.2
3 -6 0 2.8 1.4
3 -6 0 3.4 2.4
3 6 0 -0.6 1.5
3 6 0 1.4 1.7
-3 6 0 -0.5 1.5
4 -6 0 20 4.2
4 6 0 15.5 3.2
-4 6 0 15.1 3
-4 6 0 15.9 3.1
4 6 0 14.4 3
-4 -6 0 17.4 3.7
-5 -6 0 1.3 3.3
5 6 0 4.4 2.8
5 -6 0 3.3 3.6
-5 6 0 6 3
-6 -6 0 77.09 9
6 6 0 70.09 7.7
6 -6 0 62.79 8.3
0 -6 1 8.1 1.9
0 6 1 8.3 1.7
0 -6 1 10.6 2.9
0 -6 -1 6.2 1.5
0 6 -1 8.5 1.4
0 6 -1 9.9 1.7
0 -6 -1 7.1 2.2
0 6 1 8 1.3
1 -6 -1 429.96 21.3
-1 6 -1 403.26 20.1
1 6 1 364.86 20.5
-1 6 -1 416.66 20.4
1 -6 -1 398.56 20
-1 -6 -1 420.66 20.5
-1 6 1 418.86 20.2
1 6 -1 429.76 20.3
1 6 -1 400.26 19.9
-1 -6 -1 400.16 20.7
1 -6 1 393.06 20.5
-2 -6 1 22.2 3.5
-2 6 -1 32.6 3.9
-2 6 -1 29.3 2.9
2 -6 -1 26 3.6
2 -6 -1 30.4 2.7
2 6 1 27.6 3.3
2 6 -1 30.4 3.2
2 6 -1 30 2.4
-2 -6 -1 27.2 3.7
-2 6 1 36.3 3.4
2 -6 1 34.2 3.9
-2 -6 -1 34.1 3.8
-3 -6 1 18.5 3.4
3 -6 -1 19.6 3.5
3 6 1 26.9 3.5
3 -6 -1 20.6 2.6
-3 6 -1 20.8 2.9
-3 -6 1 21.9 2.4
-3 6 -1 26.6 3.6
3 6 -1 21.1 3.1
3 -6 1 22 3.7
-3 6 1 21.7 2.5
-3 6 1 22.8 3
-3 -6 -1 27.1 3.5
4 -6 -1 19.7 2.9
4 6 1 17.9 3.5
-4 6 -1 20.1 3.8
-4 -6 1 22.9 4.1
4 6 1 17 3.4
4 -6 -1 23.9 4.3
-4 6 -1 17.8 3.3
4 6 -1 21.7 3.6
-4 6 1 26.6 3.7
4 -6 1 19.6 4
-4 -6 -1 16.1 3.8
-5 6 -1 188.68 11.6
5 6 1 180.58 11.3
5 -6 -1 176.08 12.3
5 6 1 175.38 11.8
-5 -6 1 166.18 11.9
-5 6 -1 172.68 12
5 6 -1 179.88 11.4
-5 -6 -1 178.08 12.3
-5 6 1 163.88 11.1
5 -6 1 203.98 12.8
6 -6 -1 8.8 5
-6 -6 1 16.4 5.4
6 -6 1 10.4 5.2
-6 6 1 13.7 4.7
-6 -6 -1 7.1 4.8
6 6 -1 12.4 4.4
0 6 2 2676.93 130.29
0 6 -2 2578.64 130.29
0 -6 2 2792.82 131.79
0 6 2 2668.63 130.79
0 -6 -2 2822.32 131.29
0 6 -2 2900.31 130.69
1 -6 -2 1.6 1.1
-1 6 -2 0.3 1.4
-1 -6 2 -0.6 2.4
1 6 2 2.8 1.8
-1 6 -2 1.1 1.3
1 -6 -2 -0.6 2.1
1 6 -2 2.2 1.2
-1 -6 -2 -0.6 1.4
1 -6 2 1.6 1.6
-1 -6 -2 3.7 2.1
-1 6 2 -0.6 1
1 6 -2 -0.5 1.1
-2 6 -2 4329.27 212.88
-2 -6 2 4648.53 213.88
-2 6 -2 4465.05 212.78
2 -6 -2 4577.84 212.68
2 -6 -2 4691.03 213.78
2 6 2 3855.11 212.88
2 -6 2 4517.45 213.38
-2 6 2 4549.24 212.78
-2 -6 -2 4401.06 213.48
2 6 -2 4391.36 212.38
-2 -6 -2 4519.75 213.08
2 6 -2 4634.14 212.88
-3 6 -2 10.9 2.5
3 6 2 6.3 2.3
-3 -6 2 10.5 2.9
3 -6 -2 11.8 3.1
3 -6 -2 6.7 1.9
-3 6 -2 10.4 2.7
-3 -6 2 9.1 2
-3 6 2 5.7 2
3 6 -2 9.7 2.3
-3 -6 -2 14 3.7
3 -6 2 11.3 3.1
-3 -6 -2 11 2.9
-4 6 -2 1691.63 84.09
-4 -6 2 1731.63 84.89
4 -6 -2 1696.43 83.59
4 6 2 1791.02 84.09
4 6 2 1700.73 84.49
4 -6 -2 1706.33 84.69
-4 6 -2 1795.02 84.39
-4 -6 -2 1695.93 84.69
-4 6 2 1723.23 83.99
4 -6 2 1790.02 85.19
4 6 -2 1700.73 84.09
5 6 2 10.4 3.8
-5 6 -2 6.9 3.4
5 -6 -2 7.3 4.2
-5 6 -2 10.8 4.1
-5 -6 2 12.7 4.2
5 6 2 5.9 3.4
-5 6 2 10.2 3.1
-5 -6 -2 11.1 4.2
5 6 -2 7.2 3.2
5 -6 2 2.7 3.7
-6 -6 2 1121.99 57.29
-6 6 -2 1132.99 56.79
6 6 -2 1105.99 56.39
-6 -6 -2 1091.19 57.39
6 -6 2 1132.39 58.19
-6 6 2 1119.69 56.19
0 6 -3 11.5 1.6
0 -6 -3 11.3 1.9
0 6 -3 14.6 2.1
0 -6 -3 9.9 2.6
0 6 3 11.1 1.6
0 -6 3 7.8 2.9
1 6 3 34.3 3.8
-1 6 -3 35.8 3.6
1 -6 -3 45.6 4.8
1 -6 -3 39.2 3.4
-1 -6 3 45.1 6
-1 6 -3 42.8 3.5
-1 -6 -3 44.6 4.8
1 6 -3 37.5 3.3
-1 -6 -3 35.8 3.3
1 -6 3 38.7 3.8
1 6 -3 38.9 3.3
-1 6 3 32.6 3.3
-2 6 -3 31.5 3.6
2 -6 -3 31.1 3.4
-2 -6 3 28.6 4.5
-2 6 -3 36.6 3.8
2 6 3 33.2 4
2 -6 -3 33.7 4.8
-2 6 3 29.7 3.3
-2 -6 -3 39.8 4.1
2 6 -3 30.3 3.5
2 -6 3 26.3 3.7
2 6 -3 35.2 3.3
-2 -6 -3 33.7 4.6
-3 6 -3 98.49 7
-3 -6 3 98.29 7.9
-3 -6 3 97.59 6.4
3 6 3 100.99 7
-3 6 -3 100.69 6.9
3 -6 -3 92.59 8.2
3 -6 -3 102.29 6.7
-3 -6 -3 107.89 8.4
3 6 -3 95.09 6.8
-3 -6 -3 106.19 7.4
-3 6 3 91.39 6.7
3 -6 3 108.39 7.8
-4 -6 3 6.6 3.4
-4 6 -3 11.8 3.2
4 -6 -3 10.2 2.7
4 6 3 11.7 3.7
4 6 3 9.7 3
4 -6 -3 10.3 4
-4 -6 3 7.4 2.5
-4 6 -3 14 3.6
-4 -6 -3 11 3.4
4 -6 3 6 3.5
4 6 -3 12.3 3.1
-4 6 3 11.4 2.9
5 -6 -3 84.59 12.7
5 -6 -3 87.29 7.3
-5 6 -3 97.59 8.2
5 6 3 94.69 9.3
-5 -6 3 79.69 8.6
-5 6 3 89.49 7.5
5 -6 3 90.99 9.6
-5 -6 -3 91.69 9.2
5 6 -3 93.59 7.7
-6 6 -3 9.4 5.4
-6 -6 3 4.6 5
6 6 3 4.8 4.9
-6 -6 -3 3.5 5.6
6 -6 3 0.7 4.9
6 6 -3 2.5 4
-6 6 3 2.1 3.6
0 6 -4 91.29 5.9
0 -6 -4 90.39 5.9
0 6 4 90.89 5.5
0 6 -4 95.69 5.5
0 -6 -4 96.99 6.9
0 -6 4 90.79 7.5
1 -6 -4 1.2 1.4
1 6 4 0.8 1.6
-1 6 -4 5.1 1.8
-1 -6 4 4.3 3.8
1 -6 -4 0.5 2
-1 6 -4 4.2 1.6
-1 -6 -4 1.5 2.6
-1 6 4 1.2 1.5
1 -6 4 1.3 1.7
1 6 -4 0.2 1.4
-1 -6 -4 0.6 1.7
1 6 -4 2.3 1.5
-2 6 -4 13.7 2.6
-2 -6 4 3.9 3
2 6 4 3.4 2.4
-2 6 -4 8.6 2.3
2 -6 -4 7.8 2.1
2 -6 -4 4.8 2.6
2 6 -4 9.3 2.3
2 -6 4 10.2 2.8
-2 6 4 9.1 2.1
-2 -6 -4 7.4 2.5
-2 -6 -4 5.9 3.1
2 6 -4 6.5 2
3 -6 -4 33.9 4.1
3 6 4 32.7 4.5
-3 -6 4 41.6 4.3
3 -6 -4 38.2 5.6
-3 6 -4 44.5 4.8
-3 6 -4 42.9 4.5
-3 -6 4 30.4 5.2
-3 -6 -4 32.2 4.7
3 -6 4 34.3 5
-3 -6 -4 41.6 6.1
-3 6 4 36.1 4.3
3 6 -4 36.9 4.4
-4 -6 4 41.2 4.7
4 6 4 40.5 5.5
-4 6 -4 39.4 5
4 6 4 39.8 5.1
-4 -6 4 45.9 6.1
-4 6 -4 40.8 5.6
4 -6 -4 45.3 4.8
4 -6 -4 27.8 6.5
4 -6 4 37.3 5.8
-4 -6 -4 34.4 5.3
-4 6 4 27.6 4.2
4 6 -4 42.5 5.2
-5 6 -4 12.7 4.4
-5 -6 4 11.7 4.6
5 -6 -4 17 3.7
5 6 -4 14.3 3.9
-5 -6 -4 19.6 4.9
5 -6 4 9.6 4.9
-5 6 4 13.5 3.8
-6 6 -4 41.9 9
0 -6 5 198.08 12.7
0 6 5 185.18 10.5
0 6 -5 172.58 10.7
0 -6 -5 207.08 12
0 6 -5 199.98 10.5
0 -6 -5 204.78 11
1 6 5 103.89 6.8
1 -6 -5 131.79 7.8
-1 -6 5 116.09 10.5
1 -6 -5 127.09 8.6
-1 6 -5 120.89 7.5
1 6 5 126.29 8
1 6 -5 125.99 7.4
1 -6 5 111.19 7.6
1 6 -5 130.69 7.6
-1 -6 -5 126.99 7.5
-1 -6 -5 116.79 8.7
-1 6 5 118.19 7.4
-2 6 -5 79.89 5.8
2 -6 -5 85.39 6.1
-2 -6 5 59.09 7.6
-2 6 -5 83.99 6.4
2 6 5 92.59 7.2
2 -6 -5 81.89 7.1
2 6 -5 77.59 6
-2 -6 -5 76.09 8
2 -6 5 91.49 6.6
-2 6 5 83.49 6
-2 -6 -5 82.49 6.4
2 6 -5 78.89 5.9
3 6 5 0.6 2.7
-3 6 -5 5.9 2.7
-3 -6 5 9.5 4
3 -6 -5 5 2.3
3 -6 -5 5.5 3.5
-3 -6 5 8.7 2.7
-3 6 -5 13.2 3.4
3 6 -5 11 2.9
-3 -6 -5 5.8 3.3
3 -6 5 4.1 3.2
-3 6 5 6.5 2.5
-3 -6 -5 2.3 4.1
-4 -6 5 166.38 11.8
-4 6 -5 157.88 10.7
4 -6 -5 153.28 10
4 6 5 129.49 10.6
-4 -6 5 165.18 10
-4 6 5 142.19 9.9
4 6 -5 131.39 9.8
-4 -6 -5 141.79 10.8
4 -6 5 153.38 11.4
5 6 5 114.79 10.5
-5 6 -5 124.69 10.3
-5 -6 5 116.89 11.5
5 -6 -5 124.09 9.4
-5 6 5 91.79 9.2
5 6 -5 117.09 9.2
-5 -6 -5 122.69 11.2
5 -6 5 128.29 11.3
0 6 -6 2323.37 107.59
0 6 6 2115.39 107.09
0 -6 -6 2197.38 107.59
0 -6 6 2277.57 109.59
0 -6 -6 2219.08 108.49
0 6 -6 2255.07 106.99
1 6 6 39.9 4.7
1 -6 -6 38.4 5.2
-1 6 -6 34.8 4.1
1 -6 -6 35.1 4.2
-1 -6 6 27.4 6.4
-1 6 6 40.6 4.2
1 6 -6 33.2 3.9
1 -6 6 44.2 6.2
-1 -6 -6 44.1 5.9
1 -6 6 32.9 4.3
1 6 -6 39.9 4.3
-1 -6 -6 40.5 4.3
2 6 6 1406.36 70.09
-2 6 -6 1434.46 69.59
-2 -6 6 1380.26 71.39
2 -6 -6 1495.95 69.99
-2 6 -6 1448.66 68.99
2 -6 -6 1438.36 69.29
-2 -6 -6 1448.36 69.29
2 -6 6 1328.27 69.39
-2 6 6 1416.06 69.19
2 6 -6 1389.76 69.09
-2 -6 -6 1364.96 70.69
2 6 -6 1406.86 69.09
-3 -6 6 3.7 4.1
-3 6 -6 10.3 3.1
3 -6 -6 13.5 3
-3 -6 6 6.3 2.6
-3 6 -6 13.7 3.6
3 6 6 7.5 3.7
3 6 -6 9.3 3.2
-3 -6 -6 16.4 5.3
-3 -6 -6 7.1 3.6
-3 6 6 12 3.1
3 -6 6 13.4 3.9
-4 -6 6 1370.46 66.79
4 -6 -6 1307.67 65.29
4 6 6 1279.17 66.29
-4 -6 6 1242.28 64.99
-4 6 -6 1345.47 65.89
4 -6 6 1312.47 66.49
-4 6 6 1353.56 65.49
-4 -6 -6 1307.27 65.79
4 6 -6 1314.37 65.29
5 6 6 54.89 8.7
5 -6 -6 48.9 6.6
-5 -6 6 44.4 6.3
-5 6 -6 54.89 7.7
5 -6 6 44.6 8.1
-5 -6 -6 58.89 7.7
5 6 -6 53.89 7.7
-5 6 6 41.2 6.3
0 -6 7 81.59 9.2
0 -6 -7 61.89 5.7
0 6 7 64.89 5.4
0 -6 -7 67.99 7.4
0 6 -7 75.19 6.5
1 6 7 39.8 5.1
1 -6 -7 37.3 4.7
-1 6 -7 43 4.9
1 -6 -7 39.5 5.8
-1 -6 7 25.1 6.7
-1 6 7 43.1 4.9
1 6 -7 50.19 5.1
1 -6 7 46.5 7.2
-1 -6 -7 40.4 6.2
1 6 -7 44.3 4.7
-2 -6 7 64.99 9.2
2 6 7 70.69 7.6
-2 6 -7 77.29 6.5
-2 6 -7 59.99 6.7
2 -6 -7 69.39 6.5
2 6 -7 68.69 6.1
2 -6 7 54.79 6.5
-2 6 7 73.09 6.1
-2 -6 -7 65.69 8.5
-2 -6 -7 64.19 6.5
2 6 -7 66.49 6.6
-3 -6 7 9.4 3
3 -6 -7 4.5 2.9
-3 6 -7 12.5 3.7
-3 -6 7 6.4 4.9
-3 6 -7 8.4 3.7
3 -6 7 6.4 4.1
3 6 -7 4.1 2.8
-3 -6 -7 2.1 5.3
-3 6 7 9.8 3.3
-3 -6 -7 10.1 3.8
4 6 7 47.9 7.6
4 -6 -7 56.89 6.8
-4 6 -7 65.59 7.8
-4 -6 7 61.99 7.1
4 -6 7 60.59 8.3
4 6 -7 73.49 7.4
-4 6 7 74.19 7.4
-4 -6 -7 57.89 7.6
0 6 -8 136.19 9.3
0 6 8 138.49 9.7
0 -6 -8 138.29 9.4
0 -6 -8 140.99 11.1
0 -6 8 145.59 12.4
-1 6 -8 4.1 2.9
1 6 8 12.1 3.8
1 -6 -8 3.4 2.5
-1 -6 8 9.9 6.4
1 6 -8 0 2.4
-1 6 8 5 2.8
1 -6 8 8.2 4.5
1 6 -8 7.4 3.1
-1 -6 -8 7.4 4.6
-2 -6 8 17.8 6.8
2 6 8 24.3 5.6
-2 6 -8 13.4 3.7
2 -6 -8 18.5 3.9
-2 -6 -8 22.9 6.3
2 6 -8 26.2 4.8
2 6 -8 26 4.2
-2 6 8 28.2 4.7
-3 -6 8 55.59 6.7
3 -6 -8 55.29 6.6
3 6 8 63.09 7.9
-3 6 -8 74.59 7.8
-3 6 8 71.19 7.2
-3 -6 -8 57.29 7.1
3 -6 8 56.69 7.8
3 6 -8 53.19 6.5
-4 -6 -8 92.79 9.8
4 -6 8 110.89 11.5
0 -6 9 129.09 13.7
0 -6 -9 117.39 9
0 6 -9 118.49 8.9
-1 -6 9 5.2 8.1
1 6 9 0.5 3.9
-1 6 -9 4 3.2
1 -6 -9 2 2.9
1 6 -9 5.6 3.5
-1 -6 -9 1.5 5.1
-1 6 9 5.4 3.5
1 -6 9 3 5.9
-2 6 -9 145.09 10.6
2 -6 -9 158.98 11.1
2 6 -9 154.38 10.8
-2 -6 -9 163.98 15
-2 6 9 161.68 11.2
2 -6 9 149.59 14
3 6 -9 8 3.8
0 -6 10 612.64 36.9
0 6 10 604.44 33.1
0 6 -10 602.14 32.1
-1 6 -10 8.5 3.9
1 -6 10 10 7.2
0 7 0 2.5 1.4
0 7 0 2.5 1.3
0 -7 0 1.9 2.1
0 -7 0 3.5 2.1
1 -7 0 2042.1 99.19
-1 7 0 2050.69 98.49
-1 -7 0 2135.49 98.99
1 -7 0 2004.8 98.79
1 7 0 1988 98.89
-1 7 0 2061.19 98.79
1 7 0 2191.48 98.29
-1 -7 0 2023.1 99.19
2 7 0 -0.8 1.4
-2 -7 0 -0.3 1.9
2 -7 0 -0.5 1.9
-2 -7 0 -0.6 1.9
-2 7 0 0.5 1.1
-2 7 0 -1.2 1.4
2 -7 0 0.9 1
3 -7 0 1048 52.79
3 7 0 1107.89 52.29
-3 7 0 1096.99 52.19
-3 7 0 1021 51.59
3 7 0 1038.4 51.89
-3 -7 0 1073.99 52.79
-4 7 0 -1.6 2
-4 -7 0 -0.4 2.6
4 -7 0 -4.9 2.6
-4 7 0 0 2.2
4 7 0 -1 2.1
4 7 0 1.2 2.4
-5 -7 0 649.93 33.8
5 7 0 612.04 32.8
5 -7 0 640.54 33.9
-5 7 0 635.34 32.8
-6 -7 0 9.4 5.1
6 7 0 -5.9 3.7
6 -7 0 -4.1 4.3
0 -7 -1 1.5 2
0 7 1 0.7 1
0 7 1 0.6 1.3
0 -7 1 3.7 2
0 -7 -1 2 1.5
0 7 -1 1.6 1.1
0 -7 1 -1.8 2.4
0 7 -1 0.6 1.2
1 -7 -1 160.88 10.2
1 7 1 171.88 9.4
-1 -7 1 134.19 9.7
-1 7 -1 162.48 8.4
-1 7 -1 168.88 9.2
1 -7 -1 159.28 8.6
1 -7 1 164.68 9.3
1 7 -1 182.98 8.7
-1 7 1 163.08 8.8
-1 -7 -1 163.98 9.2
1 7 -1 167.48 9
-1 -7 -1 167.38 9.6
1 -7 1 157.38 9.4
2 7 1 275.47 14.8
-2 7 -1 273.57 14.3
-2 7 -1 287.97 15
-2 -7 1 277.27 15.4
2 -7 -1 292.57 14.1
2 -7 -1 275.77 15.1
-2 -7 -1 276.27 15.1
2 7 -1 283.97 14.7
2 7 -1 252.27 13.8
2 -7 1 265.97 15.1
-2 7 1 273.37 14.5
-2 -7 -1 284.57 15
3 -7 -1 61.89 4.6
3 -7 -1 71.69 5.9
-3 7 -1 62.99 4.9
-3 -7 1 66.29 4.3
-3 -7 1 67.19 6
-3 7 -1 66.99 6.1
3 7 1 61.29 5.2
-3 7 1 65.09 4.9
3 -7 1 72.39 6.1
-3 -7 -1 68.59 5.7
-3 7 1 52.49 4.2
3 7 -1 60.99 5.1
-3 -7 -1 72.69 6.6
4 7 1 207.58 12.5
-4 -7 1 229.88 13.4
4 -7 -1 208.08 13.2
-4 7 -1 209.08 12.9
-4 7 -1 218.28 12.3
4 7 1 202.58 12.5
-4 7 1 218.78 12.4
4 -7 1 196.68 13.3
-4 -7 -1 215.58 13.2
4 7 -1 215.68 12.5
-5 7 -1 54.09 6
-5 -7 1 56.89 7
5 -7 -1 45 6.5
5 7 1 52.59 6
-5 7 -1 52.39 6.8
5 7 1 52.69 6.3
-5 -7 -1 54.89 6.8
-5 7 1 45 5.5
5 -7 1 47.8 6.8
5 7 -1 53.39 5.9
6 7 1 192.88 13.5
6 -7 -1 196.78 14.4
-6 -7 1 214.68 14.7
6 -7 1 214.88 15.3
-6 -7 -1 195.98 14.5
6 7 -1 205.28 13.7
-6 7 1 189.98 13.2
0 7 -2 1 1.3
0 -7 2 0.4 1.4
0 7 2 0.3 0.9
0 -7 2 -0.4 2.3
0 7 2 1 1.4
0 -7 -2 2.6 2
0 7 -2 1 1.1
-1 7 -2 349.47 18.2
1 7 2 360.16 18.9
1 -7 -2 380.26 19.2
1 -7 -2 346.27 18
-1 -7 2 346.27 19.6
1 -7 2 356.36 18.4
1 7 -2 381.56 18.1
-1 -7 -2 366.26 18.9
-1 7 2 348.07 17.9
-1 -7 -2 347.47 18.1
1 7 -2 344.07 17.8
2 -7 -2 0.5 2.5
-2 7 -2 0.2 1.6
2 -7 -2 -1.3 1.3
-2 7 -2 1 1.5
-2 -7 2 3.3 2.7
2 7 2 1.9 1.9
-2 -7 -2 -0.1 2.6
2 7 -2 -1.2 1.3
-2 7 2 -1 1.3
2 7 -2 4 1.7
-2 -7 -2 1 1.9
2 -7 2 0.7 2
-3 -7 2 365.26 18.8
-3 7 -2 358.16 19.3
3 7 2 369.06 19.6
3 -7 -2 368.76 19
-3 -7 2 385.26 20.5
-3 7 -2 407.76 19.8
3 -7 -2 372.06 20.1
-3 -7 -2 364.66 19.8
3 7 -2 354.86 19.4
-3 7 2 353.36 19.2
3 -7 2 373.76 20.2
-3 -7 -2 361.16 20.4
-4 -7 2 3.3 3.1
4 7 2 0.8 2.5
4 -7 -2 0.1 1.8
4 7 2 1.3 2.6
4 -7 -2 1.5 2.9
-4 7 -2 -0.7 2.9
-4 7 -2 -0.7 2.3
4 7 -2 1.2 2.1
-4 -7 -2 0.2 2.8
-4 7 2 -3.4 1.9
4 -7 2 0 3
5 -7 -2 282.37 18.1
5 7 2 300.67 18
5 7 2 290.87 17.4
-5 7 -2 304.07 17.8
-5 7 -2 296.77 17.5
-5 -7 2 326.17 18.5
5 -7 2 332.97 19
-5 -7 -2 292.97 18.2
5 7 -2 311.67 17.6
-5 7 2 301.57 17.2
-6 -7 2 4.8 5.1
6 -7 2 3.8 5.2
-6 -7 -2 9.8 4.9
-6 7 2 1.2 3.7
6 7 -2 0.6 4.1
0 -7 3 -1.7 2.4
0 7 3 -1 0.9
0 7 -3 0.1 1.3
0 -7 -3 2.4 2.4
0 7 3 -0.5 1.3
0 7 -3 -0.2 1
1 7 3 555.74 28.6
-1 7 -3 597.34 28.2
1 -7 -3 555.14 28
-1 -7 3 597.34 30.3
1 -7 3 558.84 28.2
-1 7 3 539.75 27.8
-1 -7 -3 553.04 27.9
-1 -7 -3 559.94 29
1 7 -3 553.14 27.9
1 7 -3 569.34 27.9
2 -7 -3 138.49 9.1
2 -7 -3 119.79 7.4
-2 -7 3 85.79 9.1
-2 7 -3 117.59 7.6
-2 7 -3 124.39 7.6
2 7 3 124.99 8.1
-2 7 3 126.69 7.5
2 7 -3 118.29 7.4
2 -7 3 124.79 8.1
-2 -7 -3 122.59 7.8
2 7 -3 121.39 7.2
-2 -7 -3 115.59 8.7
-3 7 -3 443.66 22.9
3 7 3 414.86 22.9
-3 7 -3 411.96 22.8
-3 -7 3 431.46 22.4
3 -7 -3 436.26 24.3
-3 -7 3 463.75 24.1
3 -7 -3 455.75 22.6
3 -7 3 432.86 23.5
-3 7 3 454.65 22.8
3 7 -3 429.76 22.8
-3 -7 -3 432.86 23.2
-3 -7 -3 446.66 24.1
4 -7 -3 236.08 14
-4 -7 3 271.57 14
4 7 3 259.57 14.7
-4 -7 3 265.17 15.7
4 -7 -3 245.18 15.6
4 7 3 255.07 15
-4 7 -3 249.38 14.7
-4 7 -3 229.28 14.3
4 7 -3 237.38 14.5
-4 -7 -3 253.87 15.2
-4 7 3 253.97 14.4
4 -7 3 257.67 15.7
-5 -7 3 227.68 14.5
5 -7 -3 202.08 14.5
5 7 3 205.58 13.4
-5 7 -3 226.58 13.9
5 7 3 228.48 14.3
5 -7 3 230.78 14.9
-5 -7 -3 198.18 14
-5 7 3 191.68 12.9
5 7 -3 201.18 13.3
-6 -7 3 109.79 11.1
-6 7 -3 124.09 10.9
6 7 3 124.39 11.6
-6 7 3 104.49 9.2
6 7 -3 114.09 9.9
0 7 -4 0 1.2
0 7 -4 1.6 1.5
0 -7 4 -3.9 2.5
0 7 4 0.5 1.2
0 -7 -4 -1.4 1.3
0 -7 -4 -0.1 2.2
-1 -7 4 1421.06 67.99
1 7 4 1306.17 65.59
1 -7 -4 1329.57 65.19
-1 7 -4 1348.07 65.09
1 -7 -4 1410.96 66.09
1 7 -4 1330.37 64.99
-1 -7 -4 1334.07 66.19
1 -7 4 1348.17 66.49
-1 7 4 1299.17 64.99
1 -7 4 1335.27 65.19
-1 -7 -4 1326.47 64.89
1 7 -4 1338.57 64.99
2 -7 -4 2.3 1.6
2 7 4 -4.3 2
-2 7 -4 -0.4 1.6
2 -7 -4 1 2.6
-2 7 -4 1.9 1.9
-2 -7 4 0.8 3
2 7 -4 0.3 1.7
2 7 -4 0.8 1.6
-2 -7 -4 4.1 3.1
2 -7 4 -0.4 2.2
-2 -7 -4 -0.4 2.1
-2 7 4 -2.2 1.4
-3 -7 4 891.41 45.1
3 -7 -4 855.91 43.4
-3 7 -4 853.91 43.8
3 -7 -4 949.8 45.1
-3 7 -4 866.81 43.5
3 -7 4 897.91 44.5
3 7 -4 863.41 43.6
-3 -7 -4 857.11 43.9
-3 7 4 885.61 43.6
-3 -7 -4 831.52 44.9
4 -7 -4 0.4 2.4
4 7 4 1 2.9
4 7 4 5.6 3.3
-4 7 -4 1.6 3
-4 7 -4 5 2.9
-4 -7 4 2.9 3.5
4 -7 -4 0 4.9
-4 -7 4 6.6 2.7
-4 -7 -4 0.5 3.4
4 7 -4 6.1 2.8
4 -7 4 -2.3 3
-4 7 4 -0.9 2.2
5 7 4 443.26 26.5
-5 7 -4 479.95 26.1
5 -7 -4 464.15 25.2
-5 -7 4 480.65 27
5 -7 4 491.85 27.4
-5 -7 -4 464.65 26.5
-5 7 4 480.05 25.6
5 7 -4 471.35 25.7
-6 -7 4 13.3 6.4
0 7 -5 -0.9 1.4
0 -7 -5 1 1.6
0 7 -5 -1.9 1.5
0 -7 -5 1 2.7
0 7 5 -1.3 1.4
0 -7 5 3.9 3.2
1 7 5 2.9 2.2
1 -7 -5 9.4 2.3
1 -7 -5 10.9 3.5
-1 -7 5 8.7 5
-1 7 -5 6.8 2.2
-1 7 5 6.5 2.1
-1 -7 -5 9.4 3.5
-1 -7 -5 8.2 2.4
1 7 -5 8 2.2
1 -7 5 5.2 3.2
1 -7 5 3.1 2.2
1 7 -5 6.4 2.1
-2 7 -5 110.69 7.1
-2 7 -5 100.49 7.3
2 -7 -5 105.49 7.1
2 -7 -5 98.39 8.2
2 7 5 110.49 8.3
-2 -7 5 105.89 9.3
2 7 -5 103.79 6.9
-2 -7 -5 97.49 8.7
-2 7 5 104.09 7
-2 -7 -5 105.59 7.5
2 -7 5 95.59 7.5
2 7 -5 93.19 7
-3 7 -5 4.8 2.9
3 7 5 8.7 3.4
-3 7 -5 13.9 3.5
-3 -7 5 7.8 4.1
3 -7 -5 9.8 2.7
3 -7 -5 3.5 3.7
3 -7 5 6.1 3.3
3 7 -5 10 3.1
-3 -7 -5 6.3 4.4
-3 7 5 8.6 2.7
-3 -7 -5 5.5 3.2
-4 -7 5 124.49 10.7
-4 7 -5 120.59 8.6
4 -7 -5 103.49 8.2
4 7 5 117.89 9.4
-4 -7 5 120.29 8.4
4 7 5 112.69 9.4
-4 7 -5 125.59 9.2
-4 -7 -5 103.29 9.3
-4 7 5 110.89 8.5
4 -7 5 110.99 9.7
4 7 -5 104.69 8.6
5 -7 -5 17.1 4.2
5 7 5 24 5.6
-5 -7 5 21.8 6.1
-5 7 -5 14.8 4.9
-5 7 5 6.8 3.6
-5 -7 -5 14.3 5.4
5 7 -5 14.8 4.3
5 -7 5 3.2 5
0 7 -6 1.5 2
0 7 6 -0.4 1.7
0 -7 -6 4.8 3.3
0 -7 -6 -0.2 1.6
0 -7 6 -1 3.3
-1 7 -6 289.77 15.2
1 7 6 286.57 15.9
1 -7 -6 282.17 15.4
-1 -7 6 251.17 18.5
1 -7 -6 273.57 16.3
1 -7 6 260.37 15.2
1 7 -6 297.27 15.1
1 -7 6 279.57 17.3
-1 -7 -6 283.87 16.9
1 7 -6 271.87 15.2
-1 7 6 268.67 15
-2 7 -6 -0.8 2.4
2 -7 -6 2.2 3.8
-2 -7 6 -2.7 3.4
2 -7 -6 3.3 2.2
2 7 6 -4.7 2.7
-2 7 -6 0.5 2.2
2 7 -6 -0.9 2.2
-2 -7 -6 -1.4 2.6
2 7 -6 -0.8 2.1
-2 7 6 0 1.9
-2 -7 -6 1.6 4
2 -7 6 2.4 2.8
-3 7 -6 297.87 16
-3 -7 6 238.38 17.7
-3 -7 6 281.47 16.1
-3 7 -6 289.77 16.7
3 -7 -6 282.17 16.1
3 7 6 278.07 16.8
3 -7 6 295.37 17.1
3 7 -6 278.67 16.1
-3 7 6 280.07 16.1
-3 -7 -6 277.57 16.4
-3 -7 -6 302.87 18.7
-4 -7 6 3.2 2.9
-4 -7 6 0.5 4.8
-4 7 -6 0.8 3.3
4 7 6 4.5 3.6
4 -7 -6 -2.2 2.5
4 7 -6 5.1 3.3
4 -7 6 0.4 3.8
-4 -7 -6 6.6 4
-4 7 6 -1.1 2.5
5 -7 -6 220.18 13.9
-5 -7 -6 187.28 17.1
0 -7 -7 0.7 3.9
0 7 7 -0.3 2
0 -7 -7 0.9 2
0 7 -7 3.5 2.5
0 -7 7 3.5 4
1 -7 -7 610.04 32.5
1 -7 -7 599.64 31.6
1 7 7 643.34 32.1
-1 -7 7 536.85 34.6
-1 7 -7 608.84 31.3
1 7 -7 643.04 31.3
1 -7 7 579.44 33.5
-1 7 7 632.84 31.3
-1 -7 -7 615.84 33.1
1 7 -7 631.94 31.5
2 -7 -7 42.1 5.3
-2 7 -7 50.99 6.1
-2 -7 7 43 7.6
-2 7 -7 58.29 5.7
2 7 7 44.5 6.6
2 7 -7 48.5 5.5
-2 -7 -7 61.59 8.2
2 -7 7 41 5.7
2 7 -7 51.89 5.7
-2 7 7 52.89 5.7
-3 7 -7 561.74 28.6
3 -7 -7 575.14 29.2
-3 -7 7 430.96 30.3
3 7 7 536.65 31.6
-3 7 -7 564.34 29.6
-3 -7 7 530.55 28.9
-3 -7 -7 550.34 31.5
-3 7 7 591.24 29.2
3 -7 7 548.25 29.9
-3 -7 -7 561.04 29.4
3 7 -7 559.04 29
4 7 7 70.09 8.6
-4 -7 7 65.59 7.2
4 -7 -7 53.19 6.7
-4 7 -7 86.59 8.9
4 7 -7 67.29 7.5
-4 -7 -7 73.59 8.4
4 -7 7 71.29 9.4
-4 7 7 66.59 7.3
0 -7 8 0.5 4.5
0 -7 -8 0 2.4
0 7 -8 1.1 2.7
0 -7 -8 -1.4 4.1
1 7 8 554.74 29.5
-1 7 -8 556.24 28.7
1 -7 -8 551.34 29
-1 -7 8 470.55 32.4
1 7 -8 576.24 29
-1 -7 -8 550.14 30.7
1 -7 8 569.44 31.8
-1 7 8 555.74 28.6
-2 7 -8 6.6 3.1
2 7 8 -3.6 4
2 -7 -8 -0.7 2.5
-2 -7 8 7.4 5.7
2 7 -8 -0.2 2.8
-2 -7 -8 -1.2 5
2 7 -8 0.5 2.7
-2 7 8 2.3 2.8
2 -7 8 1.6 4.8
-3 -7 8 404.36 23.8
3 -7 -8 462.95 24.2
-3 7 -8 427.66 24.5
3 -7 8 439.86 25.7
3 7 -8 423.16 23.8
-3 -7 -8 427.66 27
-3 7 8 440.86 24
4 -7 8 4.5 6.1
-4 -7 -8 5.6 5.3
0 7 -9 5.1 3.4
0 -7 9 2.8 6.3
-1 -7 9 33.2 9.8
-1 7 -9 51.09 6.2
1 7 9 47.5 6.9
1 -7 -9 51.09 6.1
-1 7 9 51.19 6
1 -7 9 36.5 8.5
-1 -7 -9 47.6 8.5
1 7 -9 63.19 6.9
-2 7 -9 19.5 4.4
2 -7 -9 12.6 4.1
-2 7 9 19.1 4.6
2 -7 9 11.6 6.9
2 7 -9 14.4 4.2
-2 -7 -9 20.4 7.1
2 7 -9 9.1 3.7
0 7 10 3.6 5.1
0 -7 10 5.2 8.3
-1 7 -10 159.78 13.1
1 7 10 191.08 14.1
0 8 0 3098.29 151.58
0 8 0 3202.78 151.88
0 -8 0 3199.28 152.28
0 -8 0 3227.18 152.28
1 -8 0 0.4 1.7
-1 -8 0 0.8 2
1 8 0 -0.9 1.1
-1 8 0 -1.3 1.1
1 -8 0 1.8 2.2
-1 8 0 1.2 1.6
-1 -8 0 2.1 2
1 8 0 0.6 1.4
2 -8 0 2574.94 124.69
2 8 0 2830.82 125.79
2 -8 0 2564.14 125.89
-2 8 0 2513.85 124.89
-2 -8 0 2711.83 126.09
-2 8 0 2648.83 125.49
-2 -8 0 2485.95 125.49
-3 -8 0 -0.5 2.9
3 8 0 -0.7 2
3 -8 0 0.4 2.3
3 -8 0 -0.2 1.9
-3 8 0 0.9 1.7
-3 8 0 1 1.8
-3 -8 0 -1.2 2.3
4 8 0 1945.91 91.49
-4 8 0 1924.41 91.29
4 -8 0 1861.61 92.09
4 8 0 1795.12 92.39
-4 -8 0 1858.61 92.09
-5 8 0 0.3 3
5 8 0 1.8 3.2
5 -8 0 1.1 3.9
-5 -8 0 0.2 3.9
6 8 0 779.22 42
6 -8 0 861.21 44
-6 8 0 786.22 42.5
-6 -8 0 835.12 43.5
0 8 1 622.44 29.4
0 -8 1 554.44 30.3
0 -8 -1 537.55 29.6
0 8 -1 610.14 28.9
0 8 1 628.94 28.8
0 8 -1 584.54 28.9
0 -8 1 542.75 29.5
0 -8 -1 606.64 29
1 -8 -1 288.37 17.9
1 8 1 349.37 17.3
-1 8 -1 348.97 17
-1 8 -1 341.77 16.3
-1 -8 1 292.57 17.7
-1 8 1 320.37 16.7
1 8 -1 338.17 16.9
-1 -8 -1 347.27 17.5
1 -8 1 324.67 17.2
1 -8 1 311.27 17.3
-1 -8 -1 342.27 17.2
-1 8 1 299.47 16.6
1 8 -1 348.37 16.5
-2 -8 1 368.96 20.1
-2 8 -1 400.46 19.7
2 -8 -1 372.16 18.7
2 8 1 355.06 19.5
-2 8 -1 364.86 18.9
2 -8 -1 372.96 19.9
-2 8 1 374.76 19.1
2 -8 1 375.96 19.8
-2 -8 -1 381.56 19.7
2 8 -1 372.96 19.3
-2 -8 -1 377.86 19.8
2 8 -1 362.36 18.5
-3 8 -1 10.2 3
-3 -8 1 6.3 3.2
-3 8 -1 10.3 2.3
3 -8 -1 10.5 2.1
3 -8 -1 12.1 3.3
3 8 1 8.8 2.8
-3 8 1 10.2 2.5
3 -8 1 10.3 3.1
3 8 -1 17 2.9
-3 -8 -1 10.3 3.4
-3 -8 -1 10.7 3.1
-4 -8 1 262.07 15.2
4 8 1 251.67 14.4
4 8 1 240.98 14.2
4 -8 -1 252.87 15.1
-4 8 -1 235.68 14.7
-4 8 -1 248.78 13.9
4 -8 1 248.28 15.3
-4 -8 -1 241.78 14.9
-4 8 1 254.07 14.1
4 8 -1 231.78 14.1
5 -8 -1 333.47 20.5
5 8 1 334.67 19.6
-5 -8 1 369.76 20.8
-5 8 -1 334.77 20.2
-5 8 1 358.06 19.6
5 -8 1 331.07 20.7
-5 -8 -1 364.76 20.7
5 8 -1 367.16 19.8
-6 -8 1 95.69 10.5
6 8 1 100.39 9.1
6 -8 -1 65.09 9.2
6 8 -1 81.49 8.8
-6 -8 -1 116.89 11.2
-6 8 1 77.99 8.5
6 -8 1 85.69 10.2
0 -8 -2 1094.39 56.99
0 8 2 1094.89 56.39
0 -8 2 1191.48 57.79
0 8 2 1157.78 55.79
0 8 -2 1178.58 55.89
0 -8 2 1175.18 56.19
0 8 -2 1238.88 56.29
-1 8 -2 3.9 1.8
-1 -8 2 -2.1 2.5
1 8 2 -1.5 1.8
1 -8 -2 2.9 1.5
1 -8 -2 -0.6 2.4
-1 -8 -2 1.4 1.7
-1 8 2 0.8 1.3
1 -8 2 -0.7 2.3
1 -8 2 0.7 1.8
1 8 -2 -0.7 1.2
1 8 -2 2 1.5
-1 -8 -2 -0.6 2.4
2 -8 -2 507.15 24.6
-2 8 -2 513.75 25.1
2 -8 -2 463.45 26.2
-2 -8 2 403.06 25.8
-2 8 -2 476.65 24.8
2 8 2 504.75 25.4
2 8 -2 496.95 24.4
2 8 -2 502.65 25
-2 -8 -2 482.25 25.7
2 -8 2 498.55 25.5
-2 8 2 532.25 24.9
-2 -8 -2 500.55 25.2
3 8 2 3.5 2.3
3 -8 -2 10.1 2.2
-3 8 -2 10.2 2.9
3 -8 -2 8.2 3.4
-3 -8 2 7.8 3.5
-3 8 -2 9.8 2.5
3 8 -2 14.1 2.8
-3 -8 -2 13.7 3.3
3 -8 2 6.5 3
-3 -8 -2 15.9 3.9
-3 8 2 10.5 2.5
-4 -8 2 313.57 17.8
4 8 2 306.37 16.9
-4 8 -2 298.97 16.5
4 8 2 305.17 16.8
-4 8 -2 306.47 16.9
4 -8 -2 286.07 15.8
4 -8 -2 275.47 17.2
-4 -8 -2 284.17 17.1
4 8 -2 277.87 16.5
4 -8 2 300.77 17.6
-4 8 2 289.07 16.3
-5 8 -2 0.7 3.4
-5 -8 2 4.7 4.1
5 8 2 -0.1 3.6
5 8 2 2.9 3.6
-5 8 -2 6.6 4.2
5 -8 -2 1.8 4.1
5 8 -2 6.9 3.5
-5 8 2 1.6 2.9
-5 -8 -2 5.2 4
5 -8 2 2.1 4
-6 -8 2 182.88 13.8
6 -8 -2 164.68 13.6
6 8 -2 160.78 12.3
6 -8 2 159.98 13.9
-6 -8 -2 184.38 18.1
-6 8 2 174.98 12.1
0 8 -3 80.39 5.2
0 -8 -3 94.59 7.1
0 8 3 86.09 5.9
0 -8 3 92.69 7.6
0 8 3 88.89 5.2
0 8 -3 90.29 5.7
-1 -8 3 1.4 3.3
1 -8 -3 0.2 2.5
-1 8 -3 0.3 1.7
1 8 3 -1.8 1.8
1 -8 -3 2.9 1.6
1 -8 3 0.1 2.3
1 -8 3 0.1 2
1 8 -3 -0.2 1.5
-1 -8 -3 -0.9 1.7
1 8 -3 1 1.4
-1 8 3 0.8 1.4
-1 -8 -3 0.3 2.7
-2 8 -3 13.4 2.7
-2 -8 3 8.7 3.6
2 -8 -3 13.9 2.5
2 8 3 11.6 2.9
2 -8 -3 11.1 3.7
-2 8 -3 15.9 2.9
2 8 -3 13.3 2.5
2 -8 3 16.3 3.3
2 8 -3 14.4 2.6
-2 8 3 21.5 2.9
-2 -8 -3 15.9 3.9
-2 -8 -3 15.6 3.1
3 8 3 161.28 10.5
3 -8 -3 153.08 12
3 -8 -3 171.58 9.9
-3 8 -3 146.59 10.2
-3 8 -3 176.78 10.4
-3 -8 3 173.98 11.7
-3 -8 -3 173.58 11.8
3 8 -3 169.88 9.7
3 8 -3 168.98 10.3
-3 8 3 183.68 10.3
3 -8 3 167.38 11
-3 -8 -3 171.78 10.8
4 -8 -3 34.7 4.4
-4 8 -3 47.8 5.4
4 8 3 37.4 5.5
-4 8 -3 47.2 5.7
-4 -8 3 51.69 6.6
4 -8 -3 40.9 6.4
4 8 3 37.2 5.2
-4 -8 -3 49.1 6.2
4 -8 3 49.6 6.5
-4 8 3 48 5.3
4 8 -3 35.8 5.1
-5 8 -3 131.19 10
5 -8 -3 128.59 11.4
-5 8 -3 134.39 10.2
5 8 3 127.39 10.3
-5 -8 3 135.29 11.2
5 8 3 124.59 10.1
5 8 -3 140.19 10
5 -8 3 152.68 11.6
-5 8 3 121.09 9.4
-5 -8 -3 129.09 10.7
-6 8 -3 13.9 6.4
6 8 3 7.5 5.4
-6 -8 3 11.1 6.2
-6 8 3 8.1 4.5
0 -8 -4 1877.01 90.99
0 8 4 1807.02 90.19
0 8 -4 1887.51 89.99
0 8 4 1833.82 89.49
0 8 -4 1826.12 89.39
0 -8 4 1976.7 91.89
-1 -8 4 12.3 4.9
1 8 4 15.4 3.1
1 -8 -4 15.6 2.6
1 -8 -4 19.9 3.9
-1 8 -4 13 2.6
-1 -8 -4 12.2 2.5
1 8 -4 15.7 2.7
1 -8 4 12.4 2.7
1 8 -4 17 2.7
-1 -8 -4 5.8 3.4
-1 8 4 10.6 2.3
1 -8 4 17.8 4
2 -8 -4 2055.99 100.79
-2 8 -4 2027.6 99.89
2 -8 -4 2059.49 99.69
2 8 4 2210.68 100.69
-2 8 -4 2121.09 99.79
-2 -8 4 1925.41 101.29
2 8 -4 2165.48 99.79
-2 -8 -4 2012.4 100.89
-2 8 4 2063.19 99.69
-2 -8 -4 2051.79 99.79
2 -8 4 2034.1 100.19
2 8 -4 2056.39 99.49
3 -8 -4 4.6 3.9
-3 8 -4 11.2 3
-3 -8 4 11.9 4.2
3 -8 -4 9.1 2.6
-3 8 -4 7 2.9
3 8 4 7.6 3.1
-3 8 4 11.8 3.1
-3 -8 -4 8.1 3.2
-3 -8 -4 10.6 4.3
3 -8 4 8.5 3.3
3 8 -4 5.3 2.6
3 8 -4 8.7 2.7
-4 -8 4 1215.28 62.49
4 8 4 1262.37 63.69
-4 -8 4 1336.67 64.69
-4 8 -4 1161.78 62.79
4 -8 -4 1266.57 62.69
-4 8 -4 1277.77 63.29
4 -8 -4 1296.67 64.99
4 8 4 1348.27 63.49
-4 8 4 1297.87 63.09
-4 -8 -4 1260.17 63.59
4 8 -4 1286.47 63.19
4 -8 4 1290.57 64.19
5 -8 -4 4.9 3.3
5 8 4 10.8 4.3
-5 -8 4 4.3 5
-5 8 -4 10 4.4
-5 8 4 5 3.5
5 -8 4 8.7 4.8
-5 -8 -4 1.2 4.2
5 8 -4 4.5 3.6
0 -8 -5 1099.49 53.49
0 8 -5 1077.39 52.19
0 8 -5 1024.1 51.59
0 -8 5 1081.49 54.29
0 8 5 1050.69 51.69
-1 -8 5 139.29 12.6
1 -8 -5 181.18 11.4
-1 8 -5 157.98 9.5
1 -8 -5 160.58 9.7
1 8 5 152.78 10.1
-1 -8 -5 159.98 11.2
-1 -8 -5 158.18 9.4
-1 8 5 156.28 9.3
1 8 -5 166.68 9.4
1 -8 5 155.98 9.7
1 -8 5 154.88 11.4
1 8 -5 168.28 9.6
2 -8 -5 571.04 29.2
-2 -8 5 569.24 31.3
-2 8 -5 556.54 29.4
-2 8 -5 602.54 29.2
2 8 5 625.34 30.5
2 -8 -5 506.25 29.9
-2 -8 -5 578.34 29.2
-2 -8 -5 564.74 30.7
-2 8 5 590.14 29.1
2 8 -5 566.44 29.1
2 8 -5 559.44 28.9
2 -8 5 546.15 29.4
3 -8 -5 5.9 3.9
3 8 5 5.1 3.3
-3 8 -5 0.6 2.6
3 -8 -5 -3.1 2
-3 -8 5 5.7 4
-3 8 -5 3.5 3
-3 8 5 2.6 2.4
-3 -8 -5 2.6 3.2
-3 -8 -5 4.2 4.2
3 -8 5 1.4 3
3 8 -5 1.5 2.5
3 8 -5 2.3 2.6
-4 8 -5 501.15 25.1
-4 -8 5 446.06 24.8
4 -8 -5 460.55 24.8
4 8 5 457.25 26
-4 8 -5 496.35 25.9
-4 -8 5 488.85 27.1
4 8 5 438.96 25.4
4 8 -5 461.25 25.2
-4 8 5 475.95 25.3
4 -8 5 487.25 26.4
-4 -8 -5 428.76 25.6
5 -8 -5 247.08 15.2
-5 8 -5 241.58 16
5 8 5 261.77 16.8
-5 -8 5 273.37 17.7
5 -8 5 254.37 17.8
-5 8 5 255.17 15.6
-5 -8 -5 231.28 16.6
5 8 -5 236.78 15.5
0 -8 6 464.65 27.2
0 -8 -6 482.95 25.1
0 8 6 491.05 24.5
0 8 -6 471.95 25
0 -8 -6 503.75 26.5
-1 -8 6 7.7 5.1
-1 8 -6 4.5 2.4
1 -8 -6 6.5 2.4
1 8 6 5.3 2.8
1 -8 -6 9.3 3.7
-1 -8 -6 6.2 4.1
-1 8 6 3.2 2.2
1 8 -6 3.3 2.4
1 -8 6 7.9 3.9
1 8 -6 9.9 2.7
2 -8 -6 409.56 22.4
2 -8 -6 423.96 23.7
-2 8 -6 403.66 22.1
-2 -8 6 430.26 24.9
2 8 6 416.96 23.5
-2 8 -6 400.36 22.6
2 8 -6 455.85 22.4
2 -8 6 405.46 22.6
-2 8 6 407.76 22.2
-2 -8 -6 403.56 22.2
-2 -8 -6 453.95 24.4
2 8 -6 432.86 22.3
-3 8 -6 14.6 3.6
-3 8 -6 23.2 4.6
-3 -8 6 2.6 4.5
3 8 6 13.5 4.4
3 -8 -6 12.9 3.4
3 8 -6 19.6 4
-3 -8 -6 13.6 5.7
-3 -8 -6 18.4 4.6
-3 8 6 17.7 3.7
3 8 -6 21.2 3.9
3 -8 6 19.3 4.4
-4 -8 6 235.68 14.3
4 8 6 205.78 15.2
-4 8 -6 247.48 15.2
-4 -8 6 233.58 16.8
4 -8 -6 236.58 14.4
-4 8 6 227.48 14.4
4 8 -6 249.68 14.7
-4 -8 -6 232.68 15.2
4 -8 6 232.28 15.7
5 -8 -6 8.9 4.1
0 -8 -7 26.1 4
0 -8 7 27.5 6.3
0 8 7 24.9 4.4
0 -8 -7 30.6 5.8
0 8 -7 37.8 4.6
-1 8 -7 33.8 4.7
1 8 7 28.5 5
1 -8 -7 34.3 5.9
1 -8 -7 27.2 4.3
-1 -8 7 28.8 7.5
1 8 -7 35.5 4.7
1 8 -7 40.6 4.6
-1 8 7 27.4 3.9
-1 -8 -7 35.1 6.4
1 -8 7 41.6 7.4
-2 -8 7 9.4 5.2
-2 8 -7 9.5 3.2
2 -8 -7 15.6 6.4
2 -8 -7 4.3 2.7
2 8 7 5.7 4
2 8 -7 4.5 3
2 8 -7 7.6 3.2
-2 8 7 8.6 2.9
-2 -8 -7 3.7 5
3 8 7 13.9 5.2
-3 -8 7 17.7 6.2
-3 8 -7 14.5 4
3 -8 -7 17.8 4
-3 8 -7 15.6 4.4
-3 -8 -7 7.8 4.2
-3 8 7 18.2 4.2
3 -8 7 13.6 4.8
3 8 -7 25.2 4.5
-3 -8 -7 19.8 6.6
-4 -8 7 6.8 3.8
4 -8 -7 12.4 4.2
-4 8 -7 8.9 4.7
-4 -8 7 7.3 6.7
4 8 7 4.5 4.4
4 8 -7 8.6 4
-4 8 7 6.7 3.8
-4 -8 -7 17.6 5.3
4 -8 7 14.4 6.1
0 -8 -8 874.11 45.9
0 -8 8 887.01 47.6
0 8 -8 871.31 44.3
0 8 8 884.61 45.1
1 8 8 -0.2 3.5
-1 -8 8 2.1 6.5
1 -8 -8 6.7 3
1 -8 -8 -1.1 4.7
-1 8 -8 7.4 3.2
-1 -8 -8 9.8 5.3
1 -8 8 4.5 5.2
1 8 -8 4.6 3.1
-1 8 8 6 3
2 8 8 892.31 46.8
-2 8 -8 870.51 45.1
2 -8 -8 919.91 45.7
-2 -8 8 922.61 48.7
2 8 -8 889.61 45.3
-2 8 8 880.51 45.3
-2 -8 -8 857.11 47.6
2 8 -8 929.21 45.5
2 -8 8 883.61 48.2
-3 8 -8 26.8 6.9
-3 8 -8 29.5 6
-3 -8 8 14.7 7.1
-3 -8 8 14.1 4.1
3 -8 -8 15.6 4.2
3 8 -8 24.8 4.7
-3 8 8 22.8 4.8
-3 -8 -8 25.2 7.8
-4 -8 -8 543.05 34.2
0 -8 -9 571.74 33.3
0 -8 9 564.54 34.1
0 8 9 587.74 31
0 8 -9 547.55 30
-1 8 -9 1.6 3.4
1 8 9 3.5 4.5
-1 -8 9 9.5 8.3
1 -8 -9 6.2 3.5
-1 8 9 5.5 4.3
1 8 -9 2.4 3.6
-1 -8 -9 8 6.2
1 -8 9 -2.1 5.3
-2 -8 9 711.43 37.7
2 8 9 563.04 38.3
2 -8 -9 623.64 34
-2 8 -9 621.34 33.2
2 8 -9 633.64 34.1
2 -8 9 619.94 37.1
-2 8 9 662.83 33.7
-2 -8 -9 647.84 36.7
0 -8 10 255.17 26.2
-1 -8 10 5.5 9.9
1 8 10 3.9 5.9
0 9 0 -1.3 1.3
0 9 0 1.5 1.6
0 -9 0 -0.9 2
0 -9 0 2.6 2.2
-1 9 0 80.49 5.8
1 -9 0 88.49 6.1
-1 9 0 76.49 5.1
-1 -9 0 68.89 6.1
-1 -9 0 87.19 6.2
1 9 0 88.29 4.9
1 -9 0 86.99 6.4
1 9 0 74.59 5.5
-2 -9 0 0.9 2.2
2 -9 0 -0.1 2.3
-2 9 0 1.2 1.4
-2 9 0 -0.3 1.7
2 9 0 2.3 2.1
-2 -9 0 1.9 2.4
-3 -9 0 98.59 7.6
-3 9 0 93.49 6.7
-3 -9 0 95.99 7.8
-3 9 0 99.99 6.2
3 -9 0 87.89 7.5
3 9 0 95.99 7
4 9 0 2.5 2.6
4 -9 0 -1.7 3.2
-4 -9 0 9.8 3.5
-4 9 0 4.3 2.8
5 9 0 43.7 6
-5 9 0 36.3 5.7
5 -9 0 48.1 7.2
-5 -9 0 55.79 7.3
-6 9 0 -2.8 5.3
6 -9 0 0.9 5
6 9 0 -1.8 4.1
-6 -9 0 8.3 5.4
0 9 1 -0.3 1.4
0 -9 1 0.2 3.1
0 -9 -1 -1.4 2.3
0 9 -1 -1.4 1.2
0 9 -1 0.4 1.5
0 -9 1 1.1 2.3
0 9 1 2.7 1.9
0 -9 -1 0.1 1.8
-1 -9 1 47.5 4.4
-1 -9 1 37.4 4.9
-1 9 -1 36.9 3.2
1 -9 -1 34.9 5
1 9 1 40.7 4.2
-1 9 -1 41.9 4.1
1 9 -1 38.9 3.9
-1 -9 -1 42.1 4.7
1 -9 1 46.9 4.8
1 9 -1 44.3 3.4
-1 9 1 40.3 3.6
-1 9 1 39.8 3.7
-1 -9 -1 45.4 4.3
1 -9 1 39.9 4.2
-2 -9 1 1.6 2.4
2 -9 -1 -0.4 2.3
2 -9 -1 2.3 1.5
-2 9 -1 0.1 1.6
-2 9 -1 1.8 2.2
2 9 1 -0.6 1.9
2 -9 1 -0.1 2.3
2 9 -1 0.5 1.3
-2 -9 -1 -1.9 2.3
2 9 -1 0.3 1.7
-2 9 1 1.4 1.7
-2 -9 -1 2.4 2.5
-3 -9 1 40 5.4
3 -9 -1 48.2 5.6
3 -9 -1 40.5 3.7
-3 9 -1 41.7 5.1
-3 9 -1 35.3 4
3 9 1 47.6 5.1
-3 9 1 41.9 4.4
-3 -9 -1 40.6 5.2
3 9 -1 36.4 4.4
3 -9 1 34.1 5
-3 -9 -1 41.1 5.5
4 -9 -1 33 5.5
-4 9 -1 32.4 5
4 9 1 33.3 4.6
-4 9 -1 29.7 4.1
4 9 1 28.1 4.5
-4 -9 1 31.3 5.4
4 9 -1 34.1 4.6
-4 -9 -1 32.6 5.2
4 -9 1 25 5.1
-4 9 1 29.5 4.3
-5 9 -1 19.8 5.4
5 -9 -1 36.5 6
5 9 1 40.8 5.7
-5 -9 1 49.4 6.9
-5 9 1 25.2 4.7
5 9 -1 39.8 5.6
5 -9 1 25.8 5.8
-5 -9 -1 38 6.4
6 9 1 107.29 9.7
6 -9 -1 90.09 10.6
-6 -9 1 111.19 11.4
-6 -9 -1 107.59 13.6
6 9 -1 94.29 9.5
6 -9 1 87.89 10.5
-6 9 1 77.09 9
0 -9 2 4.4 3.5
0 9 -2 0 1.5
0 9 2 -0.8 1.4
0 -9 -2 1.3 2.7
0 -9 2 1.4 2
0 9 2 0.6 1.1
0 9 -2 1.1 1.3
1 -9 -2 5382.86 257.57
-1 -9 2 5683.03 259.37
1 -9 -2 5554.54 258.87
1 9 2 5662.03 258.57
-1 9 -2 4924.81 257.87
1 -9 2 5193.78 258.07
-1 -9 -2 5383.96 258.67
-1 -9 -2 5429.76 257.77
1 9 -2 5539.25 257.57
-1 9 2 5234.28 257.57
1 -9 2 5420.66 258.77
1 9 -2 5565.94 257.77
2 -9 -2 5.4 3.3
-2 -9 2 1.8 2.7
-2 9 -2 0.1 1.8
-2 9 -2 0.1 1.8
2 9 2 1.8 2.1
2 -9 -2 4.6 1.9
-2 -9 -2 9 2.7
2 9 -2 0.7 1.6
-2 -9 -2 1.5 2.8
2 -9 2 1.6 2.3
2 9 -2 0.4 1.7
-2 9 2 1 1.6
3 9 2 3490.05 176.28
-3 9 -2 3956.9 176.28
3 -9 -2 3703.63 177.08
-3 -9 2 3706.03 177.38
-3 9 -2 3662.93 175.88
3 -9 -2 3642.94 175.48
3 -9 2 3669.13 176.88
-3 -9 -2 3620.74 176.88
3 9 -2 3658.53 175.18
3 9 -2 3716.13 176.08
-3 9 2 3588.44 175.88
-3 -9 -2 3658.73 176.48
4 -9 -2 6.9 3.9
-4 9 -2 11.9 3.1
-4 -9 2 15.4 4.5
-4 9 -2 4.4 3.4
4 9 2 6.8 3.3
4 9 2 9.3 3.6
4 -9 2 7.9 3.9
-4 -9 -2 2.6 3.7
4 9 -2 9.4 3.1
-4 9 2 9.8 3
-5 9 -2 1774.42 87.19
5 -9 -2 1646.04 87.99
-5 -9 2 1824.12 88.59
5 9 2 1688.23 87.59
-5 9 -2 1827.92 87.49
5 9 2 1811.42 87.49
-5 9 2 1735.93 87.09
5 -9 2 1815.92 88.89
-5 -9 -2 1847.52 88.39
5 9 -2 1809.62 87.39
6 9 2 6.3 7.9
6 -9 -2 3.5 5.5
-6 -9 2 2.7 5.4
6 9 -2 2.7 4.6
-6 9 2 4.3 4.4
0 -9 -3 -1.2 2.7
0 9 3 -0.2 1.2
0 9 -3 0 1.5
0 -9 3 -0.3 3.1
0 9 -3 -0.2 1.2
0 9 3 0.5 1.6
-1 9 -3 235.98 12.8
1 9 3 191.38 13.2
1 -9 -3 221.98 13.8
-1 -9 3 270.57 15.2
1 -9 -3 216.18 12.4
-1 -9 -3 236.68 12.5
1 -9 3 237.88 14
1 9 -3 238.88 12.4
1 -9 3 231.88 12.9
-1 9 3 221.78 12.3
-1 -9 -3 247.68 14
1 9 -3 231.38 12.4
2 -9 -3 -1.7 1.6
-2 9 -3 -0.6 2.1
2 -9 -3 -1.8 2.8
-2 -9 3 1.9 3.3
2 9 3 0.8 2.3
-2 9 -3 0.4 1.9
2 -9 3 -1.1 2.1
2 9 -3 -0.7 1.7
-2 -9 -3 3.4 3.2
-2 9 3 0.1 1.7
-2 -9 -3 1.8 2.4
2 9 -3 0.9 1.8
-3 9 -3 137.49 8.6
3 9 3 101.19 8.5
3 -9 -3 123.99 8
3 -9 -3 122.19 10.6
-3 -9 3 114.89 9.8
-3 9 -3 129.19 8.7
-3 9 3 122.79 8.3
3 9 -3 127.59 7.8
-3 -9 -3 129.79 10.2
3 -9 3 127.09 9.4
-3 -9 -3 140.19 9.3
3 9 -3 134.39 8.5
4 -9 -3 49.9 7.4
4 -9 -3 43.2 5
-4 -9 3 62.09 7.9
-4 9 -3 60.19 6.4
4 9 3 52.99 6.3
-4 9 -3 59.29 6.1
-4 9 3 40.7 5.3
4 9 -3 59.39 6.3
-4 -9 -3 56.59 6.8
4 -9 3 51.89 6.6
-5 -9 3 70.39 8.5
5 9 3 63.29 7.4
-5 9 -3 73.99 7.7
5 9 3 63.19 7.6
5 -9 -3 62.49 8.6
-5 9 -3 68.09 7.2
-5 9 3 52.79 6.5
5 9 -3 62.89 7.1
5 -9 3 53.89 7.9
-5 -9 -3 68.19 8.1
0 -9 -4 0.7 3
0 9 4 1.3 1.8
0 -9 4 3.9 3.5
0 9 -4 -0.4 1.6
0 9 4 -0.6 1.5
0 9 -4 -0.2 1.5
1 -9 -4 122.19 7.7
-1 -9 4 133.29 10.9
1 -9 -4 89.89 8.5
1 9 4 111.19 8.1
-1 9 -4 129.49 7.8
1 9 -4 117.29 7.5
-1 -9 -4 122.59 9.2
1 -9 4 124.49 8
1 9 -4 121.89 7.4
1 -9 4 120.49 9.3
-1 9 4 129.59 7.5
-1 -9 -4 118.49 7.5
-2 9 -4 15.5 3.3
2 -9 -4 7.9 2.4
-2 9 -4 12.2 3
2 9 4 20.6 3.9
2 -9 -4 10.9 3.9
-2 -9 4 14.2 4.4
2 9 -4 14.2 3
-2 -9 -4 17.8 4.5
2 -9 4 12.8 3.3
2 9 -4 16 2.9
-2 -9 -4 15.5 3.3
-2 9 4 18.2 3.2
3 -9 -4 77.89 6.2
3 -9 -4 90.99 8.9
-3 9 -4 77.99 6.6
-3 9 -4 67.09 6.7
-3 -9 4 50.79 7.8
3 9 4 74.99 7.6
-3 -9 -4 89.29 9.1
-3 -9 -4 88.69 7.7
3 9 -4 81.69 6.5
3 -9 4 68.29 7.4
-3 9 4 80.99 6.3
3 9 -4 81.09 6.2
-4 -9 4 12.7 4.9
4 9 4 21 4.6
-4 9 -4 4.5 3.4
-4 9 -4 8.7 3.7
4 -9 -4 10 3.1
4 -9 -4 6.4 5.3
-4 9 4 12.4 3.2
4 -9 4 23.3 5.2
4 9 -4 16.6 4
-4 -9 -4 13.5 4.5
5 9 4 96.09 10.4
-5 9 -4 99.49 9.3
5 9 4 86.69 9.5
-5 -9 4 107.59 11.2
-5 -9 -4 109.69 10.5
5 9 -4 101.99 9.2
-5 9 4 75.69 8.1
5 -9 4 88.59 10.2
0 -9 -5 -1.2 3.2
0 9 5 -0.3 1.6
0 -9 5 -0.3 3.5
0 9 -5 1.4 1.9
0 9 5 -1.6 2
1 9 5 3.7 2.3
1 -9 -5 7 3.8
1 -9 -5 4.4 2.2
-1 -9 5 11.4 5.3
-1 9 -5 9.5 2.6
1 -9 5 5.8 2.9
1 -9 5 2.5 3.6
1 9 -5 6.1 2.3
-1 -9 -5 1.2 3.7
-1 9 5 8.8 2.3
1 9 -5 5.6 2.3
2 9 5 1.2 3.1
-2 -9 5 10.2 4.5
-2 9 -5 0.1 2.4
2 -9 -5 2.4 2.2
-2 9 -5 4.2 2.4
2 -9 -5 5.5 3.6
-2 9 5 3.9 2.3
2 -9 5 1.8 2.8
2 9 -5 4.8 2.4
-2 -9 -5 6.1 3.1
2 9 -5 2.6 2.4
-2 -9 -5 4.3 4.2
3 9 5 3.4 3.5
3 -9 -5 4.4 2.6
-3 9 -5 5.9 3.3
3 -9 -5 6.5 4.2
-3 9 -5 2.4 3.1
-3 -9 5 2.9 4.4
3 9 -5 4.1 2.8
-3 9 5 -1.2 2.4
-3 -9 -5 4.8 3.5
-3 -9 -5 7.8 5
3 -9 5 0.4 3.3
3 9 -5 13.1 3.6
4 -9 -5 19.8 4.1
-4 -9 5 17.3 3.9
4 9 5 16.6 5.1
-4 -9 5 18.1 6.1
4 -9 -5 16.6 9.4
-4 9 -5 25.9 4.9
-4 9 -5 17.4 4.8
4 -9 5 15 5
4 9 -5 25.1 4.7
-4 9 5 15.5 3.8
-4 -9 -5 17.6 5
-5 -9 5 2.1 5.6
5 -9 -5 0.2 3.6
5 9 5 -2.7 4.3
-5 9 -5 4.6 4.5
5 -9 5 0.9 5
-5 9 5 2.6 3.7
5 9 -5 0.3 4.1
-5 -9 -5 5.2 5.3
0 -9 6 -4.1 3.7
0 9 6 -0.6 1.8
0 9 6 0.5 2.4
0 9 -6 -0.5 2.1
0 -9 -6 2.5 3.6
-1 -9 6 2425.56 127.49
1 -9 -6 2664.63 125.49
1 -9 -6 2637.34 124.39
1 9 6 2568.44 124.89
-1 9 -6 2628.54 124.19
-1 -9 -6 2641.04 125.89
1 9 -6 2533.05 124.09
-1 9 6 2500.05 123.79
1 -9 6 2539.75 126.29
1 9 -6 2593.94 123.79
2 -9 -6 11 3
-2 -9 6 22 5.9
2 9 6 13.7 4.5
-2 9 -6 25.3 4.2
2 -9 -6 17.9 5.4
2 9 -6 21.4 3.8
-2 9 6 8.6 2.9
-2 -9 -6 22.4 4.6
-2 -9 -6 13.5 5.1
2 -9 6 14.1 3.9
2 9 -6 18.8 3.7
-3 9 -6 1856.81 89.49
3 9 6 1863.41 89.69
3 -9 -6 1563.04 89.59
-3 9 -6 1852.51 88.69
3 -9 -6 1848.72 88.89
-3 -9 -6 1793.42 91.09
-3 9 6 1837.82 88.89
3 -9 6 1838.72 89.69
3 9 -6 1874.01 88.99
3 9 -6 1838.52 88.69
-3 -9 -6 1817.82 89.09
4 9 6 28.7 5.7
-4 9 -6 26 5.4
-4 -9 6 22 6.9
-4 -9 6 27 4.8
4 9 6 28.1 9.1
4 -9 -6 26.9 4.7
-4 9 -6 27.4 5.5
4 9 -6 34.4 5.5
4 -9 6 17.1 5.5
-4 -9 -6 25.6 5.8
-4 9 6 20.6 4.5
-5 -9 6 1251.67 61.49
5 -9 -6 1099.79 59.29
0 -9 7 -0.5 4.2
0 -9 -7 -1.4 4.1
0 9 -7 -1.6 2.4
0 9 7 1.8 2.9
-1 9 -7 262.37 15.1
1 -9 -7 268.87 15.3
1 -9 -7 278.57 17
-1 -9 7 235.98 19.1
1 9 7 261.27 15.9
-1 -9 -7 269.47 17.3
-1 9 7 262.37 14.7
1 -9 7 263.17 17.9
1 9 -7 253.47 15.1
2 9 7 2.6 4.2
2 -9 -7 1.7 2.7
2 -9 -7 0.1 4.5
-2 9 -7 1.8 2.8
-2 -9 7 5 5.3
2 9 -7 6.8 3.2
2 9 -7 0.6 2.7
-2 9 7 4.7 2.8
-2 -9 -7 2.7 4.8
2 -9 7 4 4.9
-3 -9 7 131.79 13.6
-3 9 -7 126.89 9.9
3 9 7 157.28 11.9
-3 9 -7 143.59 10.8
3 -9 -7 138.69 10.3
3 9 -7 147.89 10.2
-3 9 7 142.49 10.1
-3 -9 -7 161.08 16.8
-3 -9 -7 147.89 13.4
3 9 -7 147.59 10.4
3 -9 7 136.69 11.4
4 9 7 10.8 5.8
-4 -9 7 19.7 7.6
-4 9 -7 23.7 5.7
-4 -9 7 12.1 4.3
4 -9 -7 20.1 4.9
4 9 -7 14 4.7
-4 -9 -7 9.4 5.4
-4 9 7 13.4 4.7
4 -9 7 7.4 6.1
0 -9 8 -5 5.1
0 9 8 2 3.5
0 -9 -8 4.3 5
0 9 -8 0.6 3
1 -9 -8 156.38 12.6
1 9 8 136.79 11.1
-1 9 -8 155.98 10.3
-1 -9 8 166.58 16.9
1 -9 -8 148.89 10.4
1 9 -8 146.19 10.2
1 -9 8 152.18 13.3
-1 -9 -8 156.78 12.8
-1 9 8 140.19 9.8
2 -9 -8 9 3.6
-2 9 -8 9.5 3.9
2 9 8 12.6 5.5
-2 -9 8 23.8 7.2
2 9 -8 11.5 3.7
-2 9 8 19.9 4.4
2 9 -8 16.5 4.4
2 -9 8 5.7 6.2
-2 -9 -8 23.3 6.9
-3 -9 8 108.59 13.3
-3 9 -8 119.59 9.3
3 -9 -8 133.09 9.8
-3 -9 8 105.99 9.1
-3 9 8 113.59 9.5
3 9 -8 109.49 9.2
-3 -9 -8 116.19 13.2
0 -9 -9 -1.5 5.6
0 9 -9 3.4 3.7
0 -9 9 1 6.7
0 9 9 1.9 4.5
-1 9 -9 19 4.8
-1 -9 9 31.2 10.1
1 9 9 22.3 5.8
1 -9 -9 16.5 4.4
1 9 -9 22.4 5
1 -9 9 17.1 7.5
-1 -9 -9 18.2 6.8
-2 9 -9 2.1 4
2 9 9 2.8 6.2
-2 -9 9 15.9 8
-2 -9 -9 7.7 6.9
-2 9 9 0.5 3.7
0 10 0 7971.4 379.66
0 -10 0 7977.9 380.26
0 -10 0 7956.3 380.06
0 10 0 8039.4 379.46
1 10 0 1 1.4
-1 10 0 1.4 2
1 10 0 0.3 1.6
-1 -10 0 -2.3 2.4
1 -10 0 0 2.6
1 -10 0 -2.1 2.5
-1 10 0 -0.1 1.6
-1 -10 0 0.5 2.3
-2 -10 0 3331.57 162.68
2 -10 0 3350.66 162.48
2 -10 0 3416.36 161.88
2 10 0 3395.16 162.18
-2 -10 0 3484.45 162.08
-2 10 0 3324.87 161.98
-2 10 0 3361.56 161.18
-3 -10 0 0.1 2.9
-3 10 0 1.5 2.1
-3 10 0 4 2.3
3 10 0 -1.4 2.1
3 -10 0 -0.1 2.6
-3 -10 0 1.5 3.3
-4 -10 0 2539.55 124.19
4 10 0 2611.04 123.59
4 -10 0 2513.35 124.19
-4 10 0 2526.55 123.29
5 -10 0 1 4.1
-5 -10 0 4.4 4.1
5 10 0 0.7 3.3
-5 10 0 2.1 3.8
6 -10 0 902.21 48.1
-6 10 0 828.32 46.2
6 10 0 921.31 46.1
0 -10 -1 60.29 6
0 10 1 68.39 5.2
0 10 -1 55.99 4.4
0 10 1 59.09 4.4
0 -10 -1 47.7 4.6
0 -10 1 67.29 6.7
0 10 -1 44.5 4.3
0 -10 1 62.99 5.6
-1 10 -1 7 1.7
-1 -10 1 9.1 3.1
-1 -10 1 4.7 2.7
-1 10 -1 12.2 2.6
1 -10 -1 3.5 3.2
1 10 1 6 2.3
1 -10 1 7.6 2.6
1 10 -1 9.9 2.4
-1 -10 -1 10.8 3.1
1 -10 1 7.6 2.9
1 10 -1 6.1 1.9
-1 -10 -1 9.4 2.8
-1 10 1 9.6 2.1
-1 10 1 2.3 1.8
-2 10 -1 9.9 2.7
2 -10 -1 9.4 3.3
2 -10 -1 8.5 2
-2 -10 1 8.6 3.1
2 10 1 4.5 2.3
2 -10 1 9.3 2.9
2 10 -1 5.9 2.3
-2 10 1 11.7 2.5
-2 -10 -1 4.7 3.2
-2 -10 -1 9.4 3.1
2 10 -1 8.4 1.9
3 -10 -1 49.3 4.4
3 -10 -1 46.2 5.9
-3 10 -1 50.99 4.8
-3 -10 1 53.19 6.5
3 10 1 65.19 6.1
-3 10 -1 52.29 5.8
-3 -10 -1 53.19 6.1
3 10 -1 65.49 5.9
-3 -10 -1 50.09 6.2
3 -10 1 58.49 6.3
-3 10 1 43.4 5
4 10 1 26.4 4.2
4 -10 -1 37.1 5.6
-4 -10 1 38.8 6
4 10 1 39.5 5.3
-4 10 -1 27.9 5.2
4 -10 1 31.1 5.6
-4 -10 -1 35.3 5.5
4 10 -1 34.2 4.8
-4 10 1 32.2 4.6
-5 -10 1 1.2 4.1
5 -10 -1 5.8 4.5
5 10 1 8.9 4.1
-5 10 -1 3.3 4.3
-5 10 1 -3.7 3.3
-5 -10 -1 2 4.5
5 -10 1 0 4.3
5 10 -1 1.4 3.6
6 -10 -1 11.5 6.1
6 10 1 15.2 5.6
-6 10 -1 -5.5 5.5
-6 10 1 9.4 4.9
6 10 -1 3.9 5
0 -10 2 13.7 3.1
0 10 -2 7.1 1.9
0 10 -2 10.3 2.4
0 10 2 6.1 1.7
0 -10 2 11.6 3.8
0 -10 -2 5.4 3
0 10 2 9.5 2.5
1 -10 -2 3.4 2.9
-1 -10 2 2.6 2.9
1 10 2 3.2 2.2
-1 10 -2 6.3 2.1
-1 10 -2 3.4 1.4
-1 -10 -2 1.8 2.2
1 -10 2 4.6 2.3
1 10 -2 1.1 1.7
1 -10 2 -0.1 2.6
1 10 -2 5.4 2
-1 10 2 1.4 1.7
-1 -10 -2 4.1 3.1
-1 10 2 0.9 1.7
-2 10 -2 170.28 9.9
2 10 2 179.58 10.6
2 -10 -2 150.18 11.6
-2 -10 2 151.28 11.3
2 -10 -2 162.78 9.6
-2 10 -2 177.28 10.2
-2 -10 -2 158.98 10.4
2 -10 2 175.48 10.7
-2 -10 -2 166.08 11.1
2 10 -2 169.88 10.1
-2 10 2 177.98 9.9
2 10 -2 174.68 9.4
-3 10 -2 7.4 2.5
3 10 2 11.6 3.1
-3 -10 2 1.9 3.4
3 -10 -2 16.3 4.1
-3 10 -2 7.5 2.9
3 -10 -2 3.3 2.3
3 -10 2 10.7 3.7
-3 10 2 9.4 2.7
-3 -10 -2 10.5 3.6
3 10 -2 6.6 2.7
3 10 -2 4.6 2.3
-3 -10 -2 8 4.1
-4 -10 2 54.99 7.2
-4 10 -2 43.9 5.3
4 10 2 49.99 6.3
4 -10 -2 51.79 6.8
-4 10 -2 47 6.1
-4 10 2 48.5 5.6
4 10 -2 47 5.8
-4 -10 -2 61.49 7.2
4 -10 2 47.2 6.7
5 10 2 9.1 4.5
-5 -10 2 8.5 4.6
-5 10 -2 4.2 3.9
5 10 2 10 4.4
5 -10 -2 12.9 4.8
5 10 -2 8.8 3.8
5 -10 2 9.7 5
-5 -10 -2 6.9 4.7
-5 10 2 8.3 3.6
6 -10 -2 6.5 6
6 10 2 -6.4 4.8
0 10 3 29.2 3.8
0 10 -3 28.4 3.5
0 -10 3 42.8 6.2
0 10 3 34.4 3.2
0 10 -3 32.8 3.2
0 -10 -3 35.6 5.4
-1 -10 3 5.7 3.7
1 10 3 -3 1.9
1 -10 -3 2.7 1.8
-1 10 -3 5.5 2.2
1 -10 -3 -0.9 3
-1 -10 -3 0.1 3
1 10 -3 -2.9 1.5
1 -10 3 0.9 3.1
-1 -10 -3 -1.6 2.1
-1 10 3 0.1 1.5
1 10 -3 1.7 1.9
1 -10 3 -0.7 2.1
2 -10 -3 25.7 5.1
-2 10 -3 28.9 3.9
-2 10 -3 33.9 4.4
2 -10 -3 27.7 3.6
-2 -10 3 39.6 5.8
2 10 3 40.8 5
2 10 -3 35.7 3.9
-2 -10 -3 46.3 6
2 10 -3 39.6 4.4
-2 10 3 33.9 4
-2 -10 -3 27.5 4.3
2 -10 3 37.9 5
-3 10 -3 24 3.9
-3 -10 3 23.6 5.1
3 -10 -3 30 6
3 10 3 22.6 4.2
3 -10 -3 28.3 3.8
-3 10 -3 33 4.6
3 -10 3 21.3 4.6
-3 -10 -3 30.2 5.9
3 10 -3 19.7 3.3
-3 10 3 19 3.5
3 10 -3 23.8 4
-3 -10 -3 28.8 4.8
4 10 3 33.9 5.7
-4 -10 3 55.29 7.4
-4 10 -3 45 5.5
4 -10 -3 30.1 4.3
-4 10 -3 40.3 5.7
4 -10 -3 39.9 7.2
4 10 -3 52.09 6
-4 -10 -3 50.69 6.6
4 -10 3 38.8 6.4
-4 10 3 40.6 5.2
-4 -10 -3 45.3 7.7
-5 10 -3 1.9 4.4
5 10 3 -3.4 4
-5 10 -3 -0.7 3.7
-5 -10 3 -1.9 4.7
5 -10 -3 4 5.5
5 10 3 -1.2 4.1
-5 -10 -3 -4 4.2
5 -10 3 -2.5 4.4
-5 10 3 -0.4 3.3
5 10 -3 -2.5 3.5
0 -10 -4 3270.87 156.68
0 10 -4 3202.18 154.68
0 10 -4 3327.37 155.38
0 -10 4 3250.27 157.48
0 10 4 3243.48 154.68
0 10 4 3155.48 155.68
1 10 4 0.2 2.2
-1 10 -4 -0.7 1.8
-1 -10 4 1.7 4.2
1 -10 -4 2.6 1.9
1 -10 -4 0.3 3
1 10 -4 -0.6 1.9
1 -10 4 -2.3 2.4
1 10 -4 -0.7 1.8
-1 10 4 0.5 1.9
1 -10 4 -4 3.2
-1 -10 -4 -1.4 2.1
-1 -10 -4 0.2 3.1
2 -10 -4 3415.36 165.48
-2 10 -4 3266.97 164.28
-2 -10 4 3465.35 166.18
2 10 4 3583.74 165.08
2 -10 -4 3336.37 164.08
2 10 -4 3419.76 164.18
-2 -10 -4 3391.86 165.58
-2 10 4 3420.36 164.08
-2 -10 -4 3461.75 164.18
2 -10 4 3366.36 164.68
2 10 -4 3520.15 163.88
3 10 4 8.5 3.8
-3 -10 4 6.5 4.7
-3 10 -4 12.6 3.8
3 -10 -4 17.7 3.5
3 -10 -4 14.8 5
-3 10 -4 11.5 3.5
3 10 -4 9 3.4
3 -10 4 22.6 4.6
3 10 -4 15.4 3.3
-3 -10 -4 13.9 5.1
-3 -10 -4 10.8 3.9
-3 10 4 18.9 3.6
4 -10 -4 1412.36 70.09
-4 10 -4 1386.36 68.49
-4 -10 4 1446.36 70.39
-4 10 -4 1285.97 68.19
4 -10 -4 1392.46 67.79
4 10 4 1339.77 68.69
4 -10 4 1375.26 69.49
4 10 -4 1438.06 68.49
-4 -10 -4 1331.57 70.29
-4 10 4 1388.66 68.29
-4 -10 -4 1383.76 68.99
5 10 4 23.7 5.8
-5 -10 4 28.9 7.1
5 10 4 16.1 5.9
-5 10 -4 14.9 5.8
-5 10 -4 16.2 5.2
5 10 -4 31.5 5.7
-5 10 4 20.9 4.8
-5 -10 -4 29.2 6.6
5 -10 4 26.5 6.6
0 10 -5 15.3 3.2
0 10 5 15.5 2.7
0 10 5 17.7 3.5
0 -10 5 19.7 5.5
0 -10 -5 21 4.8
-1 10 -5 4.3 2.6
-1 -10 5 6.5 4.8
1 -10 -5 5.5 2.4
1 -10 -5 8 4.4
1 10 5 7.1 2.9
1 10 -5 11.2 2.9
-1 10 5 6.3 2.4
-1 -10 -5 7.8 4.5
1 -10 5 13.5 3.5
1 -10 5 6.9 4.6
1 10 -5 12.2 2.7
-2 -10 5 7.8 4.7
2 -10 -5 10.9 2.9
2 10 5 11.9 4
-2 10 -5 16.9 3.6
2 -10 -5 17.4 4.8
-2 10 5 8.4 2.8
2 10 -5 13.6 3.3
2 -10 5 7.5 3.4
2 10 -5 14.7 3.3
-2 -10 -5 11.9 3.5
-2 -10 -5 17 5.2
2 -10 5 20 5.2
-3 10 -5 36.6 5.3
3 -10 -5 33.6 6.6
3 -10 -5 31.1 4.6
3 10 5 41.8 6.1
-3 10 -5 23.3 4.7
-3 -10 5 32 6.7
-3 -10 -5 42 5.5
-3 10 5 32 4.6
3 10 -5 42.8 5.4
-3 -10 -5 34.2 7.1
3 -10 5 36.8 5.7
3 10 -5 39.5 4.9
4 -10 -5 5.4 5.5
4 10 5 -1.5 4.4
-4 -10 5 1.6 5.2
-4 10 -5 16.1 4.6
-4 10 -5 2 4.1
4 -10 -5 8.9 3.5
-4 -10 5 6 3.5
-4 -10 -5 7.2 4.3
-4 -10 -5 2.8 5.8
-4 10 5 5.8 3.5
4 -10 5 8.5 4.6
4 10 -5 9.3 4.1
5 10 5 7.1 5.1
-5 10 -5 10.1 5
-5 -10 5 9 6.8
5 -10 5 3.5 6.5
-5 -10 -5 2.3 5.3
0 -10 -6 23.6 5.6
0 10 6 23.7 4.3
0 10 -6 22 3.7
0 -10 6 15.2 5.8
1 -10 -6 11 3.1
-1 -10 6 2.2 5.2
1 -10 -6 15.5 4.8
-1 10 -6 14.5 3.5
1 10 6 11.6 3.6
-1 -10 -6 14.3 5
1 10 -6 19.6 3.5
-1 10 6 12.9 3.1
1 -10 6 16.3 5.7
1 10 -6 12.5 3.1
2 -10 -6 22 3.9
2 10 6 19.9 4.9
-2 10 -6 26.7 4.4
2 -10 -6 12.7 5.3
-2 -10 6 30.3 6.3
2 -10 6 20.7 4.7
2 10 -6 22.2 3.9
2 10 -6 23.2 4.1
-2 10 6 16.6 3.7
-2 -10 -6 19.8 6
2 -10 6 21.5 6.1
-3 10 -6 9.2 3.6
3 -10 -6 4 3.2
3 10 6 9.5 4.4
-3 10 -6 6.3 3.5
-3 -10 6 8.2 5.6
3 -10 -6 -0.6 4.5
-3 -10 -6 11.3 6
-3 -10 -6 1.2 3.8
3 10 -6 4.5 3.3
3 10 -6 2.5 3.1
3 -10 6 5.4 4.2
-3 10 6 2.1 2.9
-4 -10 6 0.8 6.2
-4 10 -6 11.6 4.7
4 10 6 6.3 4.5
-4 -10 6 7.6 3.8
4 -10 -6 6.8 3.7
-4 10 -6 10.4 4.7
-4 -10 -6 -0.6 6.3
4 10 -6 9.8 4
-4 -10 -6 9.5 5.2
4 -10 6 8.1 5
-4 10 6 6.6 3.9
0 10 -7 9.7 3.4
0 -10 7 6.5 5.6
0 -10 -7 8.2 5.1
0 10 7 9.5 3.9
1 -10 -7 -1.1 4.4
-1 10 -7 -1.1 2.8
1 10 7 -2.8 3.2
-1 -10 7 -1.7 5.8
1 -10 -7 -0.2 2.4
-1 -10 -7 2 4.7
1 10 -7 3.5 3
1 -10 7 -1.6 4.4
-1 10 7 1.9 2.5
-2 10 -7 58.29 6.4
2 -10 -7 56.49 8.3
2 10 7 58.59 7.9
2 -10 -7 43.2 5.9
-2 -10 7 47.9 8.3
2 10 -7 63.89 6.8
2 10 -7 54.49 6.2
-2 -10 -7 63.09 9
-2 10 7 48.4 5.9
2 -10 7 53.79 9
-3 10 -7 8.4 3.9
-3 10 -7 4.7 3.8
-3 -10 7 5.1 6.2
3 10 7 8.8 5.2
3 -10 -7 1.6 3.1
3 10 -7 6.2 3.7
-3 10 7 3.6 3.4
-3 -10 -7 13.3 6.6
3 10 -7 10 4.1
3 -10 7 6.4 5.1
-4 -10 7 20.2 5
-4 -10 7 23.8 8.4
4 -10 -7 24.9 5.2
-4 -10 -7 8.5 5.5
4 -10 7 19 6.7
4 10 -7 22.4 7.4
0 10 -8 1000.7 52.09
0 -10 -8 1048.5 54.19
0 10 8 1062.99 53.09
0 -10 8 1053.99 56.09
1 -10 -8 3.2 3.1
1 10 8 4.9 4
1 -10 -8 9.5 5.7
-1 10 -8 1.5 3.3
-1 -10 8 8.3 7.4
-1 -10 -8 1.1 5.3
-1 10 8 4.2 3.6
1 10 -8 -0.4 3.3
1 -10 8 8.3 5.8
2 -10 -8 1398.46 68.69
-2 -10 8 1474.25 71.89
2 10 8 1322.07 69.99
-2 10 -8 1349.66 68.19
2 -10 8 1379.16 71.79
-2 10 8 1349.27 68.09
-2 -10 -8 1353.56 70.99
2 10 -8 1403.06 68.49
3 -10 -8 43.6 8
3 10 8 61.09 11
-3 10 -8 48.7 6.5
-3 -10 8 58.29 10.1
-3 10 8 46.3 6.4
3 10 -8 30.2 5.7
0 10 -9 8.3 4.2
0 10 9 7.5 4.9
0 -10 9 6.8 8
0 -10 -9 8.5 6.6
-1 10 -9 1.8 3.7
1 10 9 2.9 4.8
1 -10 -9 2.6 3.6
-1 -10 9 -1.4 7.7
1 10 -9 2.1 3.8
-1 -10 -9 5.3 6.3
1 -10 9 9.8 7.5
-2 -10 9 13.1 8
-2 10 -9 -1.1 3.9
2 10 9 3.7 6.4
-2 10 9 8 4.4
0 11 0 3.6 1.8
0 11 0 3.8 1.9
0 -11 0 -0.1 2.6
0 -11 0 4.4 2.7
1 -11 0 67.09 6.4
-1 -11 0 68.29 6.4
-1 -11 0 62.09 6.2
-1 11 0 73.99 5.5
-1 11 0 68.49 5.2
1 11 0 62.49 5.3
1 -11 0 55.39 6.4
1 11 0 71.29 4.7
2 -11 0 -0.3 2.4
-2 -11 0 -1.5 2.5
-2 11 0 0.9 1.7
-2 11 0 0.5 2.2
-2 -11 0 -0.2 3.1
2 11 0 -0.2 2.2
2 -11 0 -1 2.8
-3 11 0 15.6 3.5
3 -11 0 18 4.2
-3 -11 0 13.6 4.1
3 11 0 11.3 3.4
-3 -11 0 18.9 4.3
4 -11 0 0.2 3.7
-4 11 0 1.3 3
4 11 0 3.8 3.4
-4 -11 0 4.7 3.9
-5 11 0 16.9 5.4
5 11 0 14.1 4.5
-5 -11 0 15.5 5.3
5 -11 0 12.8 5.2
-6 11 0 1.9 5.5
0 11 1 -1.6 1.8
0 11 1 -1.9 1.6
0 -11 -1 2.8 2.9
0 11 -1 0.1 1.8
0 -11 1 1.7 3.3
0 -11 1 0.7 2.6
0 11 -1 -0.7 1.8
0 -11 -1 -1 2.3
1 11 1 296.27 15.4
-1 -11 1 294.07 16.2
-1 11 -1 292.57 15
-1 11 -1 275.77 14.4
1 -11 -1 281.17 16.2
1 -11 1 247.58 15.3
1 11 -1 260.67 14.9
-1 11 1 277.67 14.8
-1 11 1 269.17 14.8
-1 -11 -1 262.07 15.3
1 11 -1 300.47 14.6
-1 -11 -1 283.97 16
1 -11 1 270.07 15.8
-2 -11 1 8.3 3.5
-2 11 -1 20.8 3.6
2 11 1 16.1 3.5
2 -11 -1 19.2 4.2
2 11 -1 17.2 2.5
-2 -11 -1 11.1 4
2 11 -1 20.7 3.4
-2 11 1 14.8 2.8
-2 -11 -1 23.1 4.1
2 -11 1 13.7 3.5
2 -11 1 21 4.1
-2 11 1 15.9 2.8
-3 -11 1 223.78 13.8
-3 11 -1 204.08 11.8
-3 11 -1 216.68 12.8
3 11 1 195.58 12.7
3 -11 -1 189.48 13
-3 -11 -1 204.58 13.1
3 -11 1 193.38 13.1
-3 -11 -1 221.68 13.5
3 11 -1 211.38 12.6
-3 11 1 209.48 12.2
4 -11 -1 62.89 7.6
-4 11 -1 47.2 6.6
4 11 1 54.59 6.5
-4 -11 1 69.49 8.2
-4 11 1 65.29 6.7
4 -11 1 62.09 7.5
4 11 -1 61.29 6.8
-4 -11 -1 68.49 7.7
5 -11 -1 83.89 9.8
5 11 1 99.29 9.5
-5 11 -1 112.69 10.2
-5 -11 1 99.09 10.5
-5 11 1 91.19 8.8
-5 -11 -1 100.89 10.5
5 -11 1 103.09 10.5
5 11 -1 105.29 8.9
6 11 1 110.09 12.7
-6 11 -1 123.19 11.6
0 11 2 -1 1.5
0 11 2 -1.3 1.8
0 11 -2 0 1.9
0 -11 -2 -0.3 2.9
0 11 -2 0.6 1.6
0 -11 2 -3.9 3.2
0 -11 2 -1.5 2.7
1 11 2 2775.22 132.19
1 -11 -2 2811.12 132.79
-1 11 -2 2763.62 131.69
-1 -11 2 2802.62 133.09
-1 11 2 2692.93 131.29
1 11 -2 2805.12 131.29
1 -11 2 2719.43 132.59
1 11 -2 2810.42 131.59
-1 -11 -2 2705.13 131.59
-1 -11 -2 2765.02 132.69
1 -11 2 2565.34 131.69
-1 11 2 2694.73 131.59
2 11 2 1.3 2.1
2 -11 -2 4.4 3.7
-2 -11 2 -4 2.9
-2 11 -2 -0.4 2.2
2 -11 -2 0.1 1.9
2 -11 2 1.1 3.1
2 11 -2 4.2 2.2
2 -11 2 -4 2.6
-2 11 2 1.8 1.9
-2 -11 -2 0.8 3.5
2 11 -2 -0.3 1.9
-2 -11 -2 -0.5 2.6
-3 11 -2 1648.44 76.89
-3 -11 2 1377.66 77.79
-3 11 -2 1652.43 76.49
3 -11 -2 1658.53 76.09
3 -11 -2 1511.15 78.09
3 11 2 1357.96 76.79
-3 -11 -2 1651.73 77.39
-3 11 2 1553.04 76.59
3 -11 2 1638.14 77.69
-3 -11 -2 1599.44 77.79
3 11 -2 1593.74 76.79
-4 -11 2 2.6 4.3
4 11 2 7.1 3.8
-4 11 -2 4.2 3.5
4 -11 -2 4.7 4.4
-4 11 -2 8.8 3.2
4 11 -2 2.7 2.8
-4 11 2 3 3
4 -11 2 6.2 4
-4 -11 -2 0.7 4.1
-4 -11 -2 -1.4 5.1
5 11 2 828.32 40.4
-5 -11 2 825.92 41.6
5 -11 -2 719.73 40.8
-5 11 -2 750.42 39.8
5 11 -2 752.32 39.9
-5 -11 -2 781.22 41
5 -11 2 729.93 41.2
-5 11 2 753.32 39.6
6 11 2 -1.6 8.5
0 -11 3 0.7 4
0 11 3 -0.7 1.8
0 11 3 0.1 1.5
0 11 -3 -1.5 1.6
0 11 -3 -2.4 1.7
0 -11 -3 -0.4 3.4
-1 -11 3 28.6 5.6
1 11 3 28.8 4.5
-1 11 -3 39.1 4.4
1 -11 -3 27.8 5.2
1 11 -3 34.5 3.9
-1 11 3 27.4 3.5
-1 11 3 34.8 4.2
1 -11 3 32 4.3
1 11 -3 36.8 3.9
-1 -11 -3 32.9 3.9
-1 -11 -3 29.1 5.3
1 -11 3 28.3 5
-2 -11 3 12.3 4.1
-2 11 -3 9.4 3.3
2 -11 -3 11.2 2.7
2 11 3 11.4 3.4
2 -11 -3 8 4
-2 -11 -3 6.5 4.2
-2 11 3 10.7 2.6
2 -11 3 14.6 4.4
2 11 -3 13.4 2.7
2 11 -3 11.5 2.9
-2 -11 -3 4.8 3
2 -11 3 7.8 3.4
-3 -11 3 19.7 5.4
3 -11 -3 30 4
3 11 3 37.5 5.1
3 -11 -3 43.7 6.9
-3 11 -3 29.3 4.4
-3 11 -3 27.1 4.5
3 11 -3 41.7 4.3
3 11 -3 28.6 4.4
-3 -11 -3 41.5 5.7
-3 -11 -3 31.9 6.4
-3 11 3 34.8 4.5
3 -11 3 40 5.8
-4 11 -3 106.69 8.7
4 -11 -3 61.09 9.2
-4 11 -3 81.69 7.3
-4 -11 3 82.39 9.6
4 11 3 61.29 7.6
4 11 -3 83.09 8
-4 -11 -3 63.29 8.1
-4 11 3 78.99 7.4
4 -11 3 76.69 8.7
-4 -11 -3 78.69 9.5
5 11 3 29.5 6.1
-5 11 -3 30.2 7.3
5 -11 -3 31.6 7.5
-5 -11 3 34.3 7.4
5 11 3 29.6 6.3
-5 11 -3 25 5.8
-5 -11 -3 33.2 6.9
-5 11 3 25.3 5
5 11 -3 32.4 5.9
5 -11 3 32.9 6.8
0 11 4 0.6 2.1
0 11 4 1.3 1.9
0 -11 4 -0.7 3.8
0 11 -4 0.9 2.2
0 11 -4 5.6 2.4
0 -11 -4 0.2 3.5
1 11 4 8.4 3.1
-1 11 -4 9.5 2.8
1 -11 -4 9.2 3.9
-1 -11 4 12.9 4.7
1 -11 -4 5.8 2.4
1 -11 4 4.8 2.9
1 11 -4 8.7 2.5
-1 11 4 11.8 2.6
1 11 -4 11 2.9
1 -11 4 12.4 4.5
-1 -11 -4 12.2 4.3
2 -11 -4 1 2.2
-2 -11 4 8.6 4.2
2 11 4 -0.1 2.8
-2 11 -4 1 2.8
2 -11 -4 3.1 3.9
2 11 -4 0.2 2.3
2 -11 4 1.5 3
-2 -11 -4 1.7 3.9
-2 11 4 3.9 2.6
-2 -11 -4 -1 2.9
2 11 -4 0.7 2.3
2 -11 4 3.2 4
3 -11 -4 9.2 3
-3 11 -4 12.5 3.8
3 -11 -4 10 4.7
-3 11 -4 11.6 3.6
3 11 4 11.9 3.9
-3 -11 4 10.2 5.2
-3 11 4 14.6 3.4
3 -11 4 7.7 4.2
-3 -11 -4 16.3 4.5
3 11 -4 9.6 3.6
-3 -11 -4 12.4 5.7
3 11 -4 9.6 3.3
4 -11 -4 8.4 5.6
-4 -11 4 6.9 5.4
-4 11 -4 14.3 4.5
-4 11 -4 9 3.9
4 11 4 10.8 4.4
4 -11 -4 8.2 3.4
4 11 -4 2.8 3.5
-4 -11 -4 12.7 6.3
-4 11 4 2.9 3.1
4 -11 4 7.3 4.6
-4 -11 -4 10.5 4.5
5 11 4 35.1 7.2
-5 11 -4 37 7
5 11 4 34.2 6.5
-5 11 -4 33 6.2
5 -11 -4 19.3 8
-5 -11 4 34.4 7.7
5 11 -4 42 6.5
-5 11 4 29.3 5.6
-5 -11 -4 42.9 7.6
5 -11 4 23.2 6.8
0 11 5 0.6 1.9
0 -11 5 1.9 4.1
0 -11 -5 1.4 3.7
0 11 -5 1.9 2.3
0 11 5 -1.1 2.2
-1 -11 5 495.45 29.2
-1 11 -5 533.55 26.3
1 -11 -5 450.55 27.6
1 -11 -5 496.75 26.1
1 11 5 470.55 26.7
1 11 -5 520.35 26.1
1 11 -5 516.95 25.9
-1 -11 -5 520.45 28
-1 11 5 514.45 25.8
1 -11 5 482.15 28.1
2 -11 -5 9.8 3
2 11 5 5.4 3.4
-2 -11 5 7.3 4.7
2 -11 -5 15.7 5
-2 11 -5 12.1 3.5
2 11 -5 10.9 3.4
-2 -11 -5 11.1 3.6
2 -11 5 7.6 3.7
2 11 -5 14 3.6
-2 -11 -5 11.5 5.2
-2 11 5 13.1 3.3
2 -11 5 6.4 4.4
3 -11 -5 309.77 17
-3 -11 5 293.17 19.6
3 -11 -5 298.27 18.8
-3 11 -5 299.27 17.5
3 11 5 294.37 17.9
-3 11 -5 271.27 17.1
3 11 -5 306.07 17.3
-3 -11 -5 285.37 17.5
3 11 -5 295.07 16.7
3 -11 5 323.57 18.3
-3 11 5 308.07 17.1
-3 -11 -5 301.47 19.6
-4 11 -5 28.8 6
4 11 5 37.4 6.7
4 -11 -5 46.2 8
-4 11 -5 36 5.9
-4 -11 5 34.1 7.6
4 -11 -5 31.2 5.1
4 -11 5 33.2 6.5
-4 -11 -5 36.8 8.3
-4 11 5 35.3 5.4
-4 -11 -5 42.1 6.7
4 11 -5 52.69 6.5
-5 -11 5 193.88 16.9
-5 11 -5 192.08 14.5
0 11 -6 -3.2 2.3
0 -11 6 -4.1 4.4
0 11 6 -0.3 2.6
0 -11 -6 1.5 4.3
-1 11 -6 1338.27 65.89
-1 -11 6 1290.97 69.19
1 -11 -6 1321.17 65.89
1 -11 -6 1344.57 67.49
1 11 6 1316.67 66.49
-1 11 6 1289.87 65.29
1 -11 6 1350.96 68.19
-1 -11 -6 1450.75 68.09
1 11 -6 1328.07 65.69
-2 11 -6 3.8 3.5
2 -11 -6 3.9 4.8
-2 -11 6 -2 4.2
2 -11 -6 3.3 2.8
2 11 6 1.8 3.8
2 -11 6 5.7 5.2
2 -11 6 4.2 5.4
2 11 -6 3.3 2.8
-2 11 6 2.3 2.8
2 11 -6 -0.7 3.1
-2 -11 -6 -1.6 4.8
3 -11 -6 837.62 42.3
-3 -11 6 833.82 45
3 -11 -6 775.42 43.8
3 11 6 885.31 43.4
-3 11 -6 825.92 42.4
-3 11 -6 856.11 43.1
-3 -11 -6 878.31 45.4
-3 11 6 791.22 42.2
3 11 -6 879.01 42.3
3 -11 6 795.92 43.1
-3 -11 -6 769.82 43.2
3 11 -6 832.22 42.4
4 -11 -6 9.2 4.3
-4 11 -6 23.2 5.6
-4 -11 6 12.1 7.2
-4 -11 6 7.7 4
-4 11 -6 10.4 4.8
4 11 6 18.7 5.7
4 11 -6 9.8 4.4
4 -11 6 17.5 6.1
-4 -11 -6 6.9 5.4
-4 11 6 4.5 4
-4 -11 -6 5.9 7.3
0 11 -7 -1.8 2.9
0 -11 -7 -0.7 4.8
0 11 7 -0.2 3.3
0 -11 7 4 5.8
-1 -11 7 7.5 6.6
1 -11 -7 -2.8 4.7
1 -11 -7 5.9 3
1 11 7 1.1 3.2
-1 11 -7 2 3.2
-1 -11 -7 2.2 5.2
1 11 -7 2.3 3.2
1 -11 7 6.7 5.1
-1 11 7 6.9 3
2 -11 -7 15.1 6.2
2 11 7 9.9 5.3
2 -11 -7 10 3.7
-2 -11 7 9.1 5.8
-2 11 -7 12.3 3.8
2 11 -7 10.6 3.9
2 -11 7 15.7 6.4
-2 -11 -7 17.5 6.5
2 11 -7 7.5 3.8
-2 11 7 10.3 3.8
-3 11 -7 5.2 4
-3 -11 7 9.1 7
3 -11 -7 2.6 3.3
3 11 7 3.2 4.9
-3 -11 -7 2.5 6.6
3 11 -7 2.9 3.8
-3 11 7 -3.5 3.2
3 -11 7 11.5 6.6
3 11 -7 6.3 3.8
-4 -11 7 17.6 4.9
-4 11 -7 27.2 8.5
-4 -11 7 23.5 8.9
4 -11 7 32.1 7.6
0 -11 8 -0.8 6.2
0 11 8 -0.5 3.9
0 -11 -8 -5.1 5.4
0 11 -8 -0.9 3.2
1 11 8 32 6.3
-1 11 -8 30.3 5.4
-1 -11 8 10.4 7.8
1 -11 -8 22.6 4.7
1 -11 -8 25.1 6.7
1 11 -8 23.8 4.8
1 -11 8 13.4 7.1
-1 -11 -8 20.8 6.9
2 11 8 9.9 5.8
-2 11 -8 -2 3.6
2 -11 -8 5.2 3.7
-2 -11 8 -1.3 5.9
2 11 -8 2.2 3.8
2 -11 8 3.3 6.7
-2 11 8 3 3.6
-2 -11 -8 0.4 6.5
-3 -11 8 26.3 8.7
3 11 8 31.2 7.6
-3 11 -8 27.7 5.6
3 11 -8 22.5 5.2
0 11 9 2.6 4.5
0 11 -9 5.9 4.8
0 -11 -9 7.6 6.6
0 -11 9 -9.5 7.5
1 11 9 364.66 22.5
-1 -11 9 363.56 26.7
-1 11 -9 385.96 22.9
-1 -11 -9 368.46 24.2
2 11 9 0.3 7.9
-2 11 9 -0.1 4.3
0 12 0 1472.65 70.89
0 -12 0 1464.95 71.59
0 12 0 1445.56 70.59
0 -12 0 1457.95 71.39
-1 -12 0 -0.5 2.9
-1 12 0 -2.5 1.9
1 -12 0 -2.1 3.1
1 12 0 -2 1.7
1 12 0 1.2 2
-1 12 0 1.2 2.1
-1 -12 0 4.1 3.2
1 -12 0 -2 3.2
-2 -12 0 962.6 52.59
2 -12 0 1073.09 52.79
-2 -12 0 1157.18 52.49
-2 12 0 1078.79 52.19
2 12 0 955.7 51.99
2 -12 0 1078.29 52.59
-3 -12 0 0.4 3.3
3 -12 0 -1.5 3
-3 12 0 -2.8 2.8
3 12 0 -1.3 2.6
-3 -12 0 1.6 3.9
4 -12 0 695.33 37.8
-4 -12 0 763.62 38.3
-4 12 0 671.13 37
4 12 0 730.53 37.3
-5 -12 0 3.4 4.7
5 -12 0 1.3 4.6
5 12 0 -2.3 3.7
-5 12 0 1.9 4.6
0 -12 -1 296.57 16.8
0 12 -1 329.77 16.7
0 12 1 326.47 16.5
0 -12 -1 340.07 17.9
0 12 1 314.97 17
0 -12 1 289.87 17.8
0 12 -1 294.97 16.5
0 -12 1 323.97 17.3
1 12 1 8.2 2.2
-1 12 -1 12.2 2.7
1 12 1 7.8 2.7
-1 -12 1 7.9 3.5
-1 -12 1 6.8 3.3
-1 12 -1 8.4 2.1
1 -12 -1 4.1 3.5
1 -12 1 1.8 2.9
-1 -12 -1 5 3.7
-1 12 1 10.1 2.5
-1 -12 -1 8.1 3.1
1 12 -1 5.5 2.2
1 -12 1 7.2 3.8
1 12 -1 4.2 2.4
-1 12 1 7.5 2.6
2 -12 -1 194.48 14.2
2 12 1 220.08 13.3
-2 -12 1 198.48 13.9
-2 -12 1 231.98 13.2
-2 12 -1 225.38 13
2 -12 1 227.38 13.8
-2 -12 -1 218.28 14
-2 -12 -1 237.58 13.8
2 12 -1 241.98 12.1
2 -12 1 226.68 13.6
-2 12 1 229.38 12.8
2 12 -1 235.78 13.2
-2 12 1 210.78 12.3
3 -12 -1 41.4 6.4
-3 12 -1 51.69 6.1
-3 -12 1 56.59 7
3 12 1 43.7 5.9
-3 12 -1 44.6 4.8
-3 -12 -1 48.8 6.7
-3 -12 -1 65.39 7
-3 12 1 51.49 5.5
3 12 -1 64.19 6.6
3 -12 1 59.09 6.8
-4 12 -1 161.28 11.5
4 12 1 173.98 11.7
4 -12 -1 146.89 12
-4 -12 1 174.48 13.1
-4 -12 -1 172.38 12.5
-4 12 1 157.78 11
4 12 -1 181.08 11.7
4 -12 1 168.18 12.4
5 -12 -1 199.18 15.2
5 12 1 209.98 14.4
-5 12 -1 208.68 14.3
-5 -12 1 228.48 15.8
-5 12 1 207.48 13.8
-5 -12 -1 224.68 15.5
5 -12 1 197.58 15.2
5 12 -1 222.18 14.3
0 12 2 891.61 45.4
0 12 -2 838.92 44.6
0 -12 -2 924.91 44.4
0 12 -2 947.31 44.5
0 -12 2 916.21 45.3
0 12 2 895.21 44.3
0 -12 2 884.31 46.8
0 -12 -2 952.4 46.1
1 -12 -2 -0.8 3.1
-1 -12 2 1.3 3.4
-1 12 -2 2 2.4
1 12 2 1.5 2.4
-1 -12 -2 0.9 2.6
1 -12 2 4.5 3.4
-1 12 2 -1.2 1.7
-1 -12 -2 -2.2 3.2
1 -12 2 3.1 2.7
1 12 -2 0.9 2.1
-1 12 2 3.2 2.2
1 12 -2 0.6 2.1
2 12 2 272.77 15.3
-2 -12 2 246.68 16.3
-2 12 -2 258.67 14.8
2 -12 -2 263.67 16.4
-2 -12 -2 250.47 16.1
-2 -12 -2 263.37 15.3
-2 12 2 259.47 14.6
-2 12 2 260.87 14.5
2 -12 2 264.67 15.5
2 12 -2 267.27 14.1
2 12 -2 278.97 15
2 -12 2 259.57 15.9
-3 -12 2 -4.9 3.1
3 -12 -2 -3.1 3.9
3 -12 -2 0.9 2.4
-3 12 -2 2.4 2.6
3 12 2 2.4 2.9
-3 12 -2 2.1 2.9
-3 12 2 0.8 2.3
3 12 -2 -1.8 2.6
3 -12 2 0.8 3.3
-3 -12 -2 2.3 4.2
-3 -12 -2 3 3.5
4 -12 -2 476.85 27.1
-4 -12 2 466.15 27.2
4 12 2 473.65 26.1
-4 12 -2 458.55 25.5
-4 12 2 447.66 25.3
-4 -12 -2 480.05 27.1
4 -12 2 486.25 26.8
-4 -12 -2 489.45 26.6
4 12 -2 482.15 25.7
-5 12 -2 4.2 4.2
5 -12 -2 -1.2 5.2
5 12 2 -0.7 4.4
-5 -12 2 -1 5.3
-5 12 2 -4.8 3.2
-5 -12 -2 0.3 4.8
5 12 -2 5.5 4.1
5 -12 2 -1.8 4.9
0 12 3 788.42 40.2
0 12 -3 794.92 39.9
0 -12 3 722.33 42
0 12 -3 873.01 39.4
0 12 3 848.32 39.3
0 -12 3 744.33 40
-1 -12 3 60.09 7.4
1 12 3 45.3 5.7
1 -12 -3 58.39 7
-1 12 -3 47 5.3
-1 12 3 52.59 5.4
-1 -12 -3 62.59 7.5
-1 12 3 60.39 4.8
1 -12 3 58.39 7.1
-1 -12 -3 58.69 5.4
1 -12 3 46.7 5.4
1 12 -3 60.69 5.3
1 12 -3 55.49 5.1
2 -12 -3 828.92 41.2
2 -12 -3 831.02 42.8
-2 -12 3 864.41 43.4
-2 12 -3 795.12 41.6
2 12 3 842.02 42.1
2 -12 3 787.22 42.8
2 12 -3 834.52 41.6
-2 12 3 813.42 41.3
2 12 -3 869.51 41.1
-2 -12 -3 821.92 43
-2 -12 -3 848.42 41.8
2 -12 3 802.22 42.1
3 12 3 210.58 12.7
-3 12 -3 190.28 11.9
3 -12 -3 206.18 11.7
-3 12 -3 193.08 12.2
-3 -12 3 148.89 13.4
3 -12 -3 210.28 14.3
3 -12 3 202.58 13.2
-3 12 3 179.78 11.7
3 12 -3 200.18 12.3
3 12 -3 187.08 11.9
-3 -12 -3 190.68 13.9
-3 -12 -3 198.08 12.9
-4 12 -3 339.77 19.1
4 -12 -3 309.17 21.4
4 12 3 292.07 19.6
-4 12 -3 350.26 19.5
-4 -12 3 317.27 20.8
4 -12 3 359.06 20.7
-4 12 3 321.47 18.9
-4 -12 -3 339.67 20.2
4 12 -3 355.36 19.5
-4 -12 -3 368.26 21.6
5 -12 -3 62.09 10.1
-5 -12 3 93.09 10.9
-5 12 -3 78.19 8.7
5 12 3 66.19 8.6
5 12 3 80.39 9
5 12 -3 78.89 8.7
-5 -12 -3 82.39 9.8
-5 12 3 65.79 7.6
5 -12 3 73.69 9.7
0 -12 -4 718.43 39.1
0 12 4 746.93 38
0 12 4 780.82 36.8
0 -12 4 715.73 40.2
0 12 -4 756.52 37.6
1 12 4 1.4 2.9
-1 -12 4 4.4 4.4
1 -12 -4 -0.8 3.4
-1 12 -4 4.3 2.9
1 12 -4 2.7 2.5
-1 12 4 7 3
-1 12 4 5.2 2.6
-1 -12 -4 10.6 4.5
1 -12 4 4.1 4
1 12 -4 4.8 2.6
1 -12 4 5 3.2
2 12 4 1077.29 54.89
2 -12 -4 1105.49 53.99
-2 -12 4 1110.19 56.29
2 -12 -4 1073.69 55.49
2 12 -4 1098.89 53.79
2 12 -4 1109.19 54.09
2 -12 4 1084.59 54.69
-2 -12 -4 1054.59 54.09
-2 -12 -4 1133.19 55.99
2 -12 4 1111.19 56.09
-2 12 4 1061.59 53.89
-3 -12 4 -2.4 4.4
3 -12 -4 11.1 3.3
-3 12 -4 3.7 3.2
3 12 4 4.7 3.5
3 -12 -4 17.2 5.3
-3 12 -4 -0.6 3.2
3 -12 4 7.4 4.4
3 12 -4 5.5 3.6
-3 -12 -4 7.5 5.3
-3 -12 -4 12.3 4.2
3 12 -4 8.2 3.3
-3 12 4 1.9 2.8
4 12 4 428.06 26.4
4 -12 -4 515.65 28.2
-4 12 -4 473.85 26.2
-4 12 -4 489.25 26.2
4 -12 -4 448.06 25.3
-4 12 4 499.55 26.1
4 -12 4 478.35 27.5
4 12 -4 513.35 26.5
-4 -12 -4 473.05 26.8
-4 -12 -4 487.05 28.7
-5 12 -4 1.7 4.9
5 -12 -4 -4.8 6.8
5 12 4 5.1 5.1
5 12 4 -1.8 5.4
-5 -12 4 2.1 6.1
-5 12 -4 -2.6 4.8
-5 -12 -4 2 5.5
-5 12 4 -4.3 6
5 -12 4 -0.9 5.6
0 -12 -5 2.1 3.9
0 -12 5 0.3 4.7
0 12 5 0.4 2.7
0 12 -5 7.2 2.8
1 12 5 5.1 3.6
-1 -12 5 11.6 5.6
-1 12 -5 15.1 3.6
1 -12 -5 6.9 4.8
1 12 -5 15.4 3.4
1 -12 5 18.3 5.6
-1 12 5 10.4 3.5
-1 -12 -5 14.8 5.2
-1 12 5 7.3 2.8
1 12 -5 19.4 3.6
-2 -12 5 23.8 6.5
2 -12 -5 23.8 4
-2 12 -5 14.6 4.1
2 12 5 22.6 4.9
2 -12 -5 32 6.1
2 -12 5 41.7 7.1
2 -12 5 21.2 4.9
-2 -12 -5 33 7
2 12 -5 23 4.4
-2 12 5 28.4 4.2
2 12 -5 24.1 4.3
3 -12 -5 26.6 4.5
3 12 5 31.9 5.8
-3 12 -5 20.3 4.9
-3 -12 5 30.8 7.2
3 -12 -5 41.8 7.2
-3 -12 -5 35.8 7.8
3 12 -5 33.8 5.4
-3 12 5 27 4.8
-3 -12 -5 25.7 5.5
3 -12 5 28.3 6
3 12 -5 27.7 4.7
-4 -12 5 -1.9 5.5
4 -12 -5 7.4 3.7
-4 12 -5 12.5 4.8
4 -12 -5 5.7 5.9
4 12 5 1 4.9
-4 12 -5 2.7 4.7
-4 12 5 14.6 4.4
-4 -12 -5 6.2 5.1
4 12 -5 12.9 4.5
-4 -12 -5 18.3 7.8
4 -12 5 9.4 5.4
-5 12 -5 135.89 16
5 12 5 123.89 13
0 -12 -6 430.56 23.8
0 -12 6 367.06 24.5
0 12 6 387.26 21.9
0 12 -6 381.36 21.2
1 12 6 -2 3.2
1 -12 -6 4.6 5
-1 12 -6 3.5 3.2
-1 -12 6 -4.9 5.1
-1 12 6 4.8 3.1
-1 12 6 5.2 3.6
-1 -12 -6 -2.3 5.2
1 12 -6 5 2.8
1 -12 6 -2.5 4.4
2 -12 -6 308.67 18
-2 12 -6 321.67 18.3
-2 -12 6 328.07 20.7
2 -12 -6 257.37 19.6
2 12 6 330.27 19.4
2 -12 6 332.47 21.2
2 12 -6 316.37 17.9
-2 12 6 319.17 17.8
-2 -12 -6 326.17 20.9
2 12 -6 330.27 18.1
3 -12 -6 3.7 5.4
-3 -12 6 3.4 5.9
-3 12 -6 0.8 3.7
3 -12 -6 -2.2 3.2
3 12 6 1.4 4.2
3 12 -6 -2.3 3.4
-3 12 6 0.2 3.2
3 -12 6 0.8 4.6
3 12 -6 1.5 3.8
-3 -12 -6 6 6.5
3 -12 6 -2 5.7
-4 -12 6 197.28 18.4
4 12 6 262.47 17
-4 12 -6 210.98 15.9
4 -12 -6 265.67 15.8
-4 12 -6 275.97 16.8
4 12 -6 264.87 16.3
-4 -12 -6 264.37 17.2
-4 12 6 265.07 16
-4 -12 -6 243.18 19.5
4 -12 6 234.98 17.5
0 12 7 992.1 49.6
0 12 -7 965.7 48.8
0 -12 -7 987.8 51.09
0 -12 7 922.31 52.39
1 -12 -7 0.9 5.1
1 12 7 2.9 3.9
-1 -12 7 -2.7 6.3
-1 12 -7 2.8 3.3
1 -12 7 -1.2 5.2
-1 12 7 -3.1 4.6
-1 -12 -7 4.7 5.5
-1 12 7 3.5 3.9
1 12 -7 -1.4 3.1
-2 -12 7 830.72 44.3
2 -12 -7 745.93 43.1
2 -12 -7 841.52 41.6
-2 12 -7 801.32 41.4
2 12 7 807.52 42.8
2 12 -7 739.33 42.2
2 -12 7 829.32 44.8
-2 -12 -7 834.52 44.3
2 12 -7 814.72 41.3
-2 12 7 816.02 41.1
3 -12 -7 38.7 6.1
-3 12 -7 35.2 6.2
-3 -12 7 41.5 8.8
3 12 7 31.1 6.7
-3 12 7 43.7 6.2
3 -12 7 31.9 9
3 12 -7 37 6.1
-3 -12 -7 38.4 9.5
3 12 -7 33.9 6
-4 -12 7 400.46 27.3
4 -12 7 361.76 27.5
0 12 8 339.97 20
0 12 -8 318.77 18.8
0 -12 -8 322.57 21.7
0 -12 8 317.77 23.6
1 12 8 3.2 4.3
1 -12 -8 7.6 6.1
-1 12 -8 0.2 3.6
-1 -12 8 -5.5 7
1 -12 8 -0.4 6.2
1 12 -8 -0.1 3.6
-1 -12 -8 -1.2 6.3
-1 12 8 7.1 4.6
-2 12 -8 580.74 31.4
-2 -12 8 588.94 34.7
2 12 8 611.74 33.6
2 -12 -8 587.24 31.7
2 12 -8 596.44 31.6
-2 -12 -8 579.64 34.8
-2 12 8 600.24 31.3
2 -12 8 575.24 35.3
3 12 8 16.3 6.8
3 12 -8 6.9 4.8
0 -12 -9 12.6 7.6
0 13 0 -0.6 1.9
0 13 0 -2 1.9
0 -13 0 0.7 3.1
0 -13 0 3.4 3
1 -13 0 2700.23 133.39
-1 13 0 2972.1 132.29
1 13 0 2875.71 132.49
-1 -13 0 2724.33 132.89
1 13 0 2551.84 131.49
-1 13 0 2835.22 131.89
1 -13 0 2598.64 132.69
-2 13 0 0.1 2.6
2 13 0 2.8 2.6
2 -13 0 2.9 3.6
-2 -13 0 0.7 3.3
-2 -13 0 -2.3 3.6
-3 13 0 1380.46 71.59
3 13 0 1507.85 71.89
-3 -13 0 1450.55 72.49
3 -13 0 1463.55 72.29
-4 13 0 -3.2 3.5
4 13 0 -6.9 3.2
4 -13 0 -2.2 4.3
-4 -13 0 4.6 4.5
5 -13 0 820.22 42.6
-5 -13 0 830.82 42.7
5 13 0 778.62 41.4
-5 13 0 721.63 41.3
0 13 -1 0.1 2
0 13 1 -2.5 1.9
0 13 -1 0.4 2.3
0 -13 -1 -4.9 2.8
0 13 1 1.3 2.2
0 -13 -1 0.5 2.7
0 -13 1 1 3.2
0 -13 1 4.4 3
-1 13 -1 343.27 16.2
1 13 1 338.67 16
1 13 1 350.26 17.3
-1 -13 1 308.97 17.3
-1 -13 1 349.87 18.2
-1 13 -1 323.87 16.7
1 -13 -1 338.27 18.1
-1 13 1 299.17 16.8
1 13 -1 286.77 16.7
-1 13 1 296.77 16.7
-1 -13 -1 250.47 17
1 13 -1 300.07 16.3
1 -13 1 292.67 17.7
-1 -13 -1 239.48 17.4
1 -13 1 295.77 18.1
2 13 1 51.39 5.8
-2 -13 1 45.1 6.4
2 -13 -1 25.7 6.1
-2 13 -1 52.49 5.4
-2 13 1 47 4.7
-2 13 1 39.9 4.8
2 13 -1 43.4 5.4
2 -13 1 48.2 5.9
-2 -13 -1 55.39 6.4
2 13 -1 46.7 6.4
-2 -13 -1 53.19 6.7
2 -13 1 50.39 6
-3 -13 1 204.38 15.1
3 -13 -1 223.68 15.3
-3 13 -1 240.18 14.2
3 13 1 209.18 14.3
3 -13 1 266.97 15.3
3 13 -1 226.88 14.2
-3 -13 -1 238.48 15.1
-3 -13 -1 256.47 15.4
-3 13 1 243.68 13.9
-4 -13 1 114.49 11.3
-4 13 -1 120.29 10.2
4 -13 -1 95.09 10.1
4 13 1 103.59 9.2
-4 -13 -1 114.59 10.2
-4 13 1 97.59 8.5
4 -13 1 115.79 10.3
4 13 -1 115.79 9.4
-5 -13 1 140.09 12.6
5 -13 -1 120.39 12.1
-5 13 -1 138.39 11.8
5 13 1 126.59 11
5 -13 1 119.19 12.4
-5 13 1 112.99 10.8
-5 -13 -1 133.29 12.5
5 13 -1 135.19 11
0 13 2 1 2.5
0 -13 2 3 4.1
0 13 -2 -0.3 2.2
0 -13 -2 2.6 3.3
0 13 2 4.4 2.8
0 -13 2 0 3.2
0 13 -2 -2.6 2.1
1 -13 -2 287.77 16.6
1 13 2 276.97 15.6
-1 13 -2 301.07 15.4
-1 -13 2 269.67 16.6
1 -13 2 268.07 15.7
-1 13 2 267.97 15.1
-1 13 2 246.78 14.6
1 -13 2 254.37 16.7
1 13 -2 274.77 14.8
1 13 -2 282.27 15.2
-1 -13 -2 255.27 16.4
-1 -13 -2 275.67 15.4
-2 -13 2 2.9 4
-2 13 -2 3.4 2.8
2 13 2 2.9 2.6
2 -13 -2 5.3 3.9
-2 -13 -2 3.4 4.3
2 13 -2 1.8 2.5
2 13 -2 3.3 2.9
2 -13 2 0.8 3.3
-2 13 2 -3.1 2.3
-2 13 2 5 2.7
-2 -13 -2 -2.3 3.3
2 -13 2 -3.1 3.7
-3 13 -2 346.97 18.3
3 -13 -2 272.47 20
3 13 2 331.27 18.8
-3 -13 2 259.57 19.4
3 -13 2 350.26 19.6
-3 -13 -2 334.87 19.9
-3 -13 -2 346.67 19.2
3 13 -2 339.97 18.6
3 -13 2 338.37 19.4
-3 13 2 318.77 18
-4 13 -2 2.6 3.5
4 13 2 3.6 4.2
-4 -13 2 6.3 5.4
4 -13 -2 12 5.3
-4 -13 -2 0.5 4.5
4 13 -2 0.2 3.7
-4 -13 -2 -0.8 6
-4 13 2 -0.7 3.3
4 -13 2 -3.7 3.9
-5 -13 2 255.67 18.3
5 -13 -2 241.18 18.2
5 13 2 251.87 16.9
-5 13 -2 252.37 16.3
-5 -13 -2 256.07 17.8
5 -13 2 284.57 18.5
5 13 -2 261.37 16.6
-5 13 2 255.77 16.2
0 13 3 -0.6 2
0 13 -3 -1.6 2.4
0 13 3 -1.8 2.3
0 -13 3 1.5 3.8
0 -13 -3 0 3.7
0 -13 3 8.7 5.2
0 13 -3 -1.1 2.2
-1 -13 3 37.9 6.1
1 -13 -3 40.9 6.1
-1 13 -3 33.3 4.6
1 13 3 36.2 5.1
1 -13 3 26.4 4.6
-1 13 3 40 4.3
-1 13 3 33.4 4.5
1 13 -3 36.3 4.4
1 -13 3 30.7 6
1 13 -3 47.3 4.8
-1 -13 -3 33.7 5.8
-1 -13 -3 51.19 7
2 -13 -3 24.8 5.4
-2 13 -3 23.2 4.3
2 13 3 25.3 4.7
-2 -13 3 26.3 6.1
-2 -13 -3 23.4 4.8
-2 13 3 19.3 3.7
2 -13 3 18.4 4.5
2 13 -3 14.3 4
-2 -13 -3 26.2 6.2
-2 13 3 22.3 4.1
2 13 -3 31 4
2 -13 3 31.4 6.3
3 13 3 29.2 5.2
3 -13 -3 29.2 4.4
-3 -13 3 28.1 6.4
-3 13 -3 35 5.1
3 -13 -3 21.5 5.9
-3 -13 -3 28.5 5.5
3 13 -3 26 4.8
-3 -13 -3 47.6 7.5
-3 13 3 29.7 4.7
3 -13 3 26.2 5.7
3 -13 3 37.8 7
-4 -13 3 110.59 12.6
-4 13 -3 131.79 10.3
4 -13 -3 144.79 13.7
-4 13 -3 152.88 10.5
4 13 3 121.99 11
-4 13 3 125.49 10
4 13 -3 147.99 10.7
4 -13 3 137.99 11.8
-4 -13 -3 137.89 11.6
-4 -13 -3 151.48 13.4
-5 13 -3 28.4 6.5
-5 -13 3 34.7 8.5
5 -13 -3 15.2 8.2
5 13 3 25.3 6.4
5 13 -3 31.1 6.2
-5 -13 -3 39.9 7.9
-5 13 3 27.5 5.5
5 -13 3 30.2 7.2
0 13 4 3.5 2.6
0 13 4 2.2 2.3
0 -13 4 1.6 4.7
0 13 -4 1.5 2.6
0 -13 -4 -2.9 3.8
-1 -13 4 2057.39 96.99
-1 13 -4 1638.84 94.19
1 13 4 1871.31 95.39
1 -13 -4 1933.81 95.79
1 13 -4 2054.79 94.19
1 13 -4 2027.6 94.29
-1 -13 -4 2031.8 96.29
1 -13 4 1951.2 96.39
1 -13 4 1954.3 94.39
-1 13 4 1952.6 93.89
-1 13 4 1910.51 94.59
-2 13 -4 -0.9 3.4
-2 -13 4 -3.8 4.3
2 -13 -4 -3.3 2.2
2 13 4 3.9 3.2
2 -13 -4 2.7 4.3
2 13 -4 -2.2 2.8
2 -13 4 -4.5 4.6
-2 -13 -4 2.3 3.6
-2 13 4 -2.2 2.5
2 13 -4 1.2 2.7
-2 -13 -4 2.2 5.1
2 -13 4 -0.2 3.6
3 13 4 1290.87 63.19
-3 13 -4 1189.98 62.59
3 -13 -4 1261.77 63.99
3 -13 -4 1249.47 62.19
-3 -13 4 1199.88 64.49
-3 13 4 1297.67 62.59
-3 -13 -4 1275.17 63.09
3 13 -4 1266.87 62.79
3 -13 4 1286.97 64.69
3 13 -4 1233.78 61.89
-3 -13 -4 1306.17 64.79
3 -13 4 1271.87 63.69
-4 13 -4 2.7 4
-4 13 -4 -0.3 3.6
4 -13 -4 -1.6 5.3
-4 -13 4 -3.6 5.4
4 13 4 7.4 4.5
-4 13 4 5 3.6
4 13 -4 0.4 3.8
-4 -13 -4 -2.3 4.7
4 -13 4 1.9 5
-4 -13 -4 6.9 6.6
5 13 4 555.84 33.4
5 -13 -4 608.54 35
-5 13 -4 627.94 33
5 13 4 623.44 33.6
0 13 5 -2.5 2.6
0 13 -5 3.6 2.9
0 -13 -5 2.8 4.2
0 -13 5 8.2 5.6
-1 13 -5 584.14 31.4
1 -13 -5 552.44 33.1
1 13 5 542.25 32.2
-1 -13 5 618.94 34.3
-1 -13 -5 626.44 33.7
1 -13 5 638.34 34
-1 13 5 634.94 31.9
-1 13 5 637.14 30.9
1 13 -5 600.94 33.8
1 13 -5 620.34 31.3
2 -13 -5 25 6.3
2 13 5 15.5 4.8
-2 -13 5 28.1 6.7
2 -13 -5 33 4.8
-2 13 -5 26.3 5.3
2 -13 5 28.8 7.6
-2 -13 -5 59.99 8.7
2 -13 5 25.5 5.4
2 13 -5 25.8 4.6
2 13 -5 37.1 5.1
-2 13 5 23.9 4.3
-3 -13 5 417.36 25.3
3 -13 -5 421.66 22.3
-3 13 -5 345.27 22.3
3 -13 -5 438.86 24.6
3 13 5 418.86 23.4
-3 -13 -5 388.36 22.9
-3 13 5 407.96 22.4
3 13 -5 423.26 22.7
3 13 -5 402.56 22
3 -13 5 383.96 23.5
-3 -13 -5 412.76 25.4
3 -13 5 413.06 25.3
-4 13 -5 58.29 7.5
4 -13 -5 55.79 9.2
-4 13 -5 51.69 7.5
4 -13 -5 64.29 7
-4 -13 5 52.79 9.5
4 13 5 52.69 8.1
4 13 -5 69.79 7.9
-4 -13 -5 62.69 10.7
-4 -13 -5 57.49 8.3
-4 13 5 53.29 6.8
4 -13 5 52.99 8.6
0 -13 6 -2 5.5
0 -13 -6 -7.7 4.9
0 13 -6 1.1 2.9
0 13 6 1.5 3.5
-1 13 -6 229.78 14.6
-1 -13 6 260.17 18.2
1 13 6 235.28 15.6
1 -13 -6 214.98 16.5
-1 -13 -6 228.28 17.3
-1 13 6 253.67 15.4
1 -13 6 265.77 17.8
1 13 -6 256.37 14.6
-1 13 6 239.28 14
-2 -13 6 6.5 5.4
2 -13 -6 -1.2 3.1
-2 13 -6 1.4 3.5
2 -13 -6 -5.1 5.2
2 13 6 -5.4 3.7
-2 13 6 -1.1 2.9
-2 -13 -6 -1.4 5.8
2 13 -6 -0.9 3.4
2 -13 6 -3.9 5.5
2 13 -6 1.6 3.5
3 -13 -6 270.07 18.9
3 -13 -6 281.17 16.7
-3 13 -6 242.38 16.7
3 13 6 264.57 17.6
-3 -13 6 314.37 20.4
3 -13 6 285.97 18.3
3 13 -6 256.77 16.8
3 13 -6 290.07 16.7
-3 -13 -6 276.77 20.3
3 -13 6 306.37 20.7
-3 13 6 283.27 16.7
-4 13 -6 0.9 5.2
4 13 6 4.9 5.5
4 -13 -6 2.4 4.3
-4 -13 6 1.4 7.7
4 13 -6 5.1 5.5
4 -13 6 9.2 6.5
0 13 7 0.6 4
0 -13 -7 4.2 5.8
0 -13 7 -3.9 5.9
0 13 -7 1.6 3.3
1 -13 -7 9.5 6
-1 13 -7 7 3.9
-1 -13 7 4.7 6.6
1 13 7 5.9 4.6
-1 13 7 8.5 4.6
1 -13 7 2.7 5.9
1 13 -7 16.6 4.5
-1 -13 -7 5.4 6.2
-2 -13 7 19.8 6.8
2 13 7 24 6.4
-2 13 -7 15.3 4.7
2 -13 -7 16.1 4.5
2 -13 -7 12.3 6.8
2 -13 7 15.9 7.7
-2 -13 -7 22.8 8
2 13 -7 16.1 4.9
-2 13 7 17.8 4.4
3 -13 -7 6.6 8.7
3 -13 -7 1.5 4.3
3 13 7 0.7 5.2
-3 -13 7 9.1 7.1
-3 13 -7 4.9 4.5
-3 -13 -7 17.3 8.6
3 13 -7 5 4.7
-3 13 7 -1.3 3.9
3 13 -7 3.5 3.9
3 -13 7 7.4 7.9
0 13 -8 2.6 3.7
0 -13 -8 -5.2 6.4
0 13 8 3.2 4.6
0 -13 8 -2.5 6.4
1 -13 -8 831.12 45.8
1 13 8 805.92 44.6
-1 -13 8 850.01 47.7
-1 13 -8 836.22 43.6
-1 -13 -8 885.31 46.7
1 -13 8 829.02 47.3
-1 13 8 862.61 44.6
1 13 -8 855.91 43.6
2 13 8 2.2 5.9
-2 -13 8 -1.8 6.6
2 -13 -8 6.1 6.9
-2 13 -8 -1.4 4
2 13 -8 0.5 4.8
-2 13 8 -3.8 4
1 -13 -9 511.35 38.6
0 -14 0 186.78 11.8
0 14 0 194.58 11.2
0 -14 0 184.28 12.1
0 14 0 182.98 10.8
1 -14 0 1.5 3.6
-1 14 0 0.4 2.4
-1 14 0 -1.2 2.2
1 -14 0 -0.8 3.6
-1 -14 0 -1.7 3.3
1 14 0 1.4 2.4
-1 -14 0 3.3 3.9
1 14 0 6 3
-2 -14 0 53.39 6.9
2 14 0 61.19 6.5
2 -14 0 65.09 7.6
-2 -14 0 56.79 7
-2 14 0 47 5.7
3 -14 0 1.7 3.7
-3 14 0 0.3 3.1
-3 -14 0 1.2 4.4
3 14 0 -3 3.3
4 -14 0 15.5 5.5
-4 -14 0 8.7 5.3
4 14 0 7 4.4
-4 14 0 8.6 4.5
5 -14 0 6.5 6.1
-5 -14 0 5.7 5.6
5 14 0 2.5 4.8
-5 14 0 -0.5 4.9
0 -14 1 44.2 5.9
0 14 -1 47.6 4.8
0 14 1 33.3 4.6
0 -14 -1 33.9 5.5
0 -14 -1 34.6 4.8
0 -14 1 38.4 5.3
0 14 1 44.5 4.4
0 14 -1 48 4.7
-1 -14 1 25.7 5.2
-1 14 -1 45.3 4.8
-1 -14 1 32.5 5.4
1 -14 -1 50.19 6.2
1 14 1 41.3 5
1 -14 1 25.4 5.7
1 14 -1 34.4 4.5
-1 -14 -1 23.2 4.6
-1 -14 -1 17.2 5.1
-1 14 1 29.8 4.4
1 -14 1 19.9 5.1
1 14 -1 31.3 4.2
-1 14 1 35.3 4.5
2 -14 -1 73.29 8.6
2 14 1 61.69 7
-2 -14 1 74.89 8.3
-2 14 -1 73.29 6.8
-2 14 1 86.39 7.7
-2 14 1 90.99 9.3
2 -14 1 68.99 7.6
-2 -14 -1 93.19 8.8
2 14 -1 91.29 7.9
-2 -14 -1 81.79 8.1
2 -14 1 73.59 7.6
3 14 1 40.1 5.9
-3 -14 1 19.5 5.9
-3 14 -1 29.7 5.1
3 -14 -1 26 6
-3 14 1 31 4.9
3 14 -1 40.3 5.8
-3 -14 -1 29.7 6.4
3 -14 1 40.1 6.5
-3 -14 -1 39.5 6.6
-4 -14 1 24.2 6.4
4 -14 -1 19.6 5.8
4 14 1 20.8 5.1
-4 14 -1 16.9 4.8
4 -14 1 21.1 6
4 14 -1 34.1 5.7
-4 -14 -1 19.1 6
-4 14 1 25.1 5
-5 -14 1 32.5 7.7
5 -14 -1 45.9 8.7
5 14 1 37.3 7.1
-5 14 -1 43.7 7
5 -14 1 38.4 7.7
-5 14 1 34.4 6.7
-5 -14 -1 33 7.9
5 14 -1 44.2 7.1
0 -14 2 3640.54 163.08
0 14 2 3433.66 161.78
0 -14 2 3451.05 161.38
0 14 -2 2991 160.58
0 14 2 3251.67 160.68
0 14 -2 3332.47 161.08
0 -14 -2 3436.96 162.38
1 14 2 2.5 2.8
1 -14 -2 -0.9 3.5
-1 14 -2 -2 2.5
-1 -14 2 1.4 3.8
-1 14 2 0.1 2.3
-1 -14 -2 2.3 4.2
1 14 -2 -0.7 2.6
1 14 -2 3.4 2.6
1 -14 2 -0.2 4.3
-1 14 2 0 2.4
1 -14 2 -1 3.2
-1 -14 -2 -1.4 3.1
-2 14 -2 2463.55 120.59
2 -14 -2 2596.34 121.99
-2 -14 2 2569.44 122.09
2 14 2 2603.74 120.99
2 14 -2 2530.35 119.79
-2 14 2 2442.36 120.19
2 -14 2 2472.75 121.19
2 14 -2 2506.55 120.69
-2 14 2 2343.67 120.19
2 -14 2 2434.66 121.49
-2 -14 -2 2532.85 121.89
-2 -14 -2 2425.96 120.89
-3 -14 2 -0.2 4.9
3 14 2 13 4
3 -14 -2 8.6 5.5
-3 14 -2 10 3.7
-3 -14 -2 5.5 5.4
3 14 -2 4.8 3.4
3 -14 2 7.9 4.4
3 -14 2 11.5 6.8
-3 -14 -2 10.7 4.7
-3 14 2 5.1 3.1
4 14 2 1316.87 73.89
4 -14 -2 1362.66 75.49
-4 14 -2 1541.95 73.69
-4 -14 -2 1560.54 74.79
-4 -14 -2 1518.35 75.19
4 14 -2 1526.45 73.99
-4 14 2 1469.95 73.59
4 -14 2 1587.14 75.29
-5 -14 2 -2.3 5.8
5 14 2 2.7 5.1
5 -14 -2 6.8 6.5
-5 14 -2 4.3 4.7
-5 14 2 0.6 4.4
5 -14 2 4.4 5.4
-5 -14 -2 4 6
5 14 -2 6.3 4.8
0 14 -3 81.39 7.3
0 14 3 86.29 6.3
0 -14 3 73.89 9.6
0 14 3 94.19 7.7
0 -14 -3 99.69 9.8
1 -14 -3 2.5 3.9
-1 14 -3 6.4 3.2
-1 -14 3 7.8 4.3
1 14 3 8 3.4
-1 -14 -3 8.3 4.8
1 -14 3 0.4 3.3
1 -14 3 8.6 5
1 14 -3 7.6 3
-1 14 3 -0.9 2.5
-1 14 3 6.6 3.1
1 14 -3 2.1 2.9
2 14 3 179.18 11.6
-2 -14 3 186.98 13.2
2 -14 -3 156.98 12.3
-2 14 -3 149.29 10.8
2 14 -3 176.68 10.5
-2 -14 -3 195.18 13.8
-2 14 3 172.58 10.7
-2 14 3 161.78 10.8
-2 -14 -3 160.38 11.3
2 -14 3 165.08 11.7
2 14 -3 166.88 10.9
2 -14 3 158.18 12.8
3 -14 -3 102.59 10.9
-3 14 -3 103.69 8.6
3 14 3 106.89 9.2
-3 -14 3 101.19 11.4
3 -14 -3 99.29 8
-3 -14 -3 105.19 11.3
3 14 -3 104.69 8.8
-3 14 3 108.99 8.4
-3 -14 -3 103.49 9.7
3 -14 3 123.79 11.6
3 -14 3 117.89 10.7
4 14 3 71.89 9.1
-4 -14 3 89.69 11.1
4 -14 -3 92.99 11.1
-4 14 -3 108.99 8.8
-4 -14 -3 96.59 10
4 -14 3 74.39 9.8
4 14 -3 101.29 9.4
-4 14 3 96.49 8.8
-4 -14 -3 95.09 11.6
5 14 3 4.5 5.7
-5 14 -3 7.4 5.3
5 -14 -3 1 7.3
-5 -14 -3 7.7 8.5
0 -14 -4 10.5 5.1
0 -14 4 10.6 5.9
0 14 4 13.4 3.7
0 14 -4 13.4 3.7
1 -14 -4 5.3 4.5
-1 14 -4 -2.5 3.1
-1 -14 4 2.3 4.8
1 14 4 9 3.8
-1 14 4 0.8 2.7
1 14 -4 8.3 3.1
1 -14 4 5.8 5
-1 14 4 5.9 3.3
1 -14 4 0.8 5
1 14 -4 6.2 3
-1 -14 -4 5.3 5.3
-2 -14 4 12.7 5.4
2 14 4 23.5 4.8
-2 14 -4 10.2 4
2 -14 -4 16.5 5.7
2 14 -4 17.1 4
-2 14 4 9.2 3.3
-2 14 4 18.1 4.3
2 -14 4 13.2 5.9
2 14 -4 15.5 3.9
-2 -14 -4 16.3 6.4
2 -14 4 10.8 4.3
3 -14 -4 3 5.1
3 -14 -4 3.1 3.4
-3 14 -4 4.7 3.9
3 14 4 -1.1 3.5
-3 -14 4 11.9 6
-3 -14 -4 10.8 6.6
-3 14 4 4.4 3.5
3 -14 4 1.9 5.7
3 -14 4 -0.3 4.6
-3 -14 -4 5.9 4.7
3 14 -4 4.7 4
-4 -14 4 16.6 7.1
4 14 4 19.3 5.6
4 -14 -4 10.4 6.3
-4 14 -4 13.5 5.2
4 -14 4 10.7 6
-4 -14 -4 10.2 5.8
-4 -14 -4 8.7 7.9
4 14 -4 8.5 5.1
-4 14 4 12.3 4.2
5 14 4 18.9 9.8
0 14 -5 7 3.6
0 14 5 3.2 3.4
0 -14 -5 12.1 5.4
0 -14 5 6.2 6.3
1 14 5 22.8 5.4
-1 14 -5 35.2 5.2
-1 -14 5 33 7.4
1 -14 -5 23.9 6.7
1 -14 5 27.7 6.9
-1 14 5 27 4.4
-1 -14 -5 22.6 6.4
-1 14 5 42.1 5.7
1 14 -5 35 5
-2 -14 5 12.1 5.6
-2 14 -5 7.3 4.1
2 14 5 9.8 4.4
2 -14 -5 4.6 5.3
2 14 -5 12.2 4.2
-2 14 5 10.5 3.6
-2 -14 -5 8.3 6.1
2 -14 5 9.6 5.3
-2 14 5 12.5 4.4
2 14 -5 15.2 4.2
2 -14 5 1.2 5.7
-3 14 -5 0.7 4.1
3 -14 -5 18.5 6.5
-3 -14 5 11.7 6.3
3 14 5 7.8 4.8
3 -14 -5 11.2 4.1
3 14 -5 9 4.3
-3 -14 -5 11.4 7.1
-3 14 5 2.1 3.6
3 -14 5 5.4 5.4
3 14 -5 10.5 4.5
3 -14 5 3.5 6.5
4 14 5 -0.2 5.5
-4 14 -5 -4.5 4.4
4 -14 -5 8.8 6.3
4 -14 -5 1.6 6.2
-4 -14 5 3.4 6.7
4 -14 5 -3.7 5.9
4 -14 5 7.2 7.3
-4 -14 -5 0.5 5.4
4 14 -5 -0.1 4.5
-4 -14 -5 3.8 7.8
-4 14 5 1.1 3.9
0 -14 6 1912.71 104.69
0 14 6 2127.09 102.19
0 -14 -6 2123.79 103.69
0 14 -6 2128.19 101.39
1 -14 -6 2.1 5.6
-1 14 -6 3.3 4
1 14 6 5 4.3
-1 -14 6 8.3 6
1 14 -6 7.1 3.6
-1 14 6 9.9 4.2
1 -14 6 12.8 6.5
-1 -14 -6 0.2 6.1
2 -14 -6 1079.59 53.69
2 -14 -6 1053.29 55.89
-2 -14 6 1138.49 56.59
-2 14 -6 954.6 53.59
2 14 6 1051.19 54.59
2 -14 6 1153.88 57.19
2 14 -6 1080.69 53.99
-2 -14 -6 1058.59 56.49
2 14 -6 1100.69 53.59
-2 14 6 1013.7 53.19
3 14 6 6 5
-3 -14 6 2.7 6.5
-3 14 -6 3.4 4.6
3 -14 -6 1.6 3.9
3 -14 -6 0.6 6.3
-3 14 6 -0.1 4
3 14 -6 2.8 4.4
3 14 -6 -3.2 4
-3 -14 -6 -1.8 7.1
3 -14 6 3.3 7.1
3 -14 6 -5.5 7.9
4 -14 -6 1123.79 56.29
4 -14 -6 1112.09 59.49
4 -14 6 1096.59 59.09
0 14 7 150.68 12
0 -14 -7 174.58 14.5
0 -14 7 131.29 15.7
0 14 -7 166.38 11.3
-1 -14 7 4.6 6.5
1 -14 -7 5.2 5.8
-1 14 -7 3.8 3.8
1 14 7 5.4 5
-1 -14 -7 0 6.5
1 -14 7 -2.1 5.9
1 14 -7 -1.8 3.5
-1 14 7 1.3 4.4
2 -14 -7 100.69 12.4
2 14 7 113.09 11.5
-2 14 -7 136.69 11.4
-2 -14 7 118.89 13.2
2 14 -7 113.79 10
2 -14 7 138.19 14.4
-2 14 7 110.19 9.4
-2 -14 -7 157.18 15.2
-3 14 -7 10.1 9.4
3 -14 -7 22.3 6.5
3 -14 -7 12.7 8.9
3 14 7 14.2 6.1
3 14 -7 18.5 5.2
3 14 -7 14.3 5.7
-3 14 7 20.8 5.5
0 14 8 26.6 6.2
0 -14 -8 20.4 8.5
0 -14 8 25.6 9.5
0 14 -8 29.5 5.5
-1 -14 8 -0.8 7.2
-1 14 -8 8.1 4.7
1 14 8 3.9 5.4
1 -14 -8 8.1 6.7
-1 14 8 3.2 5.7
1 -14 8 -10.4 8.3
1 14 -8 3.1 4.6
-1 -14 -8 8.5 7.3
2 -14 -8 53.89 10.1
0 -15 0 -2.2 3.3
0 15 0 5.2 2.6
0 -15 0 -1.2 3.4
0 15 0 -0.9 2.3
1 15 0 2438.76 114.49
-1 -15 0 2387.36 114.99
1 15 0 2412.96 113.59
-1 15 0 2292.77 113.69
1 -15 0 2383.66 115.29
-1 -15 0 2294.77 114.99
-1 15 0 2336.17 113.99
-2 15 0 -1.5 2.7
2 -15 0 -0.4 4.3
-2 -15 0 0 4.4
2 15 0 1.3 3.2
-2 -15 0 1.4 4
3 -15 0 1631.94 75.09
-3 -15 0 1286.67 74.09
-3 15 0 1576.34 73.79
3 15 0 1459.75 73.79
4 -15 0 -1.8 4.5
-4 15 0 -0.2 4.2
-4 -15 0 -6.3 4.9
4 15 0 -10.9 3.5
5 -15 0 1070.99 59.49
5 15 0 1042.7 55.39
-5 -15 0 1106.59 58.39
-5 15 0 992.3 53.99
0 -15 -1 -0.6 3.7
0 -15 1 -0.8 3.3
0 15 1 2.8 2.7
0 -15 1 3 3.4
0 15 1 5.1 2.9
0 15 -1 -1.4 2.5
0 15 -1 4.9 2.6
-1 -15 1 136.49 10.5
1 15 1 157.78 9.6
-1 -15 1 136.09 10.6
1 -15 -1 145.19 10.5
-1 15 -1 150.28 9.2
1 -15 1 122.39 11
1 15 -1 128.99 9.2
-1 -15 -1 121.49 10.8
-1 15 1 133.39 9.2
-1 15 1 129.29 9.2
1 15 -1 118.89 8.6
-1 -15 -1 131.39 10
1 -15 1 130.49 10.8
2 15 1 1.2 3.3
-2 -15 1 -0.7 4.2
-2 15 -1 7.1 3.1
2 -15 -1 1.4 4.4
-2 -15 -1 5.4 4.2
2 -15 1 -1.9 3.8
-2 15 1 1.5 3.3
2 15 -1 1.4 3.3
-2 -15 -1 6.9 5
3 -15 -1 87.09 10.7
-3 -15 1 116.19 10.9
3 15 1 105.39 9.2
-3 15 -1 95.19 8.6
-3 -15 -1 106.09 10.6
-3 -15 -1 100.09 10.1
3 -15 1 118.09 10
3 15 -1 93.69 9.1
-3 15 1 94.29 9
4 15 1 2.2 4.2
-4 -15 1 1.1 5.3
-4 15 -1 5.3 4.3
4 -15 -1 8.1 5.2
4 -15 1 -4.3 4.4
-4 -15 -1 1.3 5.1
-4 15 1 0.3 4.2
4 15 -1 5.2 4.2
5 15 1 66.29 9.5
5 -15 -1 69.59 12.2
-5 15 -1 63.69 8.7
-5 -15 -1 56.49 11.6
-5 15 1 65.69 10.6
0 15 -2 0.8 2.7
0 -15 2 6.6 3.8
0 15 -2 0.7 2.7
0 15 2 2.6 3.2
0 -15 -2 6.3 4.2
0 15 2 -0.2 2.8
0 -15 2 2.1 4.1
-1 15 -2 79.99 7
1 -15 -2 91.69 8.8
1 15 2 75.69 7.2
-1 -15 2 80.79 8.5
-1 15 2 64.79 6.4
1 15 -2 74.89 6.9
-1 15 2 75.49 7.1
1 15 -2 59.59 6
1 -15 2 87.69 8.2
-1 -15 -2 74.89 7.3
1 -15 2 71.79 8.9
-1 -15 -2 51.09 7.7
-2 15 -2 1.9 3
2 -15 -2 -0.9 4.1
2 15 2 9.3 3.7
-2 -15 2 7.1 4.9
2 -15 2 -2.2 3.6
-2 15 2 3.9 3
2 15 -2 -0.5 3.3
2 -15 2 4.3 4.6
-2 -15 -2 6.9 5.2
-2 -15 -2 2.2 3.8
-2 15 2 1.1 2.8
3 -15 -2 55.89 8.7
-3 -15 2 67.69 9.1
-3 15 -2 63.69 7
3 15 2 80.69 8.1
3 -15 2 86.29 9
-3 -15 -2 75.39 8.7
-3 15 2 53.99 6.5
-3 -15 -2 69.09 9.5
3 15 -2 81.09 8
-4 15 -2 15.1 4.4
4 -15 -2 4.8 6.6
-4 -15 2 9 6.3
4 15 2 3.6 4.9
-4 -15 -2 10 5.7
4 -15 2 5.8 5.4
-4 15 2 7.6 4
4 15 -2 6.7 4.5
-5 15 -2 5.7 8.2
0 -15 -3 -6.7 4.1
0 -15 3 -0.4 4.9
0 15 -3 1.2 3.2
0 15 3 -2.1 3.1
1 -15 -3 201.18 13.7
1 15 3 187.78 12.5
-1 15 -3 207.58 12.2
-1 -15 3 218.38 14.1
1 15 -3 197.78 11.9
1 -15 3 174.88 12.7
1 15 -3 187.48 11.7
-1 15 3 193.28 12.2
1 -15 3 198.18 14.8
-1 -15 -3 145.69 13.6
-1 15 3 192.08 11.5
2 -15 -3 0.2 4.4
-2 15 -3 -1 3
-2 -15 3 -6.6 4.5
2 15 3 -3.7 3.4
-2 15 3 1.6 3
-2 -15 -3 0.3 3.9
2 15 -3 2.3 3.3
-2 -15 -3 2.5 5.5
2 -15 3 4.3 4.3
-2 15 3 6.3 3.1
2 15 -3 2.7 3.4
2 -15 3 7.1 5
-3 15 -3 133.19 10
-3 -15 3 142.79 12.7
3 -15 -3 126.79 12.2
3 15 3 126.29 10.5
3 -15 3 126.79 11.4
3 -15 3 151.78 13.5
-3 15 3 123.09 9.6
-3 -15 -3 121.69 11
3 15 -3 131.19 10.1
-3 -15 -3 143.39 13.4
-4 15 -3 9.3 4.3
4 15 3 -1.8 4.6
-4 -15 3 2.2 5.8
4 -15 -3 6.2 6.3
-4 -15 -3 8.3 7.7
4 -15 3 -0.5 5.1
-4 -15 -3 8.2 5.6
4 15 -3 3.5 4.6
-4 15 3 0.3 3.9
0 15 4 1.3 3.3
0 15 -4 -1.1 3
0 -15 -4 1.6 4.9
0 -15 4 1.4 5.8
-1 -15 4 1701.53 82.09
1 -15 -4 1741.53 81.59
-1 15 -4 1529.95 79.79
1 15 4 1619.44 80.59
1 15 -4 1675.23 80.49
-1 15 4 1605.14 79.19
1 15 -4 1606.04 79.49
-1 -15 -4 1524.05 81.59
1 -15 4 1595.14 82.29
-1 15 4 1676.43 80.19
2 15 4 17.6 4.6
2 -15 -4 10.3 5.3
-2 -15 4 13.5 5.8
-2 15 -4 7.2 4
-2 -15 -4 12.7 6.5
2 -15 4 11.3 5.8
-2 15 4 15.8 4
2 -15 4 9.1 4.9
-2 15 4 10.7 4
2 15 -4 13.9 4
2 15 -4 17.5 4.2
3 -15 -4 1375.26 69.99
3 15 4 1349.77 68.99
-3 15 -4 1312.37 68.49
-3 -15 4 1427.16 70.89
3 -15 -4 1374.46 68.09
-3 15 4 1352.76 68.29
3 -15 4 1379.96 69.69
3 -15 4 1426.06 70.99
-3 -15 -4 1422.86 71.09
3 15 -4 1414.56 68.79
-3 -15 -4 1339.57 69.09
4 15 4 11.8 5.5
-4 15 -4 11.8 5.3
-4 -15 4 22 7.9
4 -15 -4 11.8 6.6
-4 15 4 16.6 4.8
4 15 -4 19.7 6
-4 -15 -4 11.9 8.7
-4 -15 -4 17.7 6.5
4 -15 4 18.6 6.9
4 -15 4 26.3 9.2
0 15 -5 -2.2 3.3
0 -15 -5 5.6 5.2
0 -15 5 -12.2 5.9
0 15 5 0.8 3.5
-1 -15 5 51.59 8.8
-1 15 -5 50.69 6.1
1 15 5 48.3 7.4
1 -15 -5 58.09 9
-1 15 5 50.29 5.7
-1 15 5 47.4 6.6
-1 -15 -5 66.89 9.2
1 -15 5 65.29 10.3
1 15 -5 59.89 6.7
2 15 5 2.2 3.9
2 -15 -5 8.6 5.7
-2 15 -5 5.1 3.9
-2 -15 5 3.1 5.3
2 -15 5 -0.5 5.6
-2 15 5 -2 3.2
-2 -15 -5 3.4 6.5
2 15 -5 -0.8 3.7
2 15 -5 5.4 4
-2 15 5 -1.1 4
3 -15 -5 74.89 9.9
3 -15 -5 63.29 7.2
3 15 5 79.69 8.7
-3 -15 5 69.09 10.2
-3 15 -5 60.59 7.8
-3 15 5 62.79 7.3
3 -15 5 74.59 9.5
3 15 -5 75.19 8.3
-3 -15 -5 73.29 11.2
3 -15 5 57.19 10.5
-4 15 -5 -1.3 5
4 -15 -5 3.5 6.4
4 15 5 -3.4 5.5
4 -15 5 7.4 8.4
-4 -15 -5 -1.8 8.3
4 -15 5 -3.7 6.4
4 15 -5 0.1 5.4
0 -15 -6 1.8 6.1
0 -15 6 -0.9 6.7
0 15 -6 1 3.4
0 15 6 9.5 4.4
-1 -15 6 16.8 7.2
-1 15 -6 9.4 4.3
1 -15 -6 13.3 6.6
1 15 6 11.8 5.3
-1 -15 -6 15.9 7.6
1 -15 6 11.3 7.3
1 15 -6 13.6 4.6
-1 15 6 17.8 4.8
2 15 6 12.5 5.1
-2 -15 6 29.5 7.8
2 -15 -6 14.7 7.2
-2 15 -6 9 4.6
-2 -15 -6 30.8 8.6
-2 15 6 24.8 4.9
-2 15 6 21.2 5.5
2 -15 6 12.9 7
2 15 -6 22.5 5.4
-3 15 -6 -5 4.3
3 -15 -6 8.8 6.8
-3 -15 6 5.3 6.9
3 15 6 8 5.5
3 -15 -6 7 4.7
3 15 -6 6 4.9
-3 -15 -6 13.9 8.7
3 15 -6 1.1 4.8
-3 15 6 7.4 4.4
3 -15 6 -5.4 7.4
0 15 -7 2.2 4.2
0 15 7 -5.8 4.1
0 -15 -7 -2 6.6
0 -15 7 -9.1 6.8
-1 -15 7 173.38 16.4
1 15 7 157.68 13.5
1 -15 -7 133.19 14.7
-1 15 -7 155.98 11.6
-1 -15 -7 154.68 15.6
1 15 -7 152.88 11.4
-1 15 7 172.08 12.7
1 -15 7 173.18 17.1
2 -15 -7 0 7
-2 -15 7 -1.1 6.2
2 15 7 -1.1 4.9
-2 15 -7 0.5 4.7
-2 -15 -7 -7.3 7.8
2 -15 7 3.2 7.5
-2 15 7 5.8 5
2 15 -7 0 4.6
-2 15 7 -0.3 4.1
3 -15 -7 111.89 16.2
3 15 -7 125.39 15.5
3 15 -7 108.89 13.5
0 -15 -8 -9.9 8.3
1 -15 -8 663.73 40
0 -16 0 43.1 5.8
0 16 0 56.09 5.4
0 -16 0 48.9 6.6
0 16 0 43.6 5
1 -16 0 -3.4 3.9
-1 -16 0 4.1 4.6
1 16 0 0.4 3.1
-1 -16 0 3.8 4.1
-1 16 0 4.6 2.9
-2 -16 0 110.09 9.6
2 16 0 98.39 8.7
-2 -16 0 82.79 9.8
-2 16 0 91.59 8.2
2 -16 0 59.69 9
-3 16 0 6.5 3.8
3 16 0 0.1 4
-3 -16 0 7.2 5.3
3 -16 0 7.6 5.1
4 -16 0 37.7 8.1
-4 16 0 34.6 6.4
4 16 0 27.5 6.2
-4 -16 0 23.9 7.1
0 16 1 412.46 22.1
0 16 1 408.26 21.5
0 16 -1 420.36 21.8
0 -16 -1 410.36 23.4
0 -16 1 431.56 22.8
0 -16 1 398.66 22.9
0 16 -1 405.76 21.8
-1 -16 1 10.3 4.8
1 16 1 6.2 3.4
-1 -16 1 7.1 4.9
1 -16 -1 15.1 4.8
-1 16 -1 14.1 3.7
-1 -16 -1 7.6 5
-1 -16 -1 18.7 4.7
-1 16 1 12.6 3.6
-1 16 1 0.4 3.3
1 -16 1 10.7 4.7
1 16 -1 9 3.4
1 -16 1 6.5 5
1 16 -1 10.7 3.4
2 16 1 513.65 25.5
-2 -16 1 486.25 26.5
-2 16 -1 479.95 24.7
2 -16 -1 485.05 26.6
2 16 -1 450.15 25.1
2 -16 1 460.45 26.4
-2 16 1 442.36 24.9
-2 -16 -1 417.16 26.1
-2 -16 -1 428.36 25.6
3 -16 -1 28.6 7.9
3 16 1 45.9 6.7
-3 16 -1 48.9 6.2
-3 -16 1 55.29 8.1
3 16 -1 43.7 6.9
-3 16 1 43.4 6.4
3 -16 1 59.19 8
-3 -16 -1 57.09 8
-4 16 -1 198.88 13.8
4 16 1 205.08 14.8
4 -16 -1 243.08 17.3
-4 -16 1 195.18 16.2
4 16 -1 201.18 14.7
-4 -16 -1 219.18 15.9
4 -16 1 246.38 16.4
-4 16 1 211.38 14.8
0 16 2 1238.78 62.99
0 -16 -2 1334.47 65.09
0 16 -2 1338.57 63.69
0 16 2 1309.57 64.09
0 -16 2 1295.57 63.89
0 -16 2 1240.78 65.09
-1 -16 2 2.4 4.4
-1 16 -2 -3.5 2.6
1 16 2 5.4 3.4
1 -16 -2 2.8 4.4
-1 16 2 6.8 3.6
-1 -16 -2 4.8 5
1 -16 2 1.2 5.2
1 -16 2 2.7 5.1
1 16 -2 3.1 3.2
-1 16 2 3.6 3.5
1 16 -2 3.4 3.3
2 16 2 1361.46 64.39
-2 16 -2 1314.67 63.89
2 -16 -2 1270.77 65.09
-2 -16 2 1403.56 65.79
-2 16 2 1281.67 63.79
-2 -16 -2 1258.77 65.49
2 16 -2 1180.28 63.89
2 -16 2 1298.37 65.39
2 -16 2 1254.37 64.89
-2 16 2 1279.27 65.99
-3 -16 2 2.4 5.7
3 -16 -2 -0.3 5.4
-3 16 -2 2.5 3.6
3 16 2 2.1 3.9
3 -16 2 -1 4.6
3 16 -2 2.7 4.2
-3 -16 -2 2.3 6.5
-3 16 2 3.6 3.5
-3 -16 -2 6.8 4.9
-4 16 -2 934.01 46.5
4 -16 -2 859.91 49.1
4 16 2 934.31 47.5
-4 -16 2 884.41 48.7
4 -16 2 973.3 48.4
-4 16 2 876.51 46.5
4 16 -2 911.01 47
-4 -16 -2 866.11 47.6
0 16 3 178.28 12.3
0 -16 -3 180.98 13.9
0 -16 3 174.28 13.9
0 16 -3 159.98 11.1
-1 16 -3 2.4 3.3
-1 -16 3 2.3 4.6
1 -16 -3 -0.2 4.1
1 16 3 -1.6 3.2
-1 16 3 -7.9 2.8
-1 -16 -3 -1.1 5.4
-1 16 3 5.1 3.7
1 -16 3 4.6 5.5
1 16 -3 3.7 3.4
1 16 -3 0.2 3.2
1 -16 3 4.7 4.6
2 16 3 130.09 10.6
2 -16 -3 144.69 12
-2 -16 3 136.89 12.4
-2 16 -3 156.48 10.2
2 -16 3 138.29 12.7
2 16 -3 137.79 10.3
-2 16 3 145.49 10.4
-2 -16 -3 146.89 13.8
2 16 -3 125.69 9.9
2 -16 3 139.49 11.5
-2 16 3 150.18 10.1
3 16 3 75.19 8.5
-3 16 -3 74.89 7.9
3 -16 -3 81.59 9.8
-3 -16 3 80.99 10.5
-3 -16 -3 69.49 8.7
3 16 -3 72.99 8.2
-3 16 3 75.99 7.9
3 -16 3 67.99 8.9
-3 -16 -3 92.89 11.6
4 16 3 118.69 11.2
4 -16 -3 90.89 11.9
-4 16 -3 96.39 9.6
-4 -16 3 108.09 12.1
-4 -16 -3 101.99 13.1
-4 -16 -3 98.49 10.9
-4 16 3 101.29 9.5
4 16 -3 92.09 9.9
4 -16 3 104.49 11.5
0 16 4 6.9 4.1
0 -16 4 11.2 6.5
0 16 -4 -2.5 3.3
0 -16 -4 15.8 6.3
-1 16 -4 0.9 3.7
1 16 4 -1.6 3.6
-1 -16 4 8.7 5.1
1 -16 -4 6.6 5.2
-1 16 4 1 3.1
-1 -16 -4 0.1 5.7
1 16 -4 4.9 3.6
1 -16 4 -5 5.7
-1 16 4 4.7 3.8
2 16 4 19.3 5
-2 16 -4 17.1 4.5
2 -16 -4 29.2 6.7
-2 -16 4 36.7 6.9
-2 16 4 19 4.4
-2 -16 -4 17.8 7.9
2 16 -4 20.8 4.6
-2 16 4 16.9 4.5
2 16 -4 22.9 4.9
2 -16 4 10.8 6.6
2 -16 4 19.1 6
3 16 4 14.6 5
3 -16 -4 5 5.8
-3 -16 4 14.9 6.7
-3 16 -4 19.7 5
3 16 -4 15.9 4.8
3 -16 4 9.5 7.2
3 -16 4 16.4 6.2
-3 -16 -4 23.8 8.5
-3 16 4 14.2 4.8
-4 16 -4 -3.5 4.5
4 -16 -4 6.2 6.3
4 16 4 9.9 5.7
-4 -16 4 2.7 8.3
4 -16 4 2.3 6.2
-4 16 4 2 4.6
-4 -16 -4 3.9 6.3
-4 -16 -4 4.7 9.3
4 16 -4 5.9 5.1
0 -16 -5 552.64 35
0 -16 5 665.93 37.2
0 16 -5 617.24 33.1
0 16 5 699.13 34.3
1 16 5 4.6 4.3
1 -16 -5 7.4 6.2
-1 16 -5 3.7 3.8
-1 -16 5 6.9 5.6
-1 16 5 7.2 4.2
1 16 -5 4.8 3.9
-1 -16 -5 7.6 6.1
1 -16 5 -2.1 6.5
2 16 5 497.25 27.9
-2 -16 5 514.55 29.8
-2 16 -5 440.46 27.1
2 -16 -5 525.35 29.4
-2 -16 -5 549.74 30.8
2 16 -5 526.85 27.1
2 -16 5 489.65 30.2
-2 16 5 495.45 27.6
2 16 -5 496.95 27.4
-2 16 5 501.95 26.9
3 -16 -5 37.6 8.1
3 16 5 31.7 6.3
-3 -16 5 26.2 8.3
-3 16 -5 34.4 6.6
-3 16 5 20.6 5.3
3 16 -5 21.2 5.7
3 -16 5 33.9 9.6
-3 -16 -5 40.5 10.1
3 -16 5 36.4 7.7
-3 16 5 44.9 6.8
4 -16 5 437.76 29.1
0 16 6 1058.29 49.8
0 16 -6 999.7 48.6
0 -16 6 977.9 52.89
0 -16 -6 772.92 50.39
-1 -16 6 20.5 8.1
1 16 6 19.2 5.8
1 -16 -6 21.4 7.6
-1 16 -6 20.7 5.3
1 16 -6 20.1 5.3
1 -16 6 11 7.6
-1 16 6 11.2 5
-1 -16 -6 12.7 7.5
-2 -16 6 483.35 29.7
2 -16 -6 484.85 30
-2 16 -6 387.26 26.7
2 16 6 525.45 28.4
2 -16 6 525.15 31.2
-2 16 6 531.45 28
2 16 -6 501.05 27.2
-2 -16 -6 557.44 31.5
-2 16 6 494.25 26.7
3 16 6 9.4 9.1
3 -16 -6 8.9 7
3 16 -6 4.9 5.1
3 -16 6 1.7 8.1
-3 16 6 -2 5.2
-3 16 6 6.2 4.7
0 -16 -7 40.8 9.4
0 16 7 40.4 7.3
0 -16 7 13 9.4
0 16 -7 34.4 6
-1 -16 7 3 6.6
-1 16 -7 4.7 4.7
1 16 7 7.9 5.9
1 -16 -7 -5.3 6.6
-1 -16 -7 7.7 8.5
1 -16 7 8.3 8.1
1 16 -7 10 4.7
-1 16 7 1.9 5.2
2 -16 -7 16.5 8.2
2 16 -7 11.9 5.8
0 17 0 -0.6 2.9
0 17 0 0.2 2.7
0 -17 0 0.4 3.9
0 -17 0 -1 4.7
1 -17 0 825.02 43.7
-1 -17 0 901.41 44.1
-1 17 0 818.72 42.4
1 17 0 862.21 43
-1 -17 0 833.52 43.6
2 17 0 -1.2 3.5
2 -17 0 2.6 5.3
-2 17 0 -2.9 3.3
-2 -17 0 2.4 4.8
-3 17 0 560.44 30.7
-3 -17 0 579.14 32.3
3 -17 0 580.04 33.1
3 17 0 581.64 31.3
4 17 0 -5.6 4.6
-4 17 0 -1.5 4.3
4 -17 0 1.1 6.2
-4 -17 0 7.2 6.3
0 -17 -1 0.5 4.4
0 17 -1 5 3.1
0 -17 1 -1.9 3.9
0 17 1 -3 2.7
0 -17 1 4.9 4.2
0 17 1 0.6 3
0 17 -1 -4.2 2.7
-1 -17 1 247.08 16.4
-1 17 -1 266.67 14.9
1 -17 -1 259.07 16.4
1 17 1 265.67 15.3
-1 17 1 231.18 14.6
-1 17 1 240.28 14.8
1 17 -1 253.27 14.7
1 -17 1 248.78 16.3
-1 -17 -1 269.67 17.1
-1 -17 -1 250.97 16
1 17 -1 273.17 15.3
2 17 1 104.89 8.6
2 -17 -1 80.89 9.7
-2 17 -1 92.89 7.7
-2 -17 1 101.99 10.5
-2 17 1 77.39 8.3
2 -17 1 93.19 10.4
-2 -17 -1 80.89 10
2 17 -1 107.59 9.4
-2 -17 -1 110.69 10.1
-3 -17 1 172.58 13.4
3 -17 -1 140.19 13.9
3 17 1 195.18 12.1
-3 17 -1 141.89 10.6
3 17 -1 129.49 11.2
-3 17 1 139.99 11.3
-3 -17 -1 130.09 12.4
3 -17 1 147.19 13.3
4 17 1 122.29 11.4
-4 17 -1 112.49 9.4
-4 -17 1 120.69 12.8
4 -17 -1 80.99 12
-4 -17 -1 93.69 11.2
4 -17 1 103.79 11.7
-4 17 1 100.19 10.6
4 17 -1 98.29 10.4
0 17 2 -5.2 3.1
0 17 -2 0.3 3.4
0 -17 2 3.7 4.4
0 -17 2 -5.3 6
0 -17 -2 -4 4.3
1 17 2 471.55 25.1
-1 -17 2 485.35 26.3
-1 17 -2 463.95 24.5
1 -17 -2 497.25 26.4
-1 -17 -2 473.35 26.7
1 -17 2 459.75 26.1
-1 17 2 438.86 25.1
1 17 -2 447.56 24.2
1 17 -2 427.66 24.5
1 -17 2 428.96 26.9
-1 17 2 459.25 24.6
2 -17 -2 -0.7 4.3
2 17 2 4.7 3.5
-2 -17 2 -6.2 4.4
-2 17 -2 1.8 3.5
-2 -17 -2 1.3 4.6
2 -17 2 9.1 5.3
-2 17 2 0.6 4
2 17 -2 3.6 4
-2 -17 -2 -2.7 5.8
-3 17 -2 322.57 18.9
3 -17 -2 333.47 21.1
-3 -17 2 320.07 21.2
3 17 2 350.66 19.9
-3 -17 -2 352.96 22.3
-3 17 2 329.47 19.4
3 17 -2 290.27 19.2
-3 -17 -2 277.07 19.8
3 -17 2 362.46 21
-4 -17 2 8.1 7
-4 17 -2 -2.6 4
4 -17 -2 3.7 7.3
4 17 2 10.5 5.8
4 17 -2 7.9 5.2
-4 17 2 3.1 4.8
4 -17 2 -2.8 5.8
-4 -17 -2 -1.8 5.8
0 17 -3 -5.9 3.3
0 17 3 -0.7 3.5
0 -17 3 -2.9 5.2
0 -17 -3 2.6 5.3
1 -17 -3 602.14 29.8
1 17 3 605.54 28.6
-1 17 -3 554.74 27.8
-1 -17 3 569.94 29.7
-1 17 3 530.25 28.3
-1 17 3 527.15 27.5
1 17 -3 466.05 28.3
1 -17 3 461.15 29.5
-1 -17 -3 489.05 29.8
1 -17 3 426.06 30
1 17 -3 481.65 27.3
-2 17 -3 58.19 6.7
2 -17 -3 61.39 8.3
-2 -17 3 49.99 8.6
2 17 3 68.79 7.5
2 -17 3 56.09 8.4
2 17 -3 48.2 6.4
-2 -17 -3 40 8.9
-2 17 3 63.29 6.7
-2 17 3 59.09 6.9
2 -17 3 37.6 8.7
-3 -17 3 550.14 29.1
3 17 3 515.25 27.1
-3 17 -3 449.95 26
3 -17 -3 463.05 27.6
-3 17 3 488.25 26.1
3 -17 3 504.65 27.8
3 17 -3 457.05 26.3
-3 -17 -3 385.56 26.6
-3 -17 -3 477.15 29.2
-4 -17 3 136.09 16.2
4 17 3 132.59 12.4
4 -17 -3 121.59 13.4
-4 17 -3 120.49 11.1
-4 -17 -3 123.19 12.6
4 -17 3 137.19 13.4
-4 -17 -3 133.09 16.5
-4 17 3 122.29 11.4
4 17 -3 135.19 11.6
0 17 4 -0.2 4.3
0 -17 -4 0 5.9
0 17 -4 2.4 3.8
0 -17 4 -1.3 5.8
-1 -17 4 633.84 34.3
-1 17 -4 651.63 32.5
1 17 4 644.94 33.1
1 -17 -4 661.83 34.4
1 17 -4 555.24 31.8
-1 17 4 584.04 32
1 -17 4 566.54 35.4
-1 17 4 612.84 32.7
-2 -17 4 -0.3 5.3
2 -17 -4 3.5 5.3
2 17 4 1 4.1
-2 17 -4 -0.3 3.8
2 17 -4 1 4
-2 -17 -4 -0.3 7.1
-2 17 4 -1.9 4
2 -17 4 -5.1 6.2
-2 17 4 3.5 4
2 -17 4 1.6 5.4
2 17 -4 -2.9 3.9
3 17 4 507.85 28.8
3 -17 -4 523.35 30.2
-3 -17 4 530.35 31
-3 17 -4 471.85 28.1
-3 17 4 513.85 28.2
3 -17 4 577.04 31.7
3 17 -4 527.35 28.7
-3 -17 -4 527.45 32
3 -17 4 516.85 29.9
-4 -17 -4 5.3 10.1
4 -17 4 1.2 8.3
0 -17 -5 1.7 5.8
0 -17 5 4.6 6.8
0 17 -5 2.5 4.2
0 17 5 -1.6 4.2
1 17 5 25 6
-1 -17 5 17.6 6.7
-1 17 -5 34.3 5.7
1 -17 -5 37.9 8.5
-1 -17 -5 35.8 8.2
1 -17 5 36.2 9.7
1 17 -5 24.5 5.3
-1 17 5 23.2 5.7
2 -17 -5 52.99 8.9
2 17 5 46.4 7
-2 -17 5 37.2 8.1
-2 17 -5 60.59 7.5
-2 17 5 44 6.5
2 -17 5 48.5 9.8
-2 17 5 49 7.1
-2 -17 -5 45.5 9.9
2 17 -5 54.19 7
3 -17 -5 21.3 7.4
3 17 5 12.7 5.7
-3 17 -5 31.5 6.5
-3 -17 5 14.5 7.5
3 -17 5 25 8.7
-3 17 5 10 5.1
3 17 -5 20.5 6
-3 -17 -5 23.6 10
-3 17 5 15.2 6
0 17 -6 2.5 4.1
0 17 6 10 5.3
0 -17 6 -9.8 6.7
0 -17 -6 0.4 7.5
1 17 6 313.27 19.6
-1 17 -6 260.87 17.9
-1 -17 6 295.17 21
1 -17 -6 312.27 21.2
-1 -17 -6 268.57 21.5
1 17 -6 308.47 18.2
-1 17 6 340.87 19.4
1 -17 6 281.17 23
-2 -17 6 3.9 6.5
-2 17 -6 0.2 4.8
2 -17 -6 -3.8 7
2 17 6 -2.7 4.4
2 -17 6 6.2 8
-2 -17 -6 -8.5 7.5
-2 17 6 1.3 4.8
2 17 -6 -2.6 4.9
-2 17 6 3 4.6
-3 17 6 279.07 20.2
3 17 -6 246.78 18.5
0 17 7 -4 6.4
0 17 -7 -2.7 4.5
0 -17 -7 -7.5 8.6
1 -17 -7 566.34 38.6
1 17 -7 581.54 31.9
0 18 0 1093.59 54.39
0 -18 0 1082.99 55.49
0 18 0 1110.09 54.19
-1 -18 0 -4.7 5.1
1 18 0 3.5 3.5
-1 18 0 2 3.3
-1 -18 0 3.2 4.9
1 -18 0 -2.8 4.3
2 18 0 1318.47 65.19
-2 -18 0 1346.57 65.99
-2 18 0 1301.87 64.59
2 -18 0 1245.78 66.29
-3 18 0 -6.5 3.8
-3 -18 0 3.7 5.9
3 -18 0 2.5 6.7
3 18 0 -4.7 4.2
-4 18 0 685.63 38.3
4 18 0 704.23 39
-4 -18 0 746.33 40.3
4 -18 0 776.62 41.5
0 -18 1 197.98 14
0 18 1 192.88 12.7
0 -18 1 198.58 13.8
0 18 1 209.28 12.7
0 18 -1 211.38 12.6
0 -18 -1 198.28 14.3
1 -18 -1 13.6 5.5
-1 18 -1 24.3 4.6
-1 -18 1 11.4 5.3
1 18 1 25.3 4.6
-1 18 1 21.3 4.4
1 18 -1 14.9 4.3
1 -18 1 10.2 5.2
-1 -18 -1 26.7 6.8
2 18 1 208.48 12.4
2 -18 -1 158.58 13.1
-2 18 -1 152.18 11
-2 -18 1 183.48 13.7
-2 -18 -1 131.19 13.8
-2 -18 -1 158.08 12.9
2 -18 1 161.28 14.5
2 18 -1 168.18 12
-2 18 1 157.78 11.5
3 -18 -1 68.09 9.9
-3 -18 1 84.79 10.4
-3 18 -1 75.19 7.6
3 18 1 60.09 8
3 18 -1 71.39 8.6
3 -18 1 71.99 10.2
-3 -18 -1 67.39 9
-3 18 1 67.09 8.3
4 -18 -1 108.59 14
-4 18 -1 130.09 11.4
4 18 1 135.89 11.7
-4 -18 1 136.19 13.8
4 -18 1 125.59 13.9
4 18 -1 114.89 11.7
-4 18 1 106.89 11.2
-4 -18 -1 113.29 12.6
0 -18 -2 185.88 14.6
0 18 2 199.48 13
0 -18 2 198.28 14.1
0 18 -2 205.38 12.7
-1 18 -2 6.5 3.6
-1 -18 2 5.9 4.8
1 18 2 5.9 3.9
1 -18 -2 1.3 4.7
-1 18 2 1.9 3.9
-1 18 2 4.3 4
1 -18 2 -3.1 5
1 18 -2 -1.7 3.7
-1 -18 -2 6.4 5.9
1 18 -2 7 4.2
1 -18 2 10.7 6.5
-2 18 -2 74.49 7.6
2 -18 -2 87.49 9.6
-2 -18 2 78.29 9.5
2 18 2 86.69 8.6
2 18 -2 67.09 7.9
-2 -18 -2 38.4 9.2
-2 18 2 75.39 8.2
2 -18 2 83.79 10.3
-3 -18 2 5.1 6.4
-3 18 -2 13.3 4.7
3 18 2 7.5 4.9
3 -18 -2 1.4 6
-3 -18 -2 10.5 8.6
3 -18 2 6.5 6.6
-3 -18 -2 10.3 6
-3 18 2 7.3 5.3
3 18 -2 8.2 4.7
-4 -18 2 107.19 18.2
4 -18 2 91.39 11.3
-4 -18 -2 49.4 9.4
4 18 -2 75.79 9.9
0 -18 3 44.5 8
0 -18 -3 67.39 9.3
0 18 -3 42 6.1
0 18 3 47.9 6.8
1 -18 -3 9.8 5.9
1 18 3 1.4 3.6
-1 -18 3 13.8 5.9
-1 18 -3 2.3 4.1
-1 18 3 6.3 4.7
-1 -18 -3 3.7 6.6
1 18 -3 2.7 4.2
1 -18 3 3.8 7.1
-1 18 3 8.4 5.1
-2 18 -3 8.9 4.1
2 18 3 16.2 4.9
-2 -18 3 3.6 6.1
2 -18 -3 17.5 6.3
2 18 -3 10.3 4.7
-2 18 3 16.5 4.9
2 -18 3 20.1 7.1
-2 -18 -3 2.4 7.4
2 -18 3 11.6 7.7
-3 18 -3 160.38 12
3 -18 -3 176.88 14.4
-3 -18 3 156.08 14.9
3 18 3 171.18 12.9
3 18 -3 127.09 12.1
-3 -18 -3 168.68 16.7
-3 18 3 184.08 12.5
3 -18 3 184.38 14.8
-4 -18 -3 28.5 8.1
0 18 4 739.93 39.9
0 18 -4 741.83 38.8
0 -18 4 745.33 41.5
0 -18 -4 781.32 41.4
-1 18 -4 4.9 4.3
1 18 4 7.8 4.6
-1 -18 4 3.9 5.4
1 -18 -4 13.4 6.5
1 18 -4 9 4.5
-1 -18 -4 7.1 7.3
-1 18 4 5.1 4.7
1 -18 4 3.9 7.3
2 -18 -4 999.9 52.39
2 18 4 1018.9 51.39
-2 -18 4 1096.09 53.19
-2 18 -4 953.4 50.69
2 18 -4 940.41 50.79
2 -18 4 1111.39 54.49
-2 -18 -4 814.02 52.89
-2 18 4 1050.59 50.59
-2 18 4 1010.2 51.09
-3 -18 4 -3.3 6.6
-3 18 -4 -0.1 4.4
3 18 4 0 4.5
3 -18 -4 -0.1 5.9
3 18 -4 4.9 4.9
-3 -18 -4 0.6 9.1
3 -18 4 -4.6 6.6
-3 18 4 4.4 4.9
0 -18 5 368.56 24.9
0 18 -5 337.17 21.1
0 18 5 351.56 22.6
0 -18 -5 446.16 24.8
1 -18 -5 16.9 7.2
-1 -18 5 24.9 6.9
1 18 5 9.6 5.3
-1 18 -5 19 5.2
1 18 -5 15.5 5.3
-1 18 5 13.7 5.1
1 -18 5 11.5 7.9
-1 -18 -5 15.5 8
2 18 5 293.47 18.6
-2 18 -5 281.87 18.1
-2 -18 5 290.67 20.3
2 -18 -5 315.87 20.5
-2 18 5 296.67 17.9
2 18 -5 300.37 18
2 -18 5 287.27 22.6
-2 -18 -5 271.47 22
-2 18 5 311.07 19
-3 18 5 28.8 6.5
-3 -18 -5 44.9 18
3 18 -5 23 6.8
3 -18 5 22.8 9.8
0 -18 -6 128.69 15.4
0 -18 6 161.58 16.8
0 18 6 150.38 13.7
0 18 -6 138.49 11.3
1 -18 -6 -1.6 7.2
-1 18 -6 -4.2 4.5
-1 -18 6 12.4 6.6
1 18 6 -2.7 4.9
1 18 -6 -5.6 4.6
-1 -18 -6 -7.3 8.1
1 -18 6 10.1 8.7
-1 18 6 2.3 5.3
2 18 -6 79.19 9.4
-2 18 6 78.79 9.8
2 -18 6 88.39 13.9
0 19 0 -0.1 3.6
0 19 0 2.3 3.7
0 -19 0 6.7 5.1
-1 19 0 42.4 5.8
-1 -19 0 46.8 7.9
1 -19 0 50.79 7.3
1 19 0 50.59 6.3
-1 -19 0 38.8 7.3
2 19 0 -0.9 3.9
2 -19 0 -3 5.5
-2 -19 0 9.3 5.7
-2 19 0 11 4.2
3 19 0 34.7 6.7
-3 -19 0 53.89 8.7
-3 19 0 46 6.6
3 -19 0 39.8 9.1
-4 -19 0 -3.4 8.4
0 -19 1 0.6 5
0 19 1 4.7 3.7
0 19 -1 1.2 3.8
0 -19 -1 4.3 4.9
0 -19 1 -6.4 7.7
1 -19 -1 102.49 10.6
1 19 1 103.29 8.7
-1 19 -1 95.59 8.5
-1 -19 1 106.09 10.4
1 19 -1 104.39 9.3
-1 -19 -1 106.49 11.5
1 -19 1 90.09 9.7
-1 19 1 95.89 8.3
-2 19 -1 2 4
2 -19 -1 8 5.3
-2 -19 1 -1.3 5.5
2 19 1 7.5 4.3
-2 19 1 3.2 4.2
-2 -19 -1 5.5 10.3
-2 -19 -1 7 5.4
2 19 -1 -0.8 4.1
2 -19 1 2.7 6.1
-3 19 -1 85.69 8.7
3 -19 -1 88.09 11.4
-3 -19 1 99.09 11.4
3 19 1 88.39 9.6
-3 -19 -1 92.89 10.9
3 -19 1 70.89 11.1
-3 19 1 86.39 9.3
3 19 -1 97.49 9.9
-4 -19 -1 1.6 6.9
0 19 -2 -5.2 3.8
0 19 2 3.3 3.8
0 -19 2 9.9 5.3
0 -19 -2 -9.2 5.1
-1 19 -2 1312.97 62.29
1 -19 -2 1289.97 63.89
-1 -19 2 1227.28 63.59
1 19 2 1325.17 62.89
1 -19 2 1197.08 63.19
-1 -19 -2 1286.87 64.49
-1 19 2 1211.48 62.49
1 19 -2 1177.88 63.79
-1 19 2 1237.98 62.09
-2 -19 2 -4.5 5.4
2 -19 -2 5.3 5.6
2 19 2 -0.2 4.3
-2 19 -2 -5.5 3.7
-2 -19 -2 1.8 7.1
2 -19 2 5.7 7.1
2 19 -2 -2.6 4.3
-2 19 2 -5.8 4.5
3 -19 -2 1075.79 55.79
3 19 2 1104.49 54.99
-3 19 -2 1057.19 53.99
-3 -19 2 1182.28 56.69
3 -19 2 1127.29 56.79
-3 -19 -2 973 55.79
3 19 -2 1045.6 54.59
-3 19 2 964.9 54.49
-4 -19 -2 -0.8 7.4
0 19 3 1.4 4.3
0 -19 -3 9.9 6.6
0 -19 3 2.2 5.4
0 19 -3 -4.3 3.8
-1 -19 3 190.18 14.7
1 -19 -3 209.68 15
1 19 3 177.98 12.8
-1 19 -3 175.08 12.5
-1 19 3 196.38 13.9
1 19 -3 183.48 12.5
1 -19 3 145.69 15.6
-1 -19 -3 188.58 16.2
2 -19 -3 -1.8 5.3
2 19 3 -0.7 4.1
-2 -19 3 -6.4 5.9
-2 19 -3 9.2 4.2
2 -19 3 2.4 7.1
-2 -19 -3 -16.2 7.3
-2 19 3 -13.4 5.1
2 19 -3 0 4.3
3 -19 -3 137.39 13.9
3 19 3 166.68 12.2
-3 -19 3 146.79 14.5
-3 19 -3 122.69 10.6
3 19 -3 141.49 12.4
3 -19 3 109.59 13.1
-3 19 3 119.09 11.6
-3 -19 -3 137.69 16
0 19 -4 7.3 4.4
0 -19 -4 3.4 6.6
0 -19 4 0 6.3
0 19 4 2.9 4.8
-1 -19 4 12.8 6.7
1 19 4 29.3 5.9
-1 19 -4 17.4 5.5
1 -19 -4 14.3 6.9
1 -19 4 12.9 8.8
-1 19 4 15.9 6
-1 -19 -4 8.4 7.9
1 19 -4 28.1 5.7
-2 19 -4 16.3 5.6
-2 -19 4 0.2 6.3
2 -19 -4 17.9 6.6
2 19 4 8.9 5.2
-2 19 4 7 5.4
-2 19 4 13.7 5.4
-2 -19 -4 -2.2 8.7
2 -19 4 6.9 9.1
3 -19 4 25.9 8.5
-3 19 4 20.5 6.1
-3 -19 -4 27.4 11.2
3 19 -4 18.2 5.9
0 19 5 -6 5
0 19 -5 0.2 4.7
0 -19 5 -0.4 6.7
0 -19 -5 9.8 6.9
-1 -19 5 27.9 7.7
1 -19 -5 36.6 8.9
1 19 5 21.9 6.1
-1 19 -5 25.1 6
-1 19 5 15.2 6
1 -19 5 21.8 10.4
-1 -19 -5 28.3 9.4
1 19 -5 12.7 5.7
-2 19 -5 -3.6 4.9
-2 -19 5 9.6 7.4
2 -19 -5 7.8 7.1
2 19 5 0.9 5.8
2 -19 5 -3.5 9
-2 19 5 -3.5 5.2
-2 -19 -5 -4.4 8.8
0 19 -6 5.5 5.2
0 19 6 1.7 6.4
0 -19 6 -3.1 8
-1 19 6 715.93 36
1 19 -6 513.95 32.1
1 -19 6 616.94 42.4
2 19 -6 14 6.6
0 -20 0 1706.13 84.79
1 20 0 -1.7 3.9
1 -20 0 6.2 5.2
-1 20 0 -1.9 3.9
2 -20 0 956.9 51.69
2 20 0 1021.4 50.79
-2 -20 0 1012.6 51.59
-2 20 0 969.2 49.99
-3 -20 0 14.2 7
-3 20 0 0 4.4
3 -20 0 3.3 7.8
3 20 0 1 4.9
0 20 -1 350.76 19.3
0 -20 1 328.97 25.9
0 20 1 320.17 19.3
0 -20 -1 358.76 21.3
-1 20 -1 19 5.1
1 -20 -1 5.2 5.8
1 20 1 4 4.3
-1 -20 1 15.1 6.2
-1 20 1 23 5
1 20 -1 14.7 5.2
1 -20 1 21.9 6.2
-1 -20 -1 9.5 7
-2 20 -1 185.48 12.6
-2 -20 1 186.48 15
2 -20 -1 180.58 14.8
2 20 1 185.28 13.2
2 -20 1 201.78 15.8
2 20 -1 195.78 13.4
-2 20 1 158.08 12.5
3 -20 -1 -7.9 6.5
-3 -20 1 10 6.9
3 20 1 -0.6 5.2
-3 20 -1 5.2 4.6
-3 -20 -1 -0.8 6.4
3 -20 1 3.9 8.9
-3 20 1 4.1 5.3
3 20 -1 2.7 5.4
0 20 2 62.89 7.4
0 20 -2 63.19 7.5
0 -20 2 48.4 8.1
0 -20 -2 69.59 9.7
1 20 2 3.5 4.1
1 -20 -2 2.9 5.5
-1 -20 2 -2.7 5.6
-1 20 -2 4.3 4
1 -20 2 7.8 6.6
-1 20 2 6.8 4.7
-1 -20 -2 1.6 6.9
-2 20 -2 130.09 10.7
-2 -20 2 126.09 12.9
2 20 2 144.59 11.6
2 -20 -2 154.18 13.2
2 20 -2 130.09 11.5
-2 20 2 148.99 11.7
2 -20 2 141.09 14.4
-2 -20 -2 153.48 15.3
-3 -20 2 7 7.2
-3 20 -2 4.3 4.5
3 -20 -2 4.8 6.3
3 20 2 9.4 5.8
-3 20 2 1.3 5.7
3 20 -2 2.9 5.3
3 -20 2 -2 8.2
0 20 -3 335.37 18.9
0 20 3 311.97 19.3
0 -20 -3 355.76 22
0 -20 3 280.07 20.3
-1 -20 3 19.2 6.9
1 -20 -3 24.8 6.8
-1 20 -3 23.8 5.3
1 20 3 17.8 5.4
1 -20 3 19.8 8.4
-1 -20 -3 20.6 8.3
1 20 -3 20.6 6.8
-1 20 3 30.1 6.6
-2 -20 3 236.18 17.9
2 -20 -3 239.58 17.4
2 20 3 270.97 15.9
-2 20 -3 256.77 15.4
2 -20 3 201.38 21.7
-2 -20 -3 202.78 19.6
2 20 -3 221.88 16
-2 20 3 218.38 16.1
-3 20 3 -2.4 6
3 20 -3 2.7 5.4
-3 -20 -3 2.2 10.5
3 -20 3 8.2 8
0 -20 -4 968.1 50.09
0 20 -4 921.51 47.2
0 20 4 905.01 47.9
0 -20 4 896.31 49.5
1 20 4 -5.1 4.4
1 -20 -4 -6 6.5
-1 -20 4 -5.7 6.2
-1 20 -4 -1.9 4.8
-1 20 4 1.3 5.7
1 20 -4 3.5 5
-1 -20 -4 -3.2 7.9
1 -20 4 -1.3 8.2
-2 20 -4 948.31 48.4
2 20 4 907.91 48.7
-2 -20 4 989.9 50.79
2 -20 -4 1016.6 50.69
-2 20 4 965.5 48.7
-2 -20 -4 797.92 51.39
3 20 -4 3.8 7
0 20 -5 169.78 12.9
0 -20 -5 168.08 16.5
0 20 5 161.38 13.9
0 -20 5 181.58 17.1
-1 -20 5 2 7
1 20 5 5.6 5.4
-1 20 -5 -0.1 5
1 -20 -5 9.6 9.3
-1 20 5 6.9 6.2
-1 -20 -5 22.6 9.6
1 20 -5 -0.5 5.4
1 -20 5 2.3 9.3
2 -20 5 120.79 16.9
-2 20 5 158.48 13.3
0 -21 0 3.9 6
1 21 0 3.3 4.4
1 -21 0 3.1 5.7
-1 21 0 0.9 4.3
2 21 0 7.7 5.1
-2 -21 0 6.2 8.6
-2 21 0 -1.2 4.3
2 -21 0 12 6.5
-3 -21 0 31.1 8.4
-3 21 0 10.5 6.1
3 21 0 23.7 7.2
3 -21 0 26.9 10.6
0 21 -1 -0.2 5.1
0 -21 -1 -2.8 6.3
0 21 1 7.8 4.6
-1 21 -1 403.56 22.3
1 -21 -1 394.76 24.2
1 21 1 370.56 22.6
-1 -21 -1 426.56 25.4
1 -21 1 397.96 24
-1 21 1 407.26 22.2
-2 -21 1 9.4 7.1
2 21 1 14.6 5.6
2 -21 -1 26.7 7.6
-2 21 -1 19.1 5.4
2 21 -1 20 5.9
2 -21 1 11.3 7.7
-2 21 1 35.6 6.3
-3 -21 1 357.66 22.5
3 21 -1 330.47 20.9
-3 21 1 308.17 21.4
-3 -21 -1 319.07 29.2
3 -21 1 299.67 23.5
0 21 2 -7.3 3.9
0 -21 -2 0.6 7
0 21 -2 2.7 4.9
1 21 2 967.4 50.39
1 -21 -2 1014.6 52.09
-1 -21 2 956.9 51.69
-1 21 -2 966.2 50.19
-1 -21 -2 1057.69 53.09
2 21 2 0.2 5.1
-2 21 -2 -9.5 4.1
-2 -21 2 -4.6 6.2
2 -21 -2 0.5 6
2 -21 2 0.9 7.6
-2 21 2 8 5.7
-2 -21 -2 -1.2 8.9
2 21 -2 1.4 4.9
3 21 -2 621.94 35.6
3 -21 2 586.94 37.7
0 21 3 1.8 4.7
0 -21 3 11.7 6.6
0 21 -3 -0.7 4.7
0 -21 -3 7.6 7.5
1 21 3 141.89 12.1
1 -21 -3 149.88 13.9
-1 -21 3 147.49 13.7
-1 21 -3 155.48 11.8
-1 -21 -3 160.18 15.9
-1 21 3 142.89 13.1
-2 -21 3 3.4 6.8
-2 21 -3 16.6 5.5
2 21 3 26.3 6
2 -21 -3 19.8 7.2
-2 21 3 -2.3 6.6
-2 -21 -3 6.1 10
0 -21 4 4.5 7
0 21 -4 1.6 5.4
0 -21 -4 11.3 8
0 21 4 2.4 5.3
-1 -21 4 11.8 7.5
-1 21 -4 8.9 5.5
1 21 4 5.8 5.4
1 -21 -4 5.7 7.5
-1 21 4 -4.8 5.7
1 -21 4 -0.7 8.5
-1 -21 -4 1.3 8.7
1 21 -4 17.9 6.6
-2 -21 -4 -6.5 12.6
0 21 -5 5.9 6.4
0 -21 5 9.9 9.7
1 21 -5 504.65 27.7
-1 21 5 441.16 35.1
1 -21 5 495.45 34.2
0 -22 0 505.15 29.2
-1 22 0 -5.9 4.3
1 22 0 6.6 5.3
1 -22 0 -0.7 6.4
2 -22 0 255.77 18.8
2 22 0 262.17 17.2
-2 22 0 246.38 16.4
-3 -22 0 4.2 7.9
0 -22 -1 142.29 14.2
-1 22 -1 27.2 5.8
1 -22 -1 26.8 7.4
1 22 1 25.7 6.2
-1 -22 -1 36.3 10.6
1 -22 1 28.7 7.9
-2 22 -1 91.39 9.3
-2 -22 1 92.79 11.5
2 -22 -1 94.59 11.6
2 22 1 108.79 10.6
2 22 -1 98.69 10.4
2 -22 1 92.29 11.9
-2 22 1 98.19 9.8
0 -22 -2 330.37 21.4
0 22 -2 279.97 18
0 22 2 287.37 18.3
1 -22 -2 6.7 6.7
1 22 2 0.5 4.4
-1 -22 2 -1 6.5
-1 22 -2 2.5 5
-1 -22 -2 0.1 8.2
-2 -22 2 192.68 16.2
2 -22 -2 160.48 22.2
-2 22 -2 191.58 13.3
2 22 2 201.98 14.3
-2 22 2 188.58 14
2 22 -2 165.58 16.4
2 -22 2 175.28 16.8
0 22 -3 409.66 23
0 -22 -3 395.16 26.1
0 22 3 390.86 23.3
0 -22 3 399.06 25.3
-1 22 -3 -5.4 5.1
-1 -22 3 5.4 7
1 -22 -3 0.5 7
1 22 3 2.5 4.9
-1 -22 -3 -2 9
-2 -22 -3 295.77 24.3
-2 22 3 297.87 24.1
0 22 -4 334.87 20.8
0 -22 4 332.07 23
0 22 4 361.86 21.6
-1 22 4 2.1 6.4
1 -23 0 568.94 32.1
-1 23 0 541.95 32
2 -23 0 -7.1 9.9
-2 23 0 -3.3 5.5
2 23 0 0.2 5.7
0 -23 -1 -0.6 7.7
1 23 1 136.69 12
-1 23 -1 139.39 11.6
1 -23 -1 181.78 15.1
-2 23 1 11.2 6.1
2 23 -1 4.5 6.2
2 -23 1 9 8.1
0 -23 -2 16 8.7
1 23 2 -3.5 4.9
1 -23 -2 7.1 7.9
-1 23 -2 1.5 5.7
-1 -23 -2 10.5 9.4
-2 23 2 -2.1 6
0 23 3 -4.6 5.5
0 23 -3 -1.6 5.9
-1 -23 3 10 7.8
1 -24 0 12.6 8.2
0 -24 -1 171.38 16.3
1 24 1 23.4 7.2
-1 24 -1 15.7 6.6
-1 -24 -2 5.2 14.4

_cod_database_fobs_code 2243688
