#------------------------------------------------------------------------------
#$Date: 2020-11-28 07:19:17 +0200 (Sat, 28 Nov 2020) $
#$Revision: 259272 $
#$URL: file:///home/coder/svn-repositories/cod/cif/2/24/36/2243690.cif $
#------------------------------------------------------------------------------
#
# This file is available in the Crystallography Open Database (COD),
# http://www.crystallography.net/. The original data for this entry
# were provided by IUCr Journals, http://journals.iucr.org/.
#
# The file may be used within the scientific community so long as
# proper attribution is given to the journal article from which the
# data were obtained.
#
data_2243690
loop_
_publ_author_name
'Chong, Saehwa'
'Perry, Samuel'
'Riley, Brian J.'
'Nelson, Zayne J.'
_publ_section_title
;
 Crystal structures and comparisons of potassium rare-earth molybdates
 K<i>RE</i>(MoO~4~)~2~ (<i>RE</i> = Tb, Dy, Ho, Er, Yb, and Lu)
;
_journal_coeditor_code           RU2071
_journal_issue                   12
_journal_name_full               'Acta Crystallographica Section E'
_journal_page_first              1871
_journal_page_last               1875
_journal_paper_doi               10.1107/S205698902001542X
_journal_volume                  76
_journal_year                    2020
_chemical_formula_iupac          'K Yb (Mo O4)2'
_chemical_formula_moiety         'K Yb Mo2 O8'
_chemical_formula_sum            'K Mo2 O8 Yb'
_chemical_formula_weight         532.02
_chemical_name_systematic
;
Potassium ytterbium bis(molybdate)
;
_space_group_IT_number           60
_space_group_name_Hall           '-P 2n 2ab'
_space_group_name_H-M_alt        'P b c n'
_symmetry_cell_setting           orthorhombic
_symmetry_space_group_name_Hall  '-P 2n 2ab'
_symmetry_space_group_name_H-M   'P b c n'
_atom_sites_solution_primary     dual
_cell_angle_alpha                90
_cell_angle_beta                 90
_cell_angle_gamma                90
_cell_formula_units_Z            4
_cell_length_a                   5.0417(5)
_cell_length_b                   18.3039(19)
_cell_length_c                   7.8693(8)
_cell_measurement_reflns_used    3007
_cell_measurement_temperature    273
_cell_measurement_theta_max      29.157
_cell_measurement_theta_min      2.225
_cell_volume                     726.20(13)
_computing_cell_refinement
;
APEX3 (Bruker, 2014)
;
_computing_data_collection
;
APEX3 (Bruker, 2014)
;
_computing_data_reduction
;
APEX3 (Bruker, 2014)
;
_computing_molecular_graphics
;
<i>OLEX2</i> (Dolomanov <i>et al.</i>,  2009)
;
_computing_publication_material
;
publCIF (Westrip, 2010)
;
_computing_structure_refinement
;
SHELXL (Sheldrick, 2015b)
;
_computing_structure_solution
;
SHELXT (Sheldrick, 2015a)
;
_diffrn_ambient_temperature      273
_diffrn_measured_fraction_theta_full 1.000
_diffrn_measured_fraction_theta_max 0.968
_diffrn_measurement_device_type  'Bruker APEXII CCD'
_diffrn_measurement_method       '\f and \w scans'
_diffrn_radiation_source         'X-ray tube'
_diffrn_radiation_type           'Mo K\a'
_diffrn_radiation_wavelength     0.71073
_diffrn_reflns_av_R_equivalents  0.0380
_diffrn_reflns_av_unetI/netI     0.0266
_diffrn_reflns_limit_h_max       6
_diffrn_reflns_limit_h_min       -6
_diffrn_reflns_limit_k_max       25
_diffrn_reflns_limit_k_min       -24
_diffrn_reflns_limit_l_max       10
_diffrn_reflns_limit_l_min       -10
_diffrn_reflns_number            8164
_diffrn_reflns_theta_full        25.242
_diffrn_reflns_theta_max         29.469
_diffrn_reflns_theta_min         2.225
_exptl_absorpt_coefficient_mu    16.750
_exptl_absorpt_correction_T_max  0.3009
_exptl_absorpt_correction_T_min  0.1978
_exptl_absorpt_correction_type   multi-scan
_exptl_absorpt_process_details
;
(SADABS; Krause et al., 2015)
;
_exptl_crystal_colour            white
_exptl_crystal_density_diffrn    4.866
_exptl_crystal_description       plate
_exptl_crystal_F_000             948
_exptl_crystal_size_max          0.06
_exptl_crystal_size_mid          0.06
_exptl_crystal_size_min          0.04
_refine_diff_density_max         1.545
_refine_diff_density_min         -1.139
_refine_ls_extinction_method     none
_refine_ls_goodness_of_fit_all   1.108
_refine_ls_goodness_of_fit_ref   1.108
_refine_ls_hydrogen_treatment    undef
_refine_ls_matrix_type           full
_refine_ls_number_constraints    0
_refine_ls_number_parameters     56
_refine_ls_number_reflns         978
_refine_ls_number_restraints     0
_refine_ls_R_factor_all          0.0267
_refine_ls_R_factor_gt           0.0224
_refine_ls_shift/su_max          0.001
_refine_ls_shift/su_mean         0.000
_refine_ls_structure_factor_coef Fsqd
_refine_ls_weighting_details
'w=1/[\s^2^(Fo^2^)+(0.0244P)^2^+3.0168P] where P=(Fo^2^+2Fc^2^)/3'
_refine_ls_weighting_scheme      calc
_refine_ls_wR_factor_all         0.0609
_refine_ls_wR_factor_ref         0.0632
_reflns_number_gt                845
_reflns_number_total             978
_reflns_threshold_expression     'I > 2\s(I)'
_iucr_refine_instructions_details
;
TITL kybmo2o8_a.res in Pbcn
 kybmo2o8.res created by SHELXL-2016/4 at 13:51:04 on 22-Sep-2020
REM Old TITL KYbMo2O8 in Pbcn
REM SHELXT solution in Pbcn
REM R1 0.072, Rweak 0.000, Alpha 0.027, Orientation a'=-a, b'=c, c'=b
REM Formula found by SHELXT: O8 K Mo2 Yb
CELL 0.71073 5.0417 18.3039 7.8693 90 90 90
ZERR 4 0.0005 0.0019 0.0008 0 0 0
LATT 1
SYMM 0.5-X,0.5-Y,0.5+Z
SYMM -X,+Y,0.5-Z
SYMM 0.5+X,0.5-Y,-Z
SFAC K Mo O Yb
UNIT 4 8 32 4
L.S. 40
PLAN  20
SIZE 0.06 0.06 0.04
TEMP 0
list 4
fmap 2
acta
REM <olex2.extras>
REM <HklSrc "%.\\KYbMo2O8.hkl">
REM </olex2.extras>
WGHT    0.024400    3.016800
FVAR       0.18952
Yb1   4    0.000000    0.495056    0.750000    10.50000    0.00810    0.01404 =
         0.00894    0.00000    0.00084    0.00000
Mo1   2    0.478256    0.600268    0.513953    11.00000    0.00847    0.01173 =
         0.01178    0.00054    0.00134    0.00068
K1    1    0.500000    0.772523    0.250000    10.50000    0.03064    0.01952 =
         0.01890    0.00000    0.00190    0.00000
O4    3    0.605255    0.687783    0.520573    11.00000    0.02115    0.01795 =
         0.01729    0.00073   -0.00439   -0.00252
O2    3    0.752077    0.533958    0.493888    11.00000    0.01120    0.01844 =
         0.00864   -0.00096    0.00230    0.00325
O1    3    0.257181    0.592625    0.691214    11.00000    0.01310    0.01746 =
         0.01427   -0.00384    0.00387   -0.00106
O3    3    0.266140    0.598601    0.336010    11.00000    0.01422    0.01767 =
         0.01366    0.00034    0.00060   -0.00240
HKLF 4
REM  kybmo2o8_a.res in Pbcn
REM R1 =  0.0224 for     845 Fo > 4sig(Fo)  and  0.0267 for all     978 data
REM     56 parameters refined using      0 restraints
END
WGHT      0.0244      3.0168
REM Highest difference peak  1.545,  deepest hole -1.139,  1-sigma level  0.254
Q1    1   0.0000  0.4444  0.7500  10.50000  0.05    1.54
Q2    1   0.4996  0.6538  0.5320  11.00000  0.05    1.09
Q3    1   0.5000  0.7364  0.2500  10.50000  0.05    0.94
Q4    1   0.5000  0.6815  0.7500  10.50000  0.05    0.80
Q5    1   0.7454  0.7301  0.5383  11.00000  0.05    0.78
Q6    1   0.7412  0.6882  0.3287  11.00000  0.05    0.77
Q7    1   0.0000  0.5430  0.7500  10.50000  0.05    0.76
Q8    1   0.5000  0.8185  0.2500  10.50000  0.05    0.75
Q9    1   0.5036  0.6920  0.4688  11.00000  0.05    0.75
Q10   1   0.7418  0.7283  0.1144  11.00000  0.05    0.73
Q11   1   0.7196  0.7180  0.6613  11.00000  0.05    0.73
Q12   1   0.4977  0.7661  0.6025  11.00000  0.05    0.73
Q13   1   0.2539  0.6036  0.6142  11.00000  0.05    0.72
Q14   1   0.4630  0.5582  0.5288  11.00000  0.05    0.70
Q15   1   0.0008  0.6900  0.3190  11.00000  0.05    0.69
Q16   1   0.5065  0.7673  0.4697  11.00000  0.05    0.68
Q17   1   0.5000  0.6469  0.2500  10.50000  0.05    0.68
Q18   1   0.2457  0.5639  0.5394  11.00000  0.05    0.66
Q19   1   0.1561  0.5609  0.3191  11.00000  0.05    0.66
Q20   1   0.7599  0.7646  0.4613  11.00000  0.05    0.66
  REM The information below was added by Olex2.
  REM
  REM R1 = 0.0224 for 845 Fo > 4sig(Fo) and 0.0267 for all 9205 data
  REM n/a parameters refined using n/a restraints
  REM Highest difference peak 1.54, deepest hole -1.14
  REM Mean Shift 0, Max Shift -0.001.
  REM +++ Tabular Listing of Refinement Information +++
  REM R1_all = 0.0267
  REM R1_gt = 0.0224
  REM wR_ref = 0.0632
  REM GOOF = 1.108
  REM Shift_max = -0.001
  REM Shift_mean = 0
  REM Reflections_all = 9205
  REM Reflections_gt = 845
  REM Parameters = n/a
  REM Hole = -1.14
  REM Peak = 1.54
  REM Flack = n/a
;
_cod_data_source_file            ru2071sup1.cif
_cod_data_source_block           Yb_Molybdate
_cod_original_formula_sum        'K Yb Mo2 O8'
_cod_database_code               2243690
_shelx_res_checksum              35384
loop_
_space_group_symop_operation_xyz
'x, y, z'
'-x+1/2, -y+1/2, z+1/2'
'-x, y, -z+1/2'
'x+1/2, -y+1/2, -z'
'-x, -y, -z'
'x-1/2, y-1/2, -z-1/2'
'x, -y, z-1/2'
'-x-1/2, y-1/2, z'
loop_
_atom_site_type_symbol
_atom_site_label
_atom_site_fract_x
_atom_site_fract_y
_atom_site_fract_z
_atom_site_U_iso_or_equiv
_atom_site_adp_type
_atom_site_calc_flag
_atom_site_occupancy
_atom_site_disorder_assembly
_atom_site_disorder_group
Yb Yb1 0.000000 0.49506(2) 0.750000 0.01036(11) Uani d 1 . .
Mo Mo1 0.47826(7) 0.60027(2) 0.51395(5) 0.01066(12) Uani d 1 . .
K K1 0.500000 0.77252(9) 0.250000 0.0230(3) Uani d 1 . .
O O4 0.6053(7) 0.68778(18) 0.5206(4) 0.0188(7) Uani d 1 . .
O O2 0.7521(6) 0.53396(17) 0.4939(3) 0.0128(6) Uani d 1 . .
O O1 0.2572(6) 0.59262(17) 0.6912(4) 0.0149(6) Uani d 1 . .
O O3 0.2661(6) 0.59860(17) 0.3360(4) 0.0152(6) Uani d 1 . .
loop_
_atom_site_aniso_label
_atom_site_aniso_U_11
_atom_site_aniso_U_22
_atom_site_aniso_U_33
_atom_site_aniso_U_12
_atom_site_aniso_U_13
_atom_site_aniso_U_23
Yb1 0.00810(17) 0.01404(17) 0.00894(16) 0.000 0.00084(9) 0.000
Mo1 0.0085(2) 0.0117(2) 0.0118(2) 0.00068(12) 0.00134(12) 0.00054(13)
K1 0.0306(9) 0.0195(7) 0.0189(7) 0.000 0.0019(6) 0.000
O4 0.0212(18) 0.0179(17) 0.0173(16) -0.0025(14) -0.0044(13) 0.0007(13)
O2 0.0112(15) 0.0184(17) 0.0086(14) 0.0033(12) 0.0023(12) -0.0010(11)
O1 0.0131(14) 0.0175(15) 0.0143(15) -0.0011(12) 0.0039(12) -0.0038(13)
O3 0.0142(15) 0.0177(16) 0.0137(15) -0.0024(13) 0.0006(12) 0.0003(12)
loop_
_atom_type_symbol
_atom_type_description
_atom_type_scat_dispersion_real
_atom_type_scat_dispersion_imag
_atom_type_scat_source
K K 0.2009 0.2494 'International Tables Vol C Tables 4.2.6.8 and 6.1.1.4'
Mo Mo -1.6832 0.6857 'International Tables Vol C Tables 4.2.6.8 and 6.1.1.4'
O O 0.0106 0.0060 'International Tables Vol C Tables 4.2.6.8 and 6.1.1.4'
Yb Yb -0.3850 5.5486 'International Tables Vol C Tables 4.2.6.8 and 6.1.1.4'
loop_
_diffrn_standard_refln_index_h
_diffrn_standard_refln_index_k
_diffrn_standard_refln_index_l
? ? ?
loop_
_geom_angle_atom_site_label_1
_geom_angle_atom_site_label_2
_geom_angle_atom_site_label_3
_geom_angle_site_symmetry_1
_geom_angle_site_symmetry_3
_geom_angle
_geom_angle_publ_flag
Mo1 Yb1 Mo1 . 3_556 115.356(17) ?
Mo1 Yb1 Mo1 3_556 5_566 96.169(13) ?
Mo1 Yb1 Mo1 . 5_566 113.994(10) ?
Mo1 Yb1 Mo1 . 7_566 96.168(13) ?
Mo1 Yb1 Mo1 5_566 7_566 122.531(16) ?
Mo1 Yb1 Mo1 3_556 7_566 113.994(10) ?
O2 Yb1 Mo1 1_455 3_556 85.88(7) ?
O2 Yb1 Mo1 5_666 7_566 90.31(8) ?
O2 Yb1 Mo1 3_656 3_556 76.37(8) ?
O2 Yb1 Mo1 5_666 . 49.00(8) ?
O2 Yb1 Mo1 3_656 7_566 48.48(8) ?
O2 Yb1 Mo1 5_666 5_566 77.14(8) ?
O2 Yb1 Mo1 7_466 3_556 49.00(8) ?
O2 Yb1 Mo1 7_466 . 153.85(8) ?
O2 Yb1 Mo1 7_466 7_566 77.14(8) ?
O2 Yb1 Mo1 3_656 . 85.88(7) ?
O2 Yb1 Mo1 1_455 7_566 159.95(7) ?
O2 Yb1 Mo1 1_455 5_566 48.48(8) ?
O2 Yb1 Mo1 5_666 3_556 153.85(8) ?
O2 Yb1 Mo1 7_466 5_566 90.31(8) ?
O2 Yb1 Mo1 3_656 5_566 159.95(7) ?
O2 Yb1 Mo1 1_455 . 76.37(8) ?
O2 Yb1 O2 5_666 1_455 70.66(12) ?
O2 Yb1 O2 5_666 3_656 117.45(14) ?
O2 Yb1 O2 7_466 3_656 70.66(12) ?
O2 Yb1 O2 7_466 1_455 117.45(14) ?
O2 Yb1 O2 3_656 1_455 146.58(15) ?
O2 Yb1 O2 5_666 7_466 153.89(16) ?
O1 Yb1 Mo1 . . 23.91(8) ?
O1 Yb1 Mo1 3_556 5_566 96.67(8) ?
O1 Yb1 Mo1 . 7_566 96.67(8) ?
O1 Yb1 Mo1 3_556 . 93.86(8) ?
O1 Yb1 Mo1 3_556 7_566 130.19(8) ?
O1 Yb1 Mo1 . 3_556 93.86(8) ?
O1 Yb1 Mo1 3_556 3_556 23.91(8) ?
O1 Yb1 Mo1 . 5_566 130.19(8) ?
O1 Yb1 O2 3_556 1_455 69.45(10) ?
O1 Yb1 O2 . 3_656 69.45(10) ?
O1 Yb1 O2 3_556 5_666 130.70(11) ?
O1 Yb1 O2 . 5_666 72.89(11) ?
O1 Yb1 O2 3_556 3_656 84.00(11) ?
O1 Yb1 O2 . 1_455 84.00(11) ?
O1 Yb1 O2 . 7_466 130.70(11) ?
O1 Yb1 O2 3_556 7_466 72.89(11) ?
O1 Yb1 O1 . 3_556 75.25(16) ?
O1 Yb1 O3 3_556 5_566 108.54(12) ?
O1 Yb1 O3 . 5_566 150.82(12) ?
O1 Yb1 O3 3_556 7_566 150.82(12) ?
O1 Yb1 O3 . 7_566 108.54(12) ?
O3 Yb1 Mo1 5_566 . 130.01(7) ?
O3 Yb1 Mo1 7_566 5_566 101.50(8) ?
O3 Yb1 Mo1 7_566 3_556 130.01(7) ?
O3 Yb1 Mo1 7_566 . 99.27(8) ?
O3 Yb1 Mo1 5_566 3_556 99.27(8) ?
O3 Yb1 Mo1 5_566 5_566 22.72(8) ?
O3 Yb1 Mo1 5_566 7_566 101.50(8) ?
O3 Yb1 Mo1 7_566 7_566 22.72(8) ?
O3 Yb1 O2 5_566 5_666 84.30(11) ?
O3 Yb1 O2 7_566 1_455 139.02(10) ?
O3 Yb1 O2 5_566 1_455 71.18(11) ?
O3 Yb1 O2 7_566 5_666 76.09(10) ?
O3 Yb1 O2 7_566 7_466 84.30(11) ?
O3 Yb1 O2 5_566 7_466 76.09(10) ?
O3 Yb1 O2 5_566 3_656 139.02(10) ?
O3 Yb1 O2 7_566 3_656 71.18(11) ?
O3 Yb1 O3 5_566 7_566 82.48(16) ?
Yb1 Mo1 Yb1 1_655 5_666 63.070(9) ?
Yb1 Mo1 Yb1 5_566 1_655 120.155(13) ?
Yb1 Mo1 Yb1 5_566 5_666 85.752(11) ?
Yb1 Mo1 Yb1 . 5_566 66.007(10) ?
Yb1 Mo1 Yb1 . 1_655 86.536(12) ?
Yb1 Mo1 Yb1 . 5_666 120.176(13) ?
Yb1 Mo1 K1 . . 138.532(12) ?
Yb1 Mo1 K1 5_566 2_665 171.48(2) ?
Yb1 Mo1 K1 5_666 2_565 170.07(2) ?
Yb1 Mo1 K1 5_566 . 96.075(15) ?
Yb1 Mo1 K1 1_655 2_565 120.864(13) ?
Yb1 Mo1 K1 1_655 . 132.869(12) ?
Yb1 Mo1 K1 . 2_665 121.021(14) ?
Yb1 Mo1 K1 5_666 2_665 93.824(14) ?
Yb1 Mo1 K1 1_655 2_665 66.75(2) ?
Yb1 Mo1 K1 . 2_565 69.74(2) ?
Yb1 Mo1 K1 5_566 2_565 98.712(15) ?
K1 Mo1 Yb1 . 5_666 93.608(16) ?
K1 Mo1 K1 . 2_565 77.153(12) ?
K1 Mo1 K1 . 2_665 75.448(12) ?
K1 Mo1 K1 2_565 2_665 80.44(3) ?
O4 Mo1 Yb1 . . 136.81(11) ?
O4 Mo1 Yb1 . 1_655 101.62(11) ?
O4 Mo1 Yb1 . 5_666 100.77(12) ?
O4 Mo1 Yb1 . 5_566 135.23(11) ?
O4 Mo1 K1 . 2_665 36.53(11) ?
O4 Mo1 K1 . 2_565 69.81(12) ?
O4 Mo1 K1 . . 39.74(10) ?
O4 Mo1 O2 . . 109.61(16) ?
O4 Mo1 O1 . . 106.25(15) ?
O4 Mo1 O3 . . 105.38(15) ?
O2 Mo1 Yb1 . 5_666 29.34(8) ?
O2 Mo1 Yb1 . 1_655 34.93(8) ?
O2 Mo1 Yb1 . . 101.15(10) ?
O2 Mo1 Yb1 . 5_566 97.58(10) ?
O2 Mo1 K1 . 2_565 155.78(8) ?
O2 Mo1 K1 . 2_665 85.99(10) ?
O2 Mo1 K1 . . 118.71(10) ?
O1 Mo1 Yb1 . 5_566 89.70(10) ?
O1 Mo1 Yb1 . 1_655 90.61(10) ?
O1 Mo1 Yb1 . 5_666 145.62(10) ?
O1 Mo1 Yb1 . . 30.68(10) ?
O1 Mo1 K1 . . 120.77(10) ?
O1 Mo1 K1 . 2_665 95.37(10) ?
O1 Mo1 K1 . 2_565 43.81(10) ?
O1 Mo1 O2 . . 118.75(14) ?
O3 Mo1 Yb1 . . 89.67(10) ?
O3 Mo1 Yb1 . 1_655 144.09(11) ?
O3 Mo1 Yb1 . 5_566 29.97(10) ?
O3 Mo1 Yb1 . 5_666 88.72(10) ?
O3 Mo1 K1 . . 66.11(10) ?
O3 Mo1 K1 . 2_665 141.56(11) ?
O3 Mo1 K1 . 2_565 90.79(10) ?
O3 Mo1 O2 . . 112.01(14) ?
O3 Mo1 O1 . . 103.88(15) ?
Mo1 K1 Mo1 2_564 2_664 80.44(3) ?
Mo1 K1 Mo1 3_655 . 66.83(3) ?
Mo1 K1 Mo1 . 2_664 139.938(17) ?
Mo1 K1 Mo1 4_566 2_564 105.17(4) ?
Mo1 K1 Mo1 . 4_466 102.288(13) ?
Mo1 K1 Mo1 . 4_566 105.003(13) ?
Mo1 K1 Mo1 3_655 2_664 102.287(13) ?
Mo1 K1 Mo1 3_655 4_566 139.065(16) ?
Mo1 K1 Mo1 4_566 2_664 56.91(2) ?
Mo1 K1 Mo1 2_564 4_466 56.91(2) ?
Mo1 K1 Mo1 3_655 4_466 139.938(17) ?
Mo1 K1 Mo1 3_655 2_564 105.003(13) ?
Mo1 K1 Mo1 4_566 4_466 80.44(3) ?
Mo1 K1 Mo1 . 2_564 139.065(16) ?
Mo1 K1 Mo1 2_664 4_466 108.26(4) ?
O4 K1 Mo1 . 2_564 149.21(8) ?
O4 K1 Mo1 4_466 4_466 21.66(7) ?
O4 K1 Mo1 . 4_566 80.93(7) ?
O4 K1 Mo1 4_466 2_564 72.90(7) ?
O4 K1 Mo1 4_466 3_655 126.53(8) ?
O4 K1 Mo1 3_655 . 87.03(8) ?
O4 K1 Mo1 3_655 4_466 125.30(8) ?
O4 K1 Mo1 . . 24.24(7) ?
O4 K1 Mo1 2_664 4_566 72.90(7) ?
O4 K1 Mo1 4_466 . 80.82(7) ?
O4 K1 Mo1 3_655 4_566 149.21(8) ?
O4 K1 Mo1 2_664 . 126.53(8) ?
O4 K1 Mo1 4_466 4_566 88.68(8) ?
O4 K1 Mo1 3_655 2_664 95.65(7) ?
O4 K1 Mo1 . 4_466 95.65(7) ?
O4 K1 Mo1 . 2_664 125.30(8) ?
O4 K1 Mo1 2_664 4_466 128.58(9) ?
O4 K1 Mo1 4_466 2_664 128.58(9) ?
O4 K1 Mo1 . 3_655 87.03(8) ?
O4 K1 Mo1 2_664 2_664 21.66(7) ?
O4 K1 Mo1 2_664 3_655 80.82(7) ?
O4 K1 Mo1 3_655 3_655 24.25(7) ?
O4 K1 Mo1 2_664 2_564 88.68(8) ?
O4 K1 Mo1 3_655 2_564 80.93(7) ?
O4 K1 O4 3_655 4_466 121.56(5) ?
O4 K1 O4 3_655 . 109.49(15) ?
O4 K1 O4 . 2_664 121.56(5) ?
O4 K1 O4 . 4_466 77.17(8) ?
O4 K1 O4 3_655 2_664 77.17(8) ?
O4 K1 O4 4_466 2_664 149.74(15) ?
O4 K1 O1 2_664 2_564 89.65(10) ?
O4 K1 O1 2_664 4_566 63.27(9) ?
O4 K1 O1 3_655 2_564 106.49(10) ?
O4 K1 O1 4_466 4_566 89.65(10) ?
O4 K1 O1 4_466 2_564 63.27(9) ?
O4 K1 O1 3_655 4_566 136.42(10) ?
O4 K1 O1 . 4_566 106.49(10) ?
O4 K1 O1 . 2_564 136.42(10) ?
O1 K1 Mo1 2_564 2_564 26.02(6) ?
O1 K1 Mo1 2_564 4_566 80.64(7) ?
O1 K1 Mo1 4_566 4_466 73.47(7) ?
O1 K1 Mo1 4_566 2_564 80.64(7) ?
O1 K1 Mo1 4_566 . 130.72(6) ?
O1 K1 Mo1 4_566 3_655 143.68(7) ?
O1 K1 Mo1 2_564 4_466 42.36(7) ?
O1 K1 Mo1 2_564 3_655 130.72(6) ?
O1 K1 Mo1 2_564 2_664 73.47(7) ?
O1 K1 Mo1 4_566 2_664 42.36(7) ?
O1 K1 Mo1 2_564 . 143.68(7) ?
O1 K1 Mo1 4_566 4_566 26.02(6) ?
O1 K1 O1 4_566 2_564 58.30(13) ?
Mo1 O4 K1 . . 116.01(15) ?
Mo1 O4 K1 . 2_665 121.81(16) ?
K1 O4 K1 . 2_665 120.30(12) ?
Yb1 O2 Yb1 5_666 1_655 109.33(12) ?
Mo1 O2 Yb1 . 5_666 128.04(14) ?
Mo1 O2 Yb1 . 1_655 119.82(13) ?
Yb1 O1 K1 . 2_565 113.22(12) ?
Mo1 O1 Yb1 . . 125.42(16) ?
Mo1 O1 K1 . 2_565 110.17(14) ?
Mo1 O3 Yb1 . 5_566 127.31(16) ?
loop_
_geom_bond_atom_site_label_1
_geom_bond_atom_site_label_2
_geom_bond_site_symmetry_2
_geom_bond_distance
_geom_bond_publ_flag
Yb1 Mo1 3_556 3.6018(5) ?
Yb1 Mo1 7_566 3.6294(5) ?
Yb1 Mo1 5_566 3.6294(5) ?
Yb1 Mo1 . 3.6018(5) ?
Yb1 O2 5_666 2.351(3) ?
Yb1 O2 1_455 2.476(3) ?
Yb1 O2 7_466 2.351(3) ?
Yb1 O2 3_656 2.476(3) ?
Yb1 O1 . 2.255(3) ?
Yb1 O1 3_556 2.255(3) ?
Yb1 O3 7_566 2.280(3) ?
Yb1 O3 5_566 2.280(3) ?
Mo1 Yb1 5_566 3.6294(5) ?
Mo1 Yb1 5_666 3.7786(5) ?
Mo1 Yb1 1_655 3.7522(5) ?
Mo1 K1 2_565 3.8322(11) ?
Mo1 K1 2_665 3.9738(11) ?
Mo1 K1 . 3.7772(14) ?
Mo1 O4 . 1.726(3) ?
Mo1 O2 . 1.845(3) ?
Mo1 O1 . 1.791(3) ?
Mo1 O3 . 1.762(3) ?
K1 Mo1 4_466 3.9738(11) ?
K1 Mo1 3_655 3.7772(14) ?
K1 Mo1 4_566 3.8322(11) ?
K1 Mo1 2_564 3.8322(11) ?
K1 Mo1 2_664 3.9738(11) ?
K1 O4 3_655 2.687(3) ?
K1 O4 . 2.687(3) ?
K1 O4 4_466 2.784(3) ?
K1 O4 2_664 2.784(3) ?
K1 O1 4_566 2.826(3) ?
K1 O1 2_564 2.826(3) ?
O4 K1 2_665 2.784(3) ?
O2 Yb1 5_666 2.351(3) ?
O2 Yb1 1_655 2.476(3) ?
O1 K1 2_565 2.826(3) ?
O3 Yb1 5_566 2.280(3) ?
loop_
_refln_index_h
_refln_index_k
_refln_index_l
_refln_F_squared_meas
_refln_F_squared_sigma
1 0 0 0.7 0.6
1 0 0 0.2 0.3
1 0 0 -0.1 0.4
1 0 0 -0.2 0.3
-2 0 0 5748.02 307.87
2 0 0 5334.37 307.77
2 0 0 5473.85 307.57
3 0 0 0.9 0.9
-3 0 0 0.6 0.9
-3 0 0 0.5 1
3 0 0 0.5 1
3 0 0 -0.4 0.7
-4 0 0 5286.27 299.67
-4 0 0 5442.66 298.67
4 0 0 5356.86 298.47
4 0 0 5259.97 300.57
5 0 0 5.4 2.9
-5 0 0 6.8 2.8
6 0 0 1076.69 68.39
-6 0 0 1144.69 66.89
0 0 -1 0.3 0.3
0 0 1 0 0.1
0 0 1 0.1 0.3
0 0 1 0.1 0.2
1 0 -1 0.2 0.4
1 0 1 0.3 0.4
1 0 -1 0.2 0.2
1 0 -1 0.4 0.5
1 0 1 -0.1 0.3
1 0 1 0.2 0.6
1 0 1 -0.2 0.4
-1 0 1 0.2 0.4
2 0 -1 1 0.9
2 0 1 -0.2 0.6
2 0 1 0.2 0.6
2 0 -1 0 0.4
2 0 -1 -0.2 0.6
-2 0 1 0.4 0.5
2 0 1 -0.1 0.8
2 0 1 0.2 0.5
-3 0 1 0 0.7
-3 0 -1 -0.2 0.7
3 0 1 0.4 0.8
3 0 1 0.9 1.2
3 0 -1 0.3 1.1
3 0 -1 0.3 0.7
3 0 1 -0.6 1.1
3 0 1 0.5 0.8
-3 0 1 -0.7 0.9
4 0 1 -0.3 1.6
-4 0 1 -0.9 1.4
4 0 -1 1.9 2
-4 0 1 -0.2 1
-4 0 -1 -0.5 1.4
4 0 1 -0.4 1.1
-4 0 -1 0.5 1.4
5 0 1 -0.8 2.3
5 0 -1 0.1 2.1
-5 0 -1 -0.2 2.1
-5 0 1 1.2 2.1
-6 0 -1 -2.4 2.5
6 0 -1 0 3.4
6 0 1 1.3 3.6
-6 0 1 0.2 2.7
0 0 2 14.7 1.8
0 0 2 16.4 1.7
0 0 -2 17.4 2.2
0 0 2 12.2 1.1
-1 0 2 3.2 0.9
1 0 2 4.8 0.7
1 0 -2 4.3 0.7
-1 0 2 5 1.1
1 0 2 3.4 1
1 0 2 4.9 1.1
-1 0 -2 6.8 1.6
1 0 -2 5.9 1.5
-2 0 2 50.49 3.7
2 0 2 45.8 3.9
2 0 2 37.3 3.3
2 0 -2 49 4.4
2 0 -2 46.1 3
-2 0 -2 51.99 6.7
2 0 2 47.6 3.6
-2 0 2 39.7 3.9
-3 0 2 0.9 1.7
3 0 -2 10.4 2.7
3 0 -2 4.1 1
3 0 2 9.7 2.2
-3 0 -2 1.6 1.7
-3 0 2 8.6 1.7
-4 0 2 152.58 11
4 0 2 173.28 11.8
-4 0 -2 167.68 11.9
4 0 -2 174.28 13.2
-4 0 2 175.58 12.7
4 0 2 162.78 13.5
5 0 -2 24.1 5.4
5 0 2 14.5 3.2
-5 0 -2 11.8 3.6
-5 0 2 7.9 3.3
6 0 -2 119.09 12.4
6 0 2 115.59 14.8
-6 0 2 121.29 13
0 0 3 -0.1 0.4
0 0 3 0.7 0.6
0 0 -3 1.1 0.9
0 0 3 0.5 0.7
-1 0 3 -0.8 0.5
1 0 -3 0 0.8
1 0 3 0.8 0.7
1 0 -3 0.3 0.5
-1 0 3 0.3 0.7
1 0 3 -0.4 0.6
-1 0 -3 1.3 0.9
-2 0 -3 1 0.7
-2 0 3 -0.1 0.9
-2 0 3 -0.4 0.7
2 0 -3 0.5 1
2 0 3 0.4 0.7
2 0 3 0.1 0.8
-2 0 -3 0 1.1
3 0 3 1.4 1.1
3 0 -3 0.5 1.3
-3 0 -3 0.4 2.3
-3 0 3 -0.4 0.8
3 0 3 -0.7 0.9
-3 0 -3 -0.3 1
-3 0 3 -2 1
4 0 -3 -0.9 1.6
4 0 3 0.5 1.4
-4 0 -3 -1 3
4 0 3 -0.4 1.5
-4 0 -3 -0.5 1.4
-4 0 3 0.5 1.8
-4 0 3 0.2 1.2
-5 0 -3 5.5 4.7
-5 0 3 -0.5 1.9
5 0 3 0.7 2.3
5 0 -3 1.5 2.7
-6 0 -3 -3.6 5.1
6 0 -3 1.7 3.5
-6 0 3 -1.9 2.6
0 0 -4 9552.24 538.85
0 0 4 9528.65 537.15
0 0 4 9552.54 538.35
0 0 4 9999 538.15
1 0 4 0.5 0.9
1 0 -4 0.1 1
-1 0 -4 0 1
1 0 4 -0.4 0.8
-1 0 4 -0.4 0.7
1 0 -4 -0.7 0.5
-1 0 4 0.4 0.9
-2 0 4 5297.17 303.87
-2 0 4 5382.36 303.77
-2 0 -4 5681.73 302.67
-2 0 -4 5430.06 305.07
2 0 -4 5402.66 304.77
2 0 4 5270.47 303.57
2 0 4 5542.95 304.17
3 0 4 8.2 2
-3 0 4 8.1 2.1
-3 0 -4 8 3.1
-3 0 4 7.8 2.5
3 0 -4 7.8 2.8
3 0 4 8.8 2.3
-4 0 4 2858.01 160.78
4 0 -4 2813.82 161.68
-4 0 4 2792.72 159.28
4 0 4 2815.72 159.48
4 0 4 2828.62 160.28
-5 0 -4 15.2 7
5 0 -4 19.1 5.4
-5 0 4 19.7 4.8
5 0 4 24.6 4.7
-6 0 4 1079.29 64.69
6 0 -4 1013.7 65.69
6 0 4 1081.89 63.59
0 0 5 0.2 0.9
0 0 -5 0.6 1.1
0 0 -5 -0.4 0.8
0 0 5 0.3 0.6
-1 0 5 -0.1 1
1 0 5 -0.4 0.8
-1 0 -5 0.5 1.4
1 0 5 -0.4 1
1 0 -5 -0.5 1
1 0 -5 0.7 0.9
-1 0 5 -0.3 0.9
2 0 5 0.1 1.1
-2 0 -5 -0.9 1.3
2 0 -5 0.3 1.4
-2 0 5 -0.1 1.2
2 0 5 0.7 1.3
-2 0 5 0.3 1.1
3 0 5 0.5 1.3
3 0 -5 0.4 1.9
3 0 5 1.1 1.5
-3 0 5 0.7 1.3
-3 0 5 0.1 1.6
-3 0 -5 2.2 2.5
4 0 -5 4.2 2.7
-4 0 5 0 1.8
-4 0 5 2.5 2.1
4 0 5 -0.3 1.6
4 0 5 -0.1 1.6
-4 0 -5 1.3 3.2
5 0 5 0 2.4
-5 0 5 1.6 2.9
-5 0 -5 1.7 4.5
5 0 -5 -1.2 2.9
6 0 5 -2.3 3
0 0 -6 16.5 3.6
0 0 6 18 3.3
0 0 -6 20.2 3.2
1 0 -6 27 3.6
1 0 -6 35.4 5.5
-1 0 6 27.8 4.4
1 0 6 30.3 4.4
1 0 6 39.8 4.8
-1 0 -6 54.49 5.6
2 0 6 352.16 23
2 0 -6 383.16 24.6
-2 0 6 363.36 23.3
-2 0 6 357.76 22.9
2 0 6 360.06 23.4
-2 0 -6 383.06 24.4
-3 0 6 7.3 2.6
-3 0 6 0.5 2.4
-3 0 -6 29.3 5.2
3 0 6 20.5 3.5
3 0 -6 12.1 3.9
-4 0 6 49.3 6.9
-4 0 -6 50.39 8.6
4 0 6 40.4 6.2
4 0 6 30.3 5.1
-4 0 6 45.7 6.1
4 0 -6 35.7 6.9
5 0 -6 47.1 8.8
5 0 6 73.99 9.4
-5 0 -6 78.59 11.9
-5 0 6 53.89 8.3
0 0 -7 0.5 1.5
0 0 7 0.3 1.4
0 0 -7 0.5 1.8
-1 0 7 -1.8 1.3
1 0 7 0.3 1.5
-1 0 -7 2.4 2.2
1 0 -7 0.3 2
-1 0 -7 1.4 1.6
2 0 7 1.7 1.8
2 0 -7 4.8 2.8
-2 0 7 0.4 1.8
2 0 7 -1.5 1.6
-2 0 -7 -1.4 2.1
-3 0 7 0.2 2.4
-3 0 -7 2.4 3.1
3 0 -7 0.4 2.7
3 0 7 -0.9 2.1
-3 0 7 0.1 1.8
3 0 7 1.3 1.9
4 0 -7 2.7 3.4
-4 0 7 1.1 2.6
4 0 7 -0.3 2.5
-4 0 7 -3.4 2.3
-4 0 -7 -3 3.6
4 0 7 0.4 2.3
-5 0 7 1.8 3
0 0 -8 2345.77 132.89
0 0 8 2291.87 131.79
0 0 -8 2274.47 130.99
-1 0 -8 3.1 2.2
-1 0 8 1.3 2.1
1 0 8 2.1 1.9
-1 0 -8 1.2 2.4
1 0 -8 0.3 2.4
-2 0 8 1918.51 112.49
2 0 8 1916.21 112.39
-2 0 -8 2012 113.99
-2 0 -8 1989.9 112.89
2 0 -8 1934.31 114.09
-3 0 8 31 5.5
3 0 8 39.5 6.6
3 0 8 30.4 5.4
3 0 -8 20.1 5.7
-3 0 -8 33 6.9
4 0 -8 1076.59 68.49
4 0 8 1115.09 68.79
4 0 8 1073.19 66.69
-4 0 -8 1196.28 77.49
0 0 -9 2.3 2.9
0 0 9 3.4 2.5
1 0 9 1.7 2.3
-1 0 -9 -1.8 2.4
-1 0 9 2.2 2.4
1 0 -9 -1.5 2.8
-1 0 -9 -2.1 2
-2 0 -9 1.6 3.2
-2 0 9 0.4 2.5
2 0 -9 -1.9 2.7
2 0 9 -1.5 2.3
-2 0 -9 0.8 2.3
-3 0 -9 0.5 4.2
3 0 9 -1.9 2.7
3 0 -9 1.9 3.7
-3 0 -9 -2.6 2.7
-3 0 9 -3.1 2.9
0 0 10 88.39 10
0 0 -10 75.49 10.5
1 0 10 4.4 3.2
-1 0 10 8.4 3.8
1 0 -10 6.2 4.1
-1 0 -10 8.8 4.6
-2 0 -10 184.88 15
-2 0 -10 170.48 16.2
2 0 -10 183.48 19.8
0 -1 0 -0.1 0.1
0 1 0 0.1 0.1
0 -1 0 0 0.1
1 -1 0 15.8 2
-1 -1 0 19.9 1.7
1 -1 0 18.9 1.6
1 -1 0 16.2 1.4
-1 -1 0 19.2 1.5
1 -1 0 19.1 1.8
1 1 0 17.4 1.8
1 1 0 17.8 1.5
-2 1 0 1.4 0.9
2 -1 0 0.7 0.8
2 1 0 0.7 0.6
-2 -1 0 -0.4 0.7
2 1 0 0.7 1
2 -1 0 -0.2 0.5
-2 -1 0 1.3 0.7
2 -1 0 -0.1 0.7
-3 1 0 187.88 11.6
3 1 0 173.68 11.1
3 1 0 161.28 12.1
3 -1 0 157.18 11.3
3 -1 0 172.98 10.9
3 -1 0 183.48 12.4
-3 -1 0 187.58 11
-3 -1 0 160.38 11.5
-4 -1 0 2.8 2.6
-4 1 0 8.5 2.7
5 -1 0 108.49 10.6
-5 1 0 99.49 10.7
5 1 0 110.29 10.7
-5 -1 0 103.19 9.5
6 1 0 17.6 5.3
-6 1 0 8.1 3.6
-6 -1 0 2.9 3.1
0 1 -1 0 0.3
0 1 1 0 0.2
0 -1 -1 0.1 0.3
0 -1 1 0 0.2
0 -1 -1 0 0.1
0 -1 1 0.1 0.2
0 1 1 -0.1 0.2
0 1 -1 0.1 0.2
1 1 1 49.99 4.1
1 1 1 51.49 3.7
-1 -1 1 52.29 3.7
1 -1 -1 48.7 3.8
-1 -1 1 52.49 3.4
1 -1 -1 53.99 3.6
1 1 1 52.89 3.4
1 1 -1 53.99 3.3
1 -1 1 49.2 3.9
1 -1 1 49.6 3.4
-1 -1 -1 48.6 3.4
1 -1 1 52.99 3.6
-1 1 1 52.89 3.6
1 -1 1 53.09 3.5
1 1 -1 51.19 3.9
2 -1 -1 1 0.8
-2 -1 1 -0.3 0.7
2 1 1 -0.7 0.5
2 1 1 0.6 0.9
2 -1 -1 0.8 0.5
-2 -1 1 0.2 0.5
2 -1 -1 -0.4 0.7
2 1 1 0.5 0.7
2 1 -1 0.3 0.5
2 -1 1 0.9 0.7
2 -1 1 0.5 0.8
-2 -1 -1 -0.3 0.5
2 -1 1 1.1 0.7
-2 1 1 1.2 0.7
2 1 -1 0.3 0.8
2 -1 1 0.4 0.7
-3 -1 1 12.7 1.9
3 1 1 7.7 2.2
3 -1 -1 10 2.1
3 -1 -1 13 1.7
3 1 1 10.6 2.2
3 -1 -1 12 2.7
3 1 1 14 3
-3 -1 1 8.6 2.2
3 -1 1 19.4 3.5
3 -1 1 3.5 1.9
3 1 -1 8.4 1.6
-3 1 1 11.8 2.1
3 -1 1 13.3 2.2
3 -1 1 11 2.1
-3 -1 -1 13.6 2.4
3 1 -1 15.3 3.2
-4 1 -1 52.89 6.1
-4 -1 1 65.69 7
4 1 1 50.79 5.1
4 -1 -1 53.79 6.2
-4 1 -1 59.09 6.5
4 1 1 59.99 6.6
-4 -1 -1 58.19 6.3
-4 1 1 56.09 6.8
-4 1 1 51.69 4.9
4 1 -1 47.2 6.9
-4 -1 -1 55.09 5.3
4 -1 1 51.19 4.9
4 -1 1 65.49 8.1
5 1 1 1.1 2.7
-5 -1 1 2.7 2.5
-5 1 -1 3.4 2.6
5 -1 -1 6 3.1
5 1 -1 4.9 2.9
-5 -1 -1 3.6 2.8
5 -1 1 7.6 3.7
-5 1 1 10.2 3.4
-6 -1 1 118.19 11.4
6 1 1 116.89 13.1
6 -1 -1 113.19 12.5
-6 1 -1 120.49 11.3
-6 -1 -1 121.09 11.1
-6 1 1 121.69 11.4
6 -1 1 122.99 13
6 1 -1 114.89 12.5
0 -1 2 0.2 0.3
0 -1 -2 0.5 0.6
0 1 -2 0.3 0.4
0 1 2 -0.5 0.3
0 -1 2 0.3 0.5
0 1 2 0.1 0.5
0 1 -2 0.2 0.5
0 -1 -2 0 0.3
1 -1 -2 7929.51 435.46
-1 -1 2 7771.72 435.06
1 1 2 7940.91 435.16
-1 -1 2 7973.3 434.86
1 1 2 7763.82 434.86
1 -1 -2 7679.73 434.86
-1 1 -2 7293.87 435.36
-1 -1 -2 7422.96 434.26
1 1 -2 7766.22 435.36
1 -1 2 8126.19 435.16
1 -1 2 7470.95 434.36
1 -1 2 7597.44 434.96
-1 1 2 7947.6 434.96
1 1 -2 8680.93 435.36
2 -1 -2 -0.8 0.8
-2 -1 2 -0.7 0.6
2 -1 -2 -0.5 0.7
2 1 2 0 0.5
-2 1 -2 0 1.2
2 1 2 -0.5 0.5
-2 -1 2 -0.2 0.5
-2 -1 -2 -0.3 0.5
2 -1 2 0.1 0.6
-2 -1 -2 0.3 1.5
2 -1 2 0 0.6
2 1 -2 -0.3 0.4
2 1 -2 -0.7 0.8
2 -1 2 0.2 0.6
-2 1 2 0.1 0.6
3 1 2 4315.77 227.18
-3 -1 2 4013.1 227.98
3 -1 -2 4130.99 228.68
3 1 2 4140.99 229.38
-3 -1 2 3930.11 226.78
3 1 2 4215.98 227.68
3 -1 -2 4151.48 227.78
3 -1 2 3971.8 227.48
3 1 -2 4070.99 226.48
3 -1 2 4327.77 227.58
3 1 -2 4092.49 228.68
-3 1 2 3947.6 227.08
3 -1 2 3608.84 228.68
-3 -1 -2 4090.99 227.28
3 -1 2 3862.71 226.98
4 -1 -2 6 2.7
4 1 2 8.1 2.3
4 1 2 7.7 3.4
-4 1 -2 6.8 2.2
-4 -1 2 7.2 1.9
-4 -1 2 8.9 3
4 1 -2 10.3 3.2
-4 -1 -2 6.9 2.4
-4 1 2 9.6 2.3
-4 1 2 9.5 2.9
4 -1 2 8.1 3.2
4 -1 2 7.2 2.9
4 -1 2 12.8 2.7
5 1 2 1542.85 92.19
-5 -1 2 1620.14 93.49
5 -1 -2 1650.23 94.69
5 1 2 1685.03 95.79
-5 1 -2 1648.54 92.89
5 -1 2 1549.74 92.09
5 -1 2 1487.65 94.89
-5 -1 -2 1668.03 92.79
5 1 -2 1644.04 94.69
-5 1 2 1534.25 93.39
-6 -1 2 7.2 3.7
6 -1 -2 3.3 3.6
6 1 2 2.5 4.3
6 -1 2 5.1 4.9
6 1 -2 10.2 4.7
-6 1 2 0.5 2.9
0 -1 3 -0.4 0.5
0 1 -3 0.1 0.7
0 -1 3 -0.1 0.3
0 1 3 1 0.8
0 1 -3 -0.2 0.5
0 -1 -3 2.9 1.1
0 1 3 -0.4 0.4
0 1 3 0.3 0.4
1 1 3 301.07 17.5
-1 -1 3 293.37 17.4
-1 -1 3 283.57 17.2
1 1 3 294.67 17.3
1 -1 -3 285.37 16.6
-1 1 -3 294.57 17.7
1 -1 -3 292.97 18
1 -1 -3 292.67 17.1
1 1 -3 286.87 17.8
1 1 -3 279.27 16.8
-1 1 3 294.07 17.4
-1 -1 -3 292.97 18.1
1 -1 3 259.77 17.2
1 -1 3 303.27 17.6
1 -1 3 275.77 16.3
-2 -1 3 0.2 0.9
2 -1 -3 -0.4 0.7
-2 1 -3 1.5 1.3
2 1 3 1 0.8
2 -1 -3 0.3 1
-2 -1 3 0 0.7
2 1 3 -0.7 0.7
2 -1 3 -0.9 0.7
-2 -1 -3 -0.2 0.5
-2 1 3 0.4 0.8
2 1 -3 1.1 1
-2 -1 -3 -0.3 1.1
2 -1 3 -0.2 0.6
2 -1 3 0.6 0.6
2 1 -3 0.3 0.5
3 1 3 86.29 7
-3 -1 3 79.19 7
3 -1 -3 92.29 7.7
-3 -1 3 85.19 6.4
-3 1 -3 71.99 10.5
3 1 3 82.29 6.3
3 1 -3 78.69 7.4
-3 -1 -3 52.79 9.7
3 -1 3 79.09 6.8
-3 -1 -3 90.69 6.4
-3 1 3 88.89 7.3
-3 1 3 83.09 6.4
3 -1 3 97.39 6.8
3 -1 3 86.89 6.1
-4 -1 3 67.29 7.6
-4 -1 3 70.69 5.7
-4 1 -3 32.4 8.1
4 -1 -3 55.49 7.6
-4 1 -3 73.09 6.2
4 1 3 67.29 6.4
4 -1 3 67.99 6.2
-4 1 3 68.59 7.6
-4 1 3 59.79 5.6
-4 -1 -3 61.59 5.9
4 -1 3 65.89 6.2
4 1 -3 71.39 7.3
-4 -1 -3 77.99 11.9
5 -1 -3 25.4 5.8
-5 -1 3 25 5.4
5 1 3 26.1 4.7
-5 1 -3 3.9 4.7
5 1 -3 19.5 5
-5 -1 -3 14.7 6.8
5 -1 3 18 4
-5 1 3 19 4.5
-6 1 -3 32.7 10.6
-6 -1 3 67.19 9.5
6 -1 -3 105.89 12.8
6 1 -3 82.29 11.1
-6 -1 -3 72.89 14
-6 1 3 67.19 9.4
0 -1 4 0.2 0.6
0 1 -4 2.1 1
0 1 4 4.6 1.4
0 1 4 -0.4 0.7
0 -1 4 0.6 1
0 1 -4 2.9 1.4
0 1 4 3.1 1.1
-1 -1 4 91.89 6.3
1 1 4 87.79 6.5
-1 1 -4 96.89 7
1 1 4 96.59 6.7
-1 -1 4 83.19 6.5
1 -1 -4 104.79 7.5
1 -1 -4 87.59 5.9
-1 1 4 86.79 6.6
1 1 -4 83.39 7
-1 1 4 80.69 6.2
1 -1 4 93.99 6.6
1 1 -4 79.39 5.9
-1 -1 -4 88.89 7.2
1 -1 4 85.29 6.6
-2 -1 4 5.2 1.6
-2 1 -4 9.6 2.3
2 -1 -4 7.4 2.2
2 1 -4 3.5 1.8
2 -1 4 6 1.5
-2 1 4 1.5 1.6
2 -1 4 5.3 1.8
-2 1 4 8 1.9
2 1 -4 0.9 1
-3 -1 4 128.99 9.6
3 -1 -4 123.49 10.1
-3 -1 4 120.89 8.8
3 1 4 127.69 9.5
-3 1 -4 137.49 11.3
3 1 4 110.89 8.6
3 1 -4 124.79 10.1
3 -1 4 119.69 8.8
-3 1 4 117.69 8.8
-3 1 4 129.49 9.7
-3 -1 -4 91.49 10.5
3 -1 4 124.79 9.4
4 -1 -4 12.4 3.7
-4 1 -4 27.7 6.1
-4 -1 4 8 2.6
-4 -1 4 10.6 3.4
-4 1 4 14.5 2.9
4 1 -4 8 3.1
4 -1 4 18.2 3.6
4 -1 4 25.1 3.7
-4 1 4 7.7 3.5
-4 -1 -4 44.1 8.3
5 1 4 136.19 11.6
-5 -1 4 143.59 12.2
5 -1 -4 139.89 13
-5 1 -4 106.89 16
-5 1 4 142.19 12.3
5 -1 4 161.28 11.9
-5 -1 -4 95.19 16.4
5 1 -4 159.58 13.4
-6 -1 4 19.1 5.4
-6 1 -4 11.2 10.2
6 -1 -4 9.4 4.6
6 1 4 24.5 5.4
-6 -1 -4 11.5 8.5
-6 1 4 16.7 5.1
6 -1 4 17.2 5.1
6 1 -4 12.3 5
0 1 -5 0.8 1.1
0 1 5 0.3 0.9
0 1 -5 0.3 0.7
0 -1 5 -0.2 0.6
0 -1 -5 0.1 1.1
0 1 5 -1.4 0.8
0 -1 5 -0.2 0.9
1 1 5 36.7 4.4
1 1 5 33.9 4.3
1 -1 -5 32.6 3.4
-1 -1 5 31.3 4.2
-1 1 -5 37.8 4.9
1 -1 -5 28.3 4.5
-1 -1 5 26.8 3.4
-1 -1 -5 38 5.2
-1 1 5 28.6 3.5
1 -1 5 33.6 4.4
-1 1 5 31.1 4.1
1 1 -5 28.4 4.3
1 1 -5 29.9 3.4
1 -1 5 26 3.7
2 -1 -5 2.8 1.9
-2 -1 5 6.3 2
2 1 5 6.1 2.2
-2 -1 5 5.4 1.9
2 1 5 4.6 1.7
-2 1 -5 9 2.7
2 1 -5 3.7 2
-2 1 5 1.8 1.5
-2 1 5 4.6 1.7
2 -1 5 2.9 1.7
2 -1 5 5.1 1.9
-2 -1 -5 6.4 2.6
-3 1 -5 6.9 2.9
3 -1 -5 3.9 2.5
3 1 5 4.3 1.8
-3 -1 5 5.6 2.2
3 1 5 2.2 2
-3 -1 5 5.6 2.2
-3 -1 -5 3.2 2.8
3 1 -5 3 2.3
-3 1 5 5.2 2.1
3 -1 5 3.1 1.6
-3 1 5 2.6 1.8
3 -1 5 6.1 2.3
-4 -1 5 30.7 6.1
4 -1 -5 36.5 6.8
-4 -1 5 45.2 6.4
-4 1 -5 40 7.5
4 1 5 41.9 6.2
4 1 -5 28.7 6.1
-4 1 5 34.2 5.7
-4 1 5 33.9 5.1
-4 -1 -5 36.6 7.9
4 -1 5 37.5 5.9
4 -1 5 31.1 5
-5 -1 5 5.4 3.2
-5 1 -5 10.8 5.4
5 -1 -5 1.3 3.2
5 1 5 4.8 3.1
-5 -1 -5 6.6 5.3
5 -1 5 6.2 3.2
-5 1 5 2.3 3
5 1 -5 4.1 3.4
6 1 5 70.99 10.7
6 -1 5 59.99 8.9
-6 -1 -5 71.09 13.4
0 1 -6 0.1 1.4
0 1 6 1 1.3
0 -1 6 0.1 1.1
0 1 -6 -0.2 0.9
0 -1 -6 -0.4 1.4
0 -1 -6 0.3 1.1
1 1 6 2912.71 168.38
1 -1 -6 3018.1 169.58
-1 1 -6 2928.71 168.38
1 1 6 3047.5 168.38
-1 1 -6 3038.7 169.08
-1 -1 6 3029 168.48
1 -1 -6 2848.42 167.28
-1 1 6 3053.99 168.58
1 -1 6 2958.5 168.38
-1 -1 -6 3076.59 169.58
1 1 -6 2895.21 169.18
1 1 -6 2977.9 167.48
-2 -1 6 4.9 2
-2 1 -6 11.2 3.1
2 -1 -6 3.7 2.3
-2 -1 6 6 2.3
2 1 6 9 2.5
2 1 6 12.5 3.1
-2 1 6 2.3 2.1
2 1 -6 11.2 3.3
2 -1 6 8.1 2.6
-2 -1 -6 12.4 3.6
2 -1 6 8.4 2.4
-2 1 6 10.2 2.8
-3 -1 6 1921.81 106.79
3 -1 -6 1772.92 107.99
3 1 6 1871.31 106.99
-3 1 -6 1984 108.19
3 1 6 1840.82 106.09
-3 -1 6 1833.32 106.29
-3 1 6 1852.21 106.69
-3 1 6 1849.61 106.39
-3 -1 -6 1921.81 108.69
3 -1 6 1744.83 106.09
3 1 -6 1832.32 107.99
3 -1 6 1870.31 106.99
-4 1 -6 19 5.5
-4 -1 6 14.3 4.2
4 1 6 19.4 4.6
4 -1 -6 19.7 5.5
-4 -1 -6 21.4 6.1
-4 1 6 15.3 3.9
4 -1 6 18.6 4.6
4 1 -6 21.5 5.3
4 -1 6 20.2 4.1
-4 1 6 18.2 4.6
5 1 6 992.1 61.09
5 -1 -6 972.2 62.89
-5 -1 6 1027.7 61.39
-5 1 6 994.7 61.29
5 1 -6 1026.7 62.99
5 -1 6 1044.7 61.29
-5 -1 -6 1004.8 63.89
0 -1 -7 -0.6 1.7
0 1 -7 3.1 2
0 -1 7 1.4 1.8
0 1 -7 0.1 1.4
0 1 7 -0.3 1.4
0 -1 -7 -1 1.2
-1 -1 7 205.68 14.7
1 1 7 221.38 14.9
1 1 7 198.38 14.4
-1 1 -7 209.08 15.3
-1 1 -7 216.98 14.8
1 -1 -7 216.68 15.9
1 1 -7 213.48 15.7
-1 -1 -7 211.88 15.7
1 -1 7 205.58 14.7
-1 1 7 205.18 14.8
-2 -1 7 3.7 2.3
2 1 7 0.1 1.6
2 1 7 3.7 2.3
-2 1 -7 2.8 2.6
2 -1 -7 5.3 3.1
2 -1 7 7.3 2.5
2 -1 7 5 2.4
-2 -1 -7 5.7 3.2
-2 1 7 4.2 2.5
2 1 -7 1.8 2.6
3 1 7 109.09 8.9
3 -1 -7 94.39 10.2
-3 1 -7 105.99 10.2
-3 -1 7 89.89 8.7
3 1 7 106.69 9.4
-3 -1 7 95.79 8.9
3 -1 7 99.59 8.8
3 -1 7 101.39 9.3
-3 -1 -7 98.19 12
3 1 -7 90.99 9.9
-3 1 7 98.69 8.9
4 1 7 23.7 5.5
4 -1 -7 26.4 6.5
-4 -1 7 32.8 5.8
-4 1 -7 27.7 6.3
4 -1 7 23 4.9
-4 1 7 25.1 5.4
4 -1 7 41 6.6
4 1 -7 25.4 6.2
-4 -1 -7 29.5 7.4
-4 1 7 31 5.3
-5 -1 7 30.5 6.5
-5 1 7 25.1 6.1
-5 -1 -7 38.3 9
0 1 8 6.3 2.6
0 -1 -8 18.7 3.4
0 -1 -8 13.2 3.8
0 1 -8 4.3 2.7
0 -1 8 2.8 2.5
0 1 -8 2.3 2
-1 1 -8 113.49 10.8
-1 -1 8 128.29 10.4
1 -1 -8 133.09 11.6
1 1 8 130.09 10.4
-1 1 -8 126.69 10.2
-1 -1 -8 128.49 10.2
-1 -1 -8 117.79 11.2
1 -1 8 120.09 10.2
-1 1 8 116.69 10.2
1 1 -8 111.49 10.9
2 -1 -8 16 4.5
-2 1 -8 14.6 4.3
-2 -1 8 2.9 2.5
-2 1 -8 4 2.8
2 1 8 4.5 2.5
2 1 8 12.4 3.4
2 -1 8 5.9 2.9
-2 1 8 4.8 2.6
-2 -1 -8 21.7 5.2
2 1 -8 4.5 3.5
-3 1 -8 111.49 11.6
3 1 8 122.89 10.4
3 -1 -8 135.09 12.6
-3 -1 8 115.49 10.5
3 1 8 120.49 11
-3 1 -8 110.59 11
-3 1 8 94.19 10
-3 -1 -8 138.69 12.7
3 -1 8 122.59 10.4
3 1 -8 120.09 12
4 1 8 24.4 5.7
-4 1 -8 28.8 6
4 -1 -8 15 5.9
-4 1 8 20.1 5
4 -1 8 22.9 4.9
4 1 -8 20.8 6.5
-4 -1 -8 29 7.2
0 1 -9 3 3
0 1 9 -1.3 2
0 -1 -9 -1.6 2.4
0 -1 9 -1 2.1
1 1 9 48.3 6.8
1 -1 -9 53.29 8.4
-1 1 -9 52.29 8.3
-1 1 -9 50.79 6.8
-1 -1 9 40.8 6.5
-1 1 9 53.29 7.2
1 1 -9 39 7.2
1 -1 9 46.6 6.7
-1 -1 -9 44.1 6.4
-1 -1 -9 49.8 8.2
-2 1 -9 5.8 3.1
2 1 9 5.6 3
-2 -1 9 4.5 3.1
-2 1 -9 1 3.1
2 -1 -9 1.8 3.2
-2 -1 -9 4.9 3.3
-2 -1 -9 2.7 3.7
2 1 -9 0.5 3
-2 1 9 8.3 3.5
2 -1 9 2.8 2.8
-3 -1 9 18.3 4.9
-3 1 -9 21.3 5.1
3 1 9 13.9 4.2
3 -1 -9 33.5 7.6
3 1 -9 16.8 5.7
-3 1 9 23.8 5.5
3 -1 9 20.3 4.8
-3 -1 -9 20.1 6.3
0 1 -10 -0.1 3.3
0 -1 -10 -2.7 3.1
0 -1 10 1.4 2.8
0 1 10 -1.9 2.3
-1 1 -10 762.42 48.6
1 -1 -10 801.92 50.99
-1 -1 10 825.22 49.4
1 1 10 793.42 49.2
-1 1 -10 763.42 49.99
-1 1 10 802.62 49.3
1 1 -10 814.42 50.79
1 -1 10 817.72 49.4
-1 -1 -10 807.72 50.89
-2 -1 10 6.8 4.1
-2 1 -10 10 4.1
2 1 -10 5.8 4.6
-2 -1 -10 11.6 5.5
-2 -1 -10 12.9 4.5
0 -2 0 3055.79 177.68
0 -2 0 3246.98 177.58
0 2 0 3122.19 177.68
0 -2 0 3332.07 177.68
1 2 0 -0.4 0.3
1 -2 0 -0.5 0.4
-1 -2 0 0.1 0.4
1 -2 0 -1.1 0.5
-1 -2 0 0 0.2
1 2 0 0.3 0.5
1 -2 0 0.3 0.4
-2 -2 0 1028.6 59.29
2 -2 0 1015.4 58.69
2 2 0 1049.89 58.99
-2 2 0 911.71 59.39
2 -2 0 1095.79 59.79
-2 -2 0 1119.89 58.59
2 2 0 1103.79 59.99
2 -2 0 1006.5 59.19
3 -2 0 0.4 1.2
3 2 0 -0.4 0.8
3 -2 0 0.6 0.7
-3 -2 0 0.9 0.7
3 -2 0 -1.1 0.8
-3 2 0 1.1 1.1
-3 -2 0 0.2 1
3 2 0 0.9 1.2
4 -2 0 1794.82 105.99
-4 -2 0 1835.42 107.19
4 -2 0 1835.02 106.99
4 2 0 1895.91 106.49
4 2 0 1873.91 108.39
-4 2 0 2001.9 106.99
4 -2 0 1901.21 108.29
-5 -2 0 -0.5 2
5 2 0 1.6 2.5
-5 2 0 -0.3 2
5 -2 0 1.1 2.6
6 -2 0 483.25 33.3
6 2 0 465.55 33.2
-6 2 0 501.55 32
-6 -2 0 469.45 31.4
0 -2 -1 42.9 2.7
0 2 -1 43.8 2.9
0 2 -1 40.6 2.8
0 2 1 40.6 2.9
0 -2 -1 48.4 3.2
0 -2 1 46.6 2.9
0 2 1 43.8 2.8
0 -2 1 48.8 2.9
-1 -2 1 41.7 2.8
1 -2 -1 40.8 3.3
-1 -2 1 42.4 3.2
1 2 1 49.99 3.9
1 2 1 40.1 3.1
1 -2 -1 44.2 3.2
1 2 1 40.7 2.8
-1 -2 -1 43.1 3
1 2 -1 41.9 3
1 -2 1 42.7 3.1
1 -2 1 45 3.2
1 -2 1 44 2.9
1 2 -1 43.9 3.4
1 -2 1 32.9 3.1
-1 2 1 44.4 3.2
2 -2 -1 12.4 2.3
2 2 1 14.9 1.7
2 -2 -1 11.2 1.2
2 -2 -1 11.5 1.9
-2 -2 1 10.8 1.9
-2 -2 1 10.9 1.4
2 2 1 11.8 2.4
2 2 1 7.4 1.6
-2 -2 -1 11.5 1.8
2 -2 1 11.1 2.2
2 -2 1 11.1 1.8
2 2 -1 13.9 2.4
-2 2 1 14.9 2.1
2 -2 1 10.6 1.8
2 -2 1 14.8 2.2
2 2 -1 12.4 1.6
3 2 1 65.29 6.6
3 2 1 60.89 5.7
3 -2 -1 70.59 5
3 -2 -1 85.99 6.3
3 2 1 74.89 5.9
3 -2 -1 81.49 6.8
-3 -2 1 74.29 5.1
-3 -2 1 75.49 6.2
3 -2 1 65.29 5.7
3 2 -1 83.09 6.8
3 -2 1 71.09 5.6
-3 2 1 91.19 6.1
3 2 -1 76.09 5.4
-3 -2 -1 74.79 5.9
3 -2 1 81.49 6.8
3 -2 1 60.49 7.2
-4 -2 1 0.7 1.6
-4 2 -1 3.1 2
4 -2 -1 3.2 2
4 -2 -1 4.5 2.3
4 2 1 1.3 1.9
4 2 1 3.9 1.8
4 2 -1 4.1 1.5
-4 2 1 4.5 1.8
4 -2 1 4.8 2
4 2 -1 3 2.4
4 -2 1 0 1.5
4 -2 1 2.7 1.5
-4 -2 -1 3.1 1.8
5 2 1 263.77 18.3
-5 -2 1 254.97 19.1
5 -2 -1 300.87 20.7
-5 2 -1 291.57 19.5
5 2 1 300.97 21.1
5 2 -1 291.77 20.6
-5 2 1 245.88 19.2
5 -2 1 273.57 20.5
-5 -2 -1 275.87 19
-6 -2 1 1.3 2.8
6 -2 -1 5.9 4.1
-6 2 -1 4.5 3.2
6 2 1 6 4.4
-6 2 1 1.9 2.8
-6 -2 -1 -0.6 2.7
6 2 -1 7.3 4.3
6 -2 1 2.4 3.9
0 -2 -2 533.65 30.3
0 -2 2 566.44 30.5
0 2 2 508.45 30.8
0 -2 2 521.45 30.8
0 -2 -2 556.54 31.3
0 2 -2 523.85 30.8
0 2 -2 541.75 30.9
0 2 2 555.74 30.7
1 -2 -2 3.1 1
-1 -2 2 3.1 0.9
1 2 2 1.4 0.8
-1 -2 2 2.4 0.9
1 2 2 2.9 0.8
1 -2 -2 3.4 1
-1 2 -2 2.9 1
1 -2 2 1.6 0.8
1 -2 2 2.6 0.6
1 2 -2 2.4 0.8
1 -2 2 2.4 0.8
-1 2 2 3.1 1
1 2 -2 3.4 1.2
-1 -2 -2 3.2 0.6
-1 -2 -2 2.2 1.1
2 -2 -2 654.33 38.3
2 -2 -2 647.94 37.7
2 2 2 634.04 37.1
-2 -2 2 647.64 37.9
2 2 2 670.93 37.8
-2 -2 2 661.23 37.2
-2 -2 -2 753.42 40.7
2 -2 2 612.84 37.1
2 2 -2 655.53 36.9
-2 -2 -2 637.94 37.2
2 -2 2 613.84 37.5
2 -2 2 660.93 37.5
2 2 -2 655.03 38.3
-2 2 2 617.54 37.5
-3 -2 2 -1.6 1.1
-3 -2 2 2.2 1.1
3 -2 -2 0.9 1.4
3 2 2 2.4 1.4
3 -2 -2 -0.5 1.2
-3 -2 -2 -2.4 1.3
3 -2 2 2.4 1.3
3 -2 2 1.1 1.2
3 2 -2 1.8 0.9
-3 2 2 3.2 1.2
3 2 -2 3.9 1.8
3 -2 2 2.8 1.7
3 -2 2 0.6 1.1
-4 -2 2 199.88 14.5
4 -2 -2 231.18 15.7
4 2 2 243.28 14.5
4 -2 -2 205.38 14.3
4 2 2 230.48 16.5
-4 2 2 193.38 13.5
4 -2 2 176.78 15.2
4 2 -2 213.68 15.4
4 -2 2 155.38 14.3
-4 -2 -2 205.58 13.9
4 -2 2 212.18 13.9
4 -2 2 202.98 13.7
-5 2 -2 5.6 2.8
-5 -2 2 -1.3 2.3
5 -2 -2 12.6 4.2
5 2 2 3 2.2
5 2 2 16 4.8
-5 2 2 3.7 2.5
-5 -2 -2 2.9 2.5
5 -2 2 7.6 2.4
5 2 -2 3.8 2.9
-6 -2 2 237.38 18.5
6 2 2 277.07 21.7
6 -2 -2 230.08 19.6
-6 2 2 239.48 18.8
6 2 -2 239.28 19.6
0 -2 3 87.19 6.1
0 -2 -3 87.59 5.4
0 -2 -3 90.39 6.7
0 2 -3 90.89 6.1
0 -2 3 87.19 5.6
0 2 3 88.49 5.9
0 2 -3 87.89 6.3
0 2 3 91.69 6.2
-1 -2 3 246.68 14.1
1 2 3 212.48 14.1
1 -2 -3 226.08 14.7
1 -2 -3 224.08 13.8
1 -2 -3 235.68 13.3
1 2 3 235.88 14
-1 -2 3 236.48 14.1
-1 2 -3 230.38 14.3
1 -2 3 219.68 13.2
-1 -2 -3 219.88 14.9
-1 2 3 222.98 14.2
1 2 -3 220.78 14.5
1 -2 3 249.68 14.4
1 2 -3 232.98 13.7
1 -2 3 233.78 14.2
-2 -2 3 179.68 11.7
2 2 3 174.08 11.1
-2 -2 3 185.88 11.3
2 2 3 170.48 11.7
2 -2 -3 187.78 11.6
-2 2 -3 191.08 12.8
2 -2 -3 180.08 12.3
2 -2 3 161.48 10.7
2 2 -3 184.28 12.2
2 -2 3 169.38 11.6
-2 2 3 180.38 11.5
2 2 -3 172.38 10.8
2 -2 3 170.18 11.3
-2 -2 -3 171.98 10.6
3 2 3 359.96 23.2
-3 -2 3 384.66 22.5
3 -2 -3 370.26 23.2
3 -2 -3 405.16 24.4
3 2 3 374.56 22.5
-3 -2 3 363.86 23.4
-3 2 3 368.86 22.8
3 -2 3 346.47 22.7
3 2 -3 388.16 24.2
-3 -2 -3 384.66 22.5
3 -2 3 359.56 22.3
3 -2 3 389.26 23.2
-4 2 -3 21.9 6.1
4 -2 -3 29.1 5.4
4 2 3 33.3 4.9
-4 -2 3 26.8 4.6
-4 2 3 17.2 3.4
-4 -2 -3 19.7 6.1
4 -2 3 32.4 4.5
-4 -2 -3 31.4 4.3
4 -2 3 22.3 3.4
-4 2 3 28.1 4.6
4 2 -3 20.7 4.5
4 -2 3 25.5 4.1
5 2 3 85.49 9.1
5 -2 -3 86.49 9.5
-5 -2 3 79.09 9.5
-5 2 -3 77.89 12.5
5 -2 3 92.39 8
-5 -2 -3 89.69 14.5
-5 2 3 69.09 9
5 2 -3 79.09 10.4
-6 -2 3 24.3 5.9
-6 2 -3 5.4 6.8
6 -2 -3 21.5 6.1
6 2 -3 21.5 6.3
-6 -2 -3 23.9 9
-6 2 3 27.1 6.3
0 2 -4 2018 114.39
0 2 4 1988.6 113.69
0 -2 4 2008.9 113.09
0 -2 4 1978.9 113.99
0 -2 -4 2132.59 114.99
0 2 -4 1997.5 113.89
0 2 4 2041.3 114.19
0 2 4 2007.8 112.99
1 2 4 2.5 1.2
-1 -2 4 6.4 1.7
1 2 4 4 1.4
1 -2 -4 6.3 1.4
1 -2 -4 5.3 1.9
1 -2 -4 4.4 1
-1 2 -4 5.8 1.7
-1 -2 4 3.6 1.2
1 -2 4 6.8 1.7
-1 -2 -4 5.4 1.9
1 2 -4 1.1 1.2
-1 2 4 2 1.1
1 2 -4 3 1.1
1 -2 4 2.9 1.2
1 -2 4 5.1 0.7
-2 -2 4 1199.68 67.59
2 -2 -4 1179.08 68.49
-2 2 -4 1213.18 68.09
2 -2 -4 1194.78 67.29
-2 -2 4 1197.48 67.29
2 2 4 1208.38 67.79
2 2 4 1168.68 67.09
2 -2 4 1237.98 67.79
2 -2 4 1144.29 66.79
-2 2 4 1147.69 67.39
2 -2 4 1129.59 67.19
-2 -2 -4 1106.89 68.99
2 2 -4 1161.48 68.29
3 2 4 9.7 2.6
3 -2 -4 11 3.1
-3 -2 4 9.3 2.5
3 2 4 10.8 2.2
-3 -2 4 9.8 2.3
-3 2 -4 11.4 3.1
3 -2 4 9.2 2.4
3 2 -4 9.6 3
-3 2 4 7.1 2.4
-3 -2 -4 12.2 4
3 -2 4 10.7 2.3
-3 2 4 9.5 2.5
-4 2 -4 1218.68 70.99
4 -2 -4 1142.29 68.69
-4 -2 4 1158.08 67.69
4 2 4 1190.68 67.59
4 2 -4 1151.08 68.69
4 -2 4 1116.49 67.19
-4 2 4 1105.49 66.49
-4 2 4 1224.28 68.09
4 -2 4 1147.49 66.79
-4 -2 -4 1048.5 71.29
5 2 4 2.7 2.5
5 -2 -4 7.3 3.9
-5 -2 4 5.4 3.1
-5 2 -4 15.3 6.4
-5 -2 -4 0.7 5.1
-5 2 4 7.5 3.4
5 2 -4 8.4 4
5 -2 4 7.4 2.8
6 -2 -4 438.56 30.2
-6 -2 4 427.06 28.5
6 2 4 428.76 27.8
-6 2 4 407.26 28.5
-6 -2 -4 311.97 32.2
6 2 -4 416.86 29.9
0 -2 5 368.86 22.6
0 -2 -5 373.66 23.5
0 2 -5 373.76 23
0 -2 5 374.46 21.3
0 2 5 355.66 22.1
0 2 5 350.36 22.5
0 2 -5 371.56 22.4
1 -2 -5 42 3.7
1 2 5 45.8 5.2
-1 2 -5 49.2 4.8
-1 -2 5 50.89 4.7
1 2 5 49.6 5.3
-1 2 -5 47.5 5.4
-1 -2 5 47.3 4
1 -2 -5 46.3 5.1
1 -2 5 42.5 5
-1 -2 -5 43 5.7
-1 2 5 43.6 5
1 2 -5 45.7 3.9
-1 2 5 47.8 4.1
1 2 -5 43.1 4.8
2 -2 -5 111.09 9.5
2 2 5 103.79 8.3
-2 -2 5 103.79 8.4
2 2 5 118.89 8.9
-2 -2 5 118.39 8.6
-2 2 -5 116.69 9.2
-2 2 5 104.49 8.4
2 -2 5 116.99 8.5
2 -2 5 119.89 8.9
-2 2 5 112.69 8.6
-2 -2 -5 118.19 10
2 2 -5 110.09 9.3
-3 -2 5 40.4 5
3 -2 -5 31.9 5.8
3 2 5 42.9 5.7
3 2 5 31.5 4.4
-3 -2 5 39.8 5.3
-3 2 -5 40.8 6.3
3 -2 5 34.1 4.6
3 2 -5 31.8 5.6
-3 2 5 37.7 5
-3 2 5 34.9 5.1
3 -2 5 36.8 5.2
-3 -2 -5 35.6 6.4
4 2 5 78.99 9.1
4 -2 -5 63.69 9.1
-4 2 -5 87.99 9.5
-4 -2 5 78.79 8.6
4 2 -5 81.69 10.2
-4 -2 -5 59.89 10.2
-4 2 5 83.59 9
4 -2 5 83.99 9
-4 2 5 74.69 8
4 -2 5 70.09 7
-5 -2 5 199.08 15.2
5 2 5 172.18 14.6
5 -2 -5 184.08 16.2
5 2 -5 179.48 15.9
5 -2 5 182.68 14.6
-5 2 5 208.78 15.5
6 -2 5 12.3 4.5
-6 -2 -5 17.6 8.6
0 2 6 202.18 14.1
0 -2 -6 222.18 15.3
0 -2 6 214.98 14.2
0 2 -6 189.28 13.6
0 2 6 213.38 13.6
0 2 -6 205.88 14.5
-1 2 -6 12.9 2.8
-1 2 -6 15.8 3.4
1 2 6 22.2 3.4
1 2 6 24.5 3.6
1 -2 -6 17.2 3.8
-1 -2 6 12.7 3
1 2 -6 16.6 2.7
1 -2 6 16.6 3.2
-1 2 6 9.7 2.7
1 2 -6 14.3 3.5
-2 -2 6 515.35 31.1
2 2 6 499.55 31.2
-2 -2 6 517.75 31.4
2 2 6 531.15 31.8
2 -2 -6 516.15 32.8
-2 2 -6 495.95 31.8
2 -2 6 514.45 31.4
-2 -2 -6 565.74 33.4
-2 2 6 495.25 31.4
2 -2 6 506.85 31.7
2 2 -6 515.15 32.5
-2 2 6 497.75 31.1
3 -2 -6 5.1 2.8
-3 -2 6 1.9 2.2
-3 2 -6 8.7 3.1
-3 -2 6 0.2 1.9
3 2 6 11.2 3.2
3 2 6 10.9 2.5
3 2 -6 0.5 2.1
3 -2 6 2.8 2
-3 2 6 4 2.1
-3 -2 -6 19.1 4.6
-3 2 6 -1.6 1.7
4 2 6 121.69 11.2
-4 -2 6 123.79 11
4 -2 -6 119.69 12.2
-4 2 -6 146.39 12.7
4 2 -6 137.49 12.5
4 -2 6 132.39 10.7
-4 -2 -6 140.29 13.5
-4 2 6 124.99 11.2
-4 2 6 130.89 10.8
4 -2 6 129.99 11.2
5 -2 -6 6.9 4.7
-5 -2 6 6 3.6
5 2 6 10.7 3.9
5 2 -6 2 3.9
5 -2 6 10.3 3.8
-5 2 6 3 3.3
-5 -2 -6 13.1 5.7
0 -2 -7 285.97 19.7
0 2 -7 281.67 18
0 2 7 301.67 18.7
0 -2 -7 262.57 17.7
0 2 -7 263.07 18.8
0 -2 7 266.67 18.4
1 -2 -7 2.9 2.3
1 2 7 0.3 1.5
-1 -2 7 0.8 1.7
1 2 7 1.4 1.8
-1 2 -7 1 1.6
-1 2 -7 0.6 1.7
-1 -2 -7 3.2 2.4
-1 2 7 1.5 1.9
1 -2 7 1.6 1.7
1 2 -7 2.3 2.2
2 2 7 212.38 14.8
-2 2 -7 197.58 15
-2 2 -7 215.88 15.5
2 2 7 208.08 14.9
2 -2 -7 206.38 16.2
-2 -2 7 215.88 14.9
-2 -2 -7 213.18 16.3
2 2 -7 199.38 15.8
-2 2 7 215.38 15.1
2 -2 7 192.48 14.6
-3 2 -7 68.49 8.4
-3 2 -7 64.59 8.7
-3 -2 7 67.19 7.7
3 2 7 60.49 7.2
-3 -2 7 59.49 7.4
3 -2 -7 68.49 9.8
3 2 7 76.49 8.8
-3 -2 -7 62.69 9.8
3 2 -7 62.09 9
-3 2 7 64.19 7.9
3 -2 7 59.89 7.3
-4 -2 7 82.69 9.8
4 -2 -7 101.49 12.8
4 2 7 90.79 10.5
4 2 -7 93.29 10.5
4 -2 7 74.29 9.1
-4 2 7 87.69 9.7
-4 -2 -7 97.89 13.2
-4 2 7 111.39 9.9
4 -2 7 94.89 10.7
-5 -2 7 79.89 10.4
-5 2 7 80.29 9.9
-5 -2 -7 70.09 12
0 2 -8 716.93 43.3
0 2 -8 699.03 44.5
0 -2 8 718.63 43.9
0 -2 -8 742.13 45.5
0 2 8 748.83 44.1
1 2 8 2.5 2.3
-1 -2 8 5.2 2.5
-1 2 -8 5.7 2.7
-1 2 -8 2.8 2.3
1 -2 -8 7.6 3.4
1 2 8 -2.6 1.4
-1 2 8 0.5 2.2
-1 -2 -8 4.3 3.2
1 2 -8 6.1 3
1 -2 8 4.6 2.3
2 2 8 577.34 35.9
2 -2 -8 556.14 37.4
2 2 8 578.54 35.8
-2 -2 8 583.44 35.8
-2 2 -8 542.75 36.3
-2 2 -8 559.74 36
2 2 -8 573.74 37.2
2 -2 8 558.34 35.8
-2 -2 -8 640.84 38.3
-2 2 8 582.64 36
-3 2 -8 13.1 4.4
-3 -2 8 16.5 4.2
3 2 8 10 3.9
3 2 8 10.7 3.5
3 -2 -8 11.5 4.5
3 -2 8 10.8 3.3
-3 -2 -8 18.8 5.7
3 2 -8 11.9 4.5
-3 2 8 15.2 4.4
-4 2 -8 534.45 33.6
4 2 8 493.65 32.8
4 -2 -8 485.25 34.5
4 -2 8 463.55 31.7
-4 2 8 464.85 31.8
-4 -2 -8 533.65 35.6
4 2 -8 502.05 34.4
0 2 9 151.68 12
0 -2 -9 138.19 13
0 2 -9 137.49 12.4
0 -2 9 141.29 11.8
1 2 9 1.8 2.4
1 -2 -9 -0.6 3
-1 2 -9 -0.4 2.4
-1 2 -9 3.9 3.3
-1 -2 9 4.6 2.9
1 -2 9 3.7 2.7
-1 -2 -9 1.6 2.2
-1 -2 -9 3.2 3.4
-1 2 9 0.3 2.3
1 2 -9 6.6 3.4
-2 -2 9 207.48 15.8
-2 2 -9 225.28 16.4
2 -2 -9 210.68 17.6
2 2 9 209.88 15.9
2 2 9 224.08 16.1
2 2 -9 215.78 17.5
-2 -2 -9 198.28 17.6
-2 2 9 186.78 15.8
2 -2 9 210.28 15.9
3 2 9 70.29 9.3
-3 -2 9 62.39 8.6
3 2 9 68.59 8.5
-3 2 -9 59.09 8.7
3 -2 -9 67.69 10.4
-3 -2 -9 55.29 9.8
3 2 -9 57.99 9.6
-3 2 9 52.29 7.9
3 -2 9 56.69 7.9
0 2 -10 132.39 12.9
0 -2 10 150.38 12.2
0 2 10 119.19 11.5
0 -2 -10 127.89 13.1
-1 2 -10 1.8 3.2
-1 -2 10 11 4.4
-1 2 -10 4.8 5.3
1 -2 -10 4.5 4.3
1 2 10 5.5 3.2
-1 -2 -10 11.1 5
1 2 -10 6 3.9
1 -2 10 1.7 3
-1 2 10 2.3 2.8
-2 -2 10 208.58 17.5
-2 2 -10 212.58 17.9
2 2 -10 224.68 18.7
-2 -2 -10 211.38 18.9
0 -3 0 0.6 0.4
0 -3 0 -0.3 0.4
0 3 0 0 0.4
0 -3 0 0.3 0.4
-1 -3 0 4548.75 248.18
1 -3 0 4324.97 248.08
1 -3 0 4168.68 248.58
-1 3 0 4588.54 247.88
1 -3 0 4495.65 248.08
1 3 0 4683.43 248.58
1 3 0 4346.87 248.08
2 -3 0 -0.6 0.5
-2 -3 0 -0.1 0.6
2 -3 0 0 0.6
-2 3 0 -0.7 0.8
2 3 0 0.6 0.8
2 -3 0 -0.1 0.7
-2 -3 0 0.1 0.4
2 3 0 0.2 0.5
3 -3 0 1779.02 100.49
3 3 0 1845.42 101.49
3 -3 0 1779.22 99.59
3 3 0 1738.33 100.09
-3 -3 0 1720.43 99.19
-3 3 0 1615.04 100.59
-3 -3 0 1788.92 100.59
3 -3 0 1905.01 101.39
4 -3 0 1.8 1.6
4 3 0 1.8 1.4
-4 3 0 1.1 1.4
-4 -3 0 -2.3 1.2
4 -3 0 4.1 2.2
4 3 0 2.5 2.1
5 -3 0 903.51 53.09
5 -3 0 873.11 54.69
-5 -3 0 874.21 53.19
-5 3 0 921.71 56.99
5 3 0 886.21 54.79
-6 -3 0 -0.5 2.5
-6 3 0 -2.4 2.4
6 -3 0 3.7 3.7
6 3 0 3.6 3.7
0 -3 1 0.4 0.4
0 -3 -1 0.3 0.4
0 3 -1 0.4 0.3
0 3 -1 -0.1 0.3
0 -3 1 -0.2 0.4
0 3 1 0.1 0.3
0 -3 -1 0.5 0.5
0 3 1 0.6 0.5
1 -3 -1 336.47 19.4
1 3 1 320.67 19
1 3 1 317.17 19.4
-1 -3 1 337.77 19.6
-1 3 -1 331.37 19.4
1 -3 -1 336.97 19.6
-1 -3 1 331.27 19
1 3 -1 324.77 19.6
-1 3 1 352.26 19.7
1 -3 1 320.87 19.2
-1 -3 -1 320.77 19.2
1 3 -1 335.37 19.4
1 -3 1 349.37 19.5
-1 -3 -1 376.86 21.1
2 3 1 255.67 13.8
2 -3 -1 237.98 14.9
2 3 1 200.88 14.2
2 -3 -1 220.28 14.5
2 3 1 248.18 15.4
-2 -3 1 232.88 14.6
-2 -3 1 223.88 13.6
2 3 -1 236.98 14
2 -3 1 218.38 14.2
2 -3 1 260.27 14.9
2 -3 1 249.38 14.9
-2 -3 -1 220.38 14.3
-2 3 1 262.37 14.8
2 -3 1 222.98 14.2
2 3 -1 224.98 14.9
-2 3 1 247.78 13.6
-3 -3 1 147.79 9.8
3 -3 -1 165.18 9.9
3 -3 -1 176.18 11.9
3 3 1 164.08 10.9
3 3 1 183.08 12.3
-3 -3 1 175.88 11.3
3 3 1 153.78 10.5
3 -3 -1 161.68 11.1
3 -3 1 156.38 10.5
3 -3 1 140.79 11.6
-3 -3 -1 154.58 10.8
3 -3 1 164.18 10.9
-3 3 1 169.48 11.1
3 3 -1 160.48 10.4
3 3 -1 157.98 11.7
3 -3 1 167.68 11.7
4 -3 -1 216.78 15
-4 -3 1 203.48 14.9
4 -3 -1 243.88 16.3
4 3 1 214.88 14.6
4 3 1 230.38 16.4
4 -3 1 211.98 14.6
4 3 -1 213.08 14.1
4 -3 1 206.98 14
4 -3 1 215.48 15.9
-4 -3 -1 230.28 14.9
4 3 -1 229.88 16.1
-4 3 1 217.08 14.7
5 3 1 49.7 6.2
5 -3 -1 49.9 6.5
5 3 1 52.19 8
-5 3 -1 44.8 7.9
-5 -3 1 43.2 6.5
5 -3 -1 52.99 7.9
5 3 -1 44.2 7.1
5 -3 1 45.3 7.5
-5 -3 -1 47.5 6.5
5 -3 1 50.39 6.3
-5 3 1 45.9 6.8
-5 3 1 43.2 8.3
6 3 1 231.28 19.5
-6 3 -1 232.58 17.5
6 -3 -1 237.88 18.9
-6 -3 1 226.48 17.2
6 3 -1 212.98 18.5
6 -3 1 165.48 17.5
-6 3 1 256.77 18.2
-6 -3 -1 248.38 17.3
0 3 2 -0.3 0.4
0 -3 2 -0.6 0.4
0 3 -2 -0.1 0.4
0 -3 -2 0.9 0.8
0 -3 -2 0.7 0.4
0 3 -2 0.1 0.5
0 -3 2 0.2 0.4
0 3 2 0.1 0.5
-1 3 -2 381.86 22.5
1 3 2 379.46 22.5
-1 -3 2 383.36 22.1
1 -3 -2 380.96 22.9
1 -3 -2 373.56 22.3
-1 -3 2 404.46 22.5
1 3 2 396.66 22.2
-1 3 -2 375.86 22.3
1 -3 2 387.16 22.4
1 3 -2 419.36 22.5
-1 -3 -2 387.06 21.8
1 3 -2 365.96 22.6
1 -3 2 364.16 21.9
-1 3 2 368.76 22.4
2 3 2 2.6 1.1
2 3 2 2.9 0.9
2 -3 -2 3.4 1.3
-2 -3 2 2.6 1.2
-2 3 -2 3.6 1.8
2 -3 -2 4.4 1.6
-2 -3 -2 3.2 2.2
-2 3 2 4 1.3
2 -3 2 2.9 1.2
2 3 -2 3.4 1
2 -3 2 1.9 1
2 -3 2 1.8 0.8
-2 -3 -2 2.4 1
2 3 -2 2.5 1.4
3 3 2 584.74 33.4
3 -3 -2 597.84 34.4
-3 -3 2 575.84 34.5
3 3 2 597.94 34.3
3 -3 -2 602.44 35.2
-3 -3 2 556.54 33.1
-3 3 2 573.64 34
3 -3 2 627.34 34.4
3 3 -2 572.34 35
3 -3 2 559.14 33.7
3 3 -2 550.64 33.2
3 -3 2 542.15 33.8
-3 -3 -2 555.74 33.7
4 3 2 0.8 1.4
4 -3 -2 -0.4 1.6
4 3 2 1.1 2.1
4 -3 -2 1.2 1.9
-4 -3 2 0.3 1.6
4 -3 2 0.6 1.5
4 -3 2 1.1 1.3
-4 3 2 1 1.6
4 -3 2 1.4 2.2
4 -3 2 2.2 2.3
4 3 -2 3.5 2
-4 -3 -2 -2 1.4
-5 -3 2 386.16 26.1
-5 3 -2 276.57 28.7
5 3 2 391.76 25.4
-5 3 -2 445.66 26.2
5 3 2 420.36 28.6
5 -3 -2 417.66 27.5
-5 -3 -2 409.86 25.6
5 3 -2 394.66 27.2
-5 3 2 384.16 26.4
6 -3 -2 8.8 4.4
6 3 2 14.5 5.5
-6 -3 2 3.2 3.1
6 3 -2 7.2 4.3
-6 3 2 3.4 3.2
0 3 3 -0.5 0.6
0 -3 3 0 0.6
0 3 3 0.7 0.6
0 -3 3 -0.1 0.4
0 -3 -3 0 0.3
0 -3 -3 0 0.7
0 3 -3 -0.4 0.6
0 3 -3 0.2 0.6
-1 -3 3 7.3 1.5
-1 3 -3 6 1.5
1 -3 -3 10.5 1.7
-1 -3 3 8.9 1.7
1 -3 -3 8.1 2
-1 3 -3 11.7 2.1
1 3 3 6 1.4
1 3 3 9 1.8
1 3 -3 8.6 1.9
1 -3 3 10.2 1.2
1 3 -3 9.8 1.6
-1 -3 -3 7.6 2.1
-1 3 3 9.7 1.8
1 -3 3 7.5 1.6
-1 3 3 9.1 1.1
-1 -3 -3 11.2 1
-2 3 -3 101.09 7.8
-2 -3 3 95.19 7.2
2 3 3 89.19 6.6
2 3 3 93.99 7.2
-2 -3 3 103.09 6.8
2 -3 -3 103.69 7.9
2 -3 -3 103.19 7.1
-2 -3 -3 99.79 6.2
2 -3 3 94.49 7.2
2 3 -3 85.89 6.5
-2 3 3 93.69 7
2 -3 3 96.09 7
2 3 -3 98.49 7.7
2 -3 3 96.69 6.4
3 -3 -3 -0.1 1.5
-3 -3 3 0.1 1.2
3 3 3 1.4 1.3
3 -3 -3 2.8 1.7
-3 -3 3 0.6 1
3 3 3 0.1 0.8
-3 3 -3 0.1 2
3 -3 3 -0.6 0.9
-3 -3 -3 -0.5 2.3
-3 -3 -3 1.5 1.1
3 -3 3 0.9 1.1
3 3 -3 1 0.8
3 3 -3 1 1.4
3 -3 3 1.8 1.2
-3 3 3 0.9 1.2
-4 3 -3 233.78 19.4
4 -3 -3 255.17 18.2
4 -3 -3 249.88 16.9
4 3 3 237.88 16.7
-4 -3 3 253.47 17.2
4 3 -3 242.58 17.8
-4 3 3 244.98 16.3
4 -3 3 236.08 15.9
4 -3 3 261.07 16.9
4 -3 3 240.28 16.4
-4 -3 -3 269.87 21.3
5 -3 -3 1.2 2.7
-5 -3 3 1.3 2.2
5 3 3 -0.8 1.7
-5 3 -3 0.2 3.8
5 3 -3 -0.3 2.4
-5 -3 -3 5.3 4.6
5 -3 3 0.8 2
-5 3 3 3.3 2.4
6 3 3 139.39 12.4
6 -3 -3 151.68 14.6
-6 -3 3 153.68 13.4
-6 3 3 140.79 13.3
6 3 -3 158.78 14.4
-6 -3 -3 130.09 19
0 -3 -4 0.3 0.5
0 -3 4 -1.2 0.6
0 3 -4 0.5 0.9
0 3 4 0.5 0.9
0 -3 -4 1.4 1.2
0 3 -4 -0.5 0.7
0 3 4 0.1 0.7
0 -3 4 -0.1 0.5
-1 3 -4 2351.36 141.09
-1 -3 4 2575.54 141.09
1 3 4 2495.05 141.19
1 3 4 2483.35 141.09
1 -3 -4 2541.65 142.19
-1 -3 4 2559.04 140.89
1 -3 -4 2526.05 140.69
-1 3 -4 2529.15 141.39
1 3 -4 2486.55 140.69
1 -3 4 2476.65 141.19
1 3 -4 2571.74 141.69
1 -3 4 2404.76 139.89
-1 3 4 2520.25 140.19
-1 3 4 2446.46 141.29
-1 -3 -4 2659.13 142.59
2 -3 -4 1.2 1.1
-2 -3 4 0.1 1.1
2 3 4 -0.1 0.8
-2 3 -4 0 1
-2 -3 4 0.4 1
2 -3 -4 0 1.3
2 3 4 0.6 1
-2 -3 -4 4.1 2.1
2 -3 4 0.7 1
2 3 -4 0.2 0.9
2 -3 4 0.3 0.7
2 -3 4 0.5 1.2
-2 3 4 3 1.5
2 3 -4 -0.2 1.1
-3 -3 4 1325.07 73.99
-3 -3 4 1316.27 74.99
3 -3 -4 1351.06 75.99
3 -3 -4 1300.67 74.59
3 3 4 1323.77 73.89
3 3 4 1321.67 74.99
-3 3 -4 1425.66 76.29
-3 3 4 1225.78 74.29
3 3 -4 1290.07 75.69
3 -3 4 1248.58 74.59
-3 -3 -4 1094.09 76.89
3 -3 4 1300.67 74.39
4 -3 -4 5 2.7
4 3 4 2.2 1.9
-4 3 -4 3 3.1
-4 -3 4 1.7 2.1
-4 3 4 1.4 1.6
4 3 -4 2.8 2.5
4 -3 4 0.6 1.7
4 -3 4 5.6 2.2
-4 -3 -4 7.6 4.4
-4 3 4 3.4 2.3
5 -3 -4 645.44 41.6
5 3 4 670.83 39.9
-5 -3 4 659.43 40.4
-5 3 4 626.64 40.4
5 3 -4 649.64 41.4
5 -3 4 634.44 39.4
-5 -3 -4 577.04 44.7
6 3 4 4.1 3.3
-6 -3 4 1.5 3.4
6 -3 -4 4.3 4.3
-6 3 4 -0.3 3.1
6 3 -4 4.1 4.8
-6 -3 -4 1.9 6.7
0 -3 -5 0.2 1.2
0 -3 5 0 1.1
0 3 5 0.4 1
0 3 -5 0.7 1
0 3 5 -0.1 0.9
0 -3 5 -0.1 0.7
0 3 -5 -0.3 0.9
1 -3 -5 498.35 31.3
-1 3 -5 501.55 30.3
1 -3 -5 479.25 29.1
-1 3 -5 491.45 30.3
-1 -3 5 531.85 30.3
-1 -3 5 506.85 29.6
1 3 5 497.85 30.1
1 -3 -5 537.15 29.5
1 3 5 505.25 30.2
1 3 -5 496.45 30.7
-1 -3 -5 512.15 31.5
1 -3 5 496.65 30.2
1 3 -5 498.35 29.6
-1 3 5 490.35 30.3
-2 -3 5 95.79 7.4
2 -3 -5 95.89 8.4
-2 3 -5 101.89 7.8
2 3 5 97.39 7.6
2 3 5 86.79 7
2 -3 -5 83.79 6.9
-2 -3 5 82.69 7
-2 3 -5 86.79 7.5
2 3 -5 90.59 8
-2 -3 -5 93.29 8.8
2 3 -5 99.79 7.1
-2 3 5 82.89 7.2
2 -3 5 80.19 7
-3 -3 5 285.27 18.5
3 -3 -5 274.67 19.5
-3 -3 5 274.37 17.7
3 3 5 275.77 17.6
3 3 5 311.17 18.9
-3 3 -5 274.87 18.9
-3 -3 -5 215.88 19.6
3 -3 5 284.37 18
3 3 -5 279.97 19.4
-3 3 5 259.77 18.3
3 -3 5 279.47 18.4
-3 3 5 290.07 18.3
-4 -3 5 121.59 10.1
4 3 5 121.49 10.1
4 -3 -5 117.79 11.1
-4 3 -5 124.79 11.3
4 -3 5 107.49 9.2
4 -3 5 120.59 9.9
-4 3 5 119.79 10.2
-4 -3 -5 71.99 11.7
-4 3 5 99.39 9.1
4 3 -5 122.29 11.1
5 3 5 149.09 13.1
-5 -3 5 177.28 13.9
5 -3 -5 179.78 15.3
5 3 -5 165.48 14.7
-5 -3 -5 127.29 17.2
-5 3 5 167.08 13.7
5 -3 5 155.88 12.9
-6 3 -5 164.38 14.7
0 -3 -6 -0.5 1.3
0 3 -6 0.4 1.4
0 3 6 1.2 1.5
0 3 -6 1 1.3
0 -3 6 0.3 1.3
0 3 6 -1.3 1.1
1 3 6 353.06 22.1
1 3 6 369.46 22.3
-1 -3 6 327.77 21.8
-1 -3 6 359.16 22.2
1 -3 -6 371.46 23.6
-1 3 -6 346.57 22.3
-1 3 -6 349.96 22.3
-1 3 6 352.46 22.3
1 3 -6 332.67 22.7
1 3 -6 339.87 21.4
1 -3 6 357.36 22.3
-1 -3 -6 358.46 23.6
-2 3 -6 4.4 2.2
2 3 6 3.7 1.9
2 -3 -6 6 2.6
2 3 6 2.1 1.9
-2 -3 6 1.4 1.9
-2 -3 6 1.6 1.6
-2 3 6 1.9 1.5
-2 -3 -6 4.5 2.9
-2 3 6 -0.6 1.4
2 3 -6 4.7 2.7
3 -3 -6 430.56 29.9
3 3 6 438.16 27.8
-3 -3 6 490.45 28.7
-3 3 -6 415.86 28.8
3 3 6 491.55 29
-3 3 -6 473.75 29
-3 -3 6 472.95 28.1
3 -3 6 425.56 28
-3 3 6 465.35 28.4
-3 3 6 479.45 28.7
-3 -3 -6 380.96 30
3 3 -6 458.75 29.7
4 -3 -6 -1.1 2.7
4 3 6 1.7 2.3
-4 -3 6 0.7 2.5
-4 3 6 2 2.6
-4 3 6 3.4 2.5
-4 -3 -6 5.3 3.7
4 3 -6 1.1 3.1
4 -3 6 1.1 2.2
4 -3 6 2.9 2.4
-5 -3 6 260.87 18.9
5 3 6 270.97 19
-5 3 -6 264.17 18.9
5 -3 -6 263.47 20.6
-5 -3 -6 187.18 20.1
-5 3 6 215.68 18.2
5 3 -6 252.77 20
0 -3 -7 1.6 2.3
0 3 7 0.1 1.3
0 3 -7 0.5 1.4
0 3 7 -0.1 1.5
0 -3 7 -1.8 1.2
0 3 -7 -1.6 1.6
-1 3 -7 41.4 6.2
1 3 7 51.19 6.1
1 3 7 55.59 6.6
-1 -3 7 51.09 6.3
1 -3 -7 52.79 7.8
-1 3 -7 32.9 5.4
-1 -3 -7 51.49 7.7
1 3 -7 52.09 7.1
1 3 -7 44.3 5.2
-1 3 7 42.5 6.1
1 -3 7 44.3 5.9
2 3 7 44.8 6.2
2 3 7 32.9 5.2
-2 3 -7 47.4 6.3
-2 3 -7 35.9 5.9
2 -3 -7 48.3 7.3
-2 -3 7 41.1 5.6
2 -3 7 45.8 6
-2 -3 -7 46.6 7.8
2 3 -7 46.6 7
-2 3 7 41.3 6
3 3 7 48 7.1
-3 -3 7 53.99 6.6
3 3 7 47.6 6.1
-3 -3 7 52.39 6.7
-3 3 -7 38.3 6.4
3 -3 -7 51.89 8.3
3 3 -7 30.2 6.3
-3 -3 -7 48.5 9
3 -3 7 46.8 6.4
-3 3 7 48.7 6.7
4 -3 -7 92.89 12.4
4 3 7 87.59 10.3
-4 -3 7 76.49 9.4
-4 3 -7 67.99 9.2
-4 -3 -7 83.79 12
-4 3 7 73.99 9.2
4 -3 7 79.49 8.9
-4 3 7 83.29 9.3
4 3 -7 75.29 10.5
-5 -3 7 13.7 4.6
-5 3 7 22.1 5.7
-5 -3 -7 24.6 7.9
0 3 -8 1.3 2.3
0 -3 8 -1.1 1.6
0 3 -8 -0.9 1.6
0 -3 -8 1 2.6
0 3 8 -0.5 1.8
-1 3 -8 826.32 49.9
1 -3 -8 886.71 51.99
1 3 8 808.42 49.9
-1 -3 8 816.12 49.99
1 3 8 861.61 49.7
-1 3 -8 815.42 50.39
1 -3 8 853.21 50.19
-1 3 8 811.02 50.09
-1 -3 -8 875.01 51.99
1 3 -8 777.32 50.59
2 3 8 -0.7 1.9
-2 3 -8 0.8 2.4
-2 -3 8 -1.1 1.9
2 3 8 0.7 2.3
2 -3 -8 4.9 3.2
-2 3 -8 -1.2 2.1
2 3 -8 -2 2.1
2 -3 8 0 1.8
-2 3 8 -1.1 2.1
-2 -3 -8 4.4 3.4
3 -3 -8 572.94 39
3 3 8 613.94 37.4
-3 3 -8 578.84 37.4
-3 -3 8 572.74 36.5
3 3 8 591.14 36.6
3 3 -8 585.34 38.4
-3 -3 -8 633.54 39.9
3 -3 8 543.55 36.4
-3 3 8 594.74 37
4 3 8 6.2 3.6
-4 3 -8 9.6 4.1
4 -3 -8 6.5 4.6
-4 3 8 5 3.5
4 -3 8 9.6 3.9
4 3 -8 6.1 4.4
-4 -3 -8 9 6.1
0 -3 9 0.4 2
0 -3 -9 2.1 3.3
0 3 9 -1.4 1.9
0 3 -9 -2.3 3.2
0 3 -9 0.4 2.6
-1 -3 9 308.37 21.7
1 3 9 325.87 21.9
1 -3 -9 307.87 23.4
-1 3 -9 318.27 21.7
-1 3 -9 297.77 22.1
-1 -3 -9 323.37 23.9
1 -3 9 320.07 21.9
1 3 -9 320.77 22.8
-1 -3 -9 331.17 21.6
-1 3 9 320.97 21.9
2 3 9 20.4 4.6
2 3 9 14.4 4.1
-2 -3 9 19.8 4.7
2 -3 -9 17 5.7
-2 3 -9 16 4.4
-2 3 9 22 4.9
2 -3 9 10.8 3.6
2 3 -9 16.2 5.2
-2 -3 -9 22.8 6.8
-3 -3 9 283.77 19.1
3 3 9 248.58 19.2
3 3 9 253.57 18.8
3 -3 -9 252.17 21.3
-3 3 -9 261.57 19.6
-3 3 9 248.48 19
-3 -3 -9 279.97 22.1
3 -3 9 249.58 18.7
3 3 -9 245.98 20.4
0 -3 -10 -2.2 3.3
0 3 -10 4.9 3.8
0 3 10 2.8 2.7
0 -3 10 2.2 2.9
-1 3 -10 198.78 15.4
1 3 10 204.58 15.8
1 -3 -10 219.08 18
-1 -3 10 194.78 15.7
1 -3 10 185.38 15.6
-1 3 10 181.78 15.5
-1 -3 -10 212.28 18.1
1 3 -10 199.28 16.8
-2 -3 10 -0.2 3.3
-2 -3 -10 11.2 5.5
-2 -3 -10 0.1 3.2
2 3 -10 0.8 4
0 -4 0 41.7 3.4
0 -4 0 45.4 3.2
0 4 0 46.3 3.5
0 -4 0 53.09 3.4
1 -4 0 0.1 0.6
1 4 0 1.3 0.8
1 -4 0 0.9 0.8
1 -4 0 0.3 0.5
-1 4 0 0.6 0.4
-1 -4 0 0.7 0.6
1 4 0 0.7 0.5
2 -4 0 461.55 25.7
-2 4 0 348.97 25.6
2 -4 0 461.25 25.4
2 4 0 454.95 26.1
-2 4 0 428.06 24.8
2 4 0 433.86 25.2
-2 -4 0 420.66 25.5
-3 -4 0 0.3 0.6
3 4 0 -0.1 1.3
3 4 0 1.7 1.1
3 -4 0 0.1 1.1
-3 4 0 0.8 1.2
-3 -4 0 -1 0.8
3 -4 0 3 1.7
4 4 0 98.99 8.1
-4 -4 0 96.99 8.5
4 -4 0 126.29 9
4 4 0 105.19 9.6
4 -4 0 114.09 9.5
-4 4 0 110.69 8.9
5 -4 0 4.2 2.6
-5 -4 0 5.1 2.5
-5 4 0 0.3 2
5 4 0 9.8 3.5
5 -4 0 7.5 3.5
6 4 0 151.98 14.6
-6 -4 0 150.58 13
-6 4 0 164.88 13.7
6 -4 0 144.09 14.3
0 -4 -1 98.59 5.9
0 -4 -1 92.19 6.3
0 4 1 94.89 5.9
0 4 1 100.99 6
0 -4 1 98.69 6.2
0 4 -1 88.09 5.6
0 -4 1 94.19 5.9
1 4 1 63.19 4.6
-1 4 -1 70.19 4.6
1 -4 -1 67.59 4.7
1 4 1 63.69 4.1
1 -4 -1 57.89 4.4
-1 -4 1 65.39 4.7
-1 -4 1 67.09 4.1
1 4 -1 66.99 4.8
1 -4 1 68.99 4.7
-1 -4 -1 82.49 6.2
1 4 -1 52.79 4.5
1 -4 1 60.39 4.3
-1 -4 -1 71.09 4.5
-1 4 1 66.29 4.2
-1 4 1 73.89 5
1 -4 1 67.09 4.4
2 4 1 86.59 5.2
2 -4 -1 81.19 6.4
-2 4 -1 82.89 5.9
-2 -4 1 89.79 6.3
2 4 1 83.49 6.8
2 4 1 84.69 6
2 -4 -1 73.09 5.9
-2 -4 1 80.69 5.1
2 4 -1 86.39 6.5
-2 -4 -1 79.99 5.9
2 -4 1 82.49 6.2
-2 4 1 94.59 6.5
2 -4 1 90.19 6.5
2 4 -1 79.39 5.7
2 -4 1 81.69 5.8
3 -4 -1 201.98 13.9
3 4 1 198.78 14.2
-3 -4 1 201.18 13.4
-3 -4 1 190.48 11.9
3 4 1 225.88 12.7
3 -4 -1 198.98 13.3
3 4 1 214.08 13.2
3 4 -1 187.98 12.5
-3 -4 -1 194.58 13.1
3 -4 1 194.18 14.2
3 4 -1 192.98 13.9
-3 4 1 233.88 13.7
3 -4 1 184.38 13.6
3 -4 1 199.98 13.1
3 -4 1 188.38 12.6
-3 4 1 208.08 12
-4 -4 1 13.7 3.3
4 4 1 14.6 4
-4 4 -1 13.9 3.5
4 -4 -1 19.3 3.6
4 -4 -1 18.7 4.2
4 4 1 16.2 3.1
4 4 -1 13.8 2.6
-4 4 1 21.3 3.6
-4 -4 -1 17.1 3.3
4 -4 1 17.1 2.8
4 -4 1 14.5 3.7
4 -4 1 16.2 3.3
4 4 -1 15 3.8
5 -4 -1 75.19 8.4
-5 -4 1 78.09 8.5
5 -4 -1 68.89 9.2
-5 4 -1 59.39 7.6
5 4 1 80.79 8.1
5 4 1 54.69 8.7
-5 4 1 82.59 7.3
5 -4 1 45.4 7.9
-5 -4 -1 63.69 7.8
5 -4 1 81.49 8.3
5 4 -1 64.79 9.2
-6 -4 1 10 3.9
6 -4 -1 14.5 5.4
6 4 1 8.3 5
-6 4 -1 12.7 4.1
-6 -4 -1 12.4 4.3
-6 4 1 10 4.3
6 4 -1 11.4 4.8
0 -4 -2 6141.49 335.67
0 -4 -2 5951.3 336.67
0 -4 2 6385.16 336.07
0 4 2 5803.92 336.07
0 4 -2 5862.71 336.07
0 4 -2 6006.4 335.87
0 4 2 5863.41 335.87
0 -4 2 6228.08 336.07
-1 4 -2 1.6 0.9
1 -4 -2 2.3 0.8
-1 -4 2 0.3 0.6
1 -4 -2 2.7 1.2
-1 4 -2 2.5 0.7
-1 -4 2 1.3 0.7
1 4 2 1.9 0.8
1 4 2 3.3 1
-1 -4 -2 1.7 1.2
-1 4 2 0.9 0.8
1 -4 2 3.3 0.8
1 -4 2 2.1 0.9
-1 -4 -2 2.8 0.7
1 4 -2 3.2 1.1
1 4 -2 3.2 1.1
2 -4 -2 8059.79 431.46
-2 -4 2 7669.03 431.56
-2 4 -2 8223.88 432.66
-2 4 -2 7492.45 431.26
2 4 2 7586.04 431.46
-2 -4 2 7830.92 430.56
2 4 2 7728.33 430.56
2 -4 -2 7759.92 431.96
2 -4 2 7542.85 430.86
2 -4 2 7831.62 431.36
2 4 -2 7731.93 431.96
-2 4 2 7918.71 431.46
-2 -4 -2 7765.12 430.86
2 4 -2 7992.9 430.96
-2 -4 -2 6846.92 433.76
3 4 2 8 1.6
-3 -4 2 6.4 2
3 4 2 10.4 3
3 -4 -2 10.8 2.4
3 -4 -2 9.5 2.8
3 4 2 9.1 2.3
-3 -4 2 10.9 1.7
3 4 -2 7.2 2.4
3 -4 2 7 1.9
3 -4 2 10.9 2.1
3 -4 2 8.1 2.5
-3 4 2 10.5 2.5
3 -4 2 10.2 2.4
3 4 -2 9.8 1.9
-3 -4 -2 8.3 2.1
4 4 2 2233.18 128.69
-4 -4 2 2222.68 128.99
4 -4 -2 2285.97 130.09
4 -4 -2 2337.87 128.99
-4 4 2 2314.17 128.49
-4 -4 -2 2303.57 128.39
4 -4 2 2203.18 128.19
4 4 -2 2224.78 129.89
4 -4 2 2236.68 128.09
5 4 2 6.6 4
-5 4 -2 2.7 2.9
5 -4 -2 -0.4 2.2
5 4 2 3.5 2.2
5 -4 -2 2.4 2.5
-5 -4 2 2.5 2.4
-5 -4 -2 1.8 2.3
5 -4 2 4.7 2.4
5 -4 2 3.4 3.2
5 4 -2 5.6 3
-5 4 2 2.4 2.1
6 4 2 1369.36 83.89
-6 -4 2 1363.66 80.89
6 -4 -2 1354.76 82.49
-6 4 2 1377.76 81.39
6 4 -2 1340.07 82.39
0 4 -3 108.39 7.2
0 -4 -3 117.39 8.1
0 4 3 111.99 7.1
0 -4 -3 99.29 6.5
0 -4 3 110.19 7.3
0 4 3 95.89 7.2
0 4 -3 108.39 7.2
0 -4 3 108.79 6.9
-1 -4 3 50.49 4.1
1 -4 -3 56.49 4.2
1 -4 -3 59.39 5.1
1 4 3 59.79 4.3
-1 4 -3 57.39 4.6
1 4 3 53.59 4.4
-1 -4 3 57.09 4.4
-1 4 -3 51.29 4.1
1 -4 3 56.09 4.4
1 4 -3 56.69 4.7
-1 -4 -3 40.3 4.8
1 4 -3 56.09 4.2
-1 4 3 53.39 4.5
1 -4 3 53.89 3.8
-1 4 3 54.59 3.6
2 4 3 243.08 16
2 4 3 261.77 15.4
-2 4 -3 250.57 16
-2 -4 3 238.98 16
-2 4 -3 268.07 16.3
2 -4 -3 256.67 15.9
-2 -4 3 271.37 15.4
2 -4 -3 248.28 16.6
-2 -4 -3 242.58 14.9
2 -4 3 243.88 15.1
-2 -4 -3 251.87 18.1
-2 4 3 265.47 16
2 -4 3 246.08 15.8
2 4 -3 249.97 16.4
-3 -4 3 383.16 22.6
-3 -4 3 390.46 23.9
3 -4 -3 377.26 24.5
3 4 3 390.06 23.8
3 4 3 411.06 22.8
3 -4 -3 380.96 23.7
3 -4 3 380.76 22.9
3 4 -3 402.26 22.7
3 -4 3 363.46 23.4
3 4 -3 394.66 24.6
-3 -4 -3 282.17 26.1
3 -4 3 386.76 23.5
-3 4 3 383.96 23.5
-3 -4 -3 375.76 22.8
-4 4 -3 88.59 11.6
4 -4 -3 85.39 7.6
4 -4 -3 88.79 8.6
-4 -4 3 71.39 8.2
4 4 3 81.89 7.5
-4 4 3 85.19 7.2
-4 -4 -3 84.69 12.8
4 -4 3 77.29 7.6
4 4 -3 78.99 8.2
4 -4 3 75.89 6.7
4 -4 3 79.29 7
-5 -4 3 11.1 3.6
5 -4 -3 12.7 4.2
5 4 3 20.6 4.4
5 4 -3 12.1 4.2
5 -4 3 10.6 3.2
5 -4 3 15.4 4.6
-5 -4 -3 4.7 4.8
-5 4 3 13.6 3.5
-5 4 3 18.5 4.6
6 4 3 53.39 7.7
6 -4 -3 58.59 10
-6 -4 3 49.8 8
-6 -4 -3 56.29 12.7
6 4 -3 59.29 9.6
-6 4 3 61.39 9
0 4 4 469.85 27.8
0 -4 4 489.15 27.5
0 4 -4 477.95 28.1
0 4 -4 456.55 28.2
0 4 4 469.95 28.2
0 -4 -4 488.95 29.3
0 -4 -4 470.05 27.1
0 -4 4 483.45 28.2
-1 -4 4 0.4 1
-1 4 -4 1.5 1
-1 -4 4 -0.3 0.7
-1 4 -4 0.1 0.9
1 -4 -4 -0.5 1.1
1 4 4 -0.1 0.9
1 -4 -4 0.3 0.9
1 4 4 0.3 1
1 4 -4 0.3 0.8
-1 -4 -4 0.7 1.2
-1 4 4 -0.5 0.7
-1 4 4 -0.6 0.7
1 -4 4 0.9 0.6
1 4 -4 -0.9 0.9
-2 4 -4 96.19 7.2
-2 -4 4 93.09 7.3
-2 4 -4 93.39 7.4
2 -4 -4 97.59 7.1
2 4 4 90.49 6.8
2 -4 -4 92.49 8
2 4 4 103.59 7.6
-2 -4 4 77.39 6.6
2 4 -4 88.59 7.6
2 -4 4 93.09 6.1
-2 4 4 87.39 7.1
2 4 -4 102.89 7.2
2 -4 4 83.99 6.9
3 -4 -4 12 3
-3 -4 4 9.1 2.2
3 -4 -4 17 4.1
3 4 4 13.5 3.1
-3 -4 4 13.5 3.1
-3 4 -4 16.5 3.6
3 4 4 12.9 2.5
-3 -4 -4 17.8 4.9
-3 4 4 15 2.9
3 -4 4 12.6 2.8
3 -4 4 15.5 2.9
3 4 -4 9.2 3.3
4 4 4 262.87 17.6
4 -4 -4 222.18 17
-4 4 -4 277.07 19.6
-4 -4 4 254.77 17.6
4 -4 -4 245.98 18.6
-4 4 4 257.57 17
4 -4 4 253.77 17.1
4 4 -4 228.28 18
-4 -4 -4 291.97 22.2
4 -4 4 239.58 17
-5 -4 4 11.2 3.8
5 4 4 9.3 3.4
5 -4 -4 11.4 4.6
5 -4 4 8.7 3.1
-5 4 4 9.6 3.8
-5 4 4 7.9 3.1
-5 -4 -4 15.9 6.8
5 4 -4 9.8 4.1
5 -4 4 7.6 3.8
6 4 4 79.69 10
6 -4 -4 93.59 12.4
-6 -4 -4 76.49 14.9
0 4 5 0.9 0.9
0 -4 5 1.4 0.9
0 4 -5 4 1.6
0 4 -5 1.5 1.3
0 4 5 2.1 1.3
0 -4 5 0.3 1
0 -4 -5 1.6 1.7
0 -4 -5 1.3 0.8
-1 4 -5 39.2 4.9
1 -4 -5 31 3.6
1 4 5 32.6 4.1
-1 -4 5 35.9 4
1 -4 -5 36.3 5.3
-1 4 -5 35.2 3.8
1 4 5 25.2 3.8
-1 -4 5 36.7 4.4
1 4 -5 34.7 4.8
-1 -4 -5 47.7 6.5
1 -4 5 36.5 4.6
-1 4 5 31.3 4.1
-1 4 5 32.2 3
1 4 -5 31.8 3.9
-2 4 -5 0.8 1.4
2 -4 -5 2.2 1.3
2 -4 -5 0.7 1.7
-2 -4 5 0.5 1.2
-2 4 -5 0.1 1.2
2 4 5 -0.1 1.1
2 4 5 0.1 1.1
-2 -4 5 0.7 1.2
2 4 -5 0.2 1.6
-2 4 5 -0.7 1.1
-2 -4 -5 0 1.7
2 -4 5 0.4 1.1
2 4 -5 2.3 1.6
-3 -4 5 57.99 5.5
-3 -4 5 52.19 6.5
3 4 5 78.99 8.1
3 4 5 61.39 5.5
-3 4 -5 65.69 7.4
3 -4 -5 62.89 8
-3 4 -5 64.99 6.5
3 -4 -5 55.49 6.5
3 -4 5 61.39 6.7
-3 4 5 62.79 6
3 4 -5 61.99 6.9
-3 -4 -5 32.6 7.2
-4 4 -5 4.1 2.5
4 -4 -5 0.4 2.6
4 4 5 0.7 2
-4 -4 5 2.5 2.4
4 -4 5 3.2 2.4
-4 -4 -5 4.5 4.2
4 4 -5 4.7 3.3
-4 4 5 5.5 2.6
-4 4 5 2.8 2.3
-5 -4 5 42.2 7.1
5 -4 -5 46.4 8.5
5 4 5 41.5 6.7
-5 4 -5 53.59 7.8
-5 4 5 51.09 6.9
-5 -4 -5 45.5 10.2
-5 4 5 52.19 8
5 -4 5 57.99 8.5
5 4 -5 49.9 8.4
-6 4 -5 0.3 3.8
0 -4 6 3464.55 198.08
0 4 6 3548.15 197.48
0 4 -6 3518.95 198.48
0 4 -6 3488.85 197.88
0 4 6 3453.95 198.18
0 -4 -6 3629.54 199.78
-1 4 -6 10 2.7
-1 -4 6 11.7 2.3
1 -4 -6 12.3 3.4
1 4 6 14.3 3
-1 -4 6 7.4 2.4
-1 4 -6 10.5 2.7
1 4 6 10.4 2.7
-1 -4 -6 11.3 3.4
-1 4 6 14.1 3.1
1 4 -6 9.3 2.2
1 -4 6 7.9 2.3
1 4 -6 6.8 2.5
-2 4 -6 2445.76 138.59
-2 -4 6 2510.75 137.89
-2 -4 6 2453.05 137.99
2 -4 -6 2629.74 140.29
2 4 6 2430.76 137.99
2 4 6 2354.76 138.29
-2 4 -6 2359.96 138.19
-2 4 6 2309.87 138.19
2 -4 6 2430.66 138.19
2 4 -6 2401.46 139.19
-2 4 6 2457.55 137.89
-2 -4 -6 2418.16 140.49
-3 -4 6 10.9 3
3 -4 -6 6.2 3.2
3 4 6 9.4 2.9
-3 -4 6 6.2 2.6
-3 4 -6 10.1 3.2
3 4 6 7.8 2.4
3 4 -6 3.7 2.9
-3 -4 -6 6.2 3.6
3 -4 6 8.6 2.6
-3 4 6 9.3 3.1
-3 4 6 6.7 2.8
4 -4 -6 1590.54 93.29
-4 -4 6 1582.54 91.39
4 4 6 1639.44 91.69
-4 4 -6 1597.04 91.69
-4 4 6 1539.65 90.79
4 -4 6 1636.44 90.99
-4 4 6 1498.45 91.29
4 4 -6 1451.75 92.39
5 4 6 33 6.4
-5 4 -6 28.1 6.1
5 -4 -6 27.9 7
-5 -4 6 24 5.7
-5 4 6 34.7 6.3
-5 -4 -6 24 7.2
5 4 -6 25.6 6.4
0 4 7 157.48 11.7
0 -4 -7 150.28 12.8
0 -4 7 145.69 11.3
0 4 -7 145.79 11.6
0 4 -7 160.88 11.2
0 4 7 156.18 10.9
1 4 7 0.7 1.7
1 -4 -7 0 1.9
-1 4 -7 1 1.7
1 4 7 -0.9 1.1
-1 4 -7 -0.7 1.5
-1 -4 7 0.2 1.7
1 4 -7 -0.6 1.7
-1 4 7 0.4 1.6
1 4 -7 0.5 1.4
-1 -4 -7 0.4 2.4
1 -4 7 0.8 1.5
-2 -4 7 159.88 12.4
2 -4 -7 195.78 14.8
2 4 7 182.08 12.7
2 4 7 156.88 12.7
-2 4 -7 155.68 12.6
-2 4 -7 174.68 13.1
-2 -4 -7 179.28 14.8
-2 4 7 164.68 12.8
2 4 -7 168.18 13.7
2 -4 7 177.38 12.8
3 4 7 75.29 8.8
-3 -4 7 56.19 7.2
3 -4 -7 68.79 9.6
-3 -4 7 59.29 7.1
3 4 7 51.49 6.8
-3 4 -7 61.69 8.2
-3 -4 -7 78.69 11.5
-3 4 7 59.19 7.7
3 -4 7 69.69 7.8
3 4 -7 57.49 8.6
4 -4 -7 110.89 12.3
4 4 7 120.09 11.3
-4 4 -7 110.69 11
-4 -4 7 137.19 11.2
-4 4 7 111.49 10.4
-4 -4 -7 106.09 14.7
-4 4 7 141.99 11.6
4 4 -7 123.69 12.4
4 -4 7 112.99 10.5
-5 -4 7 15.3 5.5
-5 4 7 12.9 5
-5 -4 -7 2.4 7.4
0 -4 -8 320.07 22.4
0 4 -8 290.37 20.7
0 4 -8 305.57 19.9
0 4 8 289.27 20.3
0 -4 8 306.87 20.5
-1 -4 8 0.1 2.2
1 4 8 1.4 2.2
-1 4 -8 3.1 2.4
1 4 8 3 2.3
1 -4 -8 4.6 3
-1 4 -8 5.3 2.5
1 -4 8 1.4 1.9
1 4 -8 1.7 2.5
-1 4 8 0.7 2.1
-1 -4 -8 6 3.4
2 4 8 88.69 8.6
2 4 8 85.59 8.4
2 -4 -8 90.49 10.2
-2 4 -8 95.09 9.2
-2 -4 8 90.79 8.6
-2 4 8 95.79 9
-2 -4 -8 105.79 11.1
2 -4 8 91.29 8.6
2 4 -8 85.79 9.4
3 -4 -8 39.8 7.8
-3 -4 8 25.6 5.1
3 4 8 26.2 5.1
3 4 8 30.6 5.9
-3 4 -8 36.7 6.5
3 -4 8 25.3 5.1
-3 4 8 31.7 5.7
-3 -4 -8 33.3 7.8
3 4 -8 36.2 7.1
4 -4 -8 252.47 26.3
4 4 8 236.08 19.2
-4 4 -8 294.97 25
4 4 -8 208.48 18.7
-4 -4 -8 225.18 20.6
-4 4 8 215.58 17.1
4 -4 8 216.88 17.1
0 4 -9 1.8 2.8
0 -4 -9 0.7 2.8
0 -4 9 -1.1 2
0 4 -9 -0.3 2
0 4 9 -1.9 2.1
1 4 9 -0.4 2.3
1 4 9 2.1 2.4
-1 4 -9 -0.3 2.2
1 -4 -9 3.9 3.5
-1 -4 9 0.9 2.7
1 4 -9 1.3 3.2
-1 4 9 1 2.6
-1 -4 -9 0.3 3.3
1 -4 9 1.8 2.7
-2 4 -9 17.7 4.6
2 4 9 22.7 5.1
2 4 9 16.9 4.8
-2 -4 9 26.7 5.6
2 -4 -9 21.4 5.9
2 4 -9 20 5.5
-2 -4 -9 24.8 6.5
2 -4 9 20.4 4.6
-2 4 9 10.7 3.9
-3 4 -9 46.8 8.7
3 4 9 30.3 6.3
3 4 9 38.3 6.9
3 -4 -9 56.89 12.9
-3 -4 -9 53.89 10.4
-3 4 9 37.8 6.9
3 4 -9 34.1 7.5
3 -4 9 36.1 6.6
0 4 10 835.02 52.69
0 -4 10 880.21 52.99
0 -4 -10 875.11 55.19
-1 4 -10 -0.8 2.9
1 -4 -10 1.2 4.1
-1 -4 10 5.3 3.3
1 4 10 0.4 2.7
-1 4 10 3.3 4.2
1 4 -10 -3.4 3.3
1 -4 10 2.8 3.9
-1 -4 -10 2.4 4.2
-2 -4 10 831.92 52.09
-2 -4 -10 798.92 51.19
2 4 -10 872.01 53.29
0 5 0 5.7 1.1
1 -5 0 8802.62 488.25
1 -5 0 8311.97 488.45
1 -5 0 9383.66 489.25
-1 -5 0 8741.93 488.55
1 5 0 8679.13 488.85
1 5 0 8749.52 487.75
1 5 0 8908.71 488.65
-1 5 0 8627.54 488.25
2 -5 0 0.2 0.7
-2 5 0 0.3 0.6
2 -5 0 0.8 0.9
2 5 0 -0.1 0.8
-2 -5 0 0.3 0.7
-2 5 0 0.4 1.1
2 5 0 -0.2 0.5
3 -5 0 5312.27 286.57
-3 -5 0 5001.6 285.97
3 -5 0 5216.68 285.97
3 5 0 5142.39 286.97
3 5 0 4908.61 285.47
-3 5 0 5057.29 284.97
-4 -5 0 -0.5 1.2
-4 5 0 1.1 1.8
4 -5 0 0 1.3
4 -5 0 0.5 1.6
4 5 0 0.7 1.2
4 5 0 0.8 1.7
-5 -5 0 2422.56 141.09
5 -5 0 2176.08 141.99
5 5 0 2570.94 143.09
5 -5 0 2550.94 141.19
-5 5 0 2655.73 141.59
-6 -5 0 0.9 2.9
6 5 0 -3.9 3.4
-6 5 0 -1.5 2.5
0 5 1 0 0.4
0 -5 1 0.1 0.6
0 5 1 -0.4 0.5
0 -5 -1 -0.1 0.5
0 5 -1 0.4 0.3
0 -5 1 0.2 0.4
0 -5 -1 0.3 0.5
0 5 -1 0.3 0.5
1 5 1 2.3 0.6
-1 5 -1 2.2 0.8
-1 -5 1 2.7 0.9
1 -5 -1 2.2 0.9
-1 -5 1 3.9 0.7
1 5 1 1.8 0.8
1 -5 -1 3 0.9
-1 5 1 3 1.1
1 5 -1 2.1 0.9
1 -5 1 1.4 0.7
1 -5 1 4.7 1.3
-1 -5 -1 5.5 2.1
-1 5 1 3.4 0.9
-1 -5 -1 3.8 0.9
1 -5 1 2.8 0.7
1 5 -1 0.1 0.6
2 5 1 10.5 2.6
-2 -5 1 10.3 2
-2 -5 1 9.2 1
2 5 1 6.6 1.6
2 -5 -1 8.7 2
2 -5 -1 10.5 1.9
-2 5 -1 8.1 1.6
2 5 1 9.7 1.1
2 -5 1 10.8 2
2 -5 1 9.3 2.2
-2 -5 -1 6.2 1.5
2 -5 1 6.3 1.5
2 5 -1 9.8 1.7
-2 5 1 9.1 1.1
2 5 -1 7.5 2
-2 5 1 11.1 2.4
3 -5 -1 0 1.2
-3 -5 1 1.4 1.3
3 5 1 1.3 1.6
3 -5 -1 -0.6 1
3 5 1 0.7 1.1
-3 5 -1 0.1 0.8
-3 5 1 -0.1 0.8
3 -5 1 0.7 1.3
3 -5 1 2 1.8
-3 5 1 0.1 1.2
3 5 -1 -0.4 0.7
-3 -5 -1 1.1 1.1
3 -5 1 2.6 1.3
3 5 -1 0.9 1.4
-4 5 -1 -0.5 1.2
-4 5 -1 1.8 2.1
-4 -5 1 -0.3 1.3
4 -5 -1 0.7 1.4
4 -5 -1 -0.1 1.6
4 5 1 0.7 1.4
4 5 1 0.3 1.6
4 -5 1 -0.8 1.3
4 5 -1 0.2 1.6
4 -5 1 1.3 1.8
-4 5 1 0.2 1.6
-4 -5 -1 0.5 1.4
4 5 -1 -0.4 1.1
5 5 1 0.1 2.7
5 -5 -1 3 2.4
-5 -5 1 0.6 1.9
-5 5 -1 4.1 2.9
5 -5 -1 2.5 2.9
5 5 1 0.6 1.9
5 -5 1 2.9 2.9
5 -5 1 2.3 2.1
-5 -5 -1 2.2 2.3
5 5 -1 1.1 2.7
-5 5 1 4.4 2.8
6 5 1 0.1 3.8
-6 -5 1 -1.8 2.6
-6 5 -1 2.7 2.9
6 -5 -1 -0.8 3.4
-6 5 1 -2.5 2.2
-6 -5 -1 1.2 3.1
6 5 -1 5.4 4
0 -5 2 0.6 0.6
0 5 -2 0.3 0.5
0 5 -2 0 0.4
0 -5 2 0.1 0.6
0 5 2 0.7 0.6
0 5 2 0.6 0.5
0 -5 -2 0.4 0.5
0 -5 -2 0.1 0.8
1 -5 -2 135.49 8.7
-1 5 -2 120.59 7.5
-1 5 -2 126.49 8.3
1 -5 -2 117.89 7.9
1 5 2 119.79 7.8
-1 -5 2 126.69 8.2
-1 -5 2 132.49 7.8
1 5 2 119.69 8.1
1 5 -2 102.19 8.3
1 -5 2 130.39 8.2
1 -5 2 122.19 7.8
-1 5 2 111.29 8.2
-1 -5 -2 134.89 7.8
-1 5 2 125.89 7.4
1 5 -2 124.99 8.2
-2 -5 2 4.5 1
2 -5 -2 4.9 1.6
2 -5 -2 4.1 1.8
2 5 2 3.2 1
-2 5 -2 5.3 1.5
-2 -5 2 3.2 1.4
2 5 2 5.7 1.5
-2 5 -2 6.5 2.1
2 -5 2 5.8 1.3
-2 5 2 7.5 1.8
-2 -5 -2 4.7 1.2
2 5 -2 6.8 1.9
-2 -5 -2 2.1 2
2 5 -2 2.9 1.1
2 -5 2 4.3 1.5
3 -5 -2 24.9 3.6
3 5 2 25.3 3.8
-3 -5 2 14.6 3
3 -5 -2 25.8 4.3
-3 5 -2 19.6 3.2
3 5 2 26.1 4.9
3 -5 2 22.4 3.7
3 5 -2 24 3.1
3 -5 2 24.3 4.1
-3 5 2 28.1 4
3 5 -2 23.6 4.1
-3 -5 -2 23.7 3.2
3 -5 2 21.7 3.2
4 5 2 8.7 2.7
4 -5 -2 14.8 3.8
4 -5 -2 11.3 3
4 5 2 10.5 3.8
-4 -5 2 13.4 3.2
-4 5 -2 15.7 3
4 -5 2 12.9 4
-4 5 2 12.1 3
4 -5 2 11 3.3
4 5 -2 17.8 4.2
-4 -5 -2 15.2 3.2
4 -5 2 8.5 2.6
-5 5 -2 52.89 7.6
-5 -5 2 55.69 7.3
5 -5 -2 57.69 7.5
5 -5 -2 44.9 7.5
5 5 2 58.09 7.2
5 5 2 58.89 9.5
-5 5 2 56.19 6.9
-5 -5 -2 51.09 6.6
5 -5 2 56.19 6.8
5 5 -2 52.99 8.2
6 -5 -2 9.7 4.6
6 5 2 8 4.9
-6 -5 2 3 3.2
6 5 -2 10.7 4.5
-6 5 2 1.8 2.9
0 -5 -3 0.6 0.5
0 5 3 0.5 0.7
0 5 -3 0.2 0.7
0 -5 3 -0.3 0.6
0 -5 -3 -0.6 0.8
0 5 -3 0.1 0.7
0 5 3 -0.2 0.6
0 -5 3 0.1 0.6
-1 5 -3 2.3 0.8
1 5 3 0.5 0.8
1 -5 -3 0.5 0.8
1 5 3 -0.4 0.6
-1 -5 3 0.8 0.8
-1 5 -3 0.9 1
-1 -5 3 1.3 0.8
1 -5 -3 0.3 1.1
1 5 -3 0.2 0.7
1 5 -3 1.6 1.1
1 -5 3 1.7 1
1 -5 3 0.9 0.6
-1 5 3 0.5 0.5
-1 -5 -3 0 0.6
-1 -5 -3 -0.6 0.9
-1 5 3 1.7 1
-2 -5 3 3.5 1.1
2 -5 -3 2.7 1.6
2 5 3 2.4 1.1
-2 5 -3 2.2 1.3
-2 5 -3 3.7 1.5
2 5 3 4.1 1.5
-2 -5 3 1.9 1.1
2 -5 -3 4.5 1.6
2 -5 3 1.9 0.9
-2 -5 -3 2.6 0.9
-2 5 3 4.2 1.6
2 5 -3 2.8 1.6
2 5 -3 0.6 1
-2 -5 -3 0.7 1.5
2 -5 3 3.1 1.3
-3 5 -3 4.6 2.9
-3 -5 3 0.8 1
-3 5 -3 -0.3 1.2
3 5 3 1.7 1.6
3 -5 -3 3.1 1.6
3 -5 -3 1.8 1.8
-3 -5 3 -0.1 1.2
-3 -5 -3 1.9 2.6
-3 -5 -3 0.4 1
3 -5 3 -0.4 1.1
3 5 -3 -0.6 1.3
3 5 -3 1.1 1.1
3 -5 3 -0.5 1.2
-3 5 3 3.1 1.7
-4 5 -3 -1.6 1.5
4 5 3 1.1 1.6
4 -5 -3 -0.3 1.5
-4 5 -3 -0.6 2.9
-4 -5 3 -0.8 1.5
4 -5 -3 -1.6 1.8
-4 5 3 -0.1 1.5
4 -5 3 -0.8 1.4
-4 -5 -3 1.3 3.4
4 5 -3 -0.7 1.7
4 -5 3 -1.8 1.6
-5 -5 3 2.1 2.5
5 -5 -3 0.2 2.7
-5 5 -3 2.6 2.6
5 5 3 4.8 2.6
5 -5 -3 6 3
5 -5 3 -0.9 3
-5 5 3 5.2 2.6
-5 -5 -3 1.7 5.1
5 5 -3 2.9 3
6 -5 -3 0.5 3.2
-6 -5 3 1.3 2.7
6 5 3 -0.9 2.8
6 5 -3 -0.5 3.4
-6 -5 -3 0.3 6.1
-6 5 3 1.1 3.1
0 5 -4 -0.3 0.8
0 -5 -4 -0.3 1.2
0 5 -4 0 0.9
0 -5 4 0 0.7
0 5 4 0.6 0.9
0 5 4 0.3 0.8
0 -5 -4 -0.2 0.5
0 -5 4 0.4 0.9
-1 5 -4 4966.1 282.57
1 5 4 5158.88 282.87
1 -5 -4 5296.67 284.17
1 -5 -4 5070.99 282.37
1 5 4 5095.19 282.97
-1 -5 4 4910.21 282.67
-1 -5 4 4856.61 282.57
-1 5 -4 5373.76 283.37
1 5 -4 5031.8 283.27
-1 5 4 5010.4 283.07
-1 5 4 5237.08 281.87
1 -5 4 5023.2 281.97
-1 -5 -4 4897.01 281.47
1 5 -4 4987.5 282.67
1 -5 4 4951.3 282.87
-2 5 -4 30.9 3.8
2 5 4 25.5 3.4
2 5 4 25.9 3.8
2 -5 -4 36.4 5.3
-2 5 -4 27.9 4.2
-2 -5 4 29.8 3.5
-2 -5 4 25.5 3.7
2 -5 -4 29.6 3.7
2 -5 4 27.7 3
2 5 -4 31.9 4.7
2 -5 4 27.1 3.7
2 5 -4 29.6 4
-2 -5 -4 25.4 5.2
-2 5 4 25.7 3.8
3 5 4 3597.94 203.78
-3 5 -4 3623.04 203.18
3 -5 -4 3509.65 202.78
3 -5 -4 3708.53 204.38
-3 5 -4 3632.14 203.08
-3 -5 4 3563.24 201.78
3 5 4 3570.24 203.18
-3 -5 4 3597.64 203.18
-3 5 4 3689.93 202.98
3 5 -4 3560.74 203.88
3 -5 4 3420.16 202.58
-3 -5 -4 3743.73 206.48
-4 5 -4 15.4 3.8
4 -5 -4 26 4.5
4 5 4 31.9 5.1
-4 -5 4 24.4 4.5
4 -5 -4 33.9 6.1
4 -5 4 29.8 4.8
-4 -5 -4 18.8 6.3
4 5 -4 20.4 4.7
-4 5 4 24.6 4.4
5 -5 -4 1733.93 100.29
-5 -5 4 1699.33 98.59
-5 5 -4 1662.93 97.79
5 5 4 1675.23 98.19
-5 5 4 1689.23 97.59
-5 -5 -4 1801.02 104.79
5 5 -4 1625.44 99.49
-5 5 4 1628.64 98.69
5 -5 4 1691.33 99.09
6 5 4 16 4.8
6 -5 -4 20.4 6.3
-6 -5 -4 16.9 9.2
0 5 -5 0 1
0 5 5 2 1.1
0 -5 -5 -0.2 0.8
0 -5 5 1.4 1.1
0 -5 -5 0.1 1.6
0 5 5 1.2 1.1
0 -5 5 -0.1 0.9
0 5 -5 1.1 1.1
1 -5 -5 1.6 1.1
1 5 5 0.8 1.3
-1 -5 5 -0.3 1
-1 5 -5 1.3 1.1
1 -5 -5 1.5 1.7
1 5 5 1 1.3
-1 -5 5 0.1 1
-1 5 -5 -0.9 1
1 5 -5 -0.9 1.2
-1 5 5 2 1
-1 -5 -5 3.9 2.3
1 5 -5 0.4 0.9
-1 5 5 0.4 1.1
1 -5 5 0.1 1.1
-2 -5 5 1.6 1.4
2 5 5 1 1.4
-2 -5 5 3.8 1.5
2 -5 -5 1.3 1.7
-2 5 -5 -0.7 1.2
2 5 5 1.4 1.4
2 -5 -5 0.9 1.2
-2 5 -5 1.9 1.4
-2 5 5 0.4 1.5
2 5 -5 2.3 1.6
-2 -5 -5 0.4 1.7
2 -5 5 2.7 1.5
2 5 -5 1.9 1.7
3 5 5 0.1 1.5
3 5 5 -0.3 1.4
-3 -5 5 1 1.5
-3 -5 5 -0.9 1.3
-3 5 -5 2.4 1.8
3 -5 -5 0.9 2.1
3 -5 -5 2.8 1.8
3 -5 5 1.2 1.6
-3 5 5 0 1.7
3 5 -5 3.8 2.4
-3 -5 -5 1.4 2.7
4 -5 -5 1.6 2.9
4 5 5 1.4 2.1
-4 -5 5 -0.9 1.8
4 -5 -5 2.7 2.3
-4 5 -5 3.3 2.3
-4 5 5 0.2 1.8
4 5 -5 -2.2 2
-4 -5 -5 -1.8 3.2
4 -5 5 -1.3 1.8
5 5 5 3.7 2.8
-5 5 -5 3.1 2.8
-5 -5 5 2.2 2.6
5 -5 -5 -0.2 3.3
-5 5 5 3.4 2.9
-5 5 5 3.4 3.1
5 5 -5 7.4 4
-5 -5 -5 5.2 5.3
5 -5 5 0.9 3.2
0 5 6 0.8 1.4
0 -5 6 0.6 1.4
0 5 6 -1 1.3
0 -5 -6 2.2 1.9
0 5 -6 0.6 1.4
0 5 -6 0.1 1.3
1 5 6 86.99 7.5
-1 5 -6 102.79 8.1
-1 -5 6 88.29 6.9
1 5 6 96.49 7.8
-1 5 -6 90.29 7.7
1 -5 -6 100.69 9.2
-1 -5 6 94.59 7.7
1 5 -6 97.29 8.3
1 5 -6 92.69 7.3
-1 5 6 89.39 7.8
1 -5 6 102.39 8
-1 -5 -6 91.59 9.1
-2 -5 6 39 4.9
-2 5 -6 24.7 4.4
2 5 6 30.2 4.5
2 -5 -6 35.9 4.5
2 -5 -6 26.3 5.5
2 5 6 34 5
-2 5 -6 33.1 4.7
-2 -5 6 26 4.1
-2 5 6 30.2 4.6
2 5 -6 28.6 5.3
2 -5 6 30.5 4.6
-2 -5 -6 28 5.8
3 5 6 83.59 8.8
3 -5 -6 89.69 7.3
-3 5 -6 64.99 8
3 -5 -6 64.59 9.1
-3 -5 6 73.59 6.8
3 5 6 77.99 7.5
-3 -5 6 88.79 7.6
-3 -5 -6 46.9 8.8
3 5 -6 78.29 8.4
-3 5 6 84.19 8.8
3 -5 6 75.89 7.1
-3 5 6 77.09 8.2
4 5 6 25 5.1
-4 5 -6 23.4 5
-4 -5 6 28.2 5.2
4 -5 -6 35.6 6.7
4 5 -6 22.6 5.7
-4 5 6 29.5 5.2
4 -5 6 36.1 5.3
-4 5 6 22.1 4.9
-4 -5 -6 37.8 7.9
5 -5 -6 53.79 9.6
-5 5 -6 55.69 8
-5 -5 6 58.09 8.1
5 5 6 60.49 8.5
5 5 -6 41.9 8.3
-5 5 6 53.19 7.9
-5 -5 -6 34.9 8.8
-5 5 6 50.09 7.5
5 -5 6 40.4 6.9
0 -5 7 -1.3 1.5
0 5 7 -0.1 1.5
0 5 7 0.3 1.4
0 5 -7 0.7 1.9
0 -5 -7 -0.1 2.1
0 5 -7 1.9 1.7
-1 5 -7 1.9 2
1 5 7 2 1.9
-1 -5 7 5 2.4
1 5 7 5.1 2.3
1 -5 -7 6 3.3
-1 5 -7 2.9 2.1
-1 -5 -7 5.7 3.4
-1 5 7 1.9 1.9
1 5 -7 2.5 2.4
1 -5 7 -0.8 1.6
1 5 -7 2.2 1.6
2 5 7 -0.2 1.8
2 -5 -7 0.7 2.3
-2 5 -7 0.6 1.9
-2 -5 7 1.8 2
2 5 7 3.6 2.3
-2 5 7 0.1 1.8
-2 -5 -7 1.8 3.2
2 5 -7 1 2.1
2 -5 7 0.9 1.7
-3 -5 7 -0.1 2.7
-3 -5 7 -0.7 1.9
3 -5 -7 0.5 2.9
-3 5 -7 0.8 2.3
3 5 7 -0.4 2
-3 -5 -7 -0.4 3.4
-3 5 7 5.1 2.7
3 -5 7 2.5 2.3
3 5 -7 -0.5 2.6
-4 -5 7 0.6 2.4
4 -5 -7 1.6 3.3
-4 5 -7 -1.4 2.5
4 5 7 1.9 2.7
-4 5 7 1.6 2.9
-4 5 7 -0.6 2.7
-4 -5 -7 2 4.2
4 -5 7 -2.2 2.4
4 5 -7 -0.1 3.4
-5 5 7 3.5 5.6
5 -5 7 1.6 3.6
-5 5 7 -0.8 3.9
0 -5 -8 0.1 2.4
0 5 8 -1.7 1.8
0 5 -8 0 1.8
0 -5 8 -0.4 1.7
0 5 -8 -1.4 2.1
1 5 8 1721.33 101.29
1 -5 -8 1786.32 103.69
1 5 8 1756.12 100.99
-1 5 -8 1732.13 101.39
-1 -5 8 1807.72 101.39
1 -5 8 1690.93 101.39
1 5 -8 1767.52 102.29
-1 -5 -8 1808.32 103.99
-1 5 8 1733.43 101.59
2 5 8 17.5 4.2
2 -5 -8 25.4 6.5
2 5 8 19.9 4.4
-2 5 -8 16.5 4.2
-2 -5 8 22.9 4.6
2 5 -8 29.3 6
-2 -5 -8 15.3 5.5
2 -5 8 30.3 5.2
-2 5 8 23.1 4.8
3 5 8 1364.36 80.69
3 -5 -8 1442.76 83.39
-3 5 -8 1400.26 81.09
-3 -5 -8 1374.46 83.69
3 -5 8 1333.07 80.19
3 5 -8 1373.76 81.99
-3 5 8 1283.37 80.19
-4 -5 -8 49.4 10.4
4 -5 8 50.79 7.4
4 5 -8 40.8 8.4
-4 5 8 50.39 7.5
0 -5 9 0.5 2.4
0 -5 -9 2.8 3.7
0 5 -9 1.4 2.2
0 5 9 -1.2 2
-1 5 -9 -1.3 2.2
1 5 9 -2.9 2.2
-1 -5 9 1.6 2.4
1 5 9 2.3 3.9
1 -5 -9 -0.1 3.1
1 5 -9 -2.3 2.6
1 -5 9 -2.3 2.1
-1 5 9 -2.4 2.3
-1 -5 -9 -0.2 3.3
2 5 9 1.8 2.8
-2 5 -9 1.3 2.7
-2 -5 9 -0.9 2.8
2 -5 -9 1.1 3.2
2 5 9 -1.9 2.5
-2 5 9 0.6 2.5
-2 -5 -9 1.8 4.1
2 -5 9 3.6 2.9
2 5 -9 3.7 3.7
3 5 9 1 2.8
3 5 -9 0.9 4.1
-3 5 9 1.9 3
-3 -5 -9 4.7 5.2
3 -5 9 2.8 3.9
0 5 10 6.2 3.5
0 -5 10 6.9 3.5
0 -5 -10 4 4.3
1 5 10 93.19 10.8
1 -5 -10 110.99 20
-1 -5 10 79.99 10.2
-1 5 -10 94.19 10.4
-1 -5 -10 108.99 14.3
-2 -5 10 23.1 6
2 5 10 16.4 4.9
2 5 -10 20 6
0 6 0 138.79 8.9
0 -6 0 134.99 8.5
0 -6 0 139.79 8.9
0 6 0 138.49 8.8
-1 6 0 0.5 0.6
1 6 0 0.1 0.7
-1 6 0 1.4 1
-1 -6 0 0.3 0.6
1 6 0 0.3 0.6
1 -6 0 -0.1 0.5
1 -6 0 1.1 1
1 -6 0 0.9 0.7
1 6 0 0.4 0.4
-2 6 0 166.78 10.6
-2 -6 0 173.48 11.2
-2 6 0 177.98 12
2 -6 0 182.38 11.2
2 6 0 164.88 11
2 -6 0 173.78 11.1
2 6 0 169.98 11.7
-3 6 0 0 1.2
3 6 0 0.1 0.9
3 -6 0 3.2 1.5
3 -6 0 0.3 1.1
-3 -6 0 -1.3 1
3 6 0 1.9 1.5
-3 6 0 -1 0.9
4 6 0 12.4 3.7
-4 6 0 8.3 2.9
4 -6 0 9.9 2.7
4 -6 0 9.9 3.1
4 6 0 9.5 2.5
-4 -6 0 7.6 2.5
-5 -6 0 0.4 2.1
-5 6 0 1.8 2.4
5 6 0 2.9 2
5 -6 0 1.4 2.3
5 6 0 0.5 2.5
6 -6 0 93.89 10.4
-6 -6 0 95.49 10.6
6 6 0 104.69 13.3
0 6 1 2.3 0.8
0 -6 -1 0 0.7
0 -6 1 1.4 0.7
0 -6 1 1.3 0.9
0 -6 -1 4.8 1.1
0 6 -1 1.7 0.5
0 6 1 -0.8 0.5
0 6 -1 1.8 0.8
-1 6 -1 341.77 20.1
-1 -6 1 346.77 19.5
1 -6 -1 338.77 20.1
-1 -6 1 335.57 20.3
1 6 1 335.57 19.5
1 -6 -1 350.06 20.3
1 6 1 341.97 20.2
1 6 -1 340.47 20.2
-1 -6 -1 353.66 20.1
-1 6 1 348.37 20.7
1 -6 1 367.46 20.5
1 6 -1 273.17 20.2
-1 6 1 354.36 19.9
1 -6 1 348.27 20.1
2 6 1 11.9 2.2
2 6 1 21 3.7
2 -6 -1 17.3 2.8
-2 6 -1 14.7 2.2
2 -6 -1 21.6 2.9
-2 -6 1 13.4 2.5
2 6 -1 13.9 2.3
-2 -6 -1 16.5 2.4
2 6 -1 17.8 3
-2 6 1 23.8 3.2
2 -6 1 19.2 3.4
-2 6 1 17.6 1.8
2 -6 1 14.4 2.2
3 -6 -1 22.9 3.8
3 6 1 21.2 3.2
-3 6 -1 20.2 3
3 6 1 19.7 3.9
-3 -6 1 21.1 3.3
3 -6 -1 17.2 3.1
-3 6 1 20.7 3.8
3 -6 1 19.9 4.2
3 6 -1 24.7 4.1
3 -6 1 19.9 3.1
3 -6 1 10.4 2.7
-3 6 1 22.4 2.5
-3 -6 -1 21.8 3.1
3 6 -1 18.9 2.9
4 -6 -1 7.9 2.5
-4 -6 1 19.3 3.8
-4 6 -1 11.2 3.3
4 -6 -1 14.6 3.7
-4 6 -1 13.2 2.6
4 6 1 13.2 3
4 6 1 15.4 4.2
4 -6 1 8.9 2.9
4 -6 1 10.2 2.7
-4 -6 -1 12.5 2.8
-4 6 1 13.6 3.4
4 6 -1 7.8 2.3
4 6 -1 14.2 4
-5 6 -1 91.59 11.7
5 -6 -1 138.69 12.5
5 6 1 153.58 13.5
5 -6 -1 149.59 11.6
-5 -6 1 128.49 11.2
5 6 1 141.79 11.2
5 6 -1 146.99 12.8
-5 -6 -1 145.99 11.4
-5 6 1 147.49 11.8
5 -6 1 158.08 11.6
6 -6 -1 8.4 3.6
-6 -6 1 11 4.1
6 6 1 7.7 4.8
-6 -6 -1 3.6 3.2
6 6 -1 10.5 4.8
6 -6 1 10.9 3.9
0 6 2 2786.92 157.28
0 6 -2 2814.32 156.98
0 6 -2 2902.81 157.58
0 -6 -2 2905.81 157.18
0 -6 -2 2371.56 157.88
0 -6 2 2888.61 157.38
0 6 2 2883.11 157.48
0 -6 2 2950.8 157.78
-1 -6 2 0.1 0.5
1 -6 -2 0.9 1
-1 -6 2 1.7 0.8
1 -6 -2 0 0.6
-1 6 -2 1 0.9
1 6 2 1.5 0.9
1 6 2 0.9 0.6
-1 6 -2 1 0.5
-1 6 2 0.3 0.5
-1 -6 -2 0.7 0.7
1 -6 2 0.5 0.6
-1 -6 -2 0.7 1.1
1 6 -2 1.1 1
1 6 -2 0.4 0.8
1 -6 2 1.2 0.8
-1 6 2 0.7 0.9
-2 -6 2 4762.42 252.97
2 -6 -2 4460.45 252.57
-2 -6 2 4587.54 251.57
-2 6 -2 4168.08 252.97
2 -6 -2 4524.15 253.27
2 6 2 4672.43 251.67
2 6 2 4550.64 252.77
-2 6 -2 4465.65 252.67
2 6 -2 4239.68 252.47
-2 6 2 4885.01 253.17
2 6 -2 4131.79 252.97
2 -6 2 4779.52 252.87
-2 -6 -2 4528.75 252.17
2 -6 2 4462.55 252.17
-3 -6 2 6.7 2.1
3 6 2 11.3 2.5
3 -6 -2 7.4 2.1
3 6 2 5.6 2.5
-3 6 -2 9.1 2.1
3 -6 -2 8.3 2.6
3 6 -2 6.6 2.2
3 -6 2 7 1.9
-3 6 2 10 2.5
3 -6 2 6 2.2
3 -6 2 7.6 2.4
-3 -6 -2 11.2 2.3
3 6 -2 8.2 1.8
-3 -6 -2 11.2 3.8
4 6 2 1729.83 101.39
4 -6 -2 1762.72 99.29
4 6 2 1689.63 99.09
-4 -6 2 1648.44 99.19
4 -6 -2 1759.62 100.49
-4 6 -2 1709.03 98.49
4 -6 2 1679.83 100.49
4 -6 2 1720.43 98.79
-4 -6 -2 1806.92 98.79
4 6 -2 1735.43 98.19
4 6 -2 1677.83 100.19
-4 6 2 1806.82 99.49
5 6 2 4.9 2.7
5 -6 -2 3.2 3.1
5 6 2 3.4 3.4
-5 -6 2 1.8 2.2
5 -6 -2 2.8 2.4
-5 6 -2 -0.1 2.8
-5 -6 -2 3 2.4
-5 6 2 2.7 2.7
5 6 -2 4.2 2.9
5 -6 2 2.8 2.3
6 -6 -2 992 60.69
6 6 2 1003.8 64.19
-6 -6 2 993 60.99
6 -6 -2 875.91 61.99
-6 6 2 1074.09 61.99
-6 -6 -2 1142.59 67.49
6 6 -2 1011.5 62.79
0 -6 -3 12.6 2.8
0 6 3 9 1.9
0 6 -3 13.8 2.2
0 6 3 15 2.1
0 -6 3 14.1 2.2
0 -6 3 10.2 1.9
0 -6 -3 12.5 1.6
0 6 -3 13.6 2
-1 6 -3 40.1 3.8
-1 -6 3 39.5 3.6
1 -6 -3 38.7 4.2
1 6 3 45.8 3.6
1 6 3 39.9 3.7
-1 -6 3 38.9 3.3
1 -6 -3 34.5 3.2
-1 6 -3 39.3 3.1
-1 6 3 39.9 2.9
1 6 -3 36.6 3.6
1 -6 3 39.5 3.3
-1 6 3 36.2 4.1
-1 -6 -3 34.6 3
-1 -6 -3 26.9 4.4
1 -6 3 39.2 3.6
1 6 -3 42.7 3.8
-2 6 -3 14.1 2.6
2 -6 -3 15.2 2.6
-2 -6 3 10.7 2.4
2 -6 -3 15.9 3.3
2 6 3 17.1 3.1
-2 -6 3 12.9 2
-2 6 -3 15.5 2.4
2 6 3 15.3 2.3
2 -6 3 17.1 3
-2 6 3 14.2 2.8
2 -6 3 12.9 2
-2 -6 -3 17.9 4.2
2 6 -3 19.3 3.3
2 6 -3 13 2.4
-2 -6 -3 14.9 2
-3 6 -3 87.89 8.2
3 -6 -3 86.69 7.9
-3 -6 3 81.09 7.1
3 6 3 93.89 7.4
3 -6 -3 87.09 7.2
-3 6 -3 83.19 6.9
-3 -6 -3 79.39 11.8
3 6 -3 89.29 6.6
3 6 -3 75.99 7.5
3 -6 3 80.49 7
-3 -6 -3 81.79 6.3
3 -6 3 83.09 6.5
-3 6 3 81.29 7.2
4 -6 -3 4.7 2.3
4 6 3 6 2.5
-4 -6 3 3.8 2.3
-4 6 -3 6.1 2.3
4 -6 -3 1.8 2.5
4 6 -3 8.4 3.2
-4 6 3 5.2 2.6
4 -6 3 7.6 3
4 -6 3 1.4 1.8
-4 -6 -3 2.3 4.2
5 -6 -3 72.09 8.7
-5 6 -3 81.99 7.6
5 6 3 81.49 8.9
5 -6 -3 82.49 10.7
-5 -6 3 60.99 8.3
-5 -6 -3 52.79 11.6
5 -6 3 68.49 9.6
-5 6 3 70.09 8.6
5 6 -3 83.69 10.7
6 6 3 1.6 3
6 -6 -3 4.2 4.2
-6 -6 3 1.3 3
-6 6 3 2.1 3.2
-6 -6 -3 -1.3 6.8
6 6 -3 3.7 4
0 -6 4 114.59 7.9
0 6 -4 110.59 7.9
0 6 4 107.49 7.5
0 -6 4 115.39 7.7
0 -6 -4 104.09 7
0 6 -4 103.19 7.6
0 -6 -4 111.69 9
0 6 4 114.39 8
1 -6 -4 0.3 0.8
-1 -6 4 0.3 0.8
-1 6 -4 1.8 1.2
1 -6 -4 0.7 1.3
-1 6 -4 0.3 0.9
1 6 4 -0.4 0.9
-1 -6 4 0.3 0.8
1 6 4 0.2 0.9
1 6 -4 1.8 1.2
-1 6 4 0.6 1
-1 -6 -4 1.5 0.7
-1 6 4 0.6 0.8
-1 -6 -4 1.3 1.4
1 -6 4 -0.2 0.7
1 -6 4 1.5 1.1
1 6 -4 -0.2 0.8
-2 -6 4 16.2 2.5
2 6 4 15.9 2.6
-2 6 -4 14.7 3
2 6 4 10 2.6
-2 -6 4 17 3
-2 6 -4 13.9 2.5
2 -6 -4 15.3 2.8
2 -6 -4 15.2 3.5
-2 6 4 14 2.8
-2 -6 -4 14.2 3.8
2 6 -4 16.7 3
2 -6 4 13.6 2.7
2 -6 4 14.1 2.1
2 6 -4 14.5 3.1
-3 -6 4 18.7 3.7
3 -6 -4 22.3 3.9
-3 6 -4 19.3 3.7
3 6 4 17 3.5
3 -6 -4 22.5 4.6
3 6 -4 16.5 3.9
-3 -6 -4 26.3 6
3 6 -4 23.3 3.4
-3 6 4 29 4.5
3 -6 4 20.9 3.6
-4 -6 4 57.69 7.4
-4 6 -4 56.79 7.1
4 -6 -4 71.89 9.3
4 -6 -4 71.59 7.9
4 6 4 61.99 7.7
-4 -6 -4 72.19 11.3
4 -6 4 54.89 7
4 6 -4 52.19 7.9
-4 6 4 59.79 7.2
5 6 4 4.3 2.7
5 -6 -4 3.1 2.6
5 -6 -4 10.2 4.3
-5 6 -4 6.5 3.1
-5 -6 4 5.2 2.9
-5 6 4 5.7 3
5 6 -4 4.4 3.5
-5 -6 -4 7.4 5.9
5 -6 4 6.3 4
6 6 4 51.39 8.2
6 -6 -4 53.59 9.7
0 -6 5 116.19 8.4
0 6 -5 113.59 8.3
0 6 5 102.59 8.2
0 6 5 111.59 7.9
0 6 -5 105.19 8.2
0 -6 -5 108.89 7.5
0 -6 -5 108.69 9.5
0 -6 5 116.19 7.9
1 6 5 91.09 7.4
1 -6 -5 105.29 8.9
-1 -6 5 91.59 7.3
-1 6 -5 102.99 7.9
1 -6 -5 99.39 7
-1 6 -5 106.39 7.5
-1 -6 5 95.59 7.2
1 6 5 105.69 7.7
-1 6 5 95.39 7.8
-1 6 5 90.39 6.7
-1 -6 -5 92.09 8.8
1 -6 5 100.59 7.7
1 6 -5 90.29 7.7
1 6 -5 97.69 7.4
-2 -6 5 45.3 5
2 6 5 47.5 5.7
-2 6 -5 55.39 6.4
-2 6 -5 49.5 4.7
2 6 5 53.69 5.7
2 -6 -5 48.3 7
-2 -6 5 52.59 5.6
2 -6 -5 48.2 5.3
-2 6 5 34 5.1
-2 -6 -5 33.7 6.5
2 6 -5 42 5.4
2 -6 5 35.7 5
2 6 -5 46.8 6.2
3 6 5 6.9 2.4
-3 -6 5 7.1 2.4
3 -6 -5 4.1 2.9
3 -6 -5 4.9 2.1
-3 6 -5 7 2.7
-3 6 5 3.1 2.2
-3 -6 -5 2 2.8
3 -6 5 1.3 1.7
3 6 -5 4.5 2.7
4 6 5 83.49 9.7
4 -6 -5 85.39 9.2
4 -6 -5 87.79 9.8
-4 6 -5 95.19 9.9
-4 -6 5 85.99 9.5
-4 6 5 87.29 8.5
-4 -6 -5 109.79 14
4 -6 5 80.69 8.1
4 6 -5 96.39 9.5
5 6 5 101.59 11.1
-5 6 -5 91.79 10.5
-5 -6 5 88.19 10.5
5 -6 -5 82.09 11.6
5 6 -5 99.19 12.3
5 -6 5 93.29 10.8
-5 -6 -5 109.59 15.3
-5 6 5 93.39 11
-5 6 5 104.19 10.7
0 -6 -6 2313.87 134.19
0 6 -6 2422.86 132.59
0 6 6 2256.87 132.49
0 6 6 2317.97 131.69
0 -6 6 2360.76 132.49
0 6 -6 2319.67 132.29
-1 6 -6 28.8 4.5
-1 6 -6 26.2 4.1
-1 -6 6 22.7 3.3
1 6 6 23.6 3.7
1 6 6 24.7 4.1
-1 -6 6 31 4.2
1 -6 -6 24.7 5
1 -6 6 26.2 4.1
1 6 -6 21.6 4.3
-1 6 6 22.5 4
-1 -6 -6 26.8 5.6
1 6 -6 23.5 3.7
2 6 6 1411.36 83.69
2 6 6 1504.65 83.39
-2 -6 6 1411.26 83.09
-2 -6 6 1441.16 83.09
2 -6 -6 1522.95 85.79
-2 6 -6 1447.86 83.99
2 -6 -6 1454.65 82.89
-2 6 6 1438.16 83.79
2 -6 6 1397.76 83.49
2 6 -6 1413.56 84.19
2 6 -6 1485.85 84.49
3 -6 -6 14.3 4.5
3 -6 -6 12.5 3.3
-3 6 -6 12.7 3.6
3 6 6 9.1 3.1
-3 -6 6 8 2.8
3 6 -6 12 4.1
3 -6 6 7.2 2.7
-3 6 6 9.5 3.3
-3 -6 -6 5.3 3.8
4 -6 -6 1264.67 75.29
-4 -6 6 1267.17 73.19
-4 6 -6 1279.27 73.39
4 6 6 1192.58 73.09
4 -6 6 1214.48 72.59
-4 6 6 1249.07 72.99
-4 6 6 1209.88 73.09
-4 -6 -6 1196.68 76.19
4 6 -6 1258.07 74.59
5 -6 -6 38 8.6
-5 -6 6 31.3 6
5 6 6 63.49 8.5
-5 6 -6 39.1 7.1
-5 6 6 26.7 6.2
5 6 -6 33.1 7.5
-5 6 6 54.99 7.7
5 -6 6 41.4 6.8
-5 -6 -6 47.3 10.3
0 6 7 43.1 5.8
0 6 -7 38.9 5.7
0 -6 7 38.4 5.5
0 6 7 38.3 4.9
0 6 -7 36.1 5.2
0 -6 -7 46.2 7.6
1 6 7 29.7 4.8
-1 -6 7 38.6 5.2
1 -6 -7 32.2 6.4
1 6 7 32.4 4.9
-1 6 -7 37.1 5.3
1 6 -7 33.7 5.6
1 -6 7 39.9 5.6
-1 -6 -7 24.2 5.6
-1 6 7 27.7 4.8
1 6 -7 39.2 4.9
2 6 7 27.9 4.8
2 6 7 27.3 4.8
-2 6 -7 35.8 5.7
2 -6 -7 33.5 6.6
-2 -6 7 33.7 5
-2 6 7 38.6 5.8
2 6 -7 30.6 5.7
-2 -6 -7 32.5 6.9
2 -6 7 33.2 5.2
3 -6 -7 8.7 4.2
-3 6 -7 6.5 3.1
3 6 7 4.6 2.7
-3 -6 7 6.4 2.8
3 -6 7 10.3 3.2
3 6 -7 6.5 3.8
-3 -6 -7 2.8 4.5
-3 6 7 10.9 3.5
-4 -6 7 18.3 4.7
-4 6 -7 17.8 4.8
4 6 7 17.7 4.8
4 -6 -7 48.4 9
-4 6 7 24.8 5.5
4 6 -7 27.2 6.5
-4 -6 -7 17.3 6.6
-4 6 7 36.8 6.3
4 -6 7 27.1 5.1
-5 6 7 45 8.1
0 6 8 138.09 11.6
0 -6 -8 161.58 13.8
0 6 -8 130.79 11
0 -6 8 147.19 11.6
-1 -6 8 -0.6 2
1 -6 -8 2.7 3
1 6 8 1.4 2.2
-1 6 -8 -1 1.9
1 6 8 1.2 2.2
1 6 -8 -3.1 2.1
-1 -6 -8 2.6 3.1
1 -6 8 1.1 1.9
-1 6 8 -1.1 2
-2 -6 8 22.1 4.5
-2 6 -8 20.2 4.5
2 6 8 20.2 4.4
2 6 8 16.3 4.3
2 -6 -8 17.1 5.4
2 6 -8 19.3 5.3
2 -6 8 13.9 3.6
-2 6 8 24.7 5.1
-2 -6 -8 30.8 7
3 -6 -8 49.4 9.2
3 6 8 40.5 6.7
-3 6 -8 28.6 6
3 6 -8 42.6 8
3 -6 8 31.1 5.7
-3 -6 -8 29.7 7.7
-3 6 8 41.2 6.7
4 -6 8 100.39 11.8
-4 -6 -8 66.99 18
-4 6 8 87.59 10.6
4 6 -8 109.99 13.4
0 -6 9 78.39 9.4
0 -6 -9 79.09 11.2
0 6 9 78.59 9.4
0 6 -9 69.79 8.2
-1 6 -9 1.2 2.6
-1 -6 9 5.9 3.2
1 6 9 4.6 2.8
1 -6 -9 1 3.5
-1 6 9 1.9 2.4
-1 -6 -9 8.1 4.4
1 -6 9 1.2 2.2
2 6 9 77.59 9.5
2 6 9 87.49 9.5
-2 6 -9 65.99 9
2 -6 -9 82.49 12.1
-2 -6 9 76.19 9.2
2 6 -9 71.19 10.5
2 -6 9 83.39 9.6
-2 6 9 94.39 10.4
-2 -6 -9 81.89 12.2
3 6 9 9.5 4
3 6 -9 9.9 5.2
0 -6 10 598.84 37.8
0 -6 -10 614.34 48.2
0 6 10 546.15 39.9
-1 -6 10 6.5 3.8
-1 6 -10 5.6 3.6
1 6 10 1 3.4
-2 -6 10 558.34 40.5
2 6 10 546.15 35.5
0 7 0 13.4 1.9
1 -7 0 2423.36 130.59
-1 -7 0 2356.26 130.59
1 7 0 1990.7 129.79
1 -7 0 2361.06 129.99
-1 7 0 2409.96 130.39
1 7 0 2469.85 131.09
-1 7 0 2242.58 131.19
1 7 0 2368.26 130.79
-2 7 0 -0.6 1.1
2 7 0 0.3 1
2 7 0 0.4 0.7
2 -7 0 0.2 0.9
-2 -7 0 0 0.7
2 -7 0 0.5 0.8
-2 7 0 0.1 0.6
-3 -7 0 1269.27 71.09
-3 7 0 1244.08 69.99
-3 7 0 1322.17 72.09
3 7 0 1226.88 70.79
3 -7 0 1205.38 70.89
3 -7 0 1152.68 71.19
3 7 0 1248.78 71.99
4 7 0 1.4 1.4
4 7 0 1 1.9
4 -7 0 0.1 1.6
-4 7 0 0.9 1.9
-4 -7 0 0.7 1.6
4 -7 0 -1.2 1.4
5 7 0 680.03 42.7
5 7 0 698.33 40.5
5 -7 0 650.33 40.8
-5 7 0 618.74 41.3
-5 -7 0 680.53 40.9
-6 -7 0 -1.5 2.4
6 -7 0 -2.8 2.4
6 7 0 3 3.6
0 -7 -1 -0.8 0.5
0 -7 1 -0.6 0.7
0 7 -1 -0.1 0.6
0 7 1 0.6 0.7
0 7 1 -0.5 0.6
0 7 -1 0.2 0.5
0 -7 -1 0.5 0.7
0 -7 1 0.4 0.6
-1 -7 1 134.99 7.9
1 7 1 137.49 8.7
1 7 1 136.59 8
1 -7 -1 128.09 8.6
-1 7 -1 131.59 8.5
1 -7 -1 131.89 8.5
-1 7 1 115.99 8.9
1 7 -1 123.39 8.5
1 7 -1 123.19 8.8
-1 7 1 136.29 8.4
-1 -7 -1 106.99 9.7
1 -7 1 147.89 9.1
1 -7 1 140.19 8.6
-1 -7 -1 131.99 8.5
2 -7 -1 263.17 15.4
2 -7 -1 231.18 15
-2 7 -1 250.87 14.8
-2 -7 1 256.87 15.4
2 7 1 247.88 16.2
2 7 1 244.68 15.1
2 -7 1 203.68 14.5
2 7 -1 247.78 15.2
-2 7 1 212.08 15.5
2 -7 1 240.28 14.9
-2 7 1 240.98 14.2
2 -7 1 223.38 15.9
-2 -7 -1 255.77 15
2 7 -1 250.67 15.6
3 -7 -1 50.89 5.4
-3 7 -1 48.8 4.3
-3 -7 1 43.9 5.2
3 7 1 45.3 6.3
3 7 1 41.6 5
3 -7 -1 47.1 5
3 -7 1 38.2 4.4
3 7 -1 44.6 4.3
3 7 -1 43.3 5
3 -7 1 50.69 6.6
-3 7 1 35.5 5.2
-3 -7 -1 55.19 4.7
3 -7 1 48.4 4.5
4 -7 -1 217.68 15.8
-4 7 -1 228.88 16
4 7 1 197.58 14.5
-4 7 -1 210.88 14
4 7 1 220.58 16.5
4 -7 -1 218.38 15.1
-4 -7 1 213.08 14.9
4 -7 1 196.78 14.6
4 7 -1 199.98 15.7
-4 -7 -1 224.68 14.8
-4 7 1 221.28 15.5
4 7 -1 233.48 14.5
5 -7 -1 18.6 5
5 -7 -1 34.8 5.6
-5 7 -1 19.5 4.7
5 7 1 32.3 5
5 7 1 32.5 6.7
-5 -7 1 16.2 3.9
5 -7 1 29.6 5
-5 -7 -1 34.4 5.1
-5 7 1 29.1 5.3
5 7 -1 30.9 6.1
6 -7 -1 182.28 14.4
-6 -7 1 156.38 13.7
6 7 1 171.78 16.6
-6 -7 -1 155.88 13.6
6 7 -1 189.38 16.2
6 -7 1 178.18 14.1
0 7 -2 -0.3 0.5
0 7 2 0.6 0.6
0 -7 -2 1 1
0 7 -2 0.1 0.6
0 -7 2 -0.3 0.6
0 -7 -2 -0.1 0.6
0 7 2 0.7 0.7
0 -7 2 0.7 1
-1 -7 2 346.17 19.6
1 7 2 328.37 20.1
-1 7 -2 344.77 20.3
1 -7 -2 333.77 20.6
1 -7 -2 327.87 19.9
1 7 2 342.77 19.7
-1 -7 2 332.87 20.2
1 -7 2 327.27 19.9
1 7 -2 312.17 20.7
-1 7 2 316.77 20.4
-1 7 2 352.56 19.5
1 7 -2 318.57 20.1
1 -7 2 345.47 20.2
-1 -7 -2 364.96 21.5
-2 -7 2 0.9 1
-2 -7 2 1.1 0.7
2 -7 -2 -0.4 1.1
2 7 2 0 0.7
2 -7 -2 -0.4 0.8
-2 7 -2 -0.7 0.9
2 7 2 0.5 0.9
-2 7 -2 0.8 1.2
2 -7 2 2 1
2 7 -2 1.2 0.9
-2 7 2 1.1 1.2
2 -7 2 0 1
-2 -7 -2 1 0.8
-2 -7 -2 0.3 1.7
2 7 -2 0.8 1.2
3 -7 -2 328.77 21.7
-3 -7 2 326.87 21.1
3 -7 -2 313.17 20.9
3 7 2 313.07 20.8
-3 7 -2 348.17 20.7
-3 7 2 330.27 21.4
3 -7 2 336.97 21.8
3 7 -2 311.57 21.5
-3 -7 -2 339.37 20.5
3 7 -2 352.26 20.6
3 -7 2 366.36 22.4
3 -7 2 312.97 20.4
-3 -7 -2 358.76 24.3
-4 -7 2 0.8 1.6
4 7 2 0.8 1.6
4 7 2 -0.6 2
4 -7 -2 2.3 2.4
4 -7 -2 -0.6 1.6
-4 7 -2 0.6 1.5
4 -7 2 0.1 1.5
4 7 -2 0.5 1.3
-4 -7 -2 -1.1 1.4
4 7 -2 1.7 2
-4 7 2 1.6 2
4 -7 2 1.6 2.7
5 7 2 256.97 21
5 7 2 263.47 18.7
5 -7 -2 277.27 19.1
-5 -7 2 262.57 18.9
5 -7 -2 259.67 20
-5 7 -2 298.17 20.2
-5 7 2 280.37 19.2
-5 -7 -2 278.67 18.5
5 7 -2 270.97 20.3
5 -7 2 261.57 18.4
-6 -7 2 0.9 2.6
6 7 2 -0.6 2.5
6 -7 -2 3.5 3
6 7 -2 2.2 4
-6 -7 -2 1.8 5
0 -7 -3 0.4 1.2
0 7 -3 0.5 0.8
0 -7 -3 -0.1 0.5
0 7 3 -0.4 0.7
0 -7 3 -0.1 0.7
0 -7 3 0 0.8
0 7 3 1.1 0.8
0 7 -3 0.3 0.6
-1 -7 3 413.86 23.4
1 7 3 410.36 23.5
1 -7 -3 409.96 24.7
-1 7 -3 406.96 24
-1 -7 3 394.86 23.7
-1 7 -3 379.56 22.8
1 7 3 375.46 23.6
1 -7 -3 384.16 23.3
1 7 -3 397.56 23.8
1 -7 3 412.36 23.8
1 -7 3 388.06 23.4
1 7 -3 398.36 24
-1 -7 -3 381.46 23.1
-1 7 3 389.36 22.8
-1 -7 -3 371.36 24.8
-1 7 3 429.66 24.2
2 -7 -3 129.49 9.8
2 -7 -3 129.59 8.9
-2 -7 3 124.09 9.1
-2 7 -3 118.19 8.2
-2 7 -3 127.79 9.1
2 7 3 127.79 8.3
-2 -7 3 130.69 8.2
2 7 3 122.79 9.1
-2 -7 -3 129.09 8.3
2 -7 3 118.69 8.4
-2 7 3 130.69 9.4
2 7 -3 128.19 9.1
2 -7 3 125.49 9
2 7 -3 113.19 9.2
-2 -7 -3 142.19 11.2
3 -7 -3 298.97 19.8
-3 -7 3 268.37 18.8
-3 7 -3 275.87 18.6
3 -7 -3 291.07 18.9
3 7 -3 307.27 18.5
3 -7 3 303.07 18.2
-3 -7 -3 294.47 22.5
3 -7 3 294.37 19
3 7 -3 261.47 19.3
-3 -7 -3 302.27 18
-3 7 3 316.87 19.5
-4 7 -3 223.18 15.4
4 7 3 235.08 16.1
4 -7 -3 229.38 15.9
4 -7 -3 227.68 17.1
-4 -7 3 222.48 15.9
4 -7 3 274.57 17.4
-4 -7 -3 189.68 19.3
4 -7 3 203.88 15
4 7 -3 215.08 16.6
-4 7 3 257.77 16.5
5 -7 -3 137.99 11.3
-5 -7 3 128.09 11.1
5 -7 -3 142.59 12.7
-5 7 -3 126.09 12
5 7 3 126.79 11.1
-5 7 3 132.19 11.5
-5 -7 -3 95.59 16.2
5 7 -3 132.09 12.2
5 -7 3 131.39 14
-6 -7 3 96.59 12
6 -7 -3 99.09 13.1
6 7 3 110.29 11.4
6 -7 -3 110.29 13.6
-6 7 3 69.09 11.7
6 7 -3 123.79 13.5
-6 -7 -3 78.59 15.9
0 7 -4 0.7 0.9
0 -7 -4 0.6 1.3
0 7 -4 0.2 0.9
0 7 4 0.8 1
0 -7 4 -0.3 0.6
0 -7 4 -0.4 0.8
0 -7 -4 0.2 0.6
0 7 4 0 1
1 7 4 1498.45 85.79
-1 -7 4 1528.85 85.69
-1 7 -4 1620.14 86.29
-1 -7 4 1531.55 85.79
1 -7 -4 1427.56 85.29
-1 7 -4 1534.85 85.29
1 7 4 1480.65 85.89
1 -7 -4 1652.53 87.59
1 7 -4 1503.75 85.89
1 -7 4 1435.66 85.89
1 7 -4 1497.95 86.09
1 -7 4 1416.16 85.29
-1 7 4 1513.05 84.89
-1 7 4 1504.95 86.19
-1 -7 -4 1510.85 84.79
2 -7 -4 0.1 1.1
-2 -7 4 0.1 1.1
2 7 4 0.3 1
-2 -7 4 0.4 1
2 -7 -4 0.4 1.5
-2 7 -4 2.3 1.4
2 7 4 -0.3 1
-2 7 4 2.2 1.6
2 7 -4 0.2 1.4
2 7 -4 2.5 1.5
2 -7 4 0.8 1.1
-2 -7 -4 2.3 2
2 -7 4 0.6 0.9
3 -7 -4 1011.2 57.49
3 7 4 923.91 57.59
3 -7 -4 994.2 58.99
-3 7 -4 971.7 57.59
-3 -7 4 967.3 57.59
3 7 -4 896.21 56.69
-3 -7 -4 1157.78 61.59
-3 7 4 1046.3 57.99
3 7 -4 936.11 58.19
3 -7 4 957.9 57.39
4 7 4 0.4 1.8
-4 7 -4 4.6 2.3
4 -7 -4 2.9 3.1
-4 -7 4 2.4 2
4 -7 -4 0.9 2
-4 -7 -4 0.9 3.3
-4 7 4 1.6 2.2
4 -7 4 7 2.7
4 7 -4 2.9 2.8
5 7 4 514.15 32.4
5 -7 -4 502.45 32.2
-5 -7 4 494.05 32.3
5 -7 -4 522.65 34.4
-5 7 -4 488.75 31.7
-5 -7 -4 523.65 37.7
5 7 -4 491.45 33.6
5 -7 4 459.05 33.2
-5 7 4 512.45 32.3
6 -7 -4 5.3 4.6
0 -7 -5 0.1 1.6
0 7 -5 2.5 1.4
0 7 5 0.5 1
0 -7 5 -0.5 1.1
0 -7 -5 0 1.2
0 7 5 0.1 1.1
0 -7 5 -0.5 1.1
0 7 -5 0.8 1.2
-1 -7 5 0.8 1.1
-1 7 -5 0.9 1.3
-1 -7 5 0.3 1.1
-1 7 -5 0.8 1.3
1 -7 -5 1.4 1.9
1 7 5 1.6 1.3
1 7 5 1.2 1.3
1 -7 -5 1.6 1.2
1 -7 5 1.6 1.4
-1 -7 -5 1.2 1.8
-1 7 5 4.1 1.8
1 -7 5 1.9 1.2
1 7 -5 3.2 1.6
1 7 -5 3.7 1.5
-2 7 -5 91.09 8
2 7 5 97.59 7.4
-2 -7 5 94.39 7.2
-2 -7 5 91.99 7.6
2 -7 -5 99.69 7.6
2 -7 -5 102.49 9.3
2 7 5 97.19 8
2 -7 5 92.39 7.7
-2 7 5 97.39 8
2 7 -5 97.29 8.3
-2 -7 -5 93.59 9.4
2 7 -5 64.09 8
3 -7 -5 3.4 2.8
-3 -7 5 3.4 2
3 -7 -5 0.8 1.6
-3 7 -5 3.7 2.3
3 7 5 2.7 1.9
-3 7 5 3.5 2.4
3 -7 5 1.5 1.9
3 7 -5 4.5 2.6
-3 -7 -5 2.2 3
-4 -7 5 102.89 9.9
4 -7 -5 112.09 9.8
4 7 5 129.79 10.5
4 -7 -5 129.99 12
-4 7 -5 105.49 9.8
4 -7 5 104.69 9.7
-4 -7 -5 139.19 13.6
-4 7 5 110.09 10.1
4 7 -5 114.49 11
-5 7 -5 6.7 3.4
5 -7 -5 4.5 4.1
5 7 5 7.7 3.6
5 -7 -5 6.4 3.3
-5 -7 5 8.5 3.2
-5 -7 -5 9.3 5.8
5 7 -5 8.4 4.5
5 -7 5 8 4.1
-5 7 5 4.8 3.5
0 7 -6 0 1.5
0 7 -6 0.7 1.6
0 -7 -6 0.2 1.9
0 7 6 -0.3 1.1
0 7 6 0.4 1.4
0 -7 6 0.5 1.4
1 -7 -6 263.07 18.3
-1 -7 6 241.98 16.1
1 7 6 244.78 16.2
-1 7 -6 239.58 16.4
1 7 6 260.07 16.5
-1 -7 6 257.67 15.7
-1 -7 -6 202.88 17.6
1 -7 6 248.38 16.4
-1 7 6 253.57 16.7
1 7 -6 224.88 15.8
1 7 -6 238.08 16.6
-2 -7 6 0.3 1.5
2 -7 -6 -0.4 2.1
-2 -7 6 0.6 1.7
2 7 6 -1.5 1.4
2 -7 -6 1.4 1.7
2 7 6 -0.3 1.6
-2 7 -6 0 1.6
-2 7 6 1 1.9
2 7 -6 3.9 2.4
2 7 -6 1.9 1.9
2 -7 6 1.7 1.7
-2 -7 -6 -0.8 2.4
3 -7 -6 277.27 19.9
3 7 6 256.67 17.9
-3 -7 6 258.87 17.6
-3 7 -6 252.67 17.9
3 -7 -6 252.77 17.2
3 7 -6 250.57 18.6
-3 7 6 262.77 18.1
3 -7 6 229.48 17.2
-3 -7 -6 245.18 20.1
-4 7 -6 -0.1 2.5
-4 -7 6 -1.5 2.2
4 -7 -6 2.6 3.6
4 7 6 0.1 2.5
4 -7 -6 2.4 2.5
4 7 -6 0.2 3.1
4 -7 6 0.1 2.2
-4 7 6 2.4 2.7
-4 -7 -6 0.1 3.8
5 7 6 161.58 15.6
5 -7 -6 188.78 16.6
-5 -7 6 160.68 13.8
-5 7 -6 160.48 14
5 7 -6 177.68 15.7
5 -7 6 146.19 13.7
-5 7 6 158.18 13.8
-5 7 6 159.08 14.1
-5 -7 -6 161.88 17.1
0 -7 -7 -0.9 2
0 7 -7 0.3 1.7
0 7 7 4.6 2.4
0 -7 7 2.6 1.9
-1 7 -7 373.16 24.4
1 7 7 390.56 24.5
1 7 7 390.66 24.2
-1 -7 7 379.76 24.2
1 -7 -7 400.56 26.7
1 -7 7 375.26 24.4
1 7 -7 379.86 24.9
-1 -7 -7 370.86 26.6
1 7 -7 364.06 23.8
-1 7 7 367.26 24.6
2 7 7 34.5 5.5
2 -7 -7 43.6 7.7
-2 7 -7 40.9 6.2
-2 -7 7 48 5.8
2 7 7 50.09 6.3
-2 -7 -7 26.2 6.9
-2 7 7 42.8 6.3
2 7 -7 51.69 7.2
2 -7 7 35 5.4
-3 -7 7 347.17 21.9
3 -7 -7 345.77 24.6
-3 7 -7 333.67 22.6
3 7 7 322.27 22.2
3 -7 7 348.77 22.2
-3 7 7 320.07 22.2
-3 -7 -7 245.08 23.9
3 7 -7 339.07 23.4
4 -7 -7 92.19 12.2
-4 -7 7 64.29 8.4
-4 7 -7 74.79 9.5
4 7 7 78.09 9.6
4 7 -7 73.59 10.5
-4 7 7 65.09 9.6
-4 -7 -7 70.39 12.1
-4 7 7 71.99 9.4
4 -7 7 72.19 8.9
0 7 -8 0.6 2
0 -7 -8 0.7 2.9
0 7 8 -0.7 2.1
0 -7 8 -0.4 2.1
1 7 8 595.74 36.8
1 -7 -8 630.84 39.6
-1 -7 8 614.84 36.8
-1 7 -8 607.44 37
1 7 8 556.24 36.2
-1 -7 -8 581.84 39.4
-1 7 8 565.34 37
1 -7 8 602.74 36.9
1 7 -8 579.84 36.2
1 7 -8 597.54 37.8
2 -7 -8 0 3
-2 7 -8 3.5 2.8
-2 -7 8 1.3 2.1
2 7 8 -0.9 2.4
2 7 8 -2.3 2.4
2 -7 8 2.6 2.3
-2 -7 -8 4 4
-2 7 8 1.2 2.7
2 7 -8 -1 2.8
3 7 8 465.45 30.3
3 -7 -8 489.65 33
-3 7 -8 444.86 30.3
3 -7 8 462.95 29.9
-3 7 8 444.36 30.1
3 7 -8 448.26 31.3
4 7 -8 10 5
0 -7 -9 -0.1 3.2
0 -7 9 -1.1 2.4
0 7 -9 0.2 2.5
0 7 9 -1.2 2.2
1 7 9 24 5.1
-1 -7 9 31 5.8
1 -7 -9 28.6 7
-1 7 -9 25.4 5.2
1 -7 9 30 5.4
-1 -7 -9 31.7 7.6
-1 7 9 28.3 5.7
2 7 9 14.6 4.7
2 -7 -9 19.5 6.4
2 7 9 14.8 4.3
-2 -7 9 12.9 4.3
-2 7 -9 12.2 4.2
-2 7 9 21.2 5.2
2 -7 9 14.8 4.1
2 7 -9 12.6 8.3
-2 -7 -9 11 5.7
3 7 -9 42.7 8.7
-1 7 -10 143.89 12.5
-1 -7 10 134.39 13.1
0 8 0 2672.43 149.59
0 -8 0 2685.83 149.09
0 8 0 2612.04 149.49
0 -8 0 2684.63 149.59
1 -8 0 0.4 0.7
1 8 0 1.1 0.9
-1 -8 0 0.7 0.8
-1 8 0 1.7 1.2
1 -8 0 -0.1 0.6
1 8 0 0 0.8
1 8 0 0.9 0.7
-1 8 0 0.5 0.8
-2 8 0 2263.87 132.49
-2 -8 0 2308.77 133.19
2 8 0 2443.76 133.39
-2 8 0 2499.35 134.19
2 -8 0 2296.37 132.89
2 8 0 2428.86 133.89
2 -8 0 2321.97 133.09
-3 8 0 0 0.9
3 8 0 0.2 1.5
-3 8 0 2.6 1.9
3 -8 0 0 1.2
3 -8 0 1.3 1.4
-3 -8 0 -1.8 1.2
3 8 0 0 1
-4 -8 0 1512.55 84.59
4 -8 0 1519.55 84.69
4 8 0 1461.05 84.19
-4 8 0 1342.97 84.99
4 8 0 1479.35 85.89
5 8 0 0 2.8
-5 -8 0 -1.5 2.2
-5 8 0 -1.6 2.6
5 -8 0 -0.7 1.8
5 8 0 1 2
-6 -8 0 653.83 41
6 8 0 663.93 43.6
6 -8 0 645.14 41
0 8 1 507.45 30.2
0 8 -1 508.15 30.6
0 -8 1 556.14 30.7
0 8 1 499.25 30.2
0 -8 1 526.25 30.1
0 -8 -1 496.65 30.3
0 -8 1 533.85 29.8
1 8 1 337.77 20.5
1 -8 -1 327.87 20.2
-1 -8 1 353.16 20.5
-1 8 -1 328.87 20.2
-1 -8 1 350.26 19.6
1 8 1 328.07 19.6
1 -8 -1 326.57 20.2
-1 -8 -1 335.07 21.8
1 -8 1 365.26 21
1 -8 1 331.47 20.3
1 8 -1 342.57 20.3
1 8 -1 337.07 20.7
-1 -8 -1 339.67 20.4
-1 8 1 344.57 20.1
-2 8 -1 299.67 18
2 8 1 291.17 19.3
-2 -8 1 321.37 18.6
2 -8 -1 290.77 18.3
2 8 1 300.17 18.4
2 -8 -1 284.77 18.2
-2 -8 -1 308.87 18.2
2 -8 1 303.07 18.2
2 8 -1 307.77 18.8
2 -8 1 294.67 17.6
-2 8 1 302.37 17.7
2 8 -1 304.77 18.5
2 -8 1 222.68 18.8
3 -8 -1 18.5 3.5
-3 8 -1 25 3.3
3 -8 -1 15.7 3
3 8 1 24.5 4.7
-3 -8 1 18.7 3.2
3 8 1 18.1 3.1
3 8 -1 20.5 3.3
-3 8 1 21.8 4.4
3 -8 1 25.2 4.7
3 -8 1 19.8 3.2
3 8 -1 21.7 4.1
-3 -8 -1 18.6 3.1
4 -8 -1 169.18 12.5
4 8 1 179.38 12.3
4 8 1 175.68 14
-4 8 -1 162.68 13.2
-4 -8 1 153.18 12.1
4 -8 -1 146.39 12.6
4 8 -1 196.78 12.2
-4 -8 -1 185.08 12.4
4 8 -1 161.28 13.2
-4 8 1 147.09 12.6
4 -8 1 166.98 12.2
5 8 1 324.37 21.4
-5 8 -1 327.67 22.5
5 -8 -1 345.27 22
-5 -8 1 306.87 21.5
5 8 1 311.47 23.7
-5 8 1 316.57 22.2
5 -8 1 324.77 21.6
5 8 -1 314.27 23
-5 -8 -1 308.07 21.3
-6 -8 1 52.49 7.6
6 -8 -1 66.19 8.4
6 8 1 52.39 9.7
-6 -8 -1 50.99 7.5
6 -8 1 54.49 7.6
6 8 -1 50.79 8.9
0 8 -2 1234.78 72.29
0 -8 -2 1249.68 72.89
0 -8 2 1244.08 72.89
0 8 2 1380.76 73.29
0 8 2 1348.17 73.09
0 8 -2 1287.87 73.29
-1 8 -2 1.4 1
1 8 2 1.7 1
-1 -8 2 0.7 0.9
-1 -8 2 0.6 0.7
1 -8 -2 1 1.1
1 8 2 1.3 0.8
1 -8 -2 1.2 0.8
1 -8 2 0.8 0.9
-1 -8 -2 0.3 1.3
1 -8 2 0.8 0.8
1 8 -2 0.7 1.1
-1 -8 -2 0.4 0.9
-1 8 2 0.3 1
-1 8 2 0.3 0.7
1 8 -2 0.9 0.9
2 -8 -2 660.33 39.8
-2 8 -2 684.43 39.1
2 -8 -2 698.33 40.5
2 8 2 693.03 38.8
-2 -8 2 699.33 38.6
-2 8 -2 674.23 39.8
2 8 2 689.23 40.1
-2 -8 2 705.43 40.2
-2 8 2 649.54 38.7
-2 -8 -2 628.34 42.5
-2 -8 -2 682.43 39.4
-2 8 2 722.33 40.7
2 8 -2 656.83 40.2
2 -8 2 675.13 39.6
2 -8 2 711.73 40.3
3 -8 -2 5.7 2.4
3 -8 -2 3.7 1.8
-3 -8 2 5.9 2.1
-3 8 -2 7.2 2
3 8 2 4.2 1.9
3 -8 2 7.9 2.1
3 8 -2 5.2 1.8
3 -8 2 1.9 1.9
-3 -8 -2 6.7 3.8
-3 8 2 2.8 2
-3 -8 -2 3.2 1.5
3 8 -2 3.5 2.1
4 -8 -2 336.17 23.6
4 8 2 324.57 22.5
-4 8 -2 358.16 22.1
-4 -8 2 350.96 22.8
4 -8 -2 349.07 22.8
4 8 -2 351.16 22
4 -8 2 361.16 22.4
-4 8 2 329.77 23.1
4 -8 2 364.36 24.3
-4 -8 -2 386.66 26.8
4 8 -2 340.47 23.6
-4 -8 -2 365.96 22.3
-5 8 -2 -0.8 2.9
5 8 2 1 3.4
5 -8 -2 4.1 2.8
5 -8 -2 0.8 2.9
5 8 2 1.3 2.1
-5 -8 2 0.4 2
-5 -8 -2 2.5 4.4
5 8 -2 1.3 2.9
5 -8 2 0.4 2.3
-5 8 2 0.3 2.6
-5 -8 -2 0.2 2.3
6 -8 -2 176.48 15.1
6 8 2 201.78 15.3
-6 -8 2 189.08 15.2
6 8 -2 200.78 17.1
-6 -8 -2 166.78 19.2
0 8 3 74.49 6
0 8 -3 77.29 5.4
0 -8 3 83.29 6
0 8 3 76.99 5.7
0 -8 3 59.89 6
0 -8 -3 93.99 5.8
0 8 -3 84.19 6.2
-1 -8 3 0.4 0.9
1 -8 -3 0.8 0.8
-1 8 -3 -0.1 0.5
1 8 3 0.2 0.9
-1 -8 3 -0.2 0.6
-1 8 -3 -0.6 0.8
1 8 3 0.1 0.8
1 -8 -3 0.6 1.2
1 8 -3 0.2 0.8
1 -8 3 0.6 0.9
-1 8 3 -0.5 0.7
1 -8 3 0.3 0.9
-1 -8 -3 0 0.7
1 8 -3 0.8 1.1
-1 8 3 0.1 1
-1 -8 -3 0.9 1.4
2 -8 -3 16.9 2.9
-2 -8 3 21.9 3.5
-2 -8 3 17 2.3
2 8 3 15 2.8
2 -8 -3 16.6 3.5
2 8 3 17.2 2.4
-2 8 -3 15.1 2.9
2 -8 3 15.1 2.4
2 8 -3 18.9 3.4
-2 -8 -3 13.7 3.7
-2 8 3 18.4 3.5
2 -8 3 17.6 3.1
2 8 -3 14.9 2.8
-2 -8 -3 15.6 2.4
-3 8 -3 195.28 13.2
3 -8 -3 186.98 13.2
3 8 3 181.38 13.2
3 -8 -3 177.98 13.9
-3 -8 3 208.48 13.6
-3 8 3 209.48 14
3 8 -3 192.18 13.9
3 -8 3 174.28 12.5
3 8 -3 188.28 12.9
3 -8 3 185.28 13.3
-3 -8 -3 191.48 12.4
-3 -8 -3 191.48 16.5
4 -8 -3 29.8 5.8
-4 -8 3 31.5 5
-4 8 -3 28.3 4.6
4 -8 -3 23.8 4.4
4 8 3 25.1 4.4
4 -8 3 22.4 3.9
4 8 -3 25.7 5.3
-4 -8 -3 23.8 6.8
-4 8 3 38 6
4 -8 3 27 5.5
5 8 3 117.69 10.6
-5 -8 3 128.19 10.9
5 -8 -3 120.69 10.7
5 -8 -3 111.09 11.7
5 -8 3 133.19 12.4
-5 -8 -3 91.49 15.7
5 8 -3 130.99 12
-5 8 3 133.99 11.5
6 8 3 4.9 3.6
0 -8 4 1700.53 92.89
0 8 4 1675.83 92.49
0 8 -4 1621.94 92.99
0 8 4 1610.84 92.99
0 -8 4 1487.25 92.89
0 -8 -4 1679.03 92.09
0 8 -4 1655.33 92.39
1 8 4 7.1 1.9
1 -8 -4 8.7 1.9
-1 -8 4 9.1 2.1
-1 8 -4 6.1 1.7
1 8 4 8.7 2.3
-1 8 -4 8.7 2.2
-1 -8 4 10.2 2.1
1 -8 -4 7.2 2.6
-1 -8 -4 7.8 2.8
-1 8 4 8.9 1.6
-1 8 4 4.6 1.9
1 -8 4 8.2 2.1
1 -8 4 9.1 1.9
-1 -8 -4 11.2 1.8
1 8 -4 10.5 2.4
1 8 -4 7.5 2
2 8 4 1679.23 100.49
-2 8 -4 1765.62 100.69
2 -8 -4 1784.82 101.79
-2 -8 4 1755.52 99.49
2 -8 -4 1725.13 100.09
2 8 4 1755.92 99.79
-2 -8 4 1785.12 100.49
-2 -8 -4 1809.02 102.79
2 -8 4 1698.43 100.39
-2 8 4 1850.41 101.09
2 -8 4 1731.43 99.49
2 8 -4 1820.02 100.69
2 8 -4 1755.82 100.99
3 8 4 5.8 2.2
-3 8 -4 1.6 1.7
-3 -8 4 6.6 2.3
3 -8 -4 2.5 2.4
3 -8 -4 1.6 1.8
-3 8 4 4.2 2.4
3 -8 4 3.6 2.1
-3 -8 -4 8.2 3.5
3 8 -4 4 1.9
3 8 -4 5.6 2.6
3 -8 4 2.8 2.2
-4 8 -4 970.5 60.99
4 -8 -4 1020 61.39
-4 -8 4 1037.6 61.69
4 8 4 990.8 61.59
4 -8 -4 1056.89 63.19
-4 -8 -4 1154.38 66.39
4 8 -4 1029.2 62.69
-4 8 4 1072.79 61.99
4 -8 4 1053.29 61.89
5 8 4 9.2 3.6
5 -8 -4 -0.3 2.3
-5 -8 4 4.4 2.8
5 -8 -4 6.3 4.2
-5 8 -4 1.3 2.5
5 -8 4 4.3 3.9
-5 8 4 4.5 3.5
-5 -8 -4 6.4 5.6
5 8 -4 7.2 3.9
0 8 -5 802.22 45.9
0 8 5 790.52 46
0 -8 5 811.82 45.8
0 8 -5 798.42 45.6
0 -8 -5 686.83 47.1
0 8 5 788.62 45.3
-1 8 -5 161.58 11.4
-1 -8 5 151.48 10.7
1 8 5 159.48 11.1
-1 -8 5 160.28 10.8
1 8 5 150.18 11
1 -8 -5 158.38 12.5
1 -8 -5 156.48 10.4
-1 8 5 170.18 11.6
1 -8 5 162.88 11.2
1 8 -5 158.68 11
1 8 -5 159.48 11.2
1 -8 5 130.79 10.1
-2 -8 5 383.36 24.4
2 -8 -5 388.46 26.2
2 -8 -5 397.96 24.3
2 8 5 402.16 24.2
2 8 5 388.56 24.8
-2 8 -5 394.86 24.9
-2 -8 5 380.86 23.8
2 -8 5 401.16 24.7
2 8 -5 373.56 24.9
2 8 -5 390.86 25.1
-2 8 5 405.16 25.1
-2 -8 -5 404.26 26.9
3 -8 -5 5.1 2.3
3 8 5 10.3 2.9
-3 8 -5 5.1 2.4
3 -8 -5 4.6 3
-3 -8 5 4.1 2.3
3 -8 5 10 2.8
-3 -8 -5 5.1 3.7
3 8 -5 3.8 2.6
-3 8 5 4.9 2.8
-4 8 -5 325.47 21.2
4 -8 -5 294.77 20.8
4 -8 -5 331.37 23.2
4 8 5 286.07 21.1
-4 -8 5 303.67 21.1
-4 8 5 326.27 21.7
-4 -8 -5 338.87 24.7
4 -8 5 290.27 20.9
4 8 -5 303.17 22.3
5 -8 -5 211.48 18.8
-5 -8 5 206.88 16.8
5 -8 -5 228.88 17
5 8 5 240.38 17.4
-5 8 -5 249.78 17.2
-5 8 5 211.68 17
-5 -8 -5 248.48 21
5 8 -5 197.68 17.8
5 -8 5 224.88 18
0 8 6 571.14 34.4
0 8 -6 565.44 34.2
0 -8 6 579.14 34.2
0 8 6 574.54 33.6
0 -8 -6 526.75 35.9
-1 -8 6 5.3 2.1
1 8 6 1.6 1.8
1 8 6 -0.3 1.5
1 -8 -6 0.8 2.3
-1 8 -6 -1.6 1.3
-1 -8 6 5.2 1.9
1 8 -6 3 2.2
1 -8 6 2.5 1.9
1 8 -6 3.5 1.8
-1 -8 -6 0 2.3
-1 8 6 2.3 1.9
-2 8 -6 462.05 27.6
2 -8 -6 454.75 29.3
2 8 6 403.96 27
-2 -8 6 412.56 26.3
2 8 6 461.95 26.9
2 -8 -6 435.76 26.4
-2 -8 6 446.66 26.8
2 -8 6 446.26 27.2
-2 8 6 452.65 27.7
2 8 -6 334.07 26.7
-2 -8 -6 405.26 29.4
2 8 -6 450.85 28
-3 8 -6 3.4 2.4
-3 -8 6 7.3 2.8
3 -8 -6 6.4 2.6
3 8 6 0 1.9
3 -8 -6 10 4.4
3 -8 6 13.2 3.5
-3 8 6 9.1 3.2
-3 -8 -6 7 4
3 8 -6 5.6 3.3
-4 -8 6 234.48 17.6
4 -8 -6 245.88 19.8
-4 8 -6 244.18 17.9
4 -8 -6 268.37 17.8
4 8 6 234.18 17.8
-4 8 6 248.58 18
4 -8 6 227.48 17.4
-4 -8 -6 245.18 20.9
4 8 -6 243.18 18.9
5 -8 -6 6.2 4.8
-5 8 -6 -0.2 3.3
-5 -8 6 1.6 4.3
5 8 -6 0.1 3.8
-5 8 6 3.1 3.7
-5 8 6 3.3 3.1
5 -8 6 -0.9 3.2
0 -8 7 18.5 3.8
0 -8 -7 12.2 4.5
0 8 -7 14.3 3.4
0 8 7 23.2 4.3
1 8 7 35 5
-1 -8 7 25.7 4.4
1 8 7 33.5 5.2
1 -8 -7 40.8 7.3
-1 8 -7 28.6 4.8
1 8 -7 35.8 5.7
1 8 -7 28.2 4.7
-1 -8 -7 21 5.7
-1 8 7 37.7 5.6
1 -8 7 29.3 4.9
2 8 7 5.5 2.7
2 -8 -7 3.3 3.2
2 8 7 8.7 3
-2 8 -7 0.9 2.2
-2 -8 7 3.5 2.5
2 -8 7 2 2.1
-2 8 7 -0.1 2.2
-2 -8 -7 3.4 3.8
2 8 -7 6.6 3.5
3 -8 -7 17.2 5.5
-3 8 -7 31.2 5.7
3 8 7 17.3 4.5
-3 -8 7 21.4 4.3
3 8 -7 27.1 6.4
-3 8 7 18.1 4.6
3 -8 7 20.1 4.3
-3 -8 -7 15.6 6
-4 8 -7 11.6 4.1
4 8 7 9.7 3.7
-4 -8 7 1.8 2.7
4 -8 -7 4.9 4.4
-4 -8 -7 6.7 5
4 -8 7 7.1 3.4
-4 8 7 11.1 4.4
4 8 -7 1.1 3.7
0 -8 -8 767.22 48.3
0 8 -8 773.72 45.3
0 -8 8 734.33 45.3
0 8 8 715.03 45.5
1 -8 -8 2.3 3.4
1 8 8 -0.7 2.4
-1 -8 8 -0.8 2.2
-1 8 -8 3.4 2.5
1 8 8 -1.2 1.9
-1 8 8 1.4 2.5
1 8 -8 2.4 2.2
1 -8 8 2 2.2
-1 -8 -8 2.6 3.3
2 -8 -8 722.13 46.1
-2 -8 8 698.83 42.6
2 8 8 713.53 43.1
-2 8 -8 702.23 43.4
2 8 8 710.03 43.2
-2 8 8 686.93 43.5
2 -8 8 694.33 43.2
2 8 -8 688.33 44.1
3 -8 -8 14.5 5.6
-3 8 -8 22.1 5.2
3 8 8 10.5 3.9
-3 8 8 17.7 4.7
-3 -8 -8 13.8 6.5
3 8 -8 19 5.8
3 -8 8 9.1 3.7
4 8 -8 490.45 37.7
0 8 9 379.16 24.9
0 -8 -9 363.86 27.3
0 8 -9 343.67 23.9
0 -8 9 361.16 24.4
1 -8 -9 2.4 3.6
-1 -8 9 6.8 3.3
1 8 9 3.3 2.8
-1 8 -9 2.3 2.8
-1 -8 -9 4.5 4.4
1 -8 9 2 2.6
-1 8 9 3.1 2.8
2 8 9 377.76 25.8
2 -8 -9 385.86 28.8
2 8 9 379.36 25.8
-2 -8 9 390.56 25.5
-2 8 -9 376.36 26.1
-2 8 9 391.06 26.6
-2 -8 -9 354.76 29
2 -8 9 402.96 26.2
0 -9 0 7.2 1.6
0 9 0 2.6 1.1
0 -9 0 4.4 1.1
0 9 0 5.1 1.4
-1 9 0 187.58 11.5
1 9 0 179.28 11.6
1 -9 0 183.88 11.4
1 9 0 148.29 11.3
1 9 0 138.59 10.4
-1 9 0 193.58 12
1 -9 0 167.68 10.5
-1 -9 0 198.28 12.4
-1 -9 0 191.38 11.4
-2 9 0 2.6 1.1
2 9 0 2 1.1
2 -9 0 0.6 0.9
-2 9 0 2.7 1.6
-2 -9 0 -0.7 0.9
2 9 0 0.9 1.3
-3 9 0 164.38 11.3
-3 -9 0 190.38 12.5
3 -9 0 212.18 12.7
-3 9 0 168.88 13.1
3 9 0 188.38 12.5
3 9 0 163.68 13
-4 -9 0 1.7 2
4 9 0 0.9 2.4
-4 9 0 2.6 2.4
4 9 0 2.8 1.9
4 -9 0 1.9 1.8
5 9 0 87.09 10.9
5 9 0 78.79 8.5
-5 -9 0 81.29 9
5 -9 0 82.69 9
-5 9 0 58.49 8.7
-6 9 0 4.6 4
6 -9 0 1.8 3.1
6 9 0 1.6 3.7
-6 -9 0 2.2 3.1
0 -9 1 0 0.8
0 9 -1 1.5 1.1
0 -9 1 -0.3 0.8
0 -9 -1 -0.2 0.8
0 9 1 0.8 0.9
0 -9 -1 0.3 0.7
0 9 1 0.2 0.8
0 -9 1 -0.1 0.8
1 9 1 35.5 2.9
1 -9 -1 37.7 3.4
1 -9 -1 32.4 3.2
-1 -9 1 33.7 2.9
-1 -9 1 31.6 3.7
1 9 1 35.5 3.9
-1 9 -1 30.1 3.5
-1 -9 -1 40.1 5.3
1 -9 1 22.7 3.2
1 9 -1 31.8 3.2
-1 9 1 34.8 3.2
1 9 -1 32 4
1 -9 1 33.7 4.4
-1 -9 -1 31.7 3.9
-1 9 1 27 3.9
2 9 1 2.1 1.3
-2 -9 1 6.1 1.8
2 -9 -1 4.7 1.7
2 -9 -1 1.2 1.1
-2 9 -1 2.5 1.3
2 -9 1 1.3 1
-2 9 1 11.5 2.9
-2 9 1 2.7 1.2
2 9 -1 4.1 1.7
2 -9 1 2.8 2
-2 -9 -1 0.7 1
2 9 -1 3 1.3
-2 -9 -1 2.7 2.2
-3 -9 1 29.3 4.3
3 -9 -1 38.3 4.6
3 -9 -1 27.3 4.5
-3 9 -1 36.2 4.1
3 9 1 37.7 4.6
3 9 1 27.8 5
-3 -9 -1 34.1 4.3
3 9 -1 36.2 4.5
3 -9 1 39.9 5.9
3 9 -1 32 5.1
3 -9 1 33.3 4.3
-3 9 1 20.5 4.4
4 9 1 44.7 7
-4 -9 1 37 5.1
4 -9 -1 42.6 5.7
-4 9 -1 43.5 6.6
4 9 1 37.1 5.2
4 9 -1 36.2 4.8
-4 9 1 21.4 4.8
4 9 -1 49.3 6.9
-4 -9 -1 38.2 5.3
4 -9 1 42.2 5.5
-5 -9 1 23.9 4.6
5 9 1 20.5 5.6
-5 9 -1 34.8 6.2
5 9 1 18.4 4.5
5 -9 -1 25 5
5 -9 1 19.7 4.5
-5 9 1 22.8 5.2
5 9 -1 21.2 5.5
-5 -9 -1 19.5 4.4
-6 -9 1 99.09 10.7
6 -9 -1 100.19 11.1
6 9 1 93.89 13.5
-6 9 -1 79.59 10.9
6 -9 1 118.29 11.3
-6 -9 -1 81.69 9.8
-6 9 1 90.39 11.1
6 9 -1 83.19 11.9
0 -9 2 0.8 0.8
0 9 2 0.9 1
0 9 -2 0.7 0.9
0 9 -2 -0.7 0.5
0 -9 -2 0 0.9
0 -9 2 -0.9 0.8
0 -9 -2 0 0.7
0 9 2 0.6 0.8
1 9 2 4970.6 272.77
-1 9 -2 4892.91 272.67
1 -9 -2 4388.96 272.87
-1 -9 2 4898.51 272.77
-1 -9 2 4841.72 271.87
1 9 2 4772.72 272.07
1 -9 -2 4951.1 272.57
-1 -9 -2 4900.51 272.77
1 9 -2 4816.32 272.47
1 -9 2 4841.42 272.67
1 9 -2 5056.89 273.37
-1 9 2 4791.92 273.07
-1 9 2 5050.59 272.17
-1 -9 -2 5084.29 273.97
2 -9 -2 0.9 1.4
2 -9 -2 0.9 1.2
-2 -9 2 -0.4 0.9
-2 9 -2 2.2 1.3
2 9 2 1.4 1.1
-2 -9 2 1 1.2
-2 -9 -2 0.9 2
2 -9 2 1.6 1.3
2 -9 2 0.4 0.9
2 9 -2 1.4 1.4
-2 9 2 0.2 0.9
-2 -9 -2 1.3 1
-2 9 2 1.5 1.4
2 9 -2 2 1.3
-3 -9 2 3210.68 177.08
3 -9 -2 3181.98 176.88
-3 9 -2 3358.66 176.58
3 9 2 3160.08 176.98
3 -9 -2 3036.8 177.38
-3 -9 -2 2880.91 180.18
3 9 -2 3078.59 177.48
-3 -9 -2 3251.27 176.38
3 -9 2 3196.48 176.48
3 9 -2 3246.58 176.78
3 -9 2 2837.42 177.88
4 -9 -2 7.4 3.3
4 9 2 6.2 2.5
4 -9 -2 5.1 2.4
-4 -9 2 4.1 2.1
-4 9 -2 4.6 2
4 -9 2 5.8 2.4
4 9 -2 10.1 2.8
-4 -9 -2 5.4 4.2
-4 -9 -2 6.2 2.2
4 9 -2 4.3 2.7
4 -9 2 10.1 3.8
-4 9 2 4.3 2.9
-5 9 -2 1598.24 87.59
-5 -9 2 1328.77 85.79
5 9 2 1447.76 86.09
5 -9 -2 1461.55 86.29
5 -9 2 1473.25 85.89
5 9 -2 1455.65 87.79
-5 9 2 1528.65 86.99
-5 -9 -2 1545.25 91.49
-6 9 -2 2.8 4.3
6 9 2 1.2 2.7
-6 -9 2 0.7 2.7
6 9 -2 0.7 4.3
-6 9 2 2.7 4.3
0 9 -3 0.8 0.8
0 -9 3 0.3 1
0 9 -3 0.3 1
0 9 3 -0.1 0.7
0 -9 -3 -0.4 0.7
0 -9 -3 -0.4 1.1
0 -9 3 0.1 0.8
0 9 3 0.4 1
-1 -9 3 207.98 12
1 9 3 175.18 12.3
-1 -9 3 187.68 12.4
1 -9 -3 178.28 13.2
-1 9 -3 195.28 12.6
1 -9 -3 178.98 12.1
1 9 3 194.08 12.1
1 9 -3 156.48 12.7
-1 9 3 201.18 11.7
-1 -9 -3 198.78 12
1 -9 3 174.28 12.3
-1 -9 -3 191.58 13.6
1 9 -3 194.38 12.3
-1 9 3 198.18 12.9
2 9 3 -0.6 1.2
2 -9 -3 0.7 1.5
2 -9 -3 1.5 1.2
-2 -9 3 0.6 0.9
-2 9 -3 0 1.2
-2 -9 3 1.3 1.3
2 9 -3 -0.1 1
-2 -9 -3 -0.3 1
2 9 -3 1.4 1.3
-2 -9 -3 0.1 1.5
-2 9 3 1.8 1.6
2 -9 3 0.1 0.9
2 -9 3 0 1.2
-3 -9 3 114.69 9.1
3 9 3 113.29 9.1
3 -9 -3 117.09 9
3 -9 -3 111.09 9.7
-3 9 -3 112.29 8.8
-3 -9 -3 116.59 11.8
3 -9 3 120.29 8.5
-3 9 3 120.89 9.8
-3 -9 -3 101.49 8
3 9 -3 119.89 9.7
3 -9 3 115.09 9.3
3 9 -3 95.49 8.4
4 -9 -3 60.69 7.1
-4 -9 3 58.89 6.9
4 9 3 59.19 7.1
-4 9 -3 42.9 6
4 -9 -3 49.9 7.4
4 -9 3 49.9 7.6
4 9 -3 61.09 8.4
-4 -9 -3 43.9 9.7
-4 9 3 66.39 8
4 -9 3 53.89 6.2
5 9 3 41.4 6.4
-5 -9 3 34.9 6
5 -9 -3 36.5 10.8
5 -9 -3 40.9 6.4
5 9 -3 42.6 7.4
-5 9 3 45.8 7.4
5 -9 3 56.39 8.5
-5 -9 -3 31.4 9.5
-6 9 -3 48 9.1
6 9 3 62.79 8.8
-6 9 3 58.19 9.1
0 -9 4 1.7 1.2
0 9 4 0.7 1
0 -9 -4 0.5 1
0 9 -4 0.5 1
0 -9 4 1 1.3
0 9 4 -0.1 1.2
0 9 -4 1.3 1.3
0 -9 -4 1 1.6
1 -9 -4 174.18 11.7
1 9 4 163.88 12
-1 9 -4 166.88 12.4
-1 -9 4 185.08 12.1
1 9 4 178.88 12
1 -9 -4 180.68 13.5
-1 -9 4 180.18 11.8
1 9 -4 185.58 12.3
-1 -9 -4 192.58 11.5
-1 9 4 177.08 11.3
1 9 -4 198.48 12.7
1 -9 4 170.78 12.2
-1 9 4 184.78 12.7
-1 -9 -4 196.68 14.1
2 -9 -4 9.6 3.1
2 -9 -4 7.8 2.2
-2 -9 4 4.2 2
-2 9 -4 7.8 2.4
-2 -9 4 5.3 1.8
2 9 4 6.3 2
2 9 4 9.3 2.8
2 9 -4 7.6 2.7
2 -9 4 9.5 2
2 -9 4 6.8 2.1
-2 -9 -4 7.4 3.1
-2 9 4 6 2.4
2 9 -4 8.3 2.3
-3 -9 4 123.29 9.6
-3 9 -4 113.99 9.3
3 -9 -4 111.09 10.3
3 -9 -4 106.29 9.1
3 9 4 122.69 9.6
3 -9 4 112.99 8.6
3 -9 4 97.19 9
-3 -9 -4 130.69 11.9
3 9 -4 118.09 10.1
-3 9 4 124.29 10.1
4 -9 -4 9.1 3.7
-4 -9 4 4.1 2.3
-4 9 -4 5.9 2.7
4 -9 -4 1.7 2.4
4 9 4 7.6 3
-4 -9 -4 7.8 4.6
4 9 -4 6.8 3.3
4 -9 4 4.1 3
-4 9 4 7.5 3.2
-5 9 -4 100.09 9.3
5 -9 -4 74.99 11.1
5 -9 -4 81.99 10
-5 -9 4 100.69 10.9
5 9 4 101.79 10.9
-5 9 4 121.39 12.1
5 9 -4 102.19 10.8
5 -9 4 64.59 10.7
-5 -9 -4 141.49 17.2
-6 9 -4 17.2 7.9
0 9 -5 1.1 1.3
0 -9 -5 -0.6 1.8
0 9 5 -1.3 1.1
0 9 5 0.9 1.5
0 -9 5 -0.5 1.3
0 -9 5 0.1 1.3
1 9 5 6 2.1
1 9 5 5.1 2
-1 -9 5 5.1 1.9
1 -9 -5 8.1 3
-1 -9 5 3.5 1.6
1 -9 -5 2.5 1.4
-1 9 -5 7.5 2.4
1 9 -5 5.8 2.2
-1 9 5 7.3 2.5
-1 -9 -5 4.7 2.7
1 -9 5 3.1 1.9
1 9 -5 7.3 2.5
1 -9 5 3.8 1.6
-2 -9 5 5.8 2.3
2 -9 -5 9.6 3.6
-2 9 -5 5.4 2.2
2 9 5 3.3 2.1
-2 -9 5 2.9 1.7
2 9 5 6 2.1
2 -9 -5 5.1 2.1
2 9 -5 9.7 2.9
2 -9 5 7.7 2.4
2 9 -5 6 2.6
-2 9 5 8.6 3
-2 -9 -5 7.5 3.3
3 -9 -5 0.7 1.9
3 9 5 0.4 1.8
3 -9 -5 3.6 3
-3 9 -5 2.3 2.2
-3 -9 5 0.7 1.6
3 9 -5 1.5 2.2
-3 9 5 3.7 2.5
-3 -9 -5 3.7 3.2
3 -9 5 3.4 2.2
4 -9 -5 29.7 5.2
-4 9 -5 24 4.8
-4 -9 5 26 4.9
4 -9 -5 25.1 5.9
4 9 5 31 5.7
4 9 -5 18.6 4.8
-4 -9 -5 24.2 6.6
4 -9 5 23 5
-4 9 5 32.1 5.9
5 9 5 1.7 2.9
5 -9 -5 -3.2 3.4
-5 -9 5 2.3 2.9
-5 9 -5 1.8 2.8
5 -9 -5 -0.2 2.9
-5 -9 -5 5 5.1
-5 9 5 -0.9 3.1
5 9 -5 2.7 3.6
5 -9 5 2.9 3.9
0 -9 -6 -0.2 2.1
0 9 6 -1.2 1.3
0 9 -6 0.1 1.6
0 -9 6 0.4 1.4
0 9 6 0.8 1.5
-1 9 -6 2364.86 129.49
-1 -9 6 2229.68 128.59
1 -9 -6 2265.97 131.19
1 9 6 2254.97 128.99
1 9 6 2175.78 128.79
-1 -9 6 2276.47 128.39
1 9 -6 2265.17 128.89
-1 9 6 2256.97 129.49
1 -9 6 2289.07 129.19
1 9 -6 2291.57 129.29
2 9 6 9.5 2.8
-2 -9 6 7.6 2.4
2 -9 -6 12.6 4.1
-2 -9 6 13 3
2 -9 -6 8.9 2.8
2 9 6 15.9 3.8
-2 9 -6 9.7 3
-2 9 6 11.5 3.5
2 -9 6 14.7 3.5
-2 -9 -6 13.9 5.1
2 9 -6 9 3.2
2 9 -6 8.1 2.7
-3 -9 6 1635.34 92.39
-3 9 -6 1539.65 92.49
3 -9 -6 1657.73 94.99
3 9 6 1476.15 92.49
3 -9 -6 1500.65 91.79
-3 9 6 1642.44 93.09
-3 -9 -6 1719.33 95.99
3 -9 6 1591.54 92.39
3 9 -6 1601.54 93.49
-4 9 -6 11.4 3.9
4 -9 -6 13.7 5.4
4 9 6 19.4 4.9
4 -9 -6 13.5 4
-4 -9 6 9.8 3.6
-4 9 6 17.5 4.7
4 9 -6 19.6 5.4
4 -9 6 13.1 3.9
-4 -9 -6 29.8 8
5 -9 -6 857.41 56.69
5 -9 -6 881.01 54.99
-5 9 -6 863.51 54.09
-5 9 6 938.71 54.99
5 -9 6 868.01 60.29
0 9 7 0.6 2
0 -9 -7 3 2.8
0 -9 7 0.7 1.8
0 9 -7 0.1 1.8
1 -9 -7 186.38 16.2
-1 9 -7 196.88 14.6
-1 -9 7 202.78 14.2
1 9 7 189.88 14.1
1 9 7 219.28 14.8
1 -9 7 194.58 14.4
-1 9 7 205.88 15
1 9 -7 197.08 14.2
2 -9 -7 3.8 3.2
-2 -9 7 4 2.3
-2 9 -7 2.3 2.4
2 9 7 2.8 2.4
2 9 7 2.1 2.3
-2 -9 -7 2.1 3.5
2 9 -7 0.8 2.6
-2 9 7 1.8 2.4
2 -9 7 3.7 2.5
3 9 7 111.89 10.5
3 -9 -7 107.39 12.3
-3 -9 7 116.69 10.2
-3 9 -7 114.99 10.7
-3 9 7 121.79 11.2
-3 -9 -7 131.79 13.9
3 9 -7 126.19 11.8
3 -9 7 119.39 10.5
-4 9 -7 11.2 4.3
4 9 7 34 6.3
4 -9 -7 13.6 5.7
-4 -9 7 20.5 4.8
4 -9 7 12.2 4.3
4 9 -7 23.7 6.3
-4 9 7 24.2 5.7
-4 -9 -7 9.2 5.9
0 9 8 -1.6 2.1
0 9 -8 1.3 2.2
0 -9 -8 0.3 3.2
0 -9 8 4.2 2.6
1 9 8 129.79 11.5
1 -9 -8 136.79 13.9
-1 9 -8 154.48 12
-1 -9 8 141.39 11.3
1 9 8 135.79 11.2
1 9 -8 139.39 11.3
-1 9 8 169.68 12.6
1 -9 8 124.79 11.2
-2 9 -8 8.8 3.5
2 9 8 9.4 3.5
2 -9 -8 6.4 4.4
-2 9 8 9.9 3.7
-2 -9 -8 4.5 4.1
2 -9 8 5.6 2.9
3 -9 -8 126.09 15.5
3 9 8 114.29 12
-3 9 -8 120.79 11.1
-3 9 8 115.49 11.2
3 9 -8 108.39 11.9
-3 -9 -8 121.49 15.4
3 -9 8 88.39 10.8
0 9 -9 -0.3 2.2
0 -9 9 1.2 2.4
0 9 9 -2.1 2.5
0 -9 -9 0.2 3.7
-1 -9 9 15.3 4.3
-1 9 -9 18.1 4.8
1 9 9 23.2 5.3
1 -9 -9 11.5 5.7
1 -9 9 16.6 4.1
-1 9 9 10.2 4.1
-1 -9 -9 13.5 5.8
-2 9 -9 1.1 3
2 9 9 1.4 3.3
2 -9 -9 1 4.3
2 -9 9 2.6 3.7
-2 -9 -9 -1.7 4.6
-2 9 9 8.7 5.1
0 9 -10 -0.5 3.4
0 -10 0 7963.6 427.86
0 -10 0 7106.69 427.06
0 10 0 8252.37 428.06
0 10 0 7354.56 427.56
-1 10 0 -0.4 1.1
-1 -10 0 1.9 1.1
1 -10 0 0.5 0.8
1 -10 0 -0.1 0.7
-1 -10 0 1.3 1.6
1 10 0 -0.1 0.8
1 10 0 -0.8 0.8
-1 10 0 1.2 1
-2 10 0 3670.03 197.98
-2 10 0 3404.06 196.28
2 10 0 3547.94 197.68
-2 -10 0 3348.57 196.88
2 10 0 3573.74 197.28
2 -10 0 3496.95 196.98
-3 10 0 -1.8 1.7
3 10 0 -1 1.6
-3 -10 0 0.6 1.5
-3 10 0 -0.9 1.1
3 10 0 0.8 1.3
3 -10 0 0.6 1.3
-4 -10 0 2427.16 136.49
4 -10 0 2377.36 136.49
4 10 0 2343.57 137.89
4 10 0 2407.66 136.39
-4 10 0 2425.16 137.49
5 -10 0 1 2.6
5 10 0 1.1 2
5 10 0 1.4 3.1
-5 10 0 -0.6 2.7
-5 -10 0 -0.6 2
6 -10 0 759.82 47.9
6 10 0 812.12 55.89
-6 -10 0 759.92 47.6
0 10 1 25.3 3.6
0 -10 -1 40.6 3.7
0 10 1 22.5 3.5
0 10 -1 32.1 4.5
0 -10 1 40.4 4.3
0 -10 1 42.7 3.1
0 -10 1 35 4.3
0 -10 -1 40.6 3.8
1 10 1 10.5 2.3
1 -10 -1 7 1.8
1 10 1 10.6 1.7
1 -10 -1 15.5 2.6
-1 -10 1 7.4 2
-1 10 -1 10.3 2.1
-1 -10 1 8.8 1.9
-1 10 1 6.4 2
-1 10 1 17 2.5
-1 -10 -1 14.7 3.1
1 10 -1 12.6 2.4
1 10 -1 9.7 2
1 -10 1 8.7 2.5
1 -10 1 11.9 2.2
-1 -10 -1 12.5 2.5
2 10 1 6.5 1.9
2 -10 -1 6.8 1.8
-2 -10 1 7.9 2.1
2 -10 -1 6.7 1.9
2 -10 1 13.3 3
2 -10 1 5.5 1.7
-2 10 1 1.4 1.7
2 10 -1 5 1.9
2 10 -1 6.8 2
-2 10 1 9.3 2
-2 -10 -1 9.4 2
-2 -10 -1 3.2 2.5
3 10 1 32.4 5.4
-3 -10 1 32.4 4.8
-3 10 -1 33.1 5.2
3 10 1 33.8 4.6
-3 10 -1 37.4 4.3
3 -10 -1 36 4.7
3 10 -1 31.9 5.1
3 -10 1 39.9 4.8
-3 -10 -1 35.2 4.6
-3 10 1 28.4 4.8
3 -10 1 38 5.6
3 10 -1 46.9 5.4
4 -10 -1 26.4 4.6
-4 10 -1 15.2 4.4
-4 -10 1 28.8 4.5
4 10 1 30.6 4.7
4 10 1 21 5.2
-4 -10 -1 24.1 4.1
4 -10 1 25.7 4.3
-4 10 1 20.3 4.7
4 10 -1 34.2 6.1
4 10 -1 28.8 4.5
5 -10 -1 6.4 3.2
-5 10 -1 7 3.9
5 10 1 1.9 3.5
-5 -10 1 6.2 2.8
5 10 1 4.4 3
-5 10 1 4 3.3
5 10 -1 6 3.8
5 -10 1 5 2.9
-5 -10 -1 8.9 3.1
5 10 -1 2.7 2.4
6 -10 -1 8.1 4.9
-6 -10 1 10.1 3.8
-6 10 -1 7.8 4.8
6 -10 1 17.5 4.7
-6 10 1 4.1 4.3
-6 -10 -1 8 4.2
0 10 2 8.2 2
0 -10 -2 9.7 2.5
0 -10 2 9.3 2.3
0 10 -2 11.4 1.5
0 10 2 12.6 2.2
0 -10 2 14.8 2.3
0 -10 -2 7.3 1.8
0 10 -2 12.7 2.6
-1 -10 2 2.1 1
1 -10 -2 3.7 1.3
-1 10 -2 3.2 1.3
1 10 2 3.2 1.2
-1 -10 2 2.1 1.3
1 10 2 5.5 1.8
1 -10 -2 2.4 1.4
-1 10 2 3.4 1.5
1 10 -2 3.1 1.5
1 -10 2 0.1 0.9
-1 10 2 4.1 1.3
1 10 -2 1.5 1.2
-1 -10 -2 3.3 1.4
1 -10 2 2.6 1.4
-1 -10 -2 4.2 1.8
2 -10 -2 98.69 7.3
-2 10 -2 96.29 7.2
2 10 2 86.69 7.2
-2 -10 2 94.69 7.4
2 -10 -2 83.99 7.4
2 10 -2 95.19 7.4
2 -10 2 100.09 7.2
-2 -10 -2 103.69 9.4
2 -10 2 103.39 8
-2 10 2 74.69 6.3
2 10 -2 88.79 7.3
-2 10 2 95.09 7.9
-2 -10 -2 86.79 6.8
3 -10 -2 9 2.6
-3 10 -2 5.2 2.3
3 10 2 5.1 2.2
3 -10 -2 2.8 1.8
-3 -10 2 2.1 1.8
3 -10 2 3.8 1.8
-3 10 2 1.4 2
3 10 -2 7.1 2.6
3 10 -2 4.7 2
3 -10 2 0.4 2.3
-3 -10 -2 5.8 2
-3 -10 -2 2.6 3.3
4 -10 -2 66.69 7.7
4 10 2 67.79 7.8
-4 -10 2 64.29 7.7
-4 10 -2 64.59 7
4 10 -2 73.69 6.7
4 -10 2 64.39 7.3
-4 -10 -2 67.09 6.5
-4 -10 -2 66.79 11.2
4 10 -2 73.59 7.9
4 -10 2 80.99 9.1
-4 10 2 59.19 8
5 10 2 3.2 2.6
-5 10 -2 6.6 4
-5 -10 2 0.9 2.4
5 -10 -2 2 2.8
5 -10 2 5.5 3.1
-5 10 2 1.8 3.2
-5 -10 -2 2.5 4.8
5 10 -2 3.7 3.4
-6 10 -2 11.9 5.3
6 10 2 13.6 4.4
-6 10 2 11.1 5.2
6 -10 2 20.3 6.4
0 -10 3 7.7 2.2
0 -10 3 10.3 2.1
0 -10 -3 21 3.7
0 -10 -3 9.2 2
0 10 3 11.7 2.4
0 10 -3 11.8 1.8
0 10 3 15.9 2.4
0 10 -3 8.3 2.2
1 10 3 -0.1 0.9
-1 -10 3 0.6 1
-1 -10 3 -0.1 0.7
1 -10 -3 0.6 1.3
1 10 3 -0.5 1.1
1 -10 -3 -0.1 0.8
-1 10 -3 -1.6 0.8
-1 -10 -3 0.4 0.9
1 -10 3 0.5 1
1 -10 3 0 0.9
-1 10 3 -0.7 1
-1 -10 -3 1 1.4
1 10 -3 -1 0.9
-1 10 3 0.9 1
1 10 -3 0.6 1
2 -10 -3 9.9 3
-2 10 -3 12.4 2.7
2 10 3 13.7 2.9
-2 -10 3 13.1 2.8
2 -10 -3 14.6 2.8
2 -10 3 14.9 2.5
-2 10 3 13.3 3.2
2 10 -3 10.8 2.6
-2 -10 -3 17.5 4.5
2 -10 3 12.1 2.7
2 10 -3 12.2 2.8
-2 -10 -3 13.5 2.7
-3 -10 3 6.8 2.4
3 -10 -3 9.7 3.2
3 -10 -3 4.7 2.3
3 10 3 11.1 2.8
-3 10 -3 5.8 2.2
3 -10 3 6.5 2.2
3 10 -3 3.2 1.8
-3 10 3 6.3 2.8
-3 -10 -3 4.9 2
3 10 -3 8.2 2.9
-3 -10 -3 10.9 4.3
3 -10 3 9.7 3
4 -10 -3 23.1 5.2
4 10 3 29.5 5
4 -10 -3 24.1 4.5
-4 10 -3 18.8 3.9
-4 -10 3 14.9 3.7
4 10 -3 28.7 4.4
-4 -10 -3 20.5 6.8
4 -10 3 20.4 5.3
4 -10 3 23.4 4.1
-4 10 3 31.9 5.7
4 10 -3 24.1 5.1
5 -10 -3 0.3 2.4
5 10 3 2.1 2.9
-5 -10 3 1.2 2.4
-5 -10 -3 9.5 6.5
5 10 -3 3.4 3.5
5 -10 3 -0.5 3.6
-5 10 3 4.2 3.8
-6 10 -3 9.8 5.6
-6 10 3 5.9 4.9
0 10 -4 3190.98 176.58
0 10 4 3260.57 176.58
0 10 4 3243.08 175.98
0 -10 4 3277.67 176.18
0 -10 -4 2744.43 177.38
0 -10 -4 3339.07 175.78
0 -10 4 2851.91 176.48
1 10 4 0.8 1.3
1 10 4 -0.8 1.1
-1 -10 4 0.3 0.9
1 -10 -4 0.2 1.1
-1 10 -4 0.4 1.2
-1 -10 4 0.2 1.1
1 -10 -4 0.3 1.6
-1 10 4 -0.2 1.4
-1 10 4 0.5 1.1
1 10 -4 2.4 1.3
-1 -10 -4 -1.4 0.9
1 -10 4 1.2 1.3
-1 -10 -4 -0.8 1.7
1 10 -4 -0.2 1.3
1 -10 4 0.2 1.2
2 -10 -4 3219.28 180.78
-2 10 -4 3196.28 181.18
-2 -10 4 3222.18 181.08
2 -10 -4 2975.7 182.18
2 10 4 3154.48 181.18
2 -10 4 3286.07 180.38
2 10 -4 3057.59 181.18
2 -10 4 3169.08 181.08
2 10 -4 3299.47 181.28
-2 -10 -4 3435.26 183.38
-2 10 4 3288.57 181.78
3 -10 -4 10 3.6
3 -10 -4 8.5 2.8
-3 -10 4 12.8 3.1
3 10 4 10.3 2.9
-3 10 -4 7.9 2.5
-3 -10 -4 13.4 4.7
3 -10 4 6.1 2.5
3 -10 4 8.7 2.4
-3 10 4 14.2 3.9
3 10 -4 7.4 2.7
3 10 -4 6 2.8
4 -10 -4 1136.19 76.79
4 10 4 1288.67 76.09
-4 -10 4 1278.97 75.89
4 -10 -4 1311.47 75.89
-4 10 -4 1290.07 75.39
4 -10 4 1288.37 76.59
-4 -10 -4 1435.16 80.29
4 10 -4 1272.17 76.89
-4 10 4 1379.86 76.89
5 10 4 8.7 3.5
-5 10 -4 10.6 4.5
5 -10 -4 12.5 4
-5 -10 4 13.8 3.8
5 10 -4 13.8 4.9
5 -10 4 4.1 4.2
-5 -10 -4 4.1 4.8
-5 10 4 6.5 4
0 10 5 44.9 5.4
0 -10 5 25.4 4.3
0 10 -5 33.2 4.6
0 -10 5 36.4 4.5
0 -10 -5 21.4 4.9
0 10 5 47.7 4.3
-1 10 -5 12 3.1
1 10 5 8.4 2.5
-1 -10 5 9.2 2.4
1 10 5 15.4 3.2
1 -10 -5 11.8 2.5
1 -10 -5 13.6 3.6
-1 -10 5 8.4 2.3
1 -10 5 11.9 2.8
-1 10 5 9.5 2.7
1 -10 5 6.7 2.2
1 10 -5 11.2 2.9
1 10 -5 8.1 2.6
-1 -10 -5 20.3 4.9
-2 10 -5 8.1 2.7
2 -10 -5 11.9 2.9
-2 -10 5 14.2 3
2 10 5 13 3.3
2 -10 -5 13.3 4
2 10 -5 11.8 3.4
-2 10 5 8.1 3.1
-2 -10 -5 14.5 4.7
2 10 -5 8.8 2.8
2 -10 5 6.4 2.5
3 -10 -5 20.9 5.3
3 10 5 32.6 5.4
3 -10 -5 27 4.5
-3 10 -5 22.5 4.5
-3 -10 5 22.4 4.5
3 10 -5 20.8 4.1
-3 -10 -5 33.4 6.8
-3 10 5 25.6 5.1
3 -10 5 17.8 4
3 10 -5 31 5.4
-4 -10 5 10.4 3.4
-4 10 -5 12.9 3.6
4 -10 -5 7.9 4.3
4 10 5 7.1 3.1
4 -10 -5 14.1 3.8
-4 10 5 11.3 4
4 10 -5 9.1 4.2
-4 -10 -5 12.7 5.6
4 -10 5 10.3 3.4
-5 -10 5 8.5 3.6
5 -10 -5 1.4 4.3
5 10 5 18.3 5
5 -10 -5 13 4.3
-5 10 -5 15.2 4.2
5 -10 5 7.7 4.4
-5 10 5 14.8 4.7
5 10 -5 15.8 5.4
-5 -10 -5 8.7 5.6
0 10 6 15.8 3.1
0 10 -6 12.7 3
0 10 6 16.6 3.5
0 -10 6 13 3.1
0 -10 -6 3.6 2.8
1 10 6 7 2.6
-1 -10 6 8.7 2.6
1 10 6 2 2.2
1 -10 -6 9.9 3.9
-1 -10 6 9.7 2.6
-1 10 -6 8.3 2.8
-1 -10 -6 3.7 3.5
1 -10 6 6 2.4
1 10 -6 10.6 2.9
-1 10 6 2.3 2.1
2 -10 -6 26.4 4.5
-2 10 -6 31.3 5.2
2 -10 -6 36.7 7
2 10 6 28.3 4.9
-2 -10 6 23.3 4.2
-2 10 6 30.8 5.4
2 -10 6 24.9 4.6
-2 -10 -6 28.8 6.7
2 10 -6 25.5 4.9
2 10 -6 26.7 5.3
3 -10 -6 5.5 2.7
3 10 6 -0.7 2
3 -10 -6 2.6 3.5
-3 10 -6 -1.3 2
-3 -10 6 3.7 2.3
3 10 -6 0.3 2.6
3 -10 6 2.7 2.3
-3 -10 -6 0.5 3.4
-3 10 6 2.6 2.7
4 -10 -6 11.9 5.2
-4 -10 6 12.4 3.9
4 -10 -6 15.4 4.3
4 10 6 17.8 4.7
-4 10 -6 15.9 4.4
4 10 -6 21.1 5.8
-4 -10 -6 17.8 6.4
4 -10 6 13.7 4.2
-4 10 6 16 4.8
5 -10 -6 26.2 10.9
0 10 -7 0.3 1.7
0 -10 7 4.6 2.3
0 10 7 4.4 2.6
0 -10 -7 -0.5 2.4
1 10 7 0.3 2.1
-1 10 -7 3.5 2.5
-1 -10 7 1.2 1.9
1 10 7 1.7 2.1
1 -10 -7 1.6 3
1 -10 7 4.5 2.2
-1 -10 -7 1.2 3.2
-1 10 7 -0.1 2.1
1 10 -7 -3.3 1.5
2 10 7 20.9 4.5
-2 10 -7 18.4 4.4
2 -10 -7 18 5.4
-2 -10 -7 19.9 6
-2 10 7 28.1 5.6
2 -10 7 16.7 4
3 10 7 0.4 2.6
-3 -10 7 4 2.8
-3 10 -7 1.3 2.5
3 -10 -7 2 4.3
3 -10 7 0.9 2.6
3 10 -7 3 3.5
-3 -10 -7 -3 3.9
-3 10 7 4.7 3.4
-4 10 -7 9.6 4.1
-4 -10 7 12.3 4
4 10 7 13 5.6
4 -10 -7 12.5 6
4 -10 7 11.1 4.1
-4 10 7 11.5 4.9
4 10 -7 10.5 4.8
0 -10 8 978.1 59.39
0 10 8 999.5 59.99
0 10 -8 1024.5 59.69
1 10 8 3.5 2.8
-1 10 -8 -2.4 2.2
-1 -10 8 2.3 2.5
1 -10 -8 -0.1 3.7
-1 -10 -8 -0.6 3.6
1 10 -8 1.7 2.6
-1 10 8 2 2.6
1 -10 8 2.4 2.3
2 -10 -8 1212.18 76.99
2 10 8 1238.98 73.99
-2 10 -8 1314.47 74.69
-2 10 8 1337.77 75.09
2 -10 8 1297.27 74.29
-2 -10 -8 1132.59 76.99
3 -10 -8 23.6 7.4
3 10 8 32.4 6.2
-3 10 -8 22 5.4
-3 10 8 36.6 6.9
-3 -10 -8 32.7 8.4
3 -10 8 36.8 6.4
0 10 9 6.1 3.5
0 -10 9 7.9 3.6
0 -10 -9 9.5 5.3
0 10 -9 7.1 3.5
1 10 9 -0.6 2.7
1 -10 -9 -1.8 3.6
-1 -10 9 2.3 2.7
-1 10 -9 0.5 2.7
-1 -10 -9 0.8 3.9
1 -10 9 0.9 2.8
-1 10 9 -0.7 2.7
2 10 9 6.5 4.2
0 11 0 7.6 1.9
0 11 0 5.5 1.6
1 11 0 58.49 5.4
-1 -11 0 47.2 6.4
1 11 0 58.79 4.6
1 -11 0 50.29 4.9
-1 11 0 67.99 5.5
-1 -11 0 63.69 5.4
-1 11 0 63.19 5.6
2 11 0 0.6 1.4
2 11 0 0.9 1.3
-2 -11 0 1.2 1.3
-2 11 0 2.6 1.8
-2 11 0 1.3 1.3
2 -11 0 2.5 1.4
-3 11 0 17.9 3.8
3 11 0 16.6 4
-3 11 0 23.2 3.4
3 -11 0 23.5 3.8
3 11 0 16.8 3.5
-3 -11 0 16.4 3.3
4 -11 0 3.7 2.3
4 11 0 0.7 1.7
4 11 0 1.6 2.5
-4 -11 0 0.4 2.1
-4 11 0 1.2 2.7
5 11 0 28.3 6.3
5 -11 0 25.2 5.1
-5 11 0 18.5 5
-5 -11 0 12.3 3.8
5 11 0 23.9 4.9
-6 -11 0 -3.4 2.7
-6 11 0 4.3 4.3
0 11 1 0.5 1.1
0 -11 1 -0.6 0.7
0 -11 -1 -0.6 0.7
0 11 -1 2.6 1.5
0 -11 1 -0.2 0.9
0 -11 -1 -1 0.9
0 11 1 -0.9 0.8
0 -11 1 1 1.2
-1 -11 1 179.48 12.5
1 -11 -1 194.88 12.5
-1 11 -1 190.58 12.5
-1 -11 1 193.18 12
1 11 1 199.18 12.8
1 11 1 177.18 11.7
1 11 -1 197.28 12.8
1 11 -1 187.98 12.3
-1 11 1 205.18 12.3
1 -11 1 166.48 12.9
-1 11 1 194.88 13
-1 -11 -1 170.98 12.9
-2 11 -1 10.8 2.2
2 -11 -1 12 2.6
2 -11 -1 12 2.9
-2 -11 1 16.5 3.1
2 11 1 16.8 3.3
-2 11 1 17.3 2.6
-2 -11 -1 12.2 3.9
-2 11 1 13.1 3.2
2 11 -1 5.8 2.1
2 -11 1 18.3 3.1
-2 -11 -1 16.3 2.7
2 -11 1 18.8 3.7
2 11 -1 17.7 3.2
-3 11 -1 130.49 9.4
3 11 1 133.69 10.2
3 11 1 125.19 11.2
-3 11 -1 134.59 10.9
3 -11 -1 135.19 10.1
-3 -11 1 135.79 10.1
-3 11 1 129.59 10.9
-3 -11 -1 142.09 12.7
3 11 -1 129.49 10.6
-3 -11 -1 124.09 9.7
3 11 -1 137.19 10.2
3 -11 1 132.09 10
4 11 1 30.2 6.3
-4 -11 1 37.6 5.6
-4 11 -1 44.6 7
4 -11 -1 49.99 6.3
4 11 1 45.1 6.2
4 11 -1 45.9 7
-4 -11 -1 38.8 5.6
4 11 -1 54.59 6.6
4 -11 1 53.69 6.3
-4 11 1 47 7.2
5 11 1 51.39 7.4
5 -11 -1 66.29 8.4
5 11 1 40.7 7.9
-5 11 -1 65.79 8.6
-5 -11 1 46.8 7.1
5 11 -1 57.59 9
-5 11 1 63.69 9
5 11 -1 58.39 7.3
5 -11 1 58.19 7.6
-5 -11 -1 56.99 7.3
6 11 1 65.29 11.8
-6 11 -1 55.09 9.3
-6 -11 1 64.79 10.5
6 -11 1 63.59 8.7
-6 11 1 62.79 9.4
0 -11 2 -0.1 1.1
0 11 2 1.2 1
0 11 2 0.9 1
0 -11 2 0.8 1
0 -11 -2 -0.1 1.1
0 11 -2 0.8 1.3
0 -11 -2 1.5 1.1
-1 11 -2 2817.72 165.78
-1 -11 2 2872.31 164.98
1 11 2 3041 166.18
1 -11 -2 3038.3 165.88
-1 -11 2 2958.7 166.08
1 11 2 3057.39 165.28
1 11 -2 3027.4 166.38
-1 -11 -2 3069.79 166.88
-1 -11 -2 3164.58 165.88
-1 11 2 2479.15 165.18
1 11 -2 2873.31 165.38
1 -11 2 2981.3 166.08
2 -11 -2 -0.6 1
2 11 2 1 1.1
-2 -11 2 -0.5 1.1
-2 11 -2 0.1 1.1
2 -11 -2 0 1.3
2 11 -2 -0.2 1.2
-2 11 2 -1.7 1.3
-2 -11 -2 0.3 1.7
2 11 -2 0.1 1.1
2 -11 2 0.6 1.1
2 -11 2 0.6 1.4
-2 -11 -2 -1.9 1
3 11 2 1699.53 95.09
3 -11 -2 1635.64 94.69
-3 11 -2 1711.73 94.39
-3 -11 2 1662.73 94.89
3 -11 2 1784.02 94.69
3 11 -2 1623.24 95.39
-3 -11 -2 1739.73 94.29
3 -11 2 1408.96 95.59
3 11 -2 1574.54 94.69
4 -11 -2 0.1 1.8
4 11 2 5.9 2.6
-4 -11 2 5.3 2.6
-4 11 -2 6.3 2.5
-4 11 2 1.3 2.9
4 11 -2 1.2 2.4
4 -11 2 1.6 2.7
-4 -11 -2 2.1 2.1
4 -11 2 3.2 2.2
4 11 -2 8.5 2.7
-4 -11 -2 2.8 4.2
-5 11 -2 821.92 46.9
-5 -11 2 657.93 44.8
5 11 2 741.43 45.4
5 -11 -2 736.03 45.5
-5 -11 -2 724.73 50.19
-5 11 2 669.73 45.8
5 11 -2 778.72 47.1
5 -11 2 772.22 45.2
6 11 2 -0.4 3.7
-6 11 -2 7.2 4.6
-6 11 2 0.9 4.2
6 -11 2 1.8 4.2
0 -11 3 -0.3 1.1
0 -11 3 0.1 1.1
0 -11 -3 0 0.8
0 11 -3 1.3 1.2
0 11 3 0 1.1
0 -11 -3 -0.9 1.3
0 11 3 0.4 1.1
1 11 3 24.2 3.4
-1 11 -3 27 3.8
1 -11 -3 11.9 3.3
1 -11 -3 27.6 3.7
1 11 3 30 4.1
-1 -11 3 25.6 3.2
-1 -11 3 29.8 4.1
-1 11 3 28.4 4.3
-1 -11 -3 25.6 4.4
1 -11 3 24.7 3.7
1 11 -3 19.9 4.1
1 -11 3 24.9 3.7
-1 -11 -3 34.5 3.9
-1 11 3 34 3.6
1 11 -3 27.9 3.6
2 -11 -3 11.5 2.5
2 11 3 7.9 2.5
-2 -11 3 8.5 2.5
-2 11 -3 8.1 2.4
2 -11 -3 9.4 2.9
2 11 -3 9.8 2.6
2 11 -3 4.4 2
-2 -11 -3 4.8 1.9
2 -11 3 7.4 2.4
2 -11 3 13.1 2.5
-2 11 3 10.7 3.1
-2 -11 -3 10.8 3.5
3 11 3 27.1 4.5
-3 11 -3 26.4 4
3 -11 -3 17.3 4.2
3 -11 -3 28.8 4.5
-3 -11 3 33.4 4.8
-3 -11 -3 27.4 6.3
-3 11 3 25.9 5
3 -11 3 28.1 4
3 11 -3 19.2 3.7
-3 -11 -3 21.6 3.4
3 11 -3 18.7 4
3 -11 3 23.7 4.5
-4 11 -3 54.59 6.4
-4 -11 3 37.6 5.9
4 -11 -3 54.09 7
4 11 3 53.59 7.4
4 -11 3 42.8 5.8
4 -11 3 55.19 8.6
-4 -11 -3 59.79 10.2
-4 11 3 56.69 7.8
4 11 -3 54.29 7.6
4 11 -3 49.8 6.4
-5 -11 3 19 4.6
5 -11 -3 15.2 4.5
-5 11 -3 16.8 5
5 11 3 24.5 5.3
5 -11 3 15.9 5.2
-5 -11 -3 10.2 6.6
5 11 -3 16.7 5.6
-5 11 3 10.6 4.4
0 -11 -4 1.5 2
0 -11 4 -0.4 1.3
0 11 -4 1.2 1.5
0 11 4 1.5 1.4
0 11 4 0.3 1.2
0 -11 -4 1.4 1.2
0 -11 4 0.4 1.3
1 -11 -4 5.8 2.6
-1 11 -4 9.8 2.6
-1 -11 4 10.2 2.5
1 11 4 8.7 2.4
1 -11 -4 13.5 2.6
1 11 4 9.7 2.5
-1 -11 4 6.4 2.1
-1 -11 -4 14.7 4.1
1 11 -4 17.3 3.5
1 -11 4 13.4 2.8
1 11 -4 11.2 3.9
-1 -11 -4 8.9 2.2
1 -11 4 18.6 3.4
-1 11 4 12.4 3
-2 -11 4 -0.9 1.4
2 -11 -4 2.5 2.3
2 11 4 1.1 1.6
2 -11 -4 2.6 1.6
-2 11 -4 -1.3 1.3
2 -11 4 2.1 1.7
-2 11 4 2.9 2.3
-2 -11 -4 1.4 2.1
2 11 -4 -0.9 1.6
2 -11 4 2.5 1.5
2 11 -4 3.1 1.9
3 -11 -4 13.8 3.4
-3 11 -4 16.2 3.5
3 11 4 14.6 3.6
-3 -11 4 13.7 3.3
3 -11 -4 18 4.5
3 -11 4 19.5 3.4
3 11 -4 14.2 3.7
3 -11 4 16.5 3.7
-3 11 4 23.2 4.6
3 11 -4 20.3 4
-3 -11 -4 16.4 5.1
-4 11 -4 4.6 2.9
4 -11 -4 1.6 2.7
4 -11 -4 3.6 3.4
-4 -11 4 2.9 2.3
4 11 4 -0.8 2
4 11 -4 3.2 3.3
4 -11 4 7.1 3.7
-4 11 4 10.9 4.1
-4 -11 -4 5.1 4.2
5 -11 -4 53.59 7.5
-5 -11 4 43.6 6.9
5 11 4 34.7 6.7
-5 11 4 41.9 7.5
5 11 -4 43.7 7.9
5 -11 4 30.4 7.2
-5 -11 -4 44.3 9.4
0 -11 -5 -1.6 1.9
0 11 -5 0.8 1.5
0 -11 5 1.3 1.5
0 11 5 0.3 1.3
0 -11 5 1.8 1.8
0 11 5 1.3 1.6
1 11 5 291.47 18.9
1 -11 -5 277.07 18.1
-1 -11 5 292.07 18.7
-1 -11 5 305.07 18.4
1 11 5 302.97 18.8
-1 11 -5 309.57 19.3
1 -11 5 244.88 18.1
-1 11 5 312.37 19.6
1 11 -5 271.17 19.1
1 -11 5 303.27 19
-1 -11 -5 269.97 20.4
2 -11 -5 11.4 3.8
2 -11 -5 9.4 2.8
2 11 5 7.5 2.8
-2 11 -5 7.6 2.8
-2 -11 5 11.3 2.9
-2 11 5 5.1 2.8
2 11 -5 6.5 2.8
2 11 -5 5.5 2.6
-2 -11 -5 6.9 3.4
2 -11 5 7.2 2.7
-3 -11 5 183.98 13.1
3 -11 -5 159.68 12.7
-3 11 -5 152.58 12.6
3 11 5 165.18 13.1
3 -11 -5 134.99 13.6
-3 -11 -5 198.28 15.7
3 -11 5 170.58 12.9
-3 11 5 193.68 14.1
3 11 -5 175.18 13.7
3 11 -5 174.58 12.7
-4 11 -5 22.9 4.9
4 11 5 23.3 5.1
4 -11 -5 8.6 4.7
4 -11 -5 16.8 4.2
-4 -11 5 21.4 4.7
4 11 -5 26.9 5.9
-4 -11 -5 35.4 7.9
-4 11 5 31.7 6.1
4 -11 5 19.9 4.8
5 -11 -5 108.89 12
-5 11 -5 89.39 10.8
-5 11 5 134.29 12.2
5 -11 5 72.29 11.5
5 11 -5 119.39 12.2
0 11 -6 -0.7 1.4
0 -11 -6 0.9 2.4
0 -11 6 1.1 1.5
0 11 6 1.6 1.8
1 11 6 1444.96 82.69
-1 -11 6 1383.96 82.09
-1 -11 6 1427.46 82.29
-1 11 -6 1507.45 83.19
1 11 6 1399.76 82.49
1 11 -6 1406.56 82.89
-1 11 6 1470.35 83.39
1 -11 6 1383.16 82.59
-1 -11 -6 1444.06 85.19
2 11 6 3.3 2.2
-2 -11 6 1.2 1.8
2 -11 -6 1 2.5
-2 11 -6 0.9 2
2 -11 -6 8 4.3
2 11 -6 3.2 2.7
-2 11 6 -0.7 2
2 -11 6 1.9 2
-2 -11 -6 -0.1 3.1
-3 -11 6 837.12 50.29
3 -11 -6 670.53 51.59
-3 11 -6 820.72 50.49
3 11 6 844.52 50.79
3 -11 -6 787.72 49.9
3 11 -6 875.21 51.49
-3 -11 -6 960.5 54.19
-3 11 6 927.31 51.79
3 -11 6 832.72 50.49
-4 11 -6 15.2 4.5
4 -11 -6 6.8 4.8
-4 -11 6 10.2 3.6
4 11 6 14.3 4.4
4 -11 -6 10.2 3.9
-4 -11 -6 7.5 5.1
4 11 -6 12 4.7
-4 11 6 15.1 4.7
4 -11 6 5.5 3.3
0 11 -7 0.2 1.9
0 -11 7 1.9 2.1
0 -11 -7 -1.6 2.7
0 11 7 0.1 2.1
1 11 7 -0.5 1.9
-1 11 -7 0.4 2.1
1 11 7 -0.1 2
-1 -11 7 1.6 2
1 -11 -7 2.3 3.5
1 11 -7 0.9 1.9
-1 11 7 -0.4 2.2
1 -11 7 -1.8 1.7
-1 -11 -7 -0.1 3.4
2 11 7 4.6 2.9
2 -11 -7 4 3.7
-2 11 -7 8.7 3.3
2 11 -7 8.3 3.7
2 -11 7 10.9 3.5
-2 -11 -7 8.8 4.9
-2 11 7 5.8 3.4
3 -11 -7 -3.3 3.6
3 11 7 2 2.7
-3 -11 7 0 2.4
-3 11 -7 0.7 2.6
-3 -11 -7 1.3 4.4
3 -11 7 0.2 2.1
-3 11 7 -1.2 2.9
4 -11 -7 6.7 5.5
-4 -11 7 21.7 5.1
4 11 -7 26.2 6.9
0 11 8 -1.4 2.5
0 -11 8 4.9 2.6
0 -11 -8 0.3 3.2
0 11 -8 1.7 2.5
-1 -11 8 23.5 4.4
1 11 8 12.4 4.2
-1 11 -8 21.7 4.9
1 -11 -8 13.7 5.6
-1 11 8 15.8 4.7
-1 -11 -8 19.7 6.5
1 -11 8 21.3 4.9
1 11 -8 22.4 4.8
-2 11 -8 3 2.8
2 11 8 3.2 3
2 -11 -8 -1.6 3.7
-2 -11 -8 0.9 3.8
-2 11 8 2.9 3
2 -11 8 2.6 2.7
3 -11 -8 16.2 7.2
3 11 8 28.9 5.7
0 -11 -9 -1.1 3.9
0 11 -9 1.6 2.8
0 -11 9 3 2.7
0 11 9 0.2 3
-1 -11 9 199.08 14.4
1 11 9 191.08 14.9
-1 11 -9 184.18 14.8
1 -11 9 174.58 14.5
-1 -11 -9 124.49 20.2
-1 11 9 189.28 15.5
2 11 9 4.8 6.2
0 -12 0 1920.31 109.69
0 -12 0 1914.11 110.39
0 12 0 1964.8 110.59
0 12 0 1995.6 110.39
1 12 0 0.4 1
-1 -12 0 1.1 1.4
-1 -12 0 -1.1 1.5
1 12 0 0.5 1.1
1 -12 0 1.4 1.2
-1 12 0 1.2 1.3
-1 12 0 1.4 1.3
-2 12 0 1300.27 71.19
-2 12 0 1205.28 69.99
2 12 0 1137.29 70.49
-2 -12 0 1244.78 70.29
2 -12 0 1282.57 70.49
2 12 0 1160.28 70.89
3 12 0 -1.5 1.1
-3 -12 0 -0.6 1.4
3 -12 0 -0.2 1.5
-3 12 0 -0.3 1.8
3 12 0 -1.4 2
-4 12 0 854.61 50.89
4 12 0 853.51 49.99
4 -12 0 812.92 49.8
4 12 0 853.91 51.59
-4 -12 0 787.22 49.5
-5 12 0 -0.7 3.2
5 -12 0 -2.3 2.1
5 12 0 1.4 3.7
-5 -12 0 -2.1 2.1
5 12 0 2.4 2.5
-6 -12 0 360.26 25.3
-6 12 0 344.47 29.3
0 12 1 221.38 16.3
0 12 -1 273.57 17.1
0 -12 1 254.37 16.6
0 -12 -1 278.77 16.6
0 -12 1 272.77 16.8
0 -12 -1 265.27 16.7
0 12 1 254.97 16.6
-1 -12 1 2.2 1.7
1 -12 -1 4.5 1.6
1 12 1 5.5 1.6
1 12 1 5.4 2
-1 12 -1 3.2 1.7
1 -12 -1 6.8 2.1
-1 12 1 5.3 2
-1 -12 -1 5.8 2.2
1 12 -1 4.4 1.7
1 12 -1 7.1 2.3
1 -12 1 5.4 2.4
-1 -12 -1 3.3 1.9
-1 12 1 5.9 1.7
1 -12 1 2.5 1.4
-2 -12 1 172.98 12
-2 12 -1 174.78 11.6
2 12 1 174.18 12.3
2 -12 -1 177.78 12.1
2 -12 1 191.98 13.1
-2 -12 -1 120.99 13.1
2 -12 1 172.88 12
-2 12 1 181.48 12.9
-2 -12 -1 158.68 11.7
2 12 -1 182.98 12.4
-2 12 1 182.18 11.4
-3 12 -1 55.29 7.3
-3 12 -1 65.79 5.6
3 -12 -1 59.99 6.9
-3 -12 1 57.69 6.7
3 12 1 56.69 6.8
3 12 -1 55.99 6.8
3 12 -1 62.79 6.7
-3 -12 -1 57.29 6.3
3 -12 1 54.39 6.4
-3 -12 -1 62.69 9.2
-3 12 1 63.79 7.8
4 -12 -1 109.59 10
4 12 1 121.89 10.2
-4 -12 1 103.69 9.6
-4 12 -1 131.59 11.2
4 12 1 122.19 11.6
4 12 -1 128.89 10.2
-4 -12 -1 114.59 9.7
-4 12 1 133.69 11.3
4 -12 1 119.19 10
4 12 -1 113.19 10.8
-4 -12 -1 113.49 12.6
5 -12 -1 170.78 13.5
-5 12 -1 163.38 14
5 12 1 176.08 13.3
5 12 1 141.99 14.6
-5 -12 1 158.58 12.8
5 -12 1 154.98 13
-5 -12 -1 157.38 12.8
-5 12 1 152.78 14
5 12 -1 154.28 12.8
5 12 -1 169.38 14.6
6 12 1 34.6 6.7
0 -12 -2 653.03 40.4
0 12 2 682.93 40.7
0 12 -2 610.54 41
0 -12 2 690.53 40.4
0 -12 2 757.32 41.1
0 -12 -2 739.13 41.2
0 12 2 697.83 40.6
1 12 2 -1.2 1
1 -12 -2 1.5 1.5
1 12 2 -0.1 1.2
-1 12 -2 -0.3 1.2
-1 -12 2 0.1 1.3
-1 -12 2 0.5 1
1 -12 -2 3.8 1.7
1 -12 2 -0.7 1.1
-1 12 2 -0.1 1.1
1 12 -2 0 1.2
-1 -12 -2 -0.2 1.3
1 -12 2 2.4 1.5
-1 12 2 0.1 1.3
-1 -12 -2 1.7 1.2
1 12 -2 1 1.3
2 -12 -2 196.98 12.3
-2 -12 2 183.58 12.2
2 12 2 190.28 12.5
-2 12 -2 167.18 11.7
2 12 -2 174.08 12.1
-2 -12 -2 168.68 11.8
-2 -12 -2 181.68 13.7
2 -12 2 174.48 11.9
-2 12 2 120.99 11.9
2 -12 2 143.29 12.5
2 12 -2 166.28 12.1
3 12 2 -1 1.6
-3 12 -2 -1 1.4
-3 -12 2 1.2 1.7
3 -12 -2 1.2 1.8
3 -12 2 -0.6 2
-3 12 2 1.2 2.3
3 -12 2 1 1.6
3 12 -2 -0.5 1.5
3 12 -2 0.5 2.1
-3 -12 -2 -0.2 1.4
-3 -12 -2 -0.8 2.7
-4 12 -2 351.96 25.8
-4 -12 2 383.36 25.1
4 12 2 390.26 25.4
4 -12 -2 371.06 25.2
4 -12 2 366.36 24.7
4 12 -2 382.76 26.1
4 -12 2 456.65 27
-4 -12 -2 403.86 24.7
4 12 -2 379.06 25
-5 -12 2 0.4 2.4
-5 12 -2 3.3 3.6
5 12 2 0.8 2.8
5 -12 -2 -2.2 2.5
5 -12 2 -0.2 2.5
-5 12 2 -0.6 3.3
-5 -12 -2 -0.7 4.6
5 12 -2 0.2 3.1
0 -12 3 649.54 36.5
0 12 3 604.84 36.2
0 12 -3 598.54 36.5
0 -12 3 605.34 35.7
0 12 3 653.33 36.1
0 -12 -3 509.55 35.5
0 -12 -3 633.54 37.1
-1 12 -3 40.4 5.1
1 12 3 34.8 4.3
1 12 3 42.2 5.2
1 -12 -3 27 4.9
1 -12 -3 51.39 5.4
-1 -12 3 37.8 3.6
-1 -12 3 30.1 4.4
-1 12 3 30.4 4.9
-1 12 3 41.9 3.9
-1 -12 -3 37 4.4
1 12 -3 27.3 4.7
1 -12 3 35.4 4.5
1 -12 3 40 4.8
-1 -12 -3 44.5 6.2
-2 -12 3 537.85 33.2
-2 12 -3 606.94 33.4
2 12 3 533.95 33.4
2 -12 -3 570.64 33.2
2 -12 3 541.05 33.5
2 12 -3 556.54 33.4
-2 -12 -3 549.65 34.8
2 12 -3 547.75 33.2
2 -12 3 577.54 33.1
-2 -12 -3 485.75 32.7
-2 12 3 507.85 33.9
-3 -12 3 166.28 11.9
3 12 3 157.88 11.9
-3 12 -3 153.08 11.4
3 -12 -3 156.68 11.6
-3 -12 -3 171.78 14.3
-3 12 3 139.09 12.3
-3 -12 -3 143.99 10.9
3 -12 3 150.38 12.5
3 12 -3 167.08 12.3
3 12 -3 109.89 10.9
3 -12 3 170.18 11.5
-4 12 -3 205.18 15.1
-4 -12 3 220.48 15.9
4 12 3 227.88 16.3
4 -12 -3 231.78 16.2
4 -12 3 200.98 17
4 12 -3 210.28 15.5
4 -12 3 229.68 15.5
-4 12 3 190.58 16.4
4 12 -3 222.28 16.9
-4 -12 -3 228.98 19.6
-5 12 -3 61.49 9.6
-5 -12 3 55.89 7.8
5 12 3 61.59 8.5
5 -12 -3 66.39 8.7
-5 12 3 59.19 9.2
-5 -12 -3 63.19 12.2
5 12 -3 71.99 10.3
0 -12 4 938.51 57.09
0 12 -4 949.9 57.59
0 12 4 1037.7 57.79
0 -12 -4 967.2 58.79
0 -12 4 1003.2 57.69
0 -12 -4 1031.4 57.09
0 12 4 977.6 57.09
1 12 4 2 1.6
1 -12 -4 3 1.7
1 12 4 2.8 1.8
-1 -12 4 3.5 1.6
-1 12 -4 0.9 1.5
1 -12 -4 1.7 2.2
-1 -12 4 0.1 1.4
-1 12 4 1.1 1.9
1 12 -4 2.9 2.1
-1 -12 -4 5 2.8
1 -12 4 3.8 1.9
1 -12 4 1 1.5
-1 -12 -4 2.1 1.4
-2 -12 4 1114.29 67.29
2 12 4 1141.49 67.59
-2 12 -4 1167.78 67.49
2 -12 -4 1166.28 67.09
2 12 -4 1198.58 67.59
2 -12 4 1122.89 66.79
2 12 -4 1171.58 67.49
-2 12 4 1135.39 68.19
-2 -12 -4 1229.98 69.39
2 -12 4 1118.09 67.39
-3 -12 4 6 2.6
3 -12 -4 3.2 3.1
-3 12 -4 8.5 2.7
3 12 4 1.8 2.2
3 -12 -4 9.6 2.9
3 12 -4 6.8 2.8
3 -12 4 4.3 2.5
3 -12 4 8.1 2.5
-3 12 4 8.8 3.4
-3 -12 -4 10.7 4.2
3 12 -4 10.5 3.3
4 12 4 504.85 32.8
-4 12 -4 528.25 32.1
4 -12 -4 502.65 32.5
-4 -12 4 492.55 32.4
-4 -12 -4 534.45 35.7
4 12 -4 518.35 33.5
-4 12 4 519.25 33.7
4 -12 4 478.85 33.6
5 12 4 3.1 3.1
-5 -12 4 -0.4 2.2
5 -12 -4 2.8 3.2
5 -12 4 2.2 4.2
-5 -12 -4 3 5
5 12 -4 0 3.2
-5 12 4 1.5 3.5
0 12 5 5.2 2.5
0 -12 5 2.6 1.9
0 12 -5 2.2 2
0 -12 -5 0.9 2.3
0 -12 5 0.4 1.5
0 12 5 0.4 1.6
1 12 5 11.3 3.2
-1 12 -5 5.6 2.4
-1 -12 5 10 2.6
-1 -12 5 7.2 2.6
1 -12 -5 8.6 3.6
1 -12 -5 6.7 2.1
1 12 5 5.8 2.5
1 -12 5 9.3 2.5
1 12 -5 7.9 3
-1 12 5 9 3
-1 -12 -5 7.4 3.5
1 -12 5 5.6 2.3
-2 -12 5 18.1 3.6
-2 12 -5 19.7 4.2
2 -12 -5 6.6 3.4
2 -12 -5 14.6 3.2
2 12 5 18.6 4
2 12 -5 20.1 4
2 -12 5 20.3 4
-2 -12 -5 32 6.5
-2 12 5 19 4.5
-3 12 -5 31.8 5.4
3 -12 -5 29.6 5.1
-3 -12 5 21.4 4.5
3 12 5 31.4 5.6
3 -12 -5 16.7 5.1
-3 12 5 27.2 5.7
3 12 -5 32.5 5.7
3 12 -5 27.2 4.7
-3 -12 -5 35 7.4
3 -12 5 24.1 4.7
-4 -12 5 6.4 3
4 -12 -5 7.2 3.3
4 12 5 6.4 3.4
4 -12 -5 2.4 4.8
-4 12 -5 5.3 3
4 -12 5 6.4 3.3
-4 12 5 7.9 4.3
-4 -12 -5 7.8 4.9
4 12 -5 8.7 4.2
-5 12 -5 107.49 11.7
5 12 -5 116.09 12.4
0 -12 6 305.17 19.9
0 -12 -6 269.37 21.6
0 12 6 318.27 20.5
0 12 -6 317.47 20.4
1 12 6 0.1 2
1 -12 -6 1.9 2.9
1 12 6 1.5 2.2
-1 -12 6 2.3 1.9
-1 12 -6 3.3 2.3
-1 -12 6 0.4 1.8
1 12 -6 -0.1 2.1
-1 12 6 3.1 2.6
1 -12 6 0.4 1.9
-1 -12 -6 3.6 3.2
-2 -12 6 219.68 16.4
-2 12 -6 237.18 17.2
2 12 6 248.58 17.2
-2 12 6 260.27 18.1
2 -12 6 225.08 16.8
2 12 -6 235.78 17.3
-2 -12 -6 258.27 19.5
3 -12 -6 -2.1 2.5
-3 12 -6 2 2.2
3 -12 -6 -1.8 3.3
-3 -12 6 -0.2 2
3 12 6 2.5 2.4
-3 -12 -6 -0.4 3.3
3 -12 6 -1 2.3
-3 12 6 5 3.4
-4 -12 6 201.88 15.1
4 -12 -6 184.98 14.8
4 12 6 164.78 15
-4 12 -6 167.88 14.6
4 12 -6 202.68 16.5
-4 -12 -6 224.68 18.5
4 -12 6 185.78 15.1
-4 12 6 180.28 15.9
0 12 -7 601.84 37.6
0 -12 -7 577.04 39.7
0 12 7 634.54 38
0 -12 7 605.34 37.1
1 12 7 2.2 2.3
-1 -12 7 0.2 1.8
1 -12 -7 0.4 3.4
-1 12 -7 -0.1 2.3
1 12 7 1.7 2.5
-1 12 7 -2.5 2.1
-1 -12 -7 1.3 3.5
1 12 -7 0.2 2.5
1 -12 7 2.7 2.3
-2 12 -7 497.35 33.2
-2 -12 7 502.65 34.9
2 12 7 534.25 33.3
2 -12 7 508.35 33
2 12 -7 518.55 33.6
-2 -12 -7 545.25 36.1
-2 12 7 528.65 34
3 12 7 38.4 6.8
-3 12 -7 30.4 5.9
-3 -12 7 34.3 6
-3 12 7 38.2 7
3 -12 7 25.5 5.4
-3 -12 -7 41.3 9
4 -12 -7 103.39 19.6
0 -12 8 399.66 25.1
0 12 8 384.86 25.6
0 12 -8 376.36 25.2
0 -12 -8 342.17 27.6
1 12 8 -1.9 2.8
-1 -12 8 2 2.4
-1 12 -8 -0.1 2.4
1 -12 -8 -0.7 3.6
-1 12 8 -1.2 2.6
-1 -12 -8 0.1 4.1
1 12 -8 1.8 3
1 -12 8 0.4 2.4
-2 12 -8 571.34 38.3
2 12 8 605.04 38.2
2 -12 8 583.14 38.1
-2 12 8 601.94 39.1
-2 -12 -8 670.73 42.3
0 -12 9 9 3.6
0 12 9 1 3.1
0 12 -9 4.7 3.4
-1 -12 9 2.9 3.1
1 12 9 0.3 3.2
0 -13 0 1.4 1.2
0 13 0 1.5 1.2
0 13 0 1 1.3
-1 13 0 2395.26 132.49
-1 13 0 2381.36 132.89
-1 -13 0 2242.08 132.99
1 13 0 2316.07 132.89
1 13 0 2376.56 132.69
-2 -13 0 -0.1 2.2
-2 13 0 0.6 1.4
-2 13 0 0.2 1.6
2 13 0 -1.7 1.2
2 -13 0 1 1.4
-2 -13 0 0.7 1.6
3 13 0 1248.78 74.29
-3 -13 0 1260.57 73.09
3 13 0 1267.77 73.59
3 -13 0 1267.67 73.29
-3 13 0 1250.47 73.89
4 13 0 3.8 3.3
4 -13 0 0.8 2.2
-4 -13 0 -2.1 1.6
4 13 0 2.1 2.1
-4 13 0 -2.7 2.1
5 -13 0 594.44 37.9
-5 13 0 643.64 39.2
-5 -13 0 576.64 37.4
5 13 0 609.34 37.8
5 13 0 579.34 39.8
0 13 -1 -0.5 1.2
0 -13 1 0.4 1.2
0 13 1 0.8 1.5
0 -13 -1 1.4 1.4
0 -13 -1 1.1 1.3
0 13 1 1.6 1.4
0 -13 1 0.1 1
1 -13 -1 199.48 15.9
-1 -13 1 263.37 16.9
-1 -13 1 224.18 16.5
-1 13 -1 228.98 16.4
-1 -13 -1 272.67 16.6
-1 -13 -1 259.77 16.7
1 13 -1 266.57 16.3
-1 13 1 272.47 16.9
1 -13 1 267.87 16.9
1 13 -1 240.18 16.4
-1 13 1 269.87 16.1
1 -13 1 233.28 16.2
-2 13 -1 49.99 6.2
-2 -13 1 46.9 5.5
2 -13 -1 48.1 5.7
-2 13 -1 49.6 5.4
2 13 1 42.4 5.6
-2 13 1 47.2 6.1
2 -13 1 44.3 5.4
2 -13 1 51.79 6.4
-2 13 1 48.5 5
-2 -13 -1 39 6.9
2 13 -1 43.8 5.8
-2 -13 -1 37 5.1
2 13 -1 39 5.6
3 -13 -1 200.88 13.9
3 13 1 207.78 14.3
-3 -13 1 199.88 13.9
-3 13 -1 197.68 13.1
-3 13 -1 182.08 14.4
-3 13 1 179.08 14.4
3 13 -1 180.68 13.8
3 -13 1 190.68 13.7
3 13 -1 198.18 14.5
-3 -13 -1 179.28 13.3
-3 -13 -1 189.38 16.3
-4 13 -1 112.39 10.7
4 -13 -1 116.79 10.2
4 13 1 116.29 10.2
-4 -13 1 113.99 9.8
4 -13 1 117.59 10
4 13 -1 109.89 10
-4 -13 -1 113.69 9.7
4 13 -1 120.69 11.1
-4 -13 -1 130.39 13.4
-4 13 1 108.29 10.7
-5 13 -1 80.69 10.7
5 13 1 98.29 10.6
-5 -13 1 91.19 10.2
5 -13 -1 102.79 11
-5 13 1 96.59 11.4
5 13 -1 96.69 12.1
5 13 -1 76.49 9.6
5 -13 1 100.29 10.6
-5 -13 -1 88.99 13.7
-5 -13 -1 90.39 9.8
0 -13 -2 2.1 1.6
0 13 -2 0.8 1.5
0 13 2 -0.4 1.4
0 -13 -2 0.4 1.2
0 13 2 -0.7 1
0 -13 2 1.1 1.5
0 -13 2 1.1 1.4
-1 13 -2 415.86 25
-1 -13 2 405.56 24.1
1 13 2 433.96 25.3
-1 -13 2 400.56 25.2
1 -13 -2 402.16 24.8
1 13 2 409.66 24.1
1 -13 -2 381.76 24.8
1 -13 2 410.36 25.4
-1 -13 -2 442.46 25.6
1 13 -2 418.76 25.2
1 -13 2 400.06 24.8
-1 13 2 335.37 24.1
-1 -13 -2 410.66 24.6
-1 13 2 350.96 24.9
-2 13 -2 -0.1 1.4
2 13 2 1.9 1.7
-2 -13 2 -2 1.3
2 -13 -2 1 1.6
2 13 -2 -0.2 1.5
-2 -13 -2 3.3 2.5
2 -13 2 0.1 2.1
-2 13 2 -0.1 1.9
2 13 -2 1.8 1.6
2 -13 2 2 1.6
-2 -13 -2 0.9 1.7
-3 -13 2 406.36 26.2
3 13 2 426.96 26.6
3 -13 -2 421.56 26.3
-3 13 -2 394.66 25.5
3 -13 2 440.36 26.2
-3 13 2 404.16 27.1
-3 -13 -2 367.06 28.6
-3 -13 -2 409.86 25.6
3 13 -2 412.36 26.7
3 -13 2 442.16 27.6
4 13 2 1.4 2.5
4 -13 -2 1.6 2.3
-4 13 -2 2.2 2.8
-4 -13 2 -0.8 1.9
-4 -13 -2 4.1 2.3
4 13 -2 1.4 2.9
-4 13 2 1.1 2.7
4 -13 2 0.8 2.1
-4 -13 -2 1.4 4.2
4 13 -2 1.3 2.3
-5 13 -2 288.27 20.2
5 -13 -2 248.38 18.8
-5 -13 2 257.87 18.5
5 13 2 255.27 19
5 13 -2 297.27 20.7
-5 13 2 206.88 19
-5 -13 -2 191.18 21.9
5 -13 2 289.97 19
0 13 3 2.5 1.5
0 13 3 1 1.6
0 13 -3 -0.1 1.3
0 -13 3 0.1 1.3
0 -13 -3 0.8 1.7
0 -13 -3 0.5 1.2
0 -13 3 0.5 1.4
-1 13 -3 34 4.7
1 13 3 29.9 4
1 -13 -3 22.7 4.4
1 -13 -3 35 4.7
-1 -13 3 28.7 4.5
-1 -13 3 29.8 3.8
1 13 3 27.9 4.3
-1 -13 -3 31.6 4.1
1 -13 3 29.6 4.2
-1 13 3 32.6 4.1
1 -13 3 29.8 4.3
-1 13 3 19.9 4.1
-1 -13 -3 43.8 6
1 13 -3 28.9 4.6
2 -13 -3 31.7 4.5
2 13 3 23.2 4.4
-2 -13 3 23.4 4.1
2 -13 -3 17.4 3.9
-2 13 -3 22.6 4
-2 -13 -3 24.1 4
2 13 -3 26.6 4.5
2 13 -3 30.9 4.5
-2 13 3 18.5 4.2
-2 -13 -3 23.2 5.1
2 -13 3 25.2 4
2 -13 3 16.2 3.8
-3 -13 3 23.9 4.5
3 13 3 23.5 4.6
3 -13 -3 26.1 4.6
-3 13 -3 20.2 3.9
-3 -13 -3 32.7 5.8
3 13 -3 25 4.8
3 -13 3 29.3 4.6
-3 -13 -3 26.5 6.1
3 -13 3 22.7 5
3 13 -3 19.3 4.4
-3 13 3 19.5 5
4 13 3 146.59 11.6
-4 -13 3 130.99 11
4 -13 -3 146.59 11.5
-4 13 -3 140.79 10.7
4 13 -3 135.99 12.2
4 -13 3 106.89 12.8
-4 13 3 82.69 11.9
-4 -13 -3 130.69 13.9
4 13 -3 124.39 10.7
4 -13 3 121.79 10.4
5 13 3 27.4 5.9
-5 13 -3 29.1 6.7
-5 -13 3 21.7 4.8
5 -13 -3 12.8 4.5
-5 13 3 22.9 6.3
-5 -13 -3 23.5 8.2
5 13 -3 25.4 6.4
0 -13 -4 -0.5 1.3
0 -13 4 -0.7 1.3
0 13 4 -0.7 1.5
0 -13 -4 -1.4 1.8
0 13 4 0.8 1.7
0 13 -4 0.2 1.4
0 -13 4 0.2 1.5
-1 -13 4 1584.24 89.99
1 -13 -4 1582.84 89.39
-1 -13 4 1650.93 88.99
1 13 4 1569.04 89.69
-1 13 -4 1550.94 89.89
1 -13 -4 1415.26 90.59
1 13 4 1638.24 89.39
-1 -13 -4 1583.34 91.09
-1 13 4 1526.85 90.29
1 -13 4 1550.94 89.59
1 -13 4 1583.84 89.49
-1 -13 -4 1485.85 88.79
2 13 4 -0.1 1.9
2 -13 -4 -1.6 2.1
-2 -13 4 -0.7 1.6
2 -13 -4 -0.5 1.7
-2 13 -4 0 1.6
2 -13 4 0.9 1.6
2 -13 4 0.4 1.9
-2 -13 -4 0.8 2.3
-2 13 4 2.1 2.3
2 13 -4 0.2 1.7
3 13 4 1004.2 57.39
-3 -13 4 946.91 56.79
3 -13 -4 958.6 56.79
-3 13 -4 962.9 56.59
-3 -13 -4 990.1 59.09
3 13 -4 942.31 57.19
3 -13 4 959.5 56.09
3 13 -4 967 56.79
3 -13 4 942.01 57.29
-3 13 4 867.01 57.49
-4 13 -4 -1.2 2.4
4 -13 -4 1 2.7
-4 -13 4 0.5 2
4 13 4 2.7 2.6
-4 -13 -4 0.7 3.3
4 -13 4 -0.3 3.3
4 13 -4 1.8 3.1
-4 13 4 2.4 3.1
5 13 -4 501.75 33.8
5 -13 4 521.35 40
-5 13 4 450.25 33.7
0 13 5 0.3 1.8
0 -13 5 -0.6 1.5
0 13 -5 0 1.8
0 -13 -5 -1.9 2.2
0 13 5 0.9 2.2
0 -13 5 -0.4 1.5
1 -13 -5 482.05 28.4
-1 -13 5 449.36 28.9
-1 13 -5 469.95 29.2
1 13 5 437.36 28.7
-1 -13 5 475.65 28.2
1 -13 -5 450.35 30.4
1 13 5 479.55 28.7
1 -13 5 483.35 28.5
1 13 -5 371.56 29
-1 -13 -5 493.75 30.8
1 -13 5 443.76 28.7
-1 13 5 486.95 29.7
2 -13 -5 27.4 4.7
-2 13 -5 18.4 4.1
2 13 5 29.5 5.3
-2 -13 5 25.4 4.7
2 -13 -5 23.1 5.5
2 13 -5 31.1 5.1
-2 -13 -5 27.2 5.9
2 -13 5 32 5.2
-2 13 5 23.3 5.1
3 -13 -5 282.87 19
-3 -13 5 280.57 19
-3 13 -5 265.17 18.8
3 13 5 301.97 19.8
3 -13 -5 214.08 19.5
3 -13 5 251.77 18.9
3 13 -5 274.67 18.7
-3 -13 -5 277.57 21.1
-3 13 5 312.47 20.7
-4 -13 5 61.79 8.3
-4 13 -5 49.2 7.3
4 13 5 79.89 10.1
4 -13 -5 62.49 8.5
4 -13 5 72.09 9.7
4 13 -5 64.79 9.2
-4 -13 -5 68.19 10.9
-4 13 5 53.79 9
0 -13 6 1.4 1.9
0 -13 -6 1.6 2.8
0 13 -6 -1.1 1.9
0 -13 6 1.1 2.5
0 13 6 0.7 2
1 -13 -6 306.67 22.8
-1 -13 6 314.77 21
-1 13 -6 314.17 21.2
1 13 6 295.97 20.7
1 13 6 298.47 20.8
-1 -13 6 315.97 20.3
1 -13 6 323.67 21
-1 13 6 314.07 21.6
-1 -13 -6 331.27 23.3
1 13 -6 313.37 21.7
-2 -13 6 1.7 2.1
-2 13 -6 -1.3 1.8
2 13 6 3.8 3
2 -13 -6 1.2 3.1
2 13 -6 -1.5 2.3
-2 13 6 0.2 2.5
2 -13 6 2.1 2.2
-2 -13 -6 3.5 3.6
3 13 6 266.97 20.1
-3 13 -6 285.47 20
-3 -13 6 282.77 19.8
3 -13 -6 271.67 19.7
-3 13 6 326.97 21.7
-3 -13 -6 290.97 22.5
3 -13 6 263.17 19.8
-4 -13 6 2 2.9
4 13 6 -0.1 3.1
-4 13 -6 1 3
4 -13 -6 1.4 3.2
-4 13 6 -2.6 3.8
4 -13 6 2.2 5.2
-4 -13 -6 1.7 7.4
0 -13 7 1.6 2.3
0 -13 -7 0.7 3.2
0 13 7 2.9 2.9
0 13 -7 -0.8 2.2
1 -13 -7 4.7 4.1
1 13 7 4.8 2.9
-1 13 -7 5.6 3.1
-1 -13 7 5.1 2.8
1 13 7 4.1 3.2
-1 13 7 7.9 3.8
-1 -13 -7 -1.4 3.5
1 -13 7 5.2 2.9
1 13 -7 1.6 3.1
2 -13 -7 7.6 4.7
-2 13 -7 20.1 4.8
-2 -13 7 16.8 5
2 13 7 15.8 4.5
-2 -13 -7 16.9 5.7
2 13 -7 14.4 4.5
2 -13 7 15.1 4.1
-2 13 7 19.1 5.1
3 13 7 5.9 3.6
-3 13 -7 -1.6 2.7
-3 -13 7 5 2.9
3 -13 -7 -3.9 4
-3 13 7 -0.5 3.6
3 -13 7 4.4 3.4
-3 -13 -7 4.7 4.9
0 13 8 -1.2 2.8
0 -13 -8 0.2 3.5
0 -13 8 -1.1 2.5
0 13 -8 -2.2 2.5
-1 13 -8 699.03 41.1
1 -13 -8 562.44 42.6
1 13 -8 691.33 41.3
1 -13 8 636.24 40.3
-1 -13 -8 644.24 43.7
-1 13 8 663.73 41.4
-2 13 -8 2.1 3.2
2 13 8 1.6 3.3
2 -13 -8 -1.2 4.3
-2 13 8 -0.3 3.3
-2 -13 -8 -1.7 4.1
2 -13 8 -0.3 2.8
0 -13 9 -1.5 2.9
0 13 9 2.6 4.2
0 13 -9 -0.3 5
1 13 -9 318.57 23.5
0 14 0 59.49 5.4
0 -14 0 58.89 5.5
0 14 0 56.49 5.5
1 -14 0 1.7 1.5
-1 14 0 4 1.7
-1 14 0 1.7 1.8
-1 -14 0 2 1.8
-1 -14 0 1.8 1.8
1 14 0 0.9 1.5
2 14 0 63.29 8.2
-2 -14 0 96.59 9.6
-2 14 0 111.89 8.9
2 -14 0 116.69 8.6
-2 14 0 89.79 7.9
-2 -14 0 113.89 8.5
3 14 0 1.9 2.1
-3 -14 0 -2 1.8
3 14 0 3.8 2.8
-3 14 0 1.2 2
3 -14 0 1.1 2.1
4 14 0 8.5 3.9
4 14 0 8.2 3.1
4 -14 0 11.2 3.6
-4 -14 0 14.2 3.7
-4 14 0 8.3 3.8
5 14 0 1.8 3.9
5 14 0 -0.1 2.7
5 -14 0 2.1 2.9
-5 14 0 0.7 3.5
-5 -14 0 1.6 2.6
0 14 1 33 4.4
0 14 -1 26.4 4
0 -14 1 30.6 4.3
0 14 -1 24.5 3.9
0 14 1 30.2 4.3
0 -14 -1 30 4.3
-1 14 -1 29.7 4.8
1 14 1 20.8 4.2
-1 14 -1 38.2 5
1 -14 -1 16.2 3.4
-1 -14 1 22.6 4.2
-1 -14 -1 38.9 4.8
-1 14 1 35.9 4.9
1 14 -1 36.6 4.9
1 -14 1 30.2 4.3
-1 -14 -1 36.8 5
-1 14 1 36 4.3
2 -14 -1 68.19 7
-2 14 -1 63.39 7.1
2 14 1 42 5.9
-2 -14 1 42 5.6
-2 14 -1 49.7 5.9
2 14 -1 47.4 6.2
2 14 -1 52.09 5.8
-2 -14 -1 63.99 8.3
-2 -14 -1 52.49 6.2
-2 14 1 53.39 5.6
2 -14 1 52.99 6.2
-2 14 1 46.7 6.6
-3 -14 1 37.7 5.2
3 14 1 45.4 6.2
-3 14 -1 34.5 4.8
-3 14 -1 32.9 5.6
3 -14 -1 42.8 6
3 14 -1 36.5 5.7
-3 14 1 35.8 5.9
-3 -14 -1 29.3 4.8
3 -14 1 42.6 5.7
-3 -14 -1 34.9 7.7
3 14 -1 44.8 6.6
-4 14 -1 21.6 5.3
4 -14 -1 21.4 4.7
4 14 1 22.3 5
-4 -14 1 21.9 4.5
-4 -14 -1 19.9 4.2
4 14 -1 21.5 5.3
-4 14 1 22.4 5.2
4 14 -1 26.6 5.1
-4 -14 -1 17.1 6.2
4 -14 1 21.1 4.6
5 14 1 63.39 8.7
5 -14 -1 58.19 8.4
-5 14 -1 55.69 8.5
-5 -14 1 64.59 8.2
5 14 -1 57.69 8.1
-5 14 1 58.29 8.9
5 -14 1 69.99 8.9
5 14 -1 62.89 9.7
-5 -14 -1 52.59 7.5
-5 -14 -1 59.19 11.7
0 -14 -2 3243.08 176.18
0 -14 2 3325.87 176.48
0 -14 -2 3385.76 176.68
0 14 -2 2858.51 176.78
0 -14 2 2795.22 176.08
-1 14 -2 1.5 1.9
1 -14 -2 -1.3 1.3
-1 -14 2 -0.3 1.4
1 14 2 1.4 1.7
1 -14 2 -1.5 1.6
-1 14 2 2.7 1.9
-1 -14 -2 1.4 1.6
1 14 -2 -0.1 1.4
-1 14 2 0.1 1.3
1 -14 2 -0.4 1.1
-1 -14 -2 0.6 1.4
-2 -14 2 2145.19 121.89
2 -14 -2 2336.67 122.19
-2 14 -2 2123.49 121.49
2 14 2 2207.28 122.39
2 -14 2 1831.12 122.39
2 -14 2 2012.8 121.59
-2 14 2 2230.28 122.69
2 14 -2 2273.17 122.29
2 14 -2 2085.39 121.69
-2 -14 -2 2129.79 122.99
3 14 2 0.9 2.1
-3 14 -2 1.8 2
-3 -14 2 5.7 2.5
3 -14 -2 0.3 2.2
-3 -14 -2 1.7 3.1
-3 -14 -2 2.2 2.1
3 -14 2 1 2.1
-3 14 2 0 2.2
3 14 -2 2 2.4
3 14 -2 1 1.9
3 -14 2 0.5 2.3
-4 14 -2 1249.88 73.99
4 14 2 1354.96 73.79
-4 -14 2 1197.08 72.79
4 -14 -2 1319.97 73.49
-4 -14 -2 1256.27 72.29
-4 -14 -2 1024.5 75.99
4 14 -2 1261.27 74.09
-4 14 2 1208.98 73.89
4 -14 2 1307.87 72.89
4 14 -2 1201.78 72.99
5 14 2 5.6 3.6
-5 -14 2 1.3 2.5
-5 14 -2 -0.2 3.5
5 -14 -2 1 3
5 14 -2 -0.5 3.8
5 -14 2 0.3 2.9
-5 -14 -2 -2.4 5
-5 14 2 2.3 3.8
0 -14 -3 83.79 7.4
0 -14 3 76.59 6.7
0 -14 -3 47.3 6.3
0 14 3 70.39 6.6
0 -14 3 81.99 6.5
0 14 -3 59.29 7.6
0 14 3 76.19 6.6
1 -14 -3 2.8 1.9
1 14 3 5.2 2.1
-1 -14 3 3.7 2.2
1 -14 -3 2.8 2.2
-1 14 -3 4.7 2
-1 -14 -3 4.5 1.8
-1 14 3 1.2 1.7
-1 14 3 1.1 2.2
-1 -14 -3 4.1 2.3
1 -14 3 3.3 2
1 -14 3 3.8 2
1 14 -3 3.6 2.3
-2 14 -3 130.59 10
2 -14 -3 134.29 10.2
-2 -14 3 125.29 9.9
2 14 3 136.99 10.6
2 -14 3 116.09 9.7
2 14 -3 129.29 10.1
-2 14 3 84.49 10.6
2 -14 3 124.39 10.6
-2 -14 -3 127.79 9.5
-2 -14 -3 126.29 11
-3 14 -3 117.19 9.5
3 14 3 139.29 10.7
3 -14 -3 125.59 10.1
-3 -14 3 90.29 9.2
3 -14 3 114.39 12.8
-3 14 3 90.19 11.3
3 -14 3 112.99 9.6
3 14 -3 119.39 10.4
3 14 -3 115.69 9.9
-3 -14 -3 118.69 11.5
-4 -14 3 56.79 7.9
-4 14 -3 65.79 7.9
4 -14 -3 80.39 9.4
4 14 3 73.39 8.9
4 14 -3 61.79 8
-4 -14 -3 86.09 12.1
4 -14 3 70.19 8.2
4 14 -3 79.69 9.7
-4 14 3 48.3 8.6
4 -14 3 63.89 9.3
-5 -14 3 10 5.8
5 -14 -3 15.1 7.1
5 14 3 15.9 4.9
-5 14 -3 10.2 5
-5 -14 -3 12.3 6.8
-5 14 3 4.6 4.6
5 14 -3 12.6 5.3
0 -14 4 9.7 2.7
0 14 4 7.9 2.6
0 -14 -4 11 3.7
0 -14 -4 7.6 2.5
0 14 4 12.1 3.3
0 -14 4 4.9 2.2
0 14 -4 15 3.6
1 -14 -4 6.3 3
1 -14 -4 1.7 1.9
1 14 4 2.2 2.1
-1 -14 4 3.1 2.2
-1 14 -4 3 2.1
1 -14 4 1.7 1.9
-1 14 4 1.6 2.3
1 14 -4 3 2.3
-1 -14 -4 2.6 1.8
1 -14 4 3.9 2.1
-1 -14 -4 3.2 2.7
2 -14 -4 50.39 6.3
2 -14 -4 49.7 7.4
-2 -14 4 51.69 6.3
2 14 4 54.69 7.1
-2 14 -4 55.69 6.7
2 14 -4 60.09 6.8
-2 -14 -4 38 6.7
-2 14 4 42.5 6.6
2 -14 4 34.3 5.3
2 -14 4 50.39 6.3
-3 -14 4 -1.3 2
3 14 4 -0.5 2
3 -14 -4 -3 2
-3 14 -4 -1.3 2
3 -14 4 2.1 2.2
-3 -14 -4 1.6 3
-3 14 4 2.2 2.8
3 14 -4 0.6 2.3
3 -14 4 1.1 2.8
4 14 4 31.5 6.1
-4 14 -4 43.9 6.4
-4 -14 4 33.7 5.7
4 -14 -4 41.9 6.8
-4 14 4 37.5 7.1
-4 -14 -4 38.7 8
4 -14 4 23.4 6.8
4 14 -4 39.2 7.2
5 14 -4 15 6.1
0 -14 5 1.4 2.3
0 -14 -5 2.5 3
0 14 5 2.3 2.2
0 14 5 3.6 2.2
0 14 -5 4.1 2.5
0 -14 5 0.9 1.7
1 -14 -5 29.9 4.7
1 -14 -5 27.8 6
1 14 5 28 4.8
-1 -14 5 30.5 5.3
-1 14 -5 27.8 5
1 14 -5 16.6 4.5
1 -14 5 35.5 5.1
-1 14 5 33.6 5.6
1 -14 5 31.6 4.8
-1 -14 -5 33.6 6.3
-2 14 -5 8.9 3.2
2 14 5 7.9 3.3
-2 -14 5 4.6 2.3
2 -14 -5 3.1 2.6
2 -14 -5 10.9 4.1
-2 14 5 5.3 3.3
-2 -14 -5 8.9 4.1
2 14 -5 10 3.2
2 -14 5 1.9 2.4
-3 -14 5 8 3.4
3 -14 -5 16 4.4
3 14 5 11.9 3.9
-3 14 -5 14.7 3.8
-3 -14 -5 15.2 5.3
-3 14 5 20.5 5.3
3 14 -5 17.4 4.4
3 -14 5 10.4 3.6
4 -14 -5 2.1 3.4
4 14 5 -0.5 2.7
-4 14 -5 -2.5 2.6
-4 -14 5 0.7 2.5
-4 14 5 8 4.2
-4 -14 -5 2 4.3
4 -14 5 1.8 3.5
0 -14 6 1860.71 106.89
0 -14 -6 1954.3 109.69
0 -14 6 1796.02 107.19
0 14 -6 1818.92 107.59
0 14 6 1886.31 107.69
-1 14 -6 1.7 2.2
1 -14 -6 1.2 3.1
1 14 6 4.4 2.6
-1 -14 6 2.5 2.5
-1 14 6 2 2.7
1 14 -6 3.2 2.7
1 -14 6 0.2 2.2
-1 -14 -6 4.1 3.4
2 -14 -6 924.31 58.69
-2 14 -6 906.21 56.69
-2 -14 6 907.51 56.29
2 14 6 989.9 57.19
-2 14 6 962.5 57.79
-2 -14 -6 1033.4 59.49
2 -14 6 892.81 56.59
2 14 -6 967.2 56.89
3 -14 -6 0.1 2.9
3 14 6 1.8 3.1
-3 -14 6 5.8 2.9
-3 14 -6 2.6 3.1
3 -14 -6 -0.3 4.3
-3 14 6 1.4 3.4
-3 -14 -6 3.9 3.7
3 -14 6 -1.4 2.7
-4 14 -6 843.62 54.59
4 -14 -6 930.11 54.49
0 -14 -7 139.29 14.2
0 14 -7 161.18 12.8
0 -14 7 154.98 12
0 14 7 146.49 12.6
1 -14 -7 -2.1 3.3
-1 14 -7 3.2 2.8
-1 -14 -7 0.7 4
1 14 -7 1.8 3.1
-1 14 7 -4.8 2.4
1 -14 7 3.9 2.9
2 -14 -7 91.49 13
-2 14 -7 116.19 10.7
2 14 7 107.59 11.8
-2 -14 7 105.89 12.1
2 14 -7 127.79 11.3
2 -14 7 111.19 10.5
-2 14 7 123.89 13.4
-2 -14 -7 132.29 13.2
-3 14 -7 10.6 5
-3 -14 7 17.1 4.6
3 -14 -7 10.6 6.1
3 14 7 22.5 5.8
0 14 -8 22.8 5.2
0 -14 -8 28.2 7.4
0 -14 8 22.9 5
0 14 8 31 6.4
-1 14 -8 0.6 2.9
1 -14 -8 3.7 4.8
1 14 -8 1.3 3.6
-1 -14 -8 2.6 4.4
-1 14 8 -0.7 3.3
1 -14 8 1.1 2.8
2 -14 -8 52.99 10.3
2 14 8 72.09 9.4
0 15 0 -0.4 1.4
0 15 0 1.2 1.4
0 -15 0 1.3 1.3
-1 15 0 2340.07 132.09
-1 -15 0 2318.97 132.09
1 -15 0 2153.38 131.79
1 15 0 2472.25 132.39
-1 15 0 2327.87 131.59
-2 15 0 -0.9 1.5
-2 -15 0 0.4 1.6
-2 -15 0 0.9 2.6
2 15 0 -0.7 1.8
-2 15 0 1.8 2.1
2 -15 0 0.1 1.5
-3 -15 0 1663.73 93.59
-3 15 0 1707.33 94.49
3 15 0 1386.16 93.59
-3 -15 0 1670.13 96.39
3 -15 0 1685.03 93.99
-4 -15 0 1.3 2.2
4 -15 0 -1.1 2.2
4 15 0 -0.8 3.1
4 15 0 3.3 2.6
-4 15 0 0.1 2.5
-5 15 0 966.5 58.09
-5 -15 0 930.61 56.69
5 15 0 958.8 57.39
5 15 0 907.61 59.09
5 -15 0 932.61 57.29
0 -15 1 1.1 1.4
0 -15 -1 -0.3 1.4
0 15 -1 -0.5 1.5
0 15 1 -0.4 1.4
0 15 -1 0.4 1.4
0 15 1 -1 1.4
-1 15 -1 71.99 7.4
-1 -15 1 73.49 8.3
1 15 1 73.29 7.5
1 -15 -1 60.79 7.6
-1 15 -1 87.89 7.7
-1 -15 -1 98.69 7.5
-1 15 1 81.09 7.5
-1 15 1 101.09 7.4
1 -15 1 88.89 7.5
-1 -15 -1 86.69 7.4
1 15 -1 104.59 7.9
-2 -15 1 5.3 2.6
-2 15 -1 7.5 2.6
2 -15 -1 11.2 3.1
2 15 1 1 1.8
-2 15 -1 4.9 2.7
-2 -15 -1 4.6 2.4
2 15 -1 6.6 2.7
2 15 -1 7.7 3
-2 15 1 11.2 3.2
-2 -15 -1 8.2 3.4
2 -15 1 5 2.5
-2 15 1 6.9 3.4
-3 15 -1 82.39 9.5
3 15 1 78.29 9
3 -15 -1 83.69 8.8
-3 15 -1 73.69 9.4
-3 -15 1 66.39 7.8
-3 15 1 83.49 9.3
3 15 -1 83.99 8.4
3 -15 1 78.79 8.4
-3 -15 -1 53.99 10
-3 -15 -1 68.99 7.8
4 15 1 -0.4 2.4
-4 -15 1 1 2.4
-4 15 -1 0.2 2.7
4 -15 -1 1.4 2.6
4 15 -1 -4.4 2.9
-4 -15 -1 1.2 2.6
-4 15 1 1.1 2.7
4 15 -1 -0.3 2.2
-4 -15 -1 -4 3.6
4 -15 1 1.8 2.7
-5 15 -1 39.9 7.3
5 -15 -1 46.7 7.6
5 15 1 49.99 8
-5 -15 1 39.2 6.5
-5 -15 -1 39.3 10.1
-5 15 1 57.19 8.9
-5 -15 -1 43.3 6.9
5 15 -1 59.49 9.9
5 15 -1 47.4 7.5
5 -15 1 60.89 8.5
0 15 2 -1.7 1.6
0 15 2 -0.2 1.6
0 -15 -2 1.9 1.6
0 15 -2 -1.5 1.4
0 -15 2 1.3 1.5
0 -15 2 0.8 1.9
-1 -15 2 34.7 5.6
-1 15 -2 31.7 5.1
1 -15 -2 31.5 5
1 15 2 37.6 5.3
-1 -15 -2 42 5.7
-1 15 2 58.39 6.7
1 -15 2 41.7 5.2
1 15 -2 38.5 5.3
-1 -15 -2 40.3 4.9
-1 15 2 39.1 4.9
1 -15 2 31.1 5.4
2 -15 -2 0.3 2.1
-2 15 -2 1.3 1.9
-2 -15 2 1.7 2.1
2 15 2 0.6 2
-2 -15 -2 1.9 2.5
2 -15 2 -0.5 2.5
-2 -15 -2 1.7 2.3
-2 15 2 2.2 2.5
2 -15 2 1.7 2.1
2 15 -2 3.6 2.2
3 -15 -2 24.4 4.8
-3 15 -2 22 4.2
3 15 2 25.1 5
-3 15 -2 20.7 5
-3 -15 2 23.2 4.4
3 15 -2 31.2 5.6
-3 -15 -2 28.5 6.3
3 -15 2 24.2 4.6
-3 15 2 25.1 5.2
3 -15 2 41.9 6.7
3 15 -2 20.5 4.4
-3 -15 -2 30.2 4.7
4 -15 -2 3 3
-4 15 -2 2.2 3.7
-4 -15 2 5 3.1
4 15 2 6.9 3.2
4 15 -2 4.8 3.2
4 15 -2 2.9 3.6
-4 -15 -2 4.2 2.9
-4 15 2 3 3.5
4 -15 2 3.1 2.5
-4 -15 -2 3.6 4.6
-5 -15 2 7.1 3.6
-5 15 -2 3.1 4
5 15 2 6.6 3.7
5 15 -2 3 4.5
5 15 -2 6.9 4.6
5 -15 2 0.9 3.4
-5 -15 -2 2.8 5.9
-5 15 2 1.1 4.2
0 15 3 0.3 1.6
0 15 3 0 1.6
0 15 -3 1.1 1.7
0 -15 3 -0.2 1.3
0 -15 -3 0.8 1.9
0 -15 3 0.8 1.7
0 -15 -3 -0.6 1.5
1 -15 -3 107.19 9
-1 15 -3 118.59 9.5
1 15 3 114.39 9.2
1 -15 3 116.79 9
1 -15 3 113.29 9.4
-1 -15 -3 114.19 8.6
-1 -15 -3 113.89 9.8
1 15 -3 94.09 8.8
-1 15 3 76.69 9.6
-2 -15 3 2.3 2.2
2 -15 -3 1.4 2.1
-2 15 -3 5.6 2.6
2 15 3 1.9 2.4
-2 -15 -3 4.2 2.8
-2 15 3 3.5 2.9
2 -15 3 7.7 3.4
2 15 -3 2.5 2.2
2 -15 3 1.9 2.3
-2 -15 -3 3.4 2.1
-3 15 -3 67.39 7.6
3 15 3 61.59 7.9
-3 -15 3 61.39 7.3
3 -15 -3 61.39 7.8
3 15 -3 62.59 7.7
-3 -15 -3 73.69 9.7
-3 15 3 46.7 7.5
3 -15 3 76.09 8
3 -15 3 48.8 8.1
4 15 3 -0.8 2.5
4 -15 -3 1.7 3
-4 -15 3 1.8 2.6
4 -15 3 -0.3 2.6
4 15 -3 2.6 3.4
-4 -15 -3 3.7 4.5
4 15 -3 0.8 2.8
4 -15 3 2.4 3.6
-4 15 3 7 4
5 15 -3 49.7 9.3
0 -15 4 -1.1 1.5
0 -15 4 0.8 1.7
0 -15 -4 1.9 1.8
0 15 -4 -0.7 2
0 15 4 -0.6 1.9
0 -15 -4 0.2 2.2
0 15 4 -0.1 1.9
-1 15 -4 1616.24 95.49
1 -15 -4 1739.73 96.69
1 15 4 1696.53 95.59
1 -15 -4 1747.63 95.39
1 -15 4 1830.12 95.49
-1 -15 -4 1648.54 94.69
-1 -15 -4 1669.53 96.49
1 15 -4 1699.53 96.19
1 -15 4 1560.94 95.09
-1 15 4 1347.27 95.29
2 -15 -4 6.3 2.8
2 15 4 5.9 2.9
-2 -15 4 10.8 3.4
-2 15 -4 11.1 3
-2 15 4 7.1 3.2
2 -15 4 8.5 3
2 -15 4 4.3 2.8
2 15 -4 5.4 2.6
-2 -15 -4 1.2 2.6
-3 -15 4 1197.38 72.99
3 -15 -4 1293.17 73.39
3 15 4 1353.86 74.19
-3 15 -4 1228.68 72.89
3 -15 4 1120.39 73.99
3 15 -4 1292.57 73.29
3 -15 4 1234.18 72.69
-3 -15 -4 1230.88 74.99
-4 -15 4 14.2 4
-4 15 -4 8.8 3.7
4 15 4 0.8 3.1
4 -15 -4 5.2 3.5
-4 -15 -4 5.8 4.7
-4 15 4 5 4.2
4 15 -4 3 3.3
4 -15 4 9.5 4.7
0 -15 -5 2.6 2.7
0 15 5 2.7 2.3
0 15 -5 3 2.5
0 -15 5 1.1 1.9
0 -15 5 2.9 2
1 -15 -5 61.29 8.7
1 -15 -5 63.29 7.1
-1 15 -5 45.7 6.5
1 15 5 57.09 7.1
1 -15 5 59.49 6.7
1 -15 5 43.1 6.3
1 15 -5 30.4 6
-1 15 5 45.3 6.9
-1 -15 -5 65.09 8.9
-2 15 -5 2.3 2.6
2 15 5 3 2.7
-2 -15 5 0.6 2.2
2 -15 -5 3.1 2.6
-2 15 5 0.6 2.6
2 -15 5 0.9 2.4
2 15 -5 0.7 2.3
-2 -15 -5 3.4 3.9
-3 -15 5 55.29 7.4
3 -15 -5 56.79 7.6
3 15 5 60.79 8.7
-3 15 -5 62.99 7.9
3 15 -5 56.09 7.5
-3 15 5 47 8.1
3 -15 5 43.5 7.2
-3 -15 -5 43.3 8.4
4 15 5 0 3.3
4 -15 -5 1.1 3.4
-4 15 -5 1.8 3
-4 -15 5 -4.1 2.4
-4 15 5 -1.5 3.5
-4 -15 -5 -0.3 3.6
4 -15 5 3.2 4.4
0 15 6 2.4 2.5
0 -15 6 1 2.4
0 -15 6 4.7 2.4
0 -15 -6 1.1 3
0 15 -6 1.7 2.4
1 -15 -6 7 4
-1 -15 6 3.2 2.9
1 15 6 6.2 3.2
-1 15 -6 5.5 2.8
1 15 -6 1.5 2.8
1 -15 6 5.9 2.8
-1 15 6 5 3.5
-1 -15 -6 8.1 4.2
-2 -15 6 4.6 3.1
2 -15 -6 9.2 4.7
2 15 6 11 4.1
-2 15 -6 6.1 3.2
-2 -15 -6 7.8 4.4
-2 15 6 12.3 4.3
2 -15 6 7.5 3.1
2 15 -6 5.2 3
3 15 6 0.9 3.5
-3 15 -6 5.3 3.3
-3 -15 6 1.9 3
3 -15 -6 4.6 3.6
3 -15 6 0.2 2.6
3 15 -6 0.3 4.7
-3 -15 -6 6.5 4.3
-3 15 6 0 3.4
4 -15 -6 16.9 7.2
0 -15 -7 -1.1 3.5
0 -15 7 -1.1 2.1
0 15 7 -1.5 2.8
0 15 -7 1.7 2.8
-1 15 -7 70.39 9.2
1 -15 -7 84.79 11.7
1 -15 7 85.79 9.3
-1 -15 -7 73.89 10.9
1 15 -7 55.39 8.8
-1 15 7 74.09 9.7
-2 15 -7 -0.9 2.9
2 -15 -7 -0.1 4
-2 -15 7 2.3 3
2 15 7 3.8 3.2
-2 -15 -7 2.5 4.2
2 15 -7 0.7 3.1
-2 15 7 -1.1 3.6
2 -15 7 3 3.2
-3 -15 7 34.1 5.9
0 -15 8 -2.1 2.6
0 -15 -8 1.6 4.3
0 15 -8 2.4 3.1
0 15 8 -0.6 3.3
1 -15 -8 672.63 44.9
-1 -15 -8 710.73 47.1
1 -15 8 662.03 41.8
-1 15 8 693.03 43.1
1 15 -8 603.64 42.6
0 -16 0 72.29 6.6
0 16 0 73.59 6.5
0 16 0 71.99 6.7
-1 -16 0 3.2 1.8
1 16 0 1.1 1.7
-1 16 0 3.4 2.2
-1 16 0 2.3 1.8
1 -16 0 3.8 2
-2 16 0 77.59 8.3
2 16 0 60.29 7.8
-2 16 0 69.89 6.5
2 -16 0 57.49 7.3
-2 -16 0 67.09 7.9
-3 -16 0 -1.1 3.3
3 16 0 3.5 2.7
-3 -16 0 0.4 2.5
-3 16 0 1 2.6
3 -16 0 0.8 2.2
-4 -16 0 32.8 8.3
-4 -16 0 38.8 6
-4 16 0 32.8 6.4
4 16 0 34.1 6.1
4 -16 0 37.3 6.4
5 16 0 -0.5 3.4
-5 -16 0 -1.3 2.8
-5 -16 0 4.5 5.6
0 16 -1 248.18 17.8
0 -16 -1 296.57 18.6
0 16 1 287.17 18.5
0 -16 1 313.27 18.7
0 16 -1 260.87 18.3
0 16 1 275.37 18.2
1 -16 -1 1 1.9
-1 16 -1 3.6 2.4
-1 16 -1 4.8 2.3
1 16 1 0.9 2.2
-1 -16 1 4.8 2.3
-1 -16 -1 4.6 2.2
-1 16 1 1.8 1.9
-1 16 1 3 2
1 -16 1 1.9 1.8
1 16 -1 2.5 1.9
-2 16 -1 288.37 19.9
-2 -16 1 314.47 20.1
-2 16 -1 209.58 18.8
2 -16 -1 288.37 19.7
-2 16 1 342.67 20.5
2 16 -1 310.07 20
-2 -16 -1 311.57 20.6
-3 -16 1 24.4 4.6
3 16 1 21.1 4.9
-3 16 -1 23 5.1
3 -16 -1 42.1 6.3
-3 -16 -1 32.1 5.2
3 16 -1 33.1 6.1
3 -16 1 32.3 5.5
-3 -16 -1 31 7.2
3 16 -1 20.3 4.6
-3 16 1 35.1 6.1
-4 -16 1 146.89 11.8
4 -16 -1 138.89 12
-4 16 -1 146.09 12.5
4 16 1 136.89 12.4
4 16 -1 111.69 11.6
-4 -16 -1 152.38 11.8
4 16 -1 135.49 13.3
-4 16 1 135.19 12.5
-4 -16 -1 116.59 16.5
4 -16 1 154.48 12.3
5 16 1 35 7.8
-5 -16 1 27.9 6.2
5 -16 1 56.89 8.6
-5 -16 -1 36 6.6
5 16 -1 32.6 8
-5 -16 -1 46.4 11.1
5 16 -1 55.99 8.3
0 16 2 1248.68 78.69
0 -16 2 1493.75 79.19
0 16 2 1343.77 78.89
0 -16 2 1292.57 78.79
0 -16 -2 1424.76 78.89
0 16 -2 1396.16 79.39
1 -16 -2 0.2 1.7
-1 16 -2 0.7 2
-1 -16 2 -0.3 1.7
1 16 2 0.6 1.8
-1 16 2 1.7 2.1
-1 -16 -2 -0.9 1.7
-1 16 2 0 1.8
-1 -16 -2 0 1.5
1 16 -2 3 2.1
1 -16 2 0.2 1.8
1 -16 2 0.9 2.2
2 16 2 1336.87 80.79
2 -16 -2 1395.76 80.59
-2 -16 2 1396.66 80.69
-2 16 -2 1371.06 80.29
-2 -16 -2 1341.97 80.99
-2 -16 -2 1315.27 79.89
2 -16 2 1418.66 81.09
2 16 -2 1425.06 80.69
-2 16 2 1448.26 81.09
-3 16 -2 5.1 3.4
3 -16 -2 5.6 3
-3 -16 2 4.4 2.6
-3 16 -2 4.5 2.6
3 16 2 3.5 2.7
3 -16 2 2.7 2.5
3 16 -2 6.7 3.3
-3 -16 -2 4.2 3.6
-3 -16 -2 2.6 2.6
-3 16 2 2.9 3.2
-4 -16 2 902.71 55.49
4 16 2 948.21 56.49
4 -16 -2 935.11 56.09
-4 16 -2 878.31 56.29
-4 -16 -2 933.41 55.49
4 -16 2 937.21 55.79
4 16 -2 970.9 57.19
-4 16 2 896.71 56.49
-4 -16 -2 880.81 58.89
5 -16 2 0.2 3.2
5 16 -2 0.5 3.1
5 16 -2 9.6 5.6
0 16 -3 105.69 10.2
0 -16 3 129.49 9.9
0 -16 3 135.19 9.8
0 -16 -3 120.79 9.6
0 16 3 104.99 9.5
1 16 3 3.9 2.5
1 -16 -3 -0.2 1.9
-1 16 -3 1.3 2
-1 -16 3 -0.2 2.1
-1 -16 -3 0.1 1.8
1 -16 3 -0.4 1.7
-1 16 3 -0.9 1.9
1 16 -3 0.9 1.7
-1 -16 -3 -2.6 1.9
1 -16 3 -2.9 2
2 -16 -3 106.69 9.4
-2 -16 3 116.99 9.7
-2 16 -3 110.19 9.4
2 16 3 110.29 9.8
2 -16 3 71.99 10.1
-2 -16 -3 111.29 8.7
-2 -16 -3 117.29 10.3
2 16 -3 99.69 9.1
-2 16 3 100.79 11
-3 -16 3 49.8 6.9
3 -16 -3 51.89 7.3
-3 16 -3 33.7 5.6
3 16 3 54.99 8
3 -16 3 49.5 8.2
3 -16 3 45.3 6.6
3 16 -3 51.09 7
-3 -16 -3 40.4 7.3
-3 16 3 51.39 7.9
-4 16 -3 57.29 8.9
-4 -16 3 60.39 8
4 -16 -3 57.69 8.3
4 16 3 66.09 9
-4 -16 -3 74.99 11.1
4 -16 3 82.59 10.3
4 16 -3 59.19 8.3
4 -16 3 75.19 8.9
-4 16 3 61.29 9
0 16 4 4.3 2.7
0 16 -4 7.5 2.9
0 -16 -4 2.2 2.4
0 -16 4 6.6 2.4
0 16 4 10.4 3.4
0 -16 4 5 2.5
0 -16 -4 4.6 3
1 16 4 -1.9 2.2
-1 16 -4 1.6 2.3
-1 -16 4 0.8 2.3
1 -16 -4 4.1 2.6
1 -16 4 -0.6 1.8
1 16 -4 2.2 2.3
1 -16 4 -1.2 1.9
-1 -16 -4 1.7 3.3
-1 16 4 3.7 2.7
-1 -16 -4 4.1 2.9
-2 -16 4 6 3
2 -16 -4 9.3 3.2
-2 16 -4 6.8 3
2 16 4 6.7 3.2
2 16 -4 12.7 3.6
2 -16 4 6.2 3
2 -16 4 16.2 4.6
-2 -16 -4 10.9 4.2
-2 16 4 4 3.1
-3 -16 4 4.8 2.9
-3 16 -4 10.7 3.6
3 -16 -4 14.7 4.3
3 16 4 5.3 3.5
3 -16 4 5.6 3.3
3 -16 4 12.2 4.9
-3 -16 -4 7.4 4
-3 16 4 5.7 3.6
3 16 -4 10.1 3.6
4 16 4 0.4 3.2
4 -16 -4 6.3 3.7
-4 -16 4 3.4 2.9
-4 16 -4 1.9 3.1
4 -16 4 0.1 3.8
4 16 -4 -4 2.6
-4 16 4 4.8 4.1
-4 -16 -4 8.9 4.8
0 -16 5 408.06 25.6
0 16 -5 392.16 26.9
0 16 5 348.67 25.8
0 -16 -5 426.56 27.6
0 -16 5 426.86 25.7
-1 -16 5 2.8 2.9
-1 16 -5 3.1 2.4
1 -16 -5 4.1 3.2
1 16 5 -0.2 2.4
1 -16 -5 4.1 2.8
1 -16 5 4.8 2.7
-1 -16 -5 1.5 3.1
1 -16 5 1 2.4
1 16 -5 0.2 2.6
-1 16 5 1.1 2.8
2 -16 -5 310.37 20.2
-2 16 -5 279.77 20.1
-2 -16 5 309.87 20.3
2 16 5 309.07 20.7
2 16 -5 284.67 20
-2 16 5 245.88 20.5
2 -16 5 286.67 20.2
-2 -16 -5 272.57 21.4
-3 16 -5 19.4 4.9
-3 -16 5 16.9 4.1
3 16 5 23.5 5.7
3 -16 -5 21.7 5.2
-3 16 5 9.3 4.6
3 -16 5 13.8 4.7
3 16 -5 15.2 4.3
-3 -16 -5 9.8 4.8
-4 16 -5 213.88 16.8
4 -16 -5 237.68 18.3
0 16 6 1051.99 66.49
0 -16 -6 1223.68 68.79
0 16 -6 1111.59 67.19
0 -16 6 1117.49 65.89
0 -16 6 1100.59 65.69
1 -16 -6 12.1 4.9
-1 16 -6 10.2 3.6
-1 -16 6 11.9 4
1 16 6 18 4.5
-1 16 6 11.7 4.5
1 16 -6 9.2 4.2
1 -16 6 16.3 4.5
-1 -16 -6 23.4 6
-2 16 -6 556.34 34.3
-2 -16 6 527.65 34
2 16 6 527.75 34.4
2 16 -6 544.05 34
-2 -16 -6 527.35 35.9
-2 16 6 478.05 34.5
2 -16 6 548.45 34.3
3 16 6 6.3 3.9
-3 16 -6 5.2 3.5
-3 -16 6 9 3.8
-3 16 6 5.5 4.5
3 16 -6 7.2 3.6
-3 -16 -6 2.5 4.5
3 -16 6 6.8 3.7
0 -16 7 34.4 5.9
0 16 7 27.4 5.8
0 -16 -7 30.1 7.6
0 16 -7 34.9 6.5
-1 16 -7 -0.9 2.8
1 -16 -7 -2.4 4
-1 -16 -7 3.2 4.3
1 16 -7 1.2 3.3
1 -16 7 0.9 2.8
-1 16 7 5.3 3.8
2 -16 -7 11 6
2 16 7 7.9 4.1
-2 16 -7 18.1 5.7
-2 -16 7 11.6 5.2
-2 -16 -7 16.7 6.4
-2 16 7 6.9 4.5
2 16 -7 14.4 4.5
2 -16 7 7.1 3.7
0 16 8 15.8 5.4
0 -16 -8 29.6 11.4
0 -16 8 25.1 5.4
0 -17 0 3.6 2.1
0 17 0 -0.2 1.6
0 17 0 1.8 2
1 17 0 1047.2 59.19
-1 17 0 950 58.19
-1 -17 0 992.4 58.59
1 -17 0 1025.1 58.99
-1 17 0 983.4 58.79
-2 -17 0 0.7 2.2
2 17 0 -0.1 2.3
-2 17 0 -0.2 1.7
-2 17 0 -1.1 2.3
2 -17 0 2.4 2.3
-3 -17 0 714.93 42.3
3 -17 0 657.33 42.2
-3 17 0 683.03 42.6
4 17 0 2.5 2.9
-4 -17 0 -0.3 5
4 -17 0 2 3.2
-4 -17 0 2.8 2.8
-4 17 0 -3.1 2.7
-5 -17 0 400.46 37.5
-5 -17 0 431.26 34
0 17 1 -1.1 1.5
0 -17 1 0.4 1.5
0 17 -1 1.3 1.8
0 -17 -1 0.4 1.8
0 17 1 -2.3 1.5
0 17 -1 -1.2 1.5
1 -17 -1 184.88 14.1
-1 17 -1 203.28 14.2
1 17 1 183.78 14.3
-1 -17 1 186.38 14.1
-1 17 -1 201.98 14.3
1 -17 1 205.88 14.2
-1 17 1 204.48 13.8
-1 -17 -1 203.58 13.9
-1 17 1 194.78 14.2
1 17 -1 194.98 14.2
-2 17 -1 49.1 6.8
2 17 1 58.89 7.6
-2 17 -1 75.49 8.2
2 -17 -1 59.59 7.4
-2 -17 1 61.79 7.7
-2 -17 -1 55.89 7.2
2 -17 1 38 6.2
-2 17 1 75.69 8.3
2 17 -1 73.79 8.2
3 17 1 94.79 11.8
3 -17 -1 126.39 11.1
-3 17 -1 125.89 11.2
-3 -17 1 129.99 11
3 17 -1 119.09 11
-3 -17 -1 125.59 12.9
3 -17 1 150.88 11.7
-3 -17 -1 133.49 11.2
-3 17 1 126.39 11.3
-4 17 -1 91.09 10.5
4 -17 -1 110.39 11.4
4 17 1 87.49 10.6
-4 -17 1 88.19 9.7
4 17 -1 56.59 8.9
-4 -17 -1 94.19 9.8
-4 -17 -1 93.79 14.3
4 17 -1 90.29 12.2
4 -17 1 88.19 10.2
-4 17 1 103.29 11.5
-5 -17 -1 85.39 10.2
5 17 -1 87.79 12.7
0 17 2 -0.2 2
0 -17 -2 0.5 1.6
0 -17 2 0.6 1.7
0 17 2 2.2 2
0 17 -2 0.8 1.8
0 -17 2 2.7 2.2
1 17 2 250.67 20.2
1 -17 -2 259.17 20.1
-1 -17 2 313.87 20.9
-1 17 -2 251.87 20.5
-1 17 2 333.67 20.9
-1 17 2 344.37 20.2
-1 -17 -2 300.97 19.9
1 17 -2 339.47 20.8
1 -17 2 350.46 21.2
1 -17 2 341.37 20.6
-2 -17 2 -0.8 2
-2 17 -2 2.9 2.7
2 -17 -2 -1.4 2.3
2 17 2 -2.1 2
-2 17 -2 -1 2.2
-2 17 2 -0.4 2.1
2 -17 2 -1.1 2
2 -17 2 -1 2.3
2 17 -2 0.1 2.1
-2 -17 -2 0.1 1.8
-2 -17 -2 -1 2.2
3 -17 -2 208.38 15.2
-3 -17 2 219.88 15.2
-3 17 -2 176.38 15.2
-3 17 -2 185.58 14.4
3 17 2 190.18 15.3
3 17 -2 229.48 15.6
3 -17 2 190.18 14.8
-3 -17 -2 200.58 16.3
-3 17 2 216.48 15.8
-3 -17 -2 136.99 13.9
4 -17 -2 -0.2 3
-4 -17 2 0.7 2.7
-4 17 -2 -1.2 3
4 17 2 3.1 3.2
-4 17 2 -0.1 3.2
4 -17 2 -1.2 2.7
4 17 -2 1.3 3
-4 -17 -2 3.1 4.2
0 17 -3 0.9 2.3
0 17 3 0.9 2.2
0 -17 -3 0 2
0 17 3 7 2.7
0 -17 3 -1.6 2.1
0 -17 3 0.6 1.6
-1 -17 3 387.66 25.5
-1 17 -3 367.16 25.6
1 17 3 335.37 24.9
-1 17 3 410.96 25.7
1 17 -3 401.76 25.3
1 -17 3 408.76 25
-1 -17 -3 395.96 26.5
1 -17 3 316.97 25.2
-1 -17 -3 452.65 24.9
2 -17 -3 44.8 6.7
-2 17 -3 47.3 6.8
2 17 3 58.49 7.6
-2 -17 3 43.5 6.8
-2 -17 -3 43.9 5.7
-2 -17 -3 55.39 7.9
-2 17 3 62.49 8.4
2 -17 3 41.5 6.2
2 17 -3 51.19 6.9
2 -17 3 39.8 6.9
-3 17 -3 303.27 20.9
3 17 3 332.17 22.4
3 -17 -3 325.37 21.8
-3 -17 3 282.47 21
3 17 -3 307.77 21.4
-3 17 3 321.47 22.4
3 -17 3 273.47 21
-3 -17 -3 303.77 22.5
3 -17 3 331.57 22.7
-4 -17 3 73.39 9.3
-4 17 -3 86.29 11.1
4 -17 -3 89.79 10.8
4 17 3 97.89 11.4
4 17 -3 97.79 10.6
4 -17 3 94.09 10.5
-4 17 3 95.39 11.8
-4 -17 -3 73.49 11.3
0 17 4 0.5 2.4
0 -17 4 0.4 1.9
0 -17 -4 0.6 2.3
0 17 4 -1.1 2.2
0 -17 4 1.2 2.1
0 17 -4 1.2 2.3
1 -17 -4 680.43 42.7
1 17 4 725.03 43.2
-1 -17 4 688.83 43.2
-1 17 -4 702.03 43.4
-1 -17 -4 728.93 43.7
1 -17 4 695.33 43
1 17 -4 750.62 43.3
1 -17 4 787.02 42.8
-1 17 4 553.64 42.5
2 -17 -4 -0.5 2.5
-2 17 -4 0.9 2.5
-2 -17 4 0 2.4
2 17 4 4.7 3
2 17 -4 0.4 2.3
-2 17 4 1.6 3.1
2 -17 4 0.1 2.9
-2 -17 -4 1.1 2.9
2 -17 4 -1.2 2.4
-3 -17 4 578.74 36
3 -17 -4 571.64 36.3
3 17 4 571.94 36.8
-3 17 -4 573.04 35.8
3 17 -4 597.54 36.1
-3 17 4 574.34 37.2
-3 -17 -4 531.75 37
3 -17 4 543.45 35.7
4 -17 -4 5.9 4.3
4 17 -4 -3.3 3
-4 -17 -4 4.2 4.3
0 -17 -5 -1.4 2.8
0 17 5 -2.6 2.5
0 17 -5 4.2 2.9
0 -17 5 0.7 2
0 -17 5 1.9 2.8
-1 17 -5 28.9 5.6
-1 -17 5 20.7 4.9
1 -17 -5 35.8 7
1 17 5 36.5 6.1
1 -17 5 26.5 4.6
1 17 -5 23.5 5.1
-1 -17 -5 23.3 5.7
1 -17 5 25.4 4.9
-1 17 5 15.5 4.6
-2 -17 5 40.7 6.5
-2 17 -5 42 6.4
2 17 5 47.2 7.3
2 -17 -5 45.5 6.9
2 -17 5 30.4 6.1
2 17 -5 35.1 6.1
-2 -17 -5 27.1 6.6
-2 17 5 28.5 6.2
3 -17 -5 11.3 4.6
-3 17 -5 16 4.4
3 17 5 11.8 4.6
-3 -17 5 11.3 3.8
-3 17 5 9.7 4.7
3 -17 5 15.7 5.5
3 17 -5 18.1 4.8
-3 -17 -5 10 4.8
0 -17 -6 3.3 3.7
0 17 6 0.5 2.9
0 -17 6 -0.1 2.8
0 17 -6 0.8 3.4
0 -17 6 1.5 2.3
-1 -17 6 194.68 15.4
-1 17 -6 230.98 16.3
1 17 -6 178.78 16
-1 -17 -6 229.98 17.5
1 -17 6 216.68 15.6
-1 17 6 149.59 15.2
2 17 6 2.6 3.4
-2 -17 6 0.8 2.8
-2 17 -6 1.7 3.1
2 -17 6 1.8 3.1
2 17 -6 -0.1 2.6
-2 -17 -6 -0.2 3.8
-2 17 6 2.2 3.8
3 17 -6 161.98 13.7
0 17 -7 2.2 3.5
0 -17 -7 3.1 4.6
-1 17 -7 369.96 25.8
1 -17 -7 367.56 27.2
1 17 -7 324.47 25.7
-1 17 7 325.37 25.4
1 -17 7 378.86 25
-1 -17 -7 412.96 27.9
-2 -17 7 28.5 7.7
2 17 7 17.2 5.5
2 17 -7 23.9 5.6
0 18 0 785.12 47
0 -18 0 788.52 47.1
-1 18 0 1.3 1.8
-1 -18 0 1.3 1.9
1 -18 0 1.9 2
1 18 0 1.2 1.9
-1 18 0 6.6 2.4
2 18 0 996.7 56.99
-2 18 0 974.8 55.59
-2 -18 0 812.52 56.39
-2 18 0 1000.8 56.79
-3 -18 0 -2.5 2.5
-3 18 0 1.7 2.4
3 -18 0 2.5 2.9
3 18 0 1.2 2.8
4 -18 0 476.05 32.4
-4 -18 0 500.25 32.1
-4 18 0 499.55 32.7
0 18 -1 143.39 11.4
0 -18 -1 158.48 11.6
0 -18 1 146.39 11.4
0 18 1 147.49 11.5
-1 18 -1 27.6 4.6
-1 -18 1 17 3.7
-1 18 -1 19.2 3.9
1 -18 -1 15.3 3.9
1 18 1 16.6 4.2
1 18 -1 25.3 4.6
1 -18 1 29 5
-1 18 1 30.7 5
-1 -18 -1 12.6 3.3
-1 18 1 22.8 4.1
2 18 1 137.39 11.5
-2 18 -1 140.19 11.3
-2 18 -1 128.29 10.8
2 18 -1 135.49 11.4
-2 18 1 133.89 11.3
-2 -18 -1 134.19 11.1
2 -18 1 110.19 10.5
3 -18 -1 65.09 8.6
-3 18 -1 60.09 8.4
3 18 1 42.3 7.8
-3 -18 1 74.79 8.9
-3 -18 -1 59.49 8.2
-3 18 1 79.59 8.9
3 18 -1 61.49 8.4
3 -18 1 84.69 9.3
4 18 1 100.39 11.7
-4 18 -1 101.09 11.1
4 -18 -1 99.69 11.1
-4 -18 1 96.39 10.5
4 -18 1 90.19 10.6
-4 -18 -1 80.29 13.3
4 18 -1 59.69 9.3
-4 18 1 72.09 9.6
-4 -18 -1 88.39 10.1
0 18 2 296.77 21.2
0 -18 2 322.37 21.3
0 -18 -2 348.37 21.4
0 18 -2 330.97 21.6
-1 18 -2 2.1 2.5
-1 -18 2 0.1 1.9
-1 18 -2 3.4 2.5
1 -18 -2 -1.4 1.9
1 18 2 4.9 2.5
-1 -18 -2 3.5 2.2
-1 18 2 -1.7 2
1 18 -2 -0.7 1.8
-1 18 2 4.2 2.8
1 -18 2 2.4 2.3
-2 18 -2 153.88 13.3
-2 18 -2 184.78 14
-2 -18 2 171.48 14
2 -18 -2 134.29 13
2 18 -2 203.58 13.8
-2 18 2 187.78 13.9
-2 -18 -2 163.78 12.5
2 -18 2 164.18 13.3
-3 -18 2 2.7 2.9
-3 18 -2 -1.3 3.2
3 18 2 -0.1 2.7
-3 18 -2 3.9 4.5
3 -18 -2 5.8 3.4
3 -18 2 4.1 3.4
-3 -18 -2 2.8 3.5
-3 18 2 1.6 3.2
3 18 -2 0.5 3.1
-3 -18 -2 1.8 3.3
4 -18 -2 139.89 12.8
4 18 2 136.29 13.3
-4 -18 2 135.89 12.2
-4 18 -2 132.69 13.1
-4 -18 -2 145.99 14.8
4 18 -2 122.39 12.5
-4 18 2 156.48 13.6
4 -18 2 155.58 13.2
0 -18 3 31.7 5.2
0 -18 3 21.5 8.1
0 18 3 28.4 5.2
0 -18 -3 39.1 5.7
0 18 -3 36.2 5.8
-1 18 -3 1.2 2.5
-1 -18 3 1.2 2.2
1 -18 -3 1.6 2.6
1 18 3 2.2 2.7
-1 18 3 0.8 2.6
1 18 -3 2.5 2.3
1 -18 3 1.2 2.9
-1 -18 -3 2 2.2
1 -18 3 1.4 2.1
-2 18 -3 11.2 4
2 -18 -3 12.5 4
-2 -18 3 8.7 3.4
2 18 3 14.4 4.4
2 18 -3 13.1 3.9
-2 -18 -3 7.2 2.8
-2 18 3 22.4 5.3
-2 -18 -3 10.8 3.8
2 -18 3 17.2 4.5
2 -18 3 15.5 5
-3 -18 3 169.98 13.4
-3 18 -3 148.29 12.7
3 18 3 158.98 14
3 -18 -3 162.98 13.7
3 -18 3 168.78 14.2
3 18 -3 171.58 13.5
-3 -18 -3 150.98 14.1
-3 18 3 176.58 14.4
3 -18 3 118.19 12.6
-4 -18 -3 10.2 5.7
4 18 -3 22.1 5.6
4 -18 3 15.7 4.9
0 -18 4 642.54 35.7
0 -18 -4 579.84 35.5
0 18 -4 488.05 36.2
-1 18 -4 8.8 3.8
1 18 4 2.7 3
1 -18 -4 3.8 3
-1 -18 4 5.6 3.2
-1 18 4 5.8 3.3
1 -18 4 1.4 2.3
1 18 -4 6.8 3
1 -18 4 5.9 3.6
2 18 4 713.63 44.6
2 -18 -4 746.73 44.4
-2 18 -4 769.72 44.5
-2 -18 4 648.84 44.2
-2 18 4 727.73 44.9
2 -18 4 710.73 43.7
2 18 -4 738.23 43.9
-2 -18 -4 764.32 45.4
2 -18 4 584.84 44.4
3 -18 -4 -1.8 3.1
-3 18 -4 -3.7 2.6
-3 -18 4 -2.1 2.5
3 18 4 3.5 3.6
3 -18 4 -1.8 2.9
3 -18 4 0.1 3.7
-3 18 4 4.6 3.7
3 18 -4 -0.2 2.5
-3 -18 -4 -2.6 3
4 18 -4 381.06 27.6
0 18 -5 174.08 14.9
-1 -18 5 16.4 4.4
1 18 5 17.7 4.6
-1 18 -5 9.9 4.4
1 18 -5 21 5
-1 18 5 17.3 5
1 -18 5 13 4.2
-1 -18 -5 16 5
1 -18 5 15.4 3.9
-2 -18 5 177.58 15.8
2 -18 -5 223.98 16.4
2 18 5 213.98 16.4
-2 18 -5 225.18 16.4
2 -18 5 228.88 17.2
2 18 -5 187.38 15.4
-2 -18 -5 200.28 16.7
-2 18 5 189.78 16.5
-3 -18 5 32.4 6.4
-3 18 -5 31.6 6.4
3 -18 -5 36.1 7.1
3 18 5 34.3 7.2
3 -18 5 24.1 8
3 18 -5 32.3 6.3
-3 18 5 58.39 13.3
-3 -18 -5 34.7 7.6
0 -18 6 247.78 17.7
0 -18 -6 270.37 21.9
0 18 -6 230.58 19.3
-1 18 -6 -1.2 3
-1 -18 6 2.5 2.8
1 -18 6 -1.2 3.1
1 18 -6 5.2 3.6
-1 -18 -6 -3 3.2
-1 18 6 -2.9 3.1
-2 -18 6 91.39 11.7
2 18 6 142.69 12.5
-2 18 -6 130.29 11.8
-2 18 6 79.59 11.7
-2 -18 -6 136.09 12.8
2 18 -6 120.19 11.2
2 -18 6 107.09 12.2
0 -18 -7 1.9 4.5
-1 -18 -7 4.2 5.1
1 -18 7 7.2 4.1
-1 18 7 2.3 3.6
2 18 7 4 5.5
0 -19 0 9.6 2.9
0 19 0 3.2 2.4
-1 19 0 5.3 2.8
1 19 0 5.2 3
-1 -19 0 4 2.6
1 -19 0 3.2 2.4
-1 19 0 6.8 2.7
2 -19 0 1.9 2.5
2 19 0 1.2 2.6
-2 -19 0 1.8 2.4
-2 19 0 0.4 2.6
3 19 0 7.7 4
-3 19 0 12.5 4.4
3 -19 0 5.6 3.6
-3 -19 0 4.3 3.4
4 -19 0 1.7 4
4 19 0 -4.3 2.7
-4 19 0 -5.2 3.4
-4 -19 0 1.4 3.5
0 -19 1 0.8 1.9
0 19 1 3 2.6
0 19 -1 0 2
0 -19 -1 2.2 2.2
-1 19 -1 71.99 7.8
1 19 1 63.59 8
1 -19 -1 58.69 7.7
-1 -19 1 65.49 7.7
-1 19 -1 65.99 7.8
1 -19 1 71.99 8.1
-1 -19 -1 67.99 7.5
-1 19 1 73.39 8.2
1 19 -1 65.99 8.1
-1 19 1 66.59 7.4
-2 19 -1 4.4 3.1
2 -19 -1 4.5 3.2
2 19 1 20.5 4.9
-2 19 -1 8.5 3.4
-2 -19 1 1.3 2.7
2 19 -1 11.5 3.9
-2 -19 -1 8.4 3
-2 19 1 5.9 3.2
2 -19 1 7.5 3.3
3 -19 -1 57.69 8.2
-3 -19 1 47.3 7.4
-3 19 -1 55.39 7.8
3 19 1 33.5 6.8
3 -19 1 51.59 7.7
-3 19 1 48.3 7.3
-3 -19 -1 23.9 5.9
3 19 -1 53.69 7.9
-4 -19 1 12 4.5
4 19 -1 20.7 5.7
4 -19 1 14.2 5.4
-4 -19 -1 19.5 5.4
0 -19 -2 -1 1.9
0 19 2 0.3 2.1
0 -19 2 1.5 2.2
0 19 -2 1.7 2.2
1 19 2 1055.89 62.99
1 -19 -2 1108.19 62.79
-1 19 -2 997.4 62.39
-1 19 -2 963.5 62.39
-1 -19 2 1011.5 62.29
-1 -19 -2 1062.49 61.99
1 -19 2 1117.69 62.59
-1 19 2 1132.89 62.79
1 19 -2 1055.09 62.49
-2 -19 2 -1.8 2.3
-2 19 -2 0.5 2.7
2 19 2 -0.3 2.7
-2 19 -2 -3.6 2.8
2 -19 -2 -2.5 2.3
2 19 -2 1.6 2.5
-2 -19 -2 0.7 2.1
2 -19 2 0.4 2.5
-2 19 2 0.7 2.8
-3 -19 2 928.91 56.39
-3 19 -2 918.31 56.39
3 -19 -2 885.91 56.29
-3 19 2 979.5 56.69
-3 -19 -2 859.51 55.49
3 19 -2 976 56.39
4 19 -2 -0.1 3.8
4 -19 2 5.8 4.1
-4 -19 -2 2.3 4.7
0 19 3 -2.4 2.4
0 -19 -3 1 2.5
0 19 -3 -0.8 2.1
0 -19 3 -1.7 1.8
-1 -19 3 141.69 11.3
-1 19 -3 101.99 12.3
1 -19 -3 133.19 11.3
1 19 3 99.29 11.9
-1 -19 -3 141.79 10.8
1 -19 3 149.59 12.4
1 -19 3 141.49 11.1
1 19 -3 134.49 11.2
-1 19 3 135.09 11.7
2 -19 -3 3.5 3.3
2 19 3 2.5 3
-2 -19 3 2.4 3.1
-2 19 -3 2.3 3.1
-2 19 3 3.1 3.4
2 19 -3 6.2 3
2 -19 3 3 3
-2 -19 -3 0.1 2.2
2 -19 3 -2.4 3
3 19 3 87.19 11.2
3 -19 -3 107.29 11.5
-3 19 -3 91.39 11.2
-3 19 -3 98.09 10.9
-3 -19 3 92.29 10.8
3 19 -3 84.19 10.3
-3 -19 -3 95.99 10.7
-3 19 3 105.19 11.8
-4 -19 -3 20.5 7.2
0 -19 4 -1.2 2.2
0 -19 -4 0.7 2.8
0 19 -4 -0.8 2.8
1 19 4 1.8 3.4
-1 19 -4 5.9 3.7
-1 -19 4 2.1 2.6
1 -19 -4 -2.3 2.6
1 -19 4 7.4 4.2
1 -19 4 4.7 2.7
-1 19 4 5.9 3.8
1 19 -4 1 2.3
-2 -19 4 6.3 3.9
2 -19 -4 -1.1 3
2 19 4 -2.2 3.2
-2 19 -4 0.6 3.2
-2 19 4 3.6 3.9
2 -19 4 -0.1 3.8
2 19 -4 5.2 3.3
2 -19 4 3 3.1
3 -19 -4 3.4 3.6
-3 19 -4 5.2 3.6
-3 -19 4 4.2 3.5
3 19 4 0.2 3.7
-3 -19 -4 6.6 4
3 -19 4 5.9 4.4
-3 19 4 4.5 4
3 -19 4 -2 3.4
3 19 -4 5.8 3.6
0 19 -5 0.6 3
0 -19 5 -0.5 2.3
-1 -19 5 5.5 3.2
-1 19 -5 9 4.8
1 19 5 14.8 5
1 -19 5 8.3 4.6
-1 19 5 6.4 3.9
1 19 -5 7.2 3.7
1 -19 5 11.4 3.4
2 -19 -5 12.7 4.9
-2 -19 5 3.1 3.6
-2 19 -5 8.3 4.2
2 19 5 6.5 4.2
2 -19 5 3.9 4.2
-2 19 5 7.3 4.4
2 19 -5 4.7 3.4
-2 -19 -5 6.6 4.2
3 -19 -5 16.6 5.4
-3 -19 -5 14.3 5.9
0 19 -6 3.4 3.7
0 -19 6 2.4 2.9
-1 19 -6 606.94 40
-1 -19 6 589.84 37.9
-1 -19 -6 607.64 41
1 19 -6 617.54 39.1
1 -19 6 603.84 38.5
-2 -19 6 13.2 7.4
2 19 6 8.4 4.6
-2 -19 -6 6 4.3
0 -20 0 1538.25 87.59
0 20 0 1477.25 87.39
1 20 0 -1.3 2.1
-1 20 0 2.5 2.3
1 -20 0 -1.2 2.1
-1 20 0 -1.9 2.4
-1 -20 0 -1.5 1.9
2 -20 0 915.71 57.19
-2 -20 0 965.1 57.09
2 20 0 982.5 57.49
-2 20 0 930.91 56.99
-3 20 0 -1 2.8
3 -20 0 -1.2 2.8
3 20 0 1.5 3.1
-3 -20 0 -1.3 3
0 20 -1 225.18 16.1
0 -20 1 242.18 16.4
0 -20 -1 209.68 15.8
0 20 1 224.58 16.2
-1 -20 1 4.7 2.4
-1 20 -1 8 3.2
1 20 1 4.4 3.2
1 -20 -1 2.1 2.5
-1 20 -1 5.3 3.3
-1 20 1 6.3 3.2
1 -20 1 9.1 3.3
-1 20 1 4.7 2.5
1 20 -1 6.1 3.1
-1 -20 -1 6.2 2.8
2 -20 -1 117.29 11.1
-2 20 -1 115.19 10.9
2 20 1 114.69 11.4
-2 -20 1 130.19 11.5
-2 20 -1 117.09 10.4
-2 20 1 124.79 11.1
-2 -20 -1 137.19 10.9
2 -20 1 134.59 11.4
2 20 -1 125.99 11.2
3 20 1 2.6 3.4
-3 -20 1 2.4 3.2
-3 20 -1 -1.2 2.9
3 -20 -1 2.8 3.1
3 -20 1 -1.2 2.9
3 20 -1 -1.1 2.4
-3 -20 -1 3.7 3.7
-3 20 1 -0.5 2.7
-4 -20 -1 93.19 11.4
0 -20 2 35.6 5.5
0 20 2 26 5.1
0 -20 -2 32.8 5.3
0 20 -2 25.6 4.9
-1 20 -2 1.5 2.4
-1 20 -2 3.4 2.9
1 20 2 5.3 3.1
1 -20 -2 5.5 2.9
-1 -20 2 2.4 2.4
1 20 -2 0.4 2.1
-1 -20 -2 0.6 2.3
1 -20 2 2.5 2.6
-1 20 2 2.2 3
-2 20 -2 71.09 9.4
2 20 2 78.99 9.8
-2 20 -2 73.19 9.4
2 -20 -2 55.39 8.9
-2 -20 2 83.59 10.4
2 -20 2 100.69 10.6
-2 20 2 105.69 10.7
2 20 -2 100.49 9.2
-2 -20 -2 97.39 8.5
-3 -20 2 0.9 3.1
3 20 2 1.5 3.2
3 -20 -2 -1.2 3.3
-3 20 -2 -1.3 3
3 20 -2 0.8 3.2
-3 -20 -2 0.8 3
-3 20 2 -0.7 3
3 -20 2 1.1 3.3
0 -20 -3 184.68 13.5
0 20 -3 156.48 13.4
0 -20 3 174.78 13.3
0 20 3 174.18 13.8
-1 20 -3 15.8 4.6
-1 -20 3 15.7 4.1
1 -20 -3 16.5 4.4
1 20 3 18.1 4.7
-1 20 3 14.3 4.5
1 20 -3 14.3 4.1
1 -20 3 22 4.6
-1 -20 -3 24.2 4.7
1 -20 3 13.9 4.7
-2 -20 3 101.69 11.8
-2 20 -3 106.89 12
2 20 3 95.99 11.9
-2 20 -3 75.59 10.9
2 -20 3 129.59 11.5
2 -20 3 134.39 11.2
-2 20 3 127.79 12.9
2 20 -3 129.39 11
3 -20 -3 -0.3 3.5
-3 -20 3 -0.9 3.3
-3 20 -3 2.9 4.3
3 20 3 1.6 4.1
-3 20 -3 0.1 3.8
-3 20 3 1 3.7
3 -20 3 -2.3 3.5
3 20 -3 4.3 3.4
0 -20 4 835.02 51.29
0 20 -4 864.71 52.39
0 -20 -4 859.91 51.49
1 20 4 -2.5 2.9
-1 -20 4 -0.2 2.2
-1 20 -4 1.7 3.1
1 -20 -4 -0.3 3.3
-1 20 4 1.3 3.3
1 -20 4 0.7 3.9
1 20 -4 3.6 3.3
1 -20 4 -0.6 2.4
-2 20 -4 910.51 53.29
2 -20 -4 742.13 51.79
2 20 4 714.63 51.99
-2 -20 4 694.23 51.99
2 -20 4 867.51 53.49
2 20 -4 942.51 52.29
-2 20 4 917.01 53.09
2 -20 4 1042.6 52.79
3 -20 -4 6.8 5.4
-3 20 -4 7.9 4.6
3 -20 4 -2.3 3.5
0 -20 5 134.99 11.2
0 20 -5 113.09 13
1 20 5 -2.3 5.5
-1 20 -5 6 4.1
-1 -20 5 3.4 2.8
1 20 -5 3.2 3.1
1 -20 5 1.4 2.9
1 -20 5 6 4.6
-1 20 5 1.5 3.6
2 20 5 125.59 13.3
-2 20 -5 111.49 13.5
-2 -20 5 79.29 12.5
2 -20 -5 111.49 12.2
2 -20 5 73.49 11.7
-2 20 5 106.09 12.3
0 -20 6 25.9 5.6
-1 -20 6 5.8 3.5
-1 20 6 -1.3 4.1
1 -20 6 -2.6 4
0 -21 0 14.3 3.7
0 21 0 16.2 3.8
-1 -21 0 5 2.7
1 21 0 4.6 3.2
-1 21 0 10.9 3.6
-1 21 0 3.2 3
1 -21 0 5.9 3.4
-2 -21 0 0.7 2.7
2 21 0 1.9 2.8
-2 21 0 -0.6 2.9
2 -21 0 1 2.7
3 21 0 18.4 5.3
-3 -21 0 7.6 4.3
-3 21 0 12 4.5
3 -21 0 3.7 3.7
0 -21 1 -0.4 2.1
0 21 -1 -1 2.1
0 21 1 -1.1 2.5
0 -21 -1 -0.2 2.1
-1 21 -1 230.98 18
-1 -21 1 266.87 18.3
1 -21 -1 254.57 18.7
-1 21 -1 256.87 18.1
1 21 1 252.67 18.7
1 21 -1 264.77 18.6
-1 21 1 260.37 18.1
-1 -21 -1 260.37 18.1
-1 21 1 272.87 18.5
1 -21 1 284.77 18.9
-2 21 -1 10.9 3.8
2 -21 -1 15.6 4.8
2 21 1 17.5 5
-2 21 -1 8.4 3.9
-2 -21 1 17.4 4.6
2 21 -1 15.4 4.3
2 -21 1 11.9 4.1
-2 -21 -1 9.5 3.5
-2 21 1 16.7 4.9
3 21 1 203.88 16.6
-3 21 -1 178.68 15.5
-3 -21 -1 212.88 16
3 21 -1 197.38 16
3 -21 1 165.38 15.5
-3 21 1 192.18 15.7
0 -21 -2 1.3 2.4
0 -21 2 -1.1 2.5
0 21 2 3.3 2.8
0 21 -2 0.5 2.2
-1 21 -2 979.7 61.59
-1 21 -2 1022 61.59
-1 -21 2 1010 61.49
1 -21 -2 1041.9 61.89
1 21 2 1092.59 62.49
1 -21 2 1048.8 61.79
-1 -21 -2 1060.79 61.39
-1 21 2 1080.59 61.99
1 21 -2 986.7 61.59
2 -21 -2 1.4 3.5
2 21 2 0 3.1
-2 21 -2 -0.5 3.2
-2 -21 2 0.2 3.1
-2 21 -2 0.3 3.1
-2 21 2 0 3.1
2 -21 2 -0.6 2.6
-2 -21 -2 3.6 2.7
2 21 -2 1.8 2.7
-3 21 -2 619.04 40.3
3 -21 -2 465.25 44.1
3 -21 2 578.54 39.7
-3 -21 -2 672.33 38.8
-3 21 2 676.83 40.7
0 -21 3 0 2.5
0 -21 -3 1.6 2.8
0 21 -3 1.7 2.7
0 21 3 -1.7 3.9
-1 -21 3 131.49 11.1
-1 21 -3 119.59 11.6
1 -21 -3 123.19 11.4
1 21 3 135.59 12
-1 21 -3 117.59 13.3
-1 -21 -3 117.19 10.5
-1 21 3 123.89 11.5
1 21 -3 128.89 11.2
1 -21 3 130.29 11.1
2 -21 -3 12.2 4.5
-2 21 -3 9.2 4.7
-2 -21 3 12.7 4.6
-2 21 -3 7.3 4.3
2 21 3 9.5 4.5
-2 21 3 9.4 4.5
2 21 -3 8.2 3.8
2 -21 3 9.9 4.2
0 -21 4 6 3.2
0 -21 -4 0.5 3.3
0 21 -4 3.2 3.2
-1 -21 4 0.8 2.5
1 21 4 0.3 3.7
1 -21 -4 -0.2 3.2
-1 21 -4 4.4 3.6
-1 21 4 2.2 3.6
1 -21 4 2.2 3
1 21 -4 7.9 3.7
1 -21 4 -2.7 4.2
2 -21 -4 -2.6 3.5
2 21 4 -1 3.8
-2 21 -4 7.6 4.5
-2 -21 4 0.7 5.6
2 -21 4 1.6 4
-2 21 4 0.9 4.1
2 -21 4 0.4 3.2
0 21 -5 -2 5
0 -21 5 0.1 3
-1 -21 5 275.67 20.5
1 -21 5 307.67 20.7
2 -21 -5 0.5 7.4
0 -22 0 749.33 44.9
0 22 0 720.13 44.8
-1 -22 0 -0.3 2.5
-1 22 0 -1.4 2.5
1 22 0 -3.8 2.4
1 -22 0 5.7 3.3
-2 -22 0 383.26 25.3
2 -22 0 385.46 26.1
-2 22 0 336.67 25
2 22 0 409.06 26.2
0 -22 -1 133.99 10.8
0 22 -1 118.39 10.8
0 22 1 120.79 11
0 -22 1 121.99 10.9
-1 -22 1 20.2 4.3
-1 22 -1 21 4.7
1 22 1 16.8 4.5
1 -22 -1 26 5.5
-1 -22 -1 15.5 4.2
1 -22 1 16 4.5
1 22 -1 19.3 4.6
2 22 1 79.29 10.3
2 -22 -1 79.69 10.1
-2 22 -1 76.99 9.5
-2 -22 1 58.29 8.3
2 22 -1 77.29 9.7
-2 22 1 63.29 8.7
-2 -22 -1 83.39 9.1
2 -22 1 86.79 10
-3 -22 -1 6.7 4
0 22 -2 150.38 12.7
0 22 2 177.38 13.4
0 -22 2 131.89 12.3
0 -22 -2 169.98 12.9
1 -22 -2 3 3
1 22 2 2.1 3.3
-1 -22 2 4 2.7
-1 22 -2 2.4 3
-1 -22 -2 0.4 2.7
1 -22 2 1.4 2.6
1 22 -2 0.8 2.5
2 -22 -2 78.39 10.5
-2 -22 2 87.49 10.2
2 22 2 98.59 11.4
-2 22 -2 83.19 9.9
-2 22 -2 84.59 10
-2 -22 -2 96.09 9
-2 22 2 92.79 10.6
2 -22 2 101.49 11.1
2 22 -2 78.79 9.9
-3 -22 -2 0 3.6
0 22 -3 287.37 19.4
0 -22 3 264.67 18.9
0 -22 -3 235.08 18.4
1 22 3 -0.1 3.4
-1 -22 3 2.1 2.9
1 -22 -3 -0.3 3.1
-1 22 -3 -1.6 2.7
1 22 -3 4.1 3.1
1 -22 3 0.7 2.7
-1 -22 -3 -0.6 2.5
-2 22 -3 226.28 17.7
2 -22 -3 199.88 17
-2 22 -3 205.08 17.4
2 22 3 212.28 17.7
-2 22 3 202.28 17.2
2 -22 3 246.98 17.6
0 22 -4 478.25 30.7
0 -22 4 432.96 29.4
1 -22 -4 -2.1 3.6
-1 22 -4 3.1 4.1
1 22 4 -2.1 4
-1 -22 4 1 4.6
1 -22 4 2.6 3.2
2 -22 4 393.46 33.9
0 23 0 13.6 3.9
-1 23 0 410.56 26.9
-1 -23 0 403.76 27
1 -23 0 424.86 27.7
1 23 0 410.86 27.6
-2 -23 0 2.1 2.9
-2 23 0 -2.7 3
0 23 1 0 3.1
0 23 -1 0.8 2.7
0 -23 1 1.4 2.4
0 -23 -1 0 2.7
1 23 1 86.99 10.3
-1 -23 1 88.69 10.1
-1 23 -1 95.49 9.2
1 -23 -1 104.99 10.9
1 23 -1 94.09 10.4
-1 -23 -1 92.39 9.8
1 -23 1 89.99 10.3
-2 23 -1 5.6 4.1
-2 -23 -1 11.8 4.1
-2 23 1 9.5 4.6
0 23 -2 3.1 3
0 -23 2 -5.1 2.1
0 -23 -2 0.6 2.9
0 23 2 0.1 3.1
-1 23 -2 49.2 7.2
-1 -23 2 22.5 4.9
1 23 2 54.69 7.9
1 -23 -2 40.4 6.7
1 23 -2 32.8 6.3
-1 -23 -2 42.5 6.3
1 -23 2 35.9 6.4
-2 23 -2 7 3.8
-2 23 -2 -5.2 3.3
-2 -23 -2 2.6 3.2
-2 23 2 0.5 3.6
0 -23 -3 1.2 3.1
0 -23 3 2.1 3.4
0 23 -3 1.7 3.7
-1 23 -3 7.8 3.9
1 23 3 13.1 5.2
1 -23 -3 17.2 5.2
-1 -23 -3 19.2 4.8
1 -23 -4 314.37 23.1
0 -24 0 58.59 9.3
0 24 0 60.39 8.1
-1 24 0 0.1 4.4
1 24 0 0.6 3.7
-2 24 0 19.4 7.8
0 24 -1 79.89 9.5
0 24 1 68.29 9.1
0 -24 -1 76.89 9.1
1 24 1 16.2 4.9
-1 24 -1 13.6 4.4
-1 -24 -1 13.8 5.1
0 -24 -2 564.34 36.3
1 24 2 -0.6 3.7
-1 24 -2 -1.5 3.6
-1 -24 -2 -3.1 2.9
0 -24 -3 134.19 14.4
-1 -24 -3 0.9 3.7
0 25 1 -0.7 3.5

_cod_database_fobs_code 2243690
