#------------------------------------------------------------------------------
#$Date: 2018-07-06 05:20:27 +0300 (Fri, 06 Jul 2018) $
#$Revision: 208877 $
#$URL: file:///home/coder/svn-repositories/cod/cif/2/30/06/2300643.cif $
#------------------------------------------------------------------------------
#
# This file is available in the Crystallography Open Database (COD),
# http://www.crystallography.net/. The original data for this entry
# were provided by IUCr Journals, http://journals.iucr.org/.
#
# The file may be used within the scientific community so long as
# proper attribution is given to the journal article from which the
# data were obtained.
#
data_2300643
loop_
_publ_author_name
'Wang, Yunchen'
'Yang, Taimin'
'Xu, Hongyi'
'Zou, Xiaodong'
'Wan, Wei'
_publ_section_title
;
 On the quality of the continuous rotation electron diffraction data for
 accurate atomic structure determination of inorganic compounds
;
_journal_coeditor_code           KC5069SUP1
_journal_issue                   4
_journal_name_full               'Journal of Applied Crystallography'
_journal_page_first
;
;
_journal_paper_doi               10.1107/S1600576718007604
_journal_volume                  51
_journal_year                    2018
_chemical_formula_sum            'O24 Si12'
_chemical_formula_weight         721.01
_space_group_crystal_system      orthorhombic
_space_group_IT_number           62
_space_group_name_Hall           '-P 2ac 2n'
_space_group_name_H-M_alt        'P n m a'
_symmetry_space_group_name_Hall  '-P 2ac 2n'
_symmetry_space_group_name_H-M   'P n m a'
_audit_creation_method           SHELXL-2018/3
_cell_angle_alpha                90
_cell_angle_beta                 90
_cell_angle_gamma                90
_cell_formula_units_Z            8
_cell_length_a                   20.022(4)
_cell_length_b                   19.899(4)
_cell_length_c                   13.383(3)
_cell_measurement_reflns_used    11450
_cell_measurement_temperature    293(2)
_cell_measurement_theta_max      0.827
_cell_measurement_theta_min      0.065
_cell_volume                     5332.0(19)
_computing_structure_refinement  'SHELXL-2018/3 (Sheldrick, 2018)'
_diffrn_ambient_temperature      293(2)
_diffrn_measured_fraction_theta_full 0.865
_diffrn_measured_fraction_theta_max 0.865
_diffrn_measurement_device_type  'JEOL JEM-2100'
_diffrn_radiation_wavelength     0.0251
_diffrn_reflns_av_R_equivalents  0.2649
_diffrn_reflns_av_unetI/netI     0.2582
_diffrn_reflns_Laue_measured_fraction_full 0.865
_diffrn_reflns_Laue_measured_fraction_max 0.865
_diffrn_reflns_limit_h_max       23
_diffrn_reflns_limit_h_min       -23
_diffrn_reflns_limit_k_max       22
_diffrn_reflns_limit_k_min       -22
_diffrn_reflns_limit_l_max       14
_diffrn_reflns_limit_l_min       -14
_diffrn_reflns_number            19842
_diffrn_reflns_point_group_measured_fraction_full 0.865
_diffrn_reflns_point_group_measured_fraction_max 0.865
_diffrn_reflns_theta_full        0.827
_diffrn_reflns_theta_max         0.827
_diffrn_reflns_theta_min         0.065
_exptl_absorpt_coefficient_mu    0.000
_exptl_crystal_colour            White
_exptl_crystal_density_diffrn    1.796
_exptl_crystal_description       Plate
_exptl_crystal_F_000             939
_refine_diff_density_max         0.487
_refine_diff_density_min         -0.226
_refine_diff_density_rms         0.063
_refine_ls_extinction_coef       9830(75)
_refine_ls_extinction_expression Fc^*^=kFc[1+0.001xFc^2^\l^3^/sin(2\q)]^-1/4^
_refine_ls_extinction_method     'SHELXL-2018/3 (Sheldrick 2018)'
_refine_ls_goodness_of_fit_ref   1.121
_refine_ls_hydrogen_treatment    undef
_refine_ls_matrix_type           full
_refine_ls_number_parameters     150
_refine_ls_number_reflns         3795
_refine_ls_number_restraints     48
_refine_ls_restrained_S_all      1.124
_refine_ls_R_factor_all          0.2867
_refine_ls_R_factor_gt           0.2648
_refine_ls_shift/su_max          0.103
_refine_ls_shift/su_mean         0.002
_refine_ls_structure_factor_coef Fsqd
_refine_ls_weighting_details
'w=1/[\s^2^(Fo^2^)+(0.2396P)^2^+8.3400P] where P=(Fo^2^+2Fc^2^)/3'
_refine_ls_weighting_scheme      calc
_refine_ls_wR_factor_gt          0.6059
_refine_ls_wR_factor_ref         0.6226
_reflns_Friedel_coverage         0.000
_reflns_number_gt                2402
_reflns_number_total             3795
_reflns_threshold_expression     'I > 2\s(I)'
_cod_data_source_file            kc5069sup1.cif
_cod_data_source_block           dataset10
_cod_database_code               2300643
_shelx_shelxl_version_number     2018/3
_shelx_space_group_comment
;
The symmetry employed for this shelxl refinement is uniquely defined
by the following loop, which should always be used as a source of
symmetry information in preference to the above space-group names.
They are only intended as comments.
;
_shelx_res_file
;

    test3.res created by SHELXL-2018/3 at 14:55:02 on 24-Apr-2018

TITL 3_a.res in Pnma
CELL  0.0251  20.0220  19.8990  13.3830   90.000   90.000   90.000
ZERR   8.000   0.0040   0.0040   0.0027    0.000    0.000    0.000
LATT 1
SYMM 1/2-x,-y,1/2+z
SYMM 1/2+x,1/2-y,1/2-z
SYMM -x,1/2+y,-z
REM  ------ Electron scattering factors ------
REM  SFAC Species a(1) b(1) a(2) b(2) a(3) b(3) =
REM  a(4) b(4) c f' f'' mu cov_radius weight
SFAC O      0.45480  23.78030   0.91730   7.62200   0.47190   2.14400 =
            0.13840   0.29590   0.00000   0.000   0.000   0.000   0.730  15.999
SFAC SI     2.12930  57.77480   2.53330  16.47560   0.83490   2.87960 =
            0.32160   0.38600   0.00000   0.000   0.000   0.000   1.110  28.086
UNIT 192 96
L.S. 10
BOND
LIST 6
FMAP 2
PLAN 20
SHEL 20 0.87
ACTA
EQIV $1   x-1/2, y, -z-1/2
EQIV $2   -x+1/2, -y, z-1/2
EQIV $3   x, -y-1/2, z
EQIV $4   -x+1/2, -y, z+1/2
EQIV $5   x+1/2, y, -z-1/2

DFIX 1.61 0.015 Si01 O15 Si01 O01
DFIX 1.61 0.03  Si01 O16 Si01 O21_$5
DFIX 1.61 0.015 Si02 O06
DFIX 1.61 0.03 Si02 O01 Si02 O02 Si02 O13
DFIX 1.61 0.015 Si03 O19_$4 Si03 O20_$4 Si03 O03 Si03 O02
DFIX 1.61 0.01 Si04 O03 Si04 O17_$4
DFIX 1.61 0.03   Si04 O16_$4 Si04 O04
DFIX 1.61 0.015 Si05 O21
DFIX 1.61 0.03 Si05 O04 Si05 O14  Si05 O05
DFIX 1.61 0.015 Si06 O19 Si06 O06
DFIX 1.61 0.03 Si06 O05  Si06 O18
DFIX 1.61 0.015 Si07 O17 Si07 O22_$5
DFIX 1.61 0.03 Si07 O07 Si07 O23
DFIX 1.61 0.015 Si08 O13 Si08 O12
DFIX 1.61 0.03   Si08 O08 Si08 O07
DFIX 1.61 0.015 Si09 O09
DFIX 1.61 0.03 Si09 O18_$4 Si09 O25 Si09 O08
DFIX 1.61 0.01 Si10 O15_$4
DFIX 1.61 0.03 Si10 O09 Si10 O26  Si10 O10
DFIX 1.61 0.03 Si11 O10 Si11 O22 Si11 O11 Si11 O14
DFIX 1.61 0.015 Si12 O12
DFIX 1.61 0.03 Si12 O11 Si12 O20 Si12 O24
WGHT    0.239600    8.340000
EXTI 9829.714844
FVAR       1.90589
SI01  2    0.423495    0.059674   -0.333887    11.00000    0.02886
SI02  2    0.308072    0.030440   -0.185515    11.00000    0.04622
SI03  2    0.279421    0.062206    0.034948    11.00000    0.03054
SI04  2    0.121772    0.062745    0.029340    11.00000    0.02987
SI05  2    0.073535    0.028252   -0.182977    11.00000    0.02162
SI06  2    0.187250    0.056970   -0.327456    11.00000    0.03553
SI07  2    0.422854   -0.170887   -0.324991    11.00000    0.04059
SI08  2    0.310364   -0.130056   -0.181386    11.00000    0.03109
SI09  2    0.274467   -0.172909    0.033252    11.00000    0.03104
SI10  2    0.119943   -0.173788    0.030034    11.00000    0.03763
SI11  2    0.069672   -0.129422   -0.182075    11.00000    0.03256
SI12  2    0.188760   -0.173887   -0.315990    11.00000    0.03563
O01   1    0.374182    0.055978   -0.240666    11.00000    0.05468
O02   1    0.309708    0.059861   -0.075076    11.00000    0.05348
O03   1    0.201020    0.058301    0.029078    11.00000    0.06896
O04   1    0.094709    0.064145   -0.081139    11.00000    0.05767
O05   1    0.115453    0.053653   -0.275364    11.00000    0.05078
O06   1    0.245244    0.054820   -0.246962    11.00000    0.06317
O07   1    0.377561   -0.155568   -0.231203    11.00000    0.05470
O08   1    0.309560   -0.159171   -0.070301    11.00000    0.06111
O09   1    0.196956   -0.157345    0.019950    11.00000    0.05699
O10   1    0.086978   -0.163267   -0.077300    11.00000    0.07570
O11   1    0.119267   -0.158995   -0.264727    11.00000    0.06512
O12   1    0.242381   -0.150304   -0.235528    11.00000    0.08101
O13   1    0.308611   -0.050495   -0.172322    11.00000    0.07723
O14   1    0.077401   -0.050900   -0.172039    11.00000    0.06263
O15   1    0.420866    0.127108   -0.395138    11.00000    0.05629
O16   1    0.405284    0.001867   -0.410211    11.00000    0.06067
O17   1    0.403252   -0.132472   -0.424357    11.00000    0.05671
O18   1    0.191301    0.132057   -0.376924    11.00000    0.04145
O19   1    0.187732   -0.001287   -0.407986    11.00000    0.05605
O20   1    0.198138   -0.130214   -0.413670    11.00000    0.05868
O21   1   -0.001458    0.049241   -0.205651    11.00000    0.05076
O22   1   -0.004160   -0.152453   -0.212509    11.00000    0.06005
O23   1    0.423441   -0.250000   -0.349011    10.50000    0.05646
O24   1    0.189269   -0.250000   -0.351776    10.50000    0.07460
O25   1    0.286175   -0.250000    0.055692    10.50000    0.04232
O26   1    0.107131   -0.250000    0.063259    10.50000    0.04461

HKLF 4




REM  3_a.res in Pnma
REM wR2 = 0.6226, GooF = S = 1.121, Restrained GooF = 1.124 for all data
REM R1 = 0.2648 for 2402 Fo > 4sig(Fo) and 0.2867 for all 3795 data
REM 150 parameters refined using 48 restraints

END

WGHT      0.2000      0.0000

REM Highest difference peak  0.487,  deepest hole -0.226,  1-sigma level  0.063
Q1    1   0.1894 -0.2500  0.3198  10.50000  0.05    0.40
Q2    1   0.0755  0.2500 -0.1807  10.50000  0.05    0.32
Q3    1   0.4999 -0.2500  0.0724  10.50000  0.05    0.31
Q4    1   0.5064 -0.1762  0.0265  11.00000  0.05    0.26
Q5    1   0.3155  0.0624  0.0245  11.00000  0.05    0.25
Q6    1   0.0999 -0.1803  0.0228  11.00000  0.05    0.25
Q7    1   0.3960 -0.2500 -0.5709  10.50000  0.05    0.24
Q8    1   0.2951 -0.1815  0.0163  11.00000  0.05    0.24
Q9    1   0.3047 -0.1333 -0.0618  11.00000  0.05    0.24
Q10   1   0.2520 -0.1715 -0.2456  11.00000  0.05    0.24
Q11   1  -0.0051 -0.0647 -0.4732  11.00000  0.05    0.23
Q12   1   0.1040 -0.1455 -0.0783  11.00000  0.05    0.22
Q13   1   0.0906 -0.1369 -0.0648  11.00000  0.05    0.22
Q14   1   0.3838 -0.1333 -0.4048  11.00000  0.05    0.22
Q15   1   0.0018 -0.1446 -0.4198  11.00000  0.05    0.21
Q16   1   0.1939 -0.2500 -0.5713  10.50000  0.05    0.21
Q17   1   0.1105  0.0562 -0.0853  11.00000  0.05    0.20
Q18   1   0.0806  0.0510 -0.0634  11.00000  0.05    0.19
Q19   1   0.2530 -0.2500  0.2561  10.50000  0.05    0.19
Q20   1   0.2125 -0.0028 -0.4007  11.00000  0.05    0.19
;
_shelx_res_checksum              71559
_shelx_hkl_file
;
   0   1   0  294.40  149.50   1
   0  -1   0  271.80  149.50   1
   0   1  -1 1921.20  773.00   1
   0  -1   1 1716.20  772.40   1
   0   1  -2   36.30   16.70   1
   0  -1   2   -1.20   16.00   1
   0   2   0 2434.50  808.00   1
   0  -2   0 1638.00  805.80   1
   0   2   1   75.70   72.20   1
   0  -2  -1   78.60   72.20   1
   0   2  -1  394.40   74.50   1
   0  -2   1  268.90   74.00   1
   0   2  -2 1528.90  553.00   1
   0  -2   2 1121.20  551.90   1
   0   2  -3   13.60   22.80   1
   0   2  -4   74.90   59.00   1
   0  -2   4   75.30   59.00   1
   0   3   0   24.20   31.40   1
   0  -3   0   21.20   31.10   1
   0   3   1 1019.60  491.50   1
   0  -3  -1 1111.80  491.80   1
   0   3  -1 1643.20  492.60   1
   0  -3   1  989.00  491.00   1
   0   3  -2   44.80   44.20   1
   0  -3   2   47.20   44.30   1
   0   3  -3 2611.20 1037.90   1
   0  -3   3 2334.40 1037.10   1
   0   3  -4    7.50   19.20   1
   0  -3   4   10.60   19.40   1
   0   3  -5 3439.80 1355.00   1
   0  -3   5 3041.30 1352.00   1
   0   3  -6   25.80   33.00   1
   0  -3   6   26.70   32.80   1
   0   3  -7 2350.50 1024.60   1
   0   4   0 2131.90  902.90   1
   0  -4   0 2123.60  903.00   1
   0   4   1   55.10   43.30   1
   0  -4  -1   32.90   43.10   1
   0   4   2  327.00  174.60   1
   0  -4  -2  222.00  174.10   1
   0   4  -2  683.50  176.70   1
   0  -4   2  631.30  176.70   1
   0   4  -3  126.80   53.70   1
   0  -4   3   32.00   53.30   1
   0   4  -4 2207.10  853.80   1
   0  -4   4 1857.10  852.70   1
   0   4  -5   18.30   25.00   1
   0  -4   5   12.30   24.70   1
   0   4  -6  190.70   78.80   1
   0  -4   6   94.80   77.90   1
   0   4  -7    5.10   18.40   1
   0  -4   7   10.90   18.40   1
   0   4  -8   26.10   27.80   1
   0  -4   8   13.50   27.20   1
   0   4  -9   98.80   54.30   1
   0  -4   9   45.20   53.30   1
   0   5   0   64.30   55.20   1
   0  -5   0   63.90   55.20   1
   0   5   1 8484.10 2904.30   1
   0  -5  -1 9110.20 2906.30   1
   0   5  -1 6413.40 2898.70   1
   0  -5   1 6291.10 2898.70   1
   0   5   2   23.20   48.20   1
   0  -5  -2   -0.40   47.90   1
   0   5  -2   63.60   46.40   1
   0  -5   2  107.00   46.50   1
   0   5  -3 5526.00 2365.90   1
   0  -5   3 5951.30 2366.40   1
   0   5  -4   14.20   28.40   1
   0  -5   4   18.20   29.30   1
   0   5  -5 1825.90  669.40   1
   0  -5   5 1384.30  667.90   1
   0   5  -6   17.20   20.30   1
   0  -5   6    3.90   19.40   1
   0   5  -7  339.40  203.80   1
   0  -5   7  627.20  206.40   1
   0   5  -8   -0.00   10.20   1
   0  -5   8   -0.00    8.20   1
   0   5  -9 5649.50 2307.40   1
   0  -5   9 5369.70 2306.50   1
   0   5 -10   -0.20   14.40   1
   0  -5  10   -0.10   11.70   1
   0   5 -11 3595.70 1562.90   1
   0  -5  11 3587.60 1595.10   1
   0   5 -12   -0.00   16.40   1
   0   6   0 3661.80 1461.60   1
   0  -6   0 3358.70 1461.10   1
   0   6   1  626.20  262.20   1
   0  -6  -1  454.20  261.70   1
   0   6  -1  626.60  261.60   1
   0  -6   1  557.70  261.40   1
   0   6   2  405.20  207.60   1
   0  -6  -2  405.10  207.60   1
   0   6  -2  369.90  207.20   1
   0  -6   2  551.70  207.80   1
   0   6   3  166.10  135.60   1
   0  -6  -3  333.70  136.40   1
   0   6  -3  840.50  141.30   1
   0   6  -4  306.40  145.80   1
   0  -6   4  245.50  145.60   1
   0   6  -5   13.60   26.30   1
   0  -6   5    9.50   26.00   1
   0   6  -6 1576.90  535.90   1
   0  -6   6 1051.50  533.90   1
   0   6  -7   37.80   37.30   1
   0  -6   7   29.50   36.90   1
   0   6  -8  385.50  171.30   1
   0  -6   8  293.00  170.40   1
   0   6  -9   34.90   25.00   1
   0  -6   9    4.90   23.30   1
   0   6 -10  431.70  195.40   1
   0  -6  10  349.20  194.30   1
   0   6 -11   11.30   28.50   1
   0  -6  11   25.80   28.70   1
   0   6 -12   51.60   50.70   1
   0  -6  12   58.50   50.70   1
   0   6 -13   14.80   27.50   1
   0  -6  13   12.90   27.50   1
   0   6 -14  119.90   86.30   1
   0   7   0   80.00   59.90   1
   0  -7   0   63.20   59.80   1
   0   7   1 1021.70  451.30   1
   0  -7  -1  892.40  451.00   1
   0   7  -1 1194.80  451.50   1
   0  -7   1 1053.60  451.10   1
   0   7   2  205.40  133.20   1
   0  -7  -2  210.30  133.00   1
   0   7  -2  963.20  142.50   1
   0  -7   2  666.80  138.10   1
   0   7   3 1157.20  695.70   1
   0  -7  -3 1411.60  696.60   1
   0   7  -3 2786.20  699.80   1
   0  -7   3 2751.90  699.70   1
   0   7  -4  721.50  341.30   1
   0  -7   4  769.80  341.60   1
   0   7  -5   26.30   39.30   1
   0  -7   5   50.30   40.90   1
   0   7  -6    7.80   26.20   1
   0  -7   6   11.90   24.60   1
   0   7  -7  699.90  315.40   1
   0  -7   7  662.80  315.10   1
   0   7  -8   36.30   28.50   1
   0  -7   8    8.90   27.30   1
   0   7  -9   35.90   37.60   1
   0  -7   9   29.10   36.70   1
   0   7 -10   20.80   32.40   1
   0  -7  10   28.60   32.20   1
   0   7 -11   46.70   41.00   1
   0  -7  11   32.20   40.40   1
   0   7 -12    5.30   15.70   1
   0  -7  12    1.60   15.50   1
   0   7 -13  144.60   85.70   1
   0  -7  13  110.70   84.90   1
   0   7 -14   19.20   33.10   1
   0  -7  14   32.40   33.20   1
   0  -7  15    2.40   20.50   1
   0   8   0 6330.70 2515.10   1
   0  -8   0 5877.60 2514.60   1
   0   8   1   35.50   52.70   1
   0  -8  -1   52.70   53.10   1
   0   8  -1  112.70   51.90   1
   0  -8   1   51.00   51.70   1
   0   8   2  773.10  387.90   1
   0  -8  -2  768.50  387.80   1
   0   8  -2  841.90  387.90   1
   0  -8   2 1855.60  392.70   1
   0   8   3   34.00   51.40   1
   0  -8  -3   -0.00   51.00   1
   0   8  -3   54.30   49.40   1
   0  -8   3  204.10   50.70   1
   0   8   4 6108.90 2238.50   1
   0  -8  -4 4876.50 2228.10   1
   0   8  -4 4677.90 2222.70   1
   0  -8   4 7294.20 2232.40   1
   0   8  -5  605.20  282.40   1
   0  -8   5  595.90  282.30   1
   0   8  -6 2250.60  888.20   1
   0  -8   6 1961.30  887.30   1
   0   8  -7   31.90   41.00   1
   0  -8   7   38.90   40.70   1
   0   8  -8  341.20  124.00   1
   0  -8   8  172.60  122.20   1
   0   8  -9    5.00   14.90   1
   0  -8   9   -0.00   13.80   1
   0   8 -10  508.10  241.90   1
   0  -8  10  486.60  242.10   1
   0   8 -11   23.50   30.30   1
   0  -8  11   17.70   28.90   1
   0   8 -12   75.10   39.80   1
   0  -8  12   24.70   37.70   1
   0   8 -13    8.80   16.40   1
   0  -8  13   -0.00   13.70   1
   0   8 -14  326.10  150.30   1
   0  -8  14  228.90  147.00   1
   0   9   0   70.00   64.50   1
   0  -9   0   81.00   64.90   1
   0   9   1  191.40   94.30   1
   0  -9  -1  195.00   94.50   1
   0   9  -1  164.60   93.20   1
   0  -9   1  113.10   93.00   1
   0   9   2  155.30  112.80   1
   0  -9  -2  153.50  112.90   1
   0   9  -2  211.60  112.20   1
   0  -9   2  344.70  113.00   1
   0   9   3   73.30   70.10   1
   0  -9  -3   85.20   70.90   1
   0   9  -3   89.90   69.80   1
   0  -9   3  133.50   70.30   1
   0   9   4   42.90   66.90   1
   0  -9  -4   51.00   67.80   1
   0   9  -4  134.60   66.10   1
   0  -9   4  128.30   66.90   1
   0   9  -5  446.10  216.50   1
   0  -9   5  428.10  216.60   1
   0   9  -6  456.20  126.50   1
   0  -9   6  171.50  124.50   1
   0   9  -7  176.30  112.90   1
   0  -9   7  208.20  113.70   1
   0   9  -8   41.00   38.60   1
   0  -9   8   22.60   37.20   1
   0   9  -9   48.60   57.80   1
   0  -9   9   92.40   57.30   1
   0   9 -10   12.40   26.90   1
   0  -9  10   18.10   26.50   1
   0   9 -11  299.20  158.00   1
   0  -9  11  293.30  158.10   1
   0   9 -12    7.30   17.20   1
   0  -9  12    2.30   15.30   1
   0   9 -13    5.40   19.20   1
   0  -9  13    5.60   16.80   1
   0   9 -14    3.30   18.10   1
   0  -9  14    6.90   17.00   1
   0  10   0 6619.60 2760.10   1
   0 -10   0 6798.60 2761.60   1
   0  10   1   19.70   33.20   1
   0 -10  -1   13.80   32.80   1
   0  10  -1   22.90   31.00   1
   0 -10   1   26.00   31.10   1
   0  10   2 3397.10 1350.30   1
   0 -10  -2 3300.60 1350.30   1
   0  10  -2 3180.10 1348.60   1
   0 -10   2 3117.00 1348.70   1
   0  10   3   33.70   52.00   1
   0 -10  -3   21.90   52.00   1
   0  10  -3  123.90   54.40   1
   0 -10   3   94.50   53.10   1
   0  10   4 1416.50  487.50   1
   0 -10  -4 1357.10  487.00   1
   0  10  -4  875.70  483.10   1
   0 -10   4 1394.00  484.80   1
   0  10   5   23.00   48.90   1
   0 -10  -5   26.70   48.90   1
   0  10  -5  409.60   60.20   1
   0 -10   5  130.10   54.60   1
   0  10  -6  593.70  259.80   1
   0 -10   6  507.30  259.20   1
   0  10  -7   41.60   30.90   1
   0 -10   7   -0.00   29.50   1
   0  10  -8  828.60  405.20   1
   0 -10   8  997.50  406.20   1
   0  10  -9   -0.10   20.40   1
   0 -10   9    5.90   19.80   1
   0  10 -10  483.70  174.60   1
   0 -10  10  274.00  171.90   1
   0  10 -11   10.30   30.80   1
   0 -10  11   34.10   30.30   1
   0  10 -12   88.90   52.40   1
   0 -10  12   45.20   50.70   1
   0  10 -13   13.60   18.50   1
   0 -10  13   -0.00   17.50   1
   0 -10  14  117.50   81.20   1
   0  11   0   93.20   80.90   1
   0 -11   0  140.50   81.20   1
   0  11   1  820.60  340.50   1
   0 -11  -1  688.50  339.90   1
   0  11  -1  826.50  339.70   1
   0 -11   1  689.10  339.20   1
   0  11   2  413.10  174.00   1
   0 -11  -2  260.90  173.50   1
   0  11  -2  374.40  172.90   1
   0 -11   2  338.30  172.80   1
   0  11   3  273.70  161.90   1
   0 -11  -3  250.20  161.80   1
   0  11  -3  458.80  165.00   1
   0 -11   3  678.80  168.40   1
   0  11   4   73.40   77.00   1
   0 -11  -4   29.00   76.70   1
   0  11  -4  355.80   78.00   1
   0 -11   4  226.00   76.70   1
   0  11   5  179.00   82.60   1
   0 -11  -5  157.20   83.00   1
   0  11  -5  141.00   81.40   1
   0 -11   5   68.00   81.50   1
   0  11  -6 1376.90  570.40   1
   0 -11   6 1239.00  570.00   1
   0  11  -7   88.90   83.80   1
   0 -11   7  194.50   84.30   1
   0  11  -8   85.20   48.70   1
   0 -11   8   25.00   46.20   1
   0  11  -9   36.10   51.30   1
   0 -11   9   58.40   51.00   1
   0  11 -10   21.80   36.20   1
   0 -11  10   29.60   36.00   1
   0  11 -11  349.30  204.10   1
   0 -11  11  573.90  206.40   1
   0  11 -12    6.80   17.40   1
   0 -11  12    0.00   17.30   1
   0  11 -13   79.70   31.50   1
   0 -11  13    9.90   26.40   1
   0 -11  14   -0.00   10.80   1
   0  12   0 1128.70  475.50   1
   0 -12   0 1021.30  475.40   1
   0  12   1  110.00   80.00   1
   0 -12  -1  124.90   80.20   1
   0  12  -1  126.00   78.60   1
   0 -12   1  101.10   78.40   1
   0  12   2 1626.90  863.90   1
   0 -12  -2 1735.10  864.10   1
   0  12  -2 2779.70  865.90   1
   0 -12   2 2500.30  864.50   1
   0  12   3  142.60  115.20   1
   0 -12  -3  153.90  115.50   1
   0  12  -3  644.70  118.60   1
   0 -12   3  262.20  117.80   1
   0  12   4  945.50  546.90   1
   0 -12  -4 1035.40  547.20   1
   0  12  -4 1786.30  549.10   1
   0 -12   4 1661.90  548.30   1
   0  12   5  349.10  234.70   1
   0 -12  -5  363.00  235.10   1
   0  12  -5  698.30  234.40   1
   0 -12   5  704.80  234.60   1
   0  12   6  390.90  144.50   1
   0 -12  -6  343.50  143.60   1
   0  12  -6  333.70  144.50   1
   0 -12   6  181.10  143.80   1
   0  12  -7  943.10  329.50   1
   0 -12   7  607.10  326.90   1
   0  12  -8  415.40  169.80   1
   0 -12   8  271.50  168.90   1
   0  12  -9   16.30   30.10   1
   0 -12   9    4.40   31.70   1
   0  12 -10  289.70  132.00   1
   0 -12  10  193.60  128.90   1
   0  12 -11    5.50   26.40   1
   0 -12  11   12.80   25.00   1
   0  12 -12   46.90   46.80   1
   0 -12  12   39.70   45.60   1
   0  12 -13   -0.00   14.30   1
   0 -12  13   -0.00   12.40   1
   0  13   0   60.10   40.20   1
   0 -13   0   -0.10   39.30   1
   0  13   1  475.70  247.40   1
   0 -13  -1  395.90  247.00   1
   0  13  -1  755.20  247.80   1
   0 -13   1  666.60  247.40   1
   0  13   2   26.00   33.70   1
   0 -13  -2   31.90   33.90   1
   0  13  -2   16.60   30.70   1
   0 -13   2   15.20   30.90   1
   0  13   3 4323.10 1727.50   1
   0 -13  -3 4038.80 1725.60   1
   0  13  -3 3860.20 1723.40   1
   0 -13   3 4544.30 1725.40   1
   0  13   4  311.00  210.50   1
   0 -13  -4  350.20  210.40   1
   0  13  -4  666.30  212.60   1
   0 -13   4  682.00  212.40   1
   0  13   5 1265.70  614.70   1
   0 -13  -5 1343.90  614.90   1
   0  13  -5 1328.70  612.20   1
   0 -13   5 1756.10  613.80   1
   0  13   6   68.50   77.30   1
   0 -13  -6   42.50   77.80   1
   0  13  -6  206.00   77.40   1
   0 -13   6  194.50   79.60   1
   0 -13  -7 1912.40  714.90   1
   0  13  -7 1331.70  697.60   1
   0 -13   7 2481.50  704.30   1
   0  13  -8   71.00   68.10   1
   0 -13   8  101.70   68.40   1
   0  13  -9  137.90   75.60   1
   0 -13   9   81.60   74.70   1
   0  13 -10   24.10   42.20   1
   0 -13  10   37.30   43.50   1
   0  13 -11  434.30  219.50   1
   0 -13  11  438.70  218.40   1
   0  13 -12    8.80   29.10   1
   0 -13  12   10.90   25.30   1
   0 -13  13  178.50  108.80   1
   0  14   0  360.70  180.10   1
   0 -14   0  336.50  179.80   1
   0  14   1    7.00   35.30   1
   0 -14  -1    8.80   35.70   1
   0  14  -1   33.70   34.40   1
   0 -14   1   36.40   34.00   1
   0  14   2  335.00  112.00   1
   0 -14  -2  347.80  111.90   1
   0  14  -2  152.10  109.50   1
   0 -14   2  147.10  109.40   1
   0  14   3   65.10   68.10   1
   0 -14  -3   47.10   67.80   1
   0  14  -3   93.60   65.90   1
   0 -14   3  163.30   67.30   1
   0  14   4    5.10   39.30   1
   0 -14  -4   18.50   37.50   1
   0  14  -4   31.70   44.00   1
   0 -14   4   69.20   42.60   1
   0  14   5  179.70  151.30   1
   0 -14  -5  231.10  152.30   1
   0  14  -5 1217.60  159.40   1
   0 -14   5 1234.20  158.30   1
   0  14   6 1272.50  429.70   1
   0 -14  -6 1170.70  429.20   1
   0  14  -6  831.70  423.40   1
   0 -14   6  936.60  424.20   1
   0  14   7  141.20   63.70   1
   0 -14  -7   24.40   61.00   1
   0  14  -7  342.50   71.50   1
   0  14  -8  284.00  160.10   1
   0 -14   8  309.60  160.20   1
   0  14  -9  182.10  103.50   1
   0 -14   9  150.20  102.80   1
   0  14 -10   10.00   29.70   1
   0 -14  10   15.00   30.80   1
   0  14 -11   -0.00   27.20   1
   0 -14  11   11.30   30.90   1
   0  14 -12   -0.00   39.60   1
   0 -14  12   47.10   37.60   1
   0  15   0  190.70  109.20   1
   0 -15   0  159.90  109.10   1
   0  15   1  112.60  109.10   1
   0 -15  -1  142.00  109.40   1
   0  15  -1  422.70  110.00   1
   0 -15   1  312.50  109.30   1
   0  15   2   48.80   49.70   1
   0 -15  -2   64.30   50.60   1
   0  15  -2   46.30   46.70   1
   0 -15   2   37.40   46.60   1
   0  15   3  420.70  161.90   1
   0 -15  -3  246.60  161.00   1
   0  15  -3  270.30  159.40   1
   0 -15   3  364.40  159.90   1
   0  15   4   18.80   45.90   1
   0 -15  -4   37.40   46.10   1
   0  15  -4   27.40   47.00   1
   0 -15   4  105.40   54.20   1
   0  15   5 1178.90  694.80   1
   0 -15  -5 1446.10  696.30   1
   0  15  -5 1826.40  696.00   1
   0 -15   5 2479.90  698.70   1
   0  15   6   21.00   47.20   1
   0 -15  -6    4.40   48.10   1
   0  15  -6   64.40   41.80   1
   0 -15   6   29.80   41.90   1
   0  15   7  528.10  191.30   1
   0 -15  -7  729.10  195.20   1
   0  15  -7  429.90  187.70   1
   0 -15   7  279.00  187.80   1
   0 -15  -8    6.80   46.40   1
   0  15  -8   50.40   49.80   1
   0 -15   8  218.90   57.60   1
   0  15  -9  139.30   73.70   1
   0 -15   9   68.60   71.30   1
   0  15 -10    7.70   22.60   1
   0 -15  10   -0.10   22.40   1
   0  15 -11   54.20   45.90   1
   0 -15  11   24.70   44.80   1
   0 -15  12    7.20   31.00   1
   0  16   0 8110.40 3148.20   1
   0 -16   0 7234.60 3145.80   1
   0  16   1  137.70  103.40   1
   0 -16  -1  133.90  103.60   1
   0  16  -1  217.20  102.70   1
   0 -16   1  182.80  102.20   1
   0  16   2  843.20  482.20   1
   0 -16  -2 1047.80  483.50   1
   0  16  -2 1415.60  483.40   1
   0 -16   2 1274.90  483.00   1
   0  16   3   35.60   49.90   1
   0 -16  -3   49.00   49.70   1
   0  16  -3   45.20   47.20   1
   0 -16   3   59.40   47.70   1
   0  16   4  538.70  321.10   1
   0 -16  -4  533.50  320.90   1
   0  16  -4 1377.40  325.00   1
   0 -16   4 1143.20  326.30   1
   0  16   5   41.00   46.30   1
   0 -16  -5   39.30   44.20   1
   0  16  -5   30.40   42.30   1
   0 -16   5   26.30   43.40   1
   0  16   6   33.30   63.90   1
   0 -16  -6    8.10   63.40   1
   0  16  -6  209.00   62.90   1
   0 -16   6  148.90   62.90   1
   0  16   7    4.80   33.50   1
   0 -16  -7    5.70   36.60   1
   0  16  -7   13.00   25.50   1
   0 -16   7   11.80   29.10   1
   0  16   8  237.50  146.40   1
   0 -16  -8  214.50  145.90   1
   0  16  -8  466.40  149.60   1
   0 -16   8  223.90  147.20   1
   0  16  -9  110.00   81.20   1
   0 -16   9  105.90   81.20   1
   0  16 -10   15.70   35.60   1
   0 -16  10   23.20   35.80   1
   0  16 -11   -0.00   22.40   1
   0 -16  11    4.80   24.80   1
   0  17   0  119.20  100.60   1
   0 -17   0  203.40  100.70   1
   0  17   1   25.50   41.50   1
   0 -17  -1   26.00   41.60   1
   0  17  -1   30.10   39.30   1
   0 -17   1   33.70   38.60   1
   0  17   2   -0.00   33.10   1
   0 -17  -2    6.10   34.00   1
   0  17  -2   70.40   32.70   1
   0 -17   2    7.80   30.60   1
   0  17   3   62.50   48.30   1
   0 -17  -3   41.00   48.10   1
   0  17  -3   76.40   46.20   1
   0 -17   3   21.70   44.80   1
   0  17   4   74.60   48.40   1
   0 -17  -4   88.80   47.70   1
   0  17  -4   15.60   42.80   1
   0 -17   4   37.80   46.40   1
   0  17   5   10.50   38.10   1
   0 -17  -5    3.50   36.70   1
   0  17  -5   35.70   41.00   1
   0 -17   5   27.80   34.00   1
   0  17   6   11.40   61.30   1
   0 -17  -6   27.80   63.10   1
   0  17  -6  184.80   62.40   1
   0 -17   6  274.50   63.00   1
   0  17   7  295.10   99.40   1
   0 -17  -7  277.20   99.30   1
   0  17  -7  127.10   90.40   1
   0 -17   7  117.90   90.60   1
   0  17   8   52.40   44.10   1
   0 -17  -8   37.50   45.40   1
   0  17  -8   23.30   42.00   1
   0 -17   8   22.70   45.40   1
   0 -17  -9   51.10   43.60   1
   0  17  -9   10.80   42.90   1
   0 -17   9   50.40   48.20   1
   0  17 -10  660.30  249.50   1
   0 -17  10  432.40  246.00   1
   0 -17  11  107.10   79.20   1
   0  18   0  503.40  205.30   1
   0 -18   0  349.20  204.20   1
   0  18   1   15.70   34.20   1
   0 -18  -1   22.90   35.40   1
   0  18  -1   13.10   31.30   1
   0 -18   1   17.00   31.10   1
   0  18   2  180.30   97.80   1
   0 -18  -2   97.40   96.50   1
   0  18  -2  156.80   95.70   1
   0 -18   2  205.10   96.20   1
   0  18   3   85.20   45.30   1
   0 -18  -3   27.30   43.10   1
   0  18  -3   33.90   40.10   1
   0 -18   3   23.10   39.70   1
   0  18   4  417.80  168.00   1
   0 -18  -4  366.30  167.10   1
   0  18  -4  402.00  165.90   1
   0 -18   4  235.10  165.50   1
   0  18   5   22.50   51.50   1
   0 -18  -5   33.00   51.20   1
   0  18  -5   89.70   57.00   1
   0 -18   5   85.60   56.30   1
   0  18   6   74.80   78.30   1
   0 -18  -6   56.20   78.60   1
   0  18  -6  145.40   77.00   1
   0 -18   6  152.10   77.40   1
   0  18   7    4.70   32.60   1
   0 -18  -7   -0.00   35.40   1
   0  18  -7    9.20   24.10   1
   0 -18   7   10.60   24.60   1
   0  18   8   30.50   64.40   1
   0 -18  -8   42.20   67.00   1
   0  18  -8   97.20   61.70   1
   0 -18   8  257.10   69.40   1
   0  18   9    3.30   37.90   1
   0 -18  -9   -0.00   38.50   1
   0  18  -9   52.70   42.40   1
   0 -18   9  154.00   48.70   1
   0 -18 -10    0.00   32.70   1
   0 -18  10   16.20   34.80   1
   0  19   1   17.50   32.40   1
   0 -19  -1   37.30   34.40   1
   0  19  -1    9.60   30.60   1
   0 -19   1    5.20   28.30   1
   0  19   2    9.70   29.30   1
   0 -19  -2   12.70   31.70   1
   0  19  -2   20.60   27.00   1
   0 -19   2    2.00   26.00   1
   0  19   3   33.80   41.30   1
   0 -19  -3   28.50   42.10   1
   0  19  -3   39.10   39.90   1
   0 -19   3   29.40   39.20   1
   0  19   4   46.40   68.80   1
   0 -19  -4   58.80   68.60   1
   0  19  -4  123.90   66.70   1
   0 -19   4  114.00   67.10   1
   0  19   5   29.20   55.20   1
   0 -19  -5   22.50   55.10   1
   0  19  -5  107.70   56.90   1
   0 -19   5  202.70   66.90   1
   0  19   6   37.90   71.70   1
   0 -19  -6   78.50   73.70   1
   0  19  -6  109.30   70.40   1
   0 -19   6  244.50   73.70   1
   0  19   7   39.60   58.40   1
   0 -19  -7   28.10   60.60   1
   0  19  -7   94.50   57.70   1
   0 -19   7   87.10   56.90   1
   0  19   8    1.20   42.60   1
   0 -19  -8    0.40   47.10   1
   0  19  -8   27.10   34.70   1
   0 -19   8   40.30   36.10   1
   0  19   9  117.60   57.90   1
   0 -19  -9   90.80   58.30   1
   0 -19   9   26.80   55.00   1
   0  20   0 1018.30  407.90   1
   0 -20   0  818.50  406.50   1
   0  20   1   11.10   31.60   1
   0 -20  -1   16.60   32.40   1
   0  20  -1   17.30   28.80   1
   0 -20   1   -0.00   26.50   1
   0  20   2  146.60   47.90   1
   0  20  -2    5.40   40.20   1
   0 -20   2   54.70   41.50   1
   0  20   3   -0.00   27.00   1
   0 -20  -3    9.40   27.40   1
   0  20  -3    4.40   20.60   1
   0 -20   3    0.50   22.00   1
   0  20   4  347.70   71.20   1
   0 -20  -4   91.70   65.50   1
   0  20  -4   58.00   61.20   1
   0 -20   4   68.00   61.80   1
   0  20   5   10.20   37.30   1
   0 -20  -5   -0.00   36.20   1
   0  20  -5   31.90   34.00   1
   0 -20   5   29.60   41.90   1
   0  20   6  263.10  104.60   1
   0 -20  -6  252.30  103.50   1
   0  20  -6  239.00  104.50   1
   0 -20   6  103.80   99.00   1
   0  20   7    5.20   31.70   1
   0 -20  -7   12.10   37.30   1
   0  20  -7   17.00   28.90   1
   0 -20   7    7.20   27.20   1
   0  20   8   40.50   59.30   1
   0 -20  -8   87.70   62.30   1
   0  20  -8   57.30   51.60   1
   0 -20   8   48.40   52.10   1
   0  21   0   21.40   34.90   1
   0 -21   0   -0.00   32.90   1
   0  21   1  229.10  132.90   1
   0 -21  -1  176.00  132.20   1
   0  21  -1  282.70  132.20   1
   0 -21   1  262.40  131.70   1
   0  21   2   37.00   41.00   1
   0 -21  -2   49.00   43.30   1
   0  21  -2   22.40   38.10   1
   0 -21   2   20.20   38.00   1
   0  21   3  611.40  178.50   1
   0 -21  -3  491.00  177.10   1
   0  21  -3  265.80  173.10   1
   0 -21   3  319.10  173.40   1
   0  21   4   12.40   37.20   1
   0 -21  -4   17.10   37.60   1
   0  21  -4   19.30   33.30   1
   0 -21   4   33.00   34.10   1
   0  21   5  129.80   90.80   1
   0 -21  -5   89.40   90.00   1
   0  21  -5  160.00   88.90   1
   0 -21   5  168.10   92.20   1
   0  21   6   10.30   35.50   1
   0 -21  -6   -0.00   36.20   1
   0  21  -6    6.00   40.10   1
   0 -21   6   41.60   34.90   1
   0  21   7   21.00   50.30   1
   0 -21  -7   17.90   53.10   1
   0  21  -7   75.80   49.60   1
   0 -21   7   66.90   49.80   1
   0  22   0   39.10   45.70   1
   0 -22   0   22.10   44.90   1
   0  22   1   -0.00   34.30   1
   0 -22  -1   17.30   35.90   1
   0  22  -1   23.20   34.50   1
   0 -22   1   20.30   31.30   1
   0  22   2   57.40   43.10   1
   0 -22  -2   23.30   42.90   1
   0  22  -2   35.30   39.80   1
   0 -22   2   18.90   39.30   1
   0  22   3   13.80   29.00   1
   0 -22  -3    8.40   29.80   1
   0  22  -3   -1.40   22.90   1
   0 -22   3   -0.00   21.90   1
   0  22   4   52.90   58.10   1
   0 -22  -4   71.60   57.70   1
   0  22  -4   51.10   55.30   1
   0 -22   4   78.90   55.90   1
   0  22   5   16.00   35.90   1
   0 -22  -5    5.90   37.60   1
   0  22  -5   13.90   32.90   1
   0 -22   5   59.60   37.40   1
   0  23   0   -1.20   29.00   1
   0 -23   0   -0.00   28.10   1
   0  23   1   31.00   37.70   1
   0 -23  -1   10.40   37.40   1
   0  23  -1   15.00   34.20   1
   0 -23   1   12.70   33.40   1
   0  23   2   -0.00   27.20   1
   0 -23  -2   -0.20   28.80   1
   0  23  -2    0.90   20.90   1
   0 -23   2   -0.00   20.90   1
   0  23   3   73.70   82.60   1
   0 -23  -3  104.70   84.20   1
   0  23  -3  173.00   83.00   1
   0 -23   3  151.70   82.50   1
   1   0   0  140.20   69.30   1
  -1   0   0   82.90   69.00   1
   1   1   0  223.90  108.40   1
  -1  -1   0  204.90  108.30   1
   1  -1   0  143.50  108.30   1
  -1   1   0  191.50  108.40   1
  -1   1  -1  972.20  483.30   1
   1  -1   1 1124.10  483.70   1
  -1  -1   1 1191.90  484.80   1
   1   1  -1 1269.80  485.10   1
  -1   1  -2 1100.60  431.00   1
   1  -1   2  808.90  427.50   1
  -1  -1   2  903.70  425.70   1
   1   1  -2 1047.70  426.60   1
   1   2   0  524.90  182.70   1
  -1  -2   0  565.70  182.80   1
   1  -2   0  245.90  182.20   1
  -1   2   0  471.30  182.70   1
   1   2   1 1248.00  411.50   1
  -1  -2  -1 1302.90  411.70   1
  -1   2  -1  871.70  409.70   1
   1  -2   1  780.50  409.60   1
  -1  -2   1  950.80  410.60   1
   1   2  -1  913.40  410.50   1
  -1   2  -2  224.30  122.80   1
   1  -2   2  231.20  122.80   1
  -1  -2   2  195.70  122.70   1
   1   2  -2  226.70  122.90   1
  -1   2  -3  512.80  261.30   1
   1  -2   3  724.90  262.50   1
  -1  -2   3  529.20  261.40   1
   1   2  -3  520.60  261.40   1
  -1   2  -4 2002.20  818.40   1
   1  -2   4 1909.20  819.20   1
  -1  -2   4 1810.40  814.70   1
   1   2  -4 1897.30  814.20   1
   1   2  -5   72.40   58.80   1
   1   3   0   56.10   35.00   1
  -1  -3   0   51.30   35.00   1
   1  -3   0   -0.10   35.00   1
  -1   3   0   33.80   35.50   1
   1   3   1 1265.30  351.30   1
  -1  -3  -1 1251.70  351.20   1
   1  -3  -1 1116.30  351.90   1
  -1   3   1 1340.00  353.20   1
  -1   3  -1  678.80  349.90   1
   1  -3   1  564.80  349.80   1
  -1  -3   1  628.60  349.70   1
   1   3  -1  849.30  350.10   1
   1   3   2  864.10  318.70   1
  -1  -3  -2  559.10  314.50   1
  -1   3  -2 1290.90  315.60   1
   1  -3   2 1416.30  315.90   1
  -1  -3   2  490.30  313.00   1
   1   3  -2  645.60  313.40   1
  -1   3  -3 6831.10 2665.80   1
   1  -3   3 7160.90 2666.40   1
  -1  -3   3 5886.80 2663.80   1
   1   3  -3 6199.90 2663.90   1
  -1   3  -4  402.90  208.80   1
   1  -3   4  399.10  208.80   1
  -1  -3   4  430.20  209.10   1
   1   3  -4  475.00  209.40   1
  -1   3  -5  391.30  181.10   1
   1  -3   5  287.20  180.30   1
  -1  -3   5  374.40  181.00   1
   1   3  -5  436.60  181.50   1
  -1   3  -6  383.00  185.30   1
   1  -3   6  397.60  186.00   1
  -1  -3   6  305.10  184.50   1
   1   3  -6  402.30  185.20   1
  -1   3  -7  598.00  337.40   1
  -1  -3   7  705.50  341.10   1
   1   3  -7  889.70  340.80   1
   1   4   0  297.20  119.90   1
  -1  -4   0  226.90  119.70   1
   1  -4   0  177.40  119.80   1
  -1   4   0  197.10  119.90   1
   1   4   1  404.30  125.80   1
  -1  -4  -1  260.20  125.20   1
   1  -4  -1  429.60  126.40   1
  -1   4   1  389.10  126.20   1
  -1   4  -1  364.80  124.90   1
   1  -4   1  346.00  124.80   1
  -1  -4   1  127.40  125.20   1
   1   4  -1  123.00  125.40   1
   1   4   2  698.60  255.10   1
  -1  -4  -2  496.80  254.20   1
  -1   4  -2  490.50  253.50   1
   1  -4   2  447.80  253.40   1
  -1  -4   2  674.00  255.00   1
   1   4  -2  670.90  254.80   1
  -1   4  -3   43.80   41.80   1
   1  -4   3   64.30   42.00   1
  -1  -4   3   41.00   43.50   1
   1   4  -3   14.20   42.70   1
  -1   4  -4  282.30  171.70   1
   1  -4   4  312.30  171.60   1
  -1  -4   4  450.50  172.20   1
   1   4  -4  373.90  171.90   1
  -1   4  -5   35.50   27.90   1
   1  -4   5   14.30   27.10   1
  -1  -4   5   12.60   27.40   1
   1   4  -5   21.80   27.80   1
  -1   4  -6  104.20   28.00   1
   1  -4   6    7.80   26.00   1
  -1  -4   6   11.40   26.30   1
   1   4  -6   59.20   27.40   1
  -1   4  -7   26.30   22.60   1
   1  -4   7    7.00   21.90   1
  -1  -4   7   12.40   22.40   1
   1   4  -7    9.40   22.60   1
  -1   4  -8   17.00   33.20   1
   1  -4   8   37.50   33.70   1
  -1  -4   8   36.30   33.50   1
   1   4  -8   29.80   33.60   1
  -1   4  -9   18.70   33.60   1
   1  -4   9   24.50   33.80   1
  -1  -4   9   22.40   33.70   1
   1   4  -9   91.10   35.90   1
   1   4 -10   75.00   61.80   1
   1   5   0    8.50   29.10   1
  -1  -5   0   21.00   29.20   1
   1  -5   0   41.90   30.20   1
  -1   5   0   18.90   30.00   1
   1   5   1 3823.60 1178.20   1
  -1  -5  -1 4253.70 1179.90   1
   1  -5  -1 5389.90 1185.10   1
  -1   5   1 5733.20 1186.00   1
  -1   5  -1 3562.10 1177.60   1
   1  -5   1 2362.60 1174.80   1
  -1  -5   1 2329.80 1175.10   1
   1   5  -1 1998.30 1174.30   1
   1   5   2 1684.60  713.40   1
  -1  -5  -2 1697.40  713.40   1
   1  -5  -2 1532.90  713.40   1
  -1   5   2 1432.20  713.20   1
  -1   5  -2 1886.40  712.60   1
   1  -5   2 1539.90  711.80   1
  -1  -5   2 1754.50  712.70   1
   1   5  -2 1738.70  712.70   1
   1   5   3 3577.40  956.40   1
  -1  -5  -3 3163.70  946.40   1
  -1   5  -3 2192.00  935.50   1
   1  -5   3 2782.20  937.60   1
  -1  -5   3 2890.20  936.70   1
   1   5  -3 1665.20  933.50   1
  -1   5  -4 1527.10  502.40   1
   1  -5   4  892.80  500.50   1
  -1  -5   4 1195.50  501.60   1
   1   5  -4 1274.80  502.10   1
  -1   5  -5  482.50  276.10   1
   1  -5   5  595.50  276.40   1
  -1  -5   5  698.00  277.00   1
   1   5  -5  681.50  276.90   1
  -1   5  -6   15.10   22.10   1
   1  -5   6   16.80   21.60   1
  -1  -5   6    4.60   21.50   1
   1   5  -6    9.00   22.70   1
  -1   5  -7   32.60   41.60   1
   1  -5   7   47.10   41.40   1
  -1  -5   7   51.30   41.60   1
   1   5  -7   35.40   41.60   1
  -1   5  -8   74.10   57.20   1
   1  -5   8   64.00   57.00   1
  -1  -5   8   71.70   57.20   1
   1   5  -8   73.20   57.20   1
  -1   5  -9  295.60  136.10   1
   1  -5   9  210.50  135.00   1
  -1  -5   9  217.00  135.10   1
   1   5  -9  298.20  136.20   1
  -1   5 -10  876.80  425.60   1
   1  -5  10 1002.40  432.20   1
  -1  -5  10  864.30  427.20   1
   1   5 -10 1031.90  428.10   1
  -1   5 -11  348.40  152.80   1
   1  -5  11  232.60  150.40   1
  -1  -5  11  266.90  150.80   1
   1   5 -11  254.20  148.70   1
  -1   5 -12   12.30   25.70   1
   1   5 -12   10.90   26.10   1
   1   6   0  421.70  208.40   1
  -1  -6   0  382.30  208.30   1
   1  -6   0  494.90  209.00   1
  -1   6   0  436.40  208.80   1
   1   6   1  313.00  133.70   1
  -1  -6  -1  299.50  133.70   1
   1  -6  -1  273.10  133.50   1
  -1   6   1  209.40  133.30   1
  -1   6  -1  176.00  132.70   1
   1  -6   1  234.90  132.80   1
  -1  -6   1  313.70  133.00   1
   1   6  -1  271.60  132.90   1
   1   6   2  478.40  207.30   1
  -1  -6  -2  432.60  207.20   1
   1  -6  -2  296.30  207.30   1
  -1   6   2  301.90  207.20   1
  -1   6  -2  497.70  208.50   1
   1  -6   2  765.30  209.40   1
  -1  -6   2  462.70  207.00   1
   1   6  -2  455.00  206.90   1
   1   6   3  150.70   82.50   1
  -1  -6  -3  108.70   82.70   1
  -1   6  -3   93.60   81.70   1
   1  -6   3  182.90   82.50   1
  -1  -6   3  131.30   83.50   1
   1   6  -3  103.70   82.80   1
  -1   6  -4  158.00  113.00   1
   1  -6   4  187.30  113.10   1
  -1  -6   4  233.30  113.20   1
   1   6  -4  246.80  113.30   1
  -1   6  -5  129.90   57.40   1
   1  -6   5   50.30   55.70   1
  -1  -6   5   56.50   55.50   1
   1   6  -5   56.70   55.90   1
  -1   6  -6  180.90  102.60   1
   1  -6   6  164.60  102.40   1
  -1  -6   6  181.30  102.50   1
   1   6  -6  153.80  102.50   1
  -1   6  -7   36.60   45.20   1
   1  -6   7   54.40   44.80   1
  -1  -6   7   44.00   44.80   1
   1   6  -7   54.70   45.20   1
  -1   6  -8  103.60   49.40   1
   1  -6   8   38.30   48.40   1
  -1  -6   8   45.40   48.40   1
   1   6  -8   76.40   49.20   1
  -1   6  -9   19.50   23.50   1
   1  -6   9    8.40   22.40   1
  -1  -6   9    5.70   22.90   1
   1   6  -9   23.60   24.10   1
  -1   6 -10   13.80   30.40   1
   1  -6  10   27.60   30.40   1
  -1  -6  10   27.60   30.60   1
   1   6 -10   22.50   31.40   1
  -1   6 -11   99.50   63.70   1
   1  -6  11   53.40   62.80   1
  -1  -6  11   91.60   63.40   1
   1   6 -11  149.00   64.90   1
  -1   6 -12  136.50   91.10   1
   1  -6  12  145.60   91.90   1
  -1  -6  12  123.20   91.20   1
   1   6 -12  154.00   91.60   1
  -1   6 -13  123.20   41.90   1
   1  -6  13   50.90   36.30   1
  -1  -6  13   18.10   33.40   1
   1   6 -13   18.90   34.10   1
  -1   6 -14   16.30   30.30   1
   1   6 -14   17.50   31.90   1
   1   7   0   19.40   35.90   1
  -1  -7   0   20.40   35.90   1
   1  -7   0  104.90   37.80   1
  -1   7   0   22.20   36.70   1
   1   7   1  145.40   89.00   1
  -1  -7  -1  133.90   88.80   1
   1  -7  -1  265.20   89.20   1
  -1   7   1  287.90   89.40   1
  -1   7  -1  200.90   88.10   1
   1  -7   1  228.30   88.20   1
  -1  -7   1   92.30   87.70   1
   1   7  -1  102.20   87.80   1
   1   7   2  158.20  106.80   1
  -1  -7  -2  158.60  106.50   1
   1  -7  -2  146.70  107.20   1
  -1   7   2   92.40  106.80   1
  -1   7  -2  308.50  107.60   1
   1  -7   2  269.70  108.00   1
  -1  -7   2  333.00  108.00   1
   1   7  -2  311.20  107.80   1
   1   7   3 1627.00  516.30   1
  -1  -7  -3 1337.50  514.70   1
   1  -7  -3 1745.70  517.80   1
  -1   7   3 1629.90  517.60   1
  -1   7  -3 1203.30  513.20   1
   1  -7   3 1128.80  513.20   1
  -1  -7   3 1065.80  513.50   1
   1   7  -3  942.30  513.00   1
   1   7   4  138.80   91.60   1
  -1  -7  -4  118.80   91.60   1
  -1   7  -4   76.50   92.30   1
   1  -7   4  205.70   94.10   1
  -1  -7   4  185.10   92.60   1
   1   7  -4  439.40   95.00   1
  -1   7  -5  273.00  129.70   1
   1  -7   5  296.90  129.90   1
  -1  -7   5  177.50  129.90   1
   1   7  -5  238.70  129.90   1
  -1   7  -6  121.50   70.40   1
   1  -7   6   95.70   69.30   1
  -1  -7   6   78.10   68.50   1
   1   7  -6   89.00   68.90   1
  -1   7  -7  246.80  116.50   1
   1  -7   7  175.60  115.90   1
  -1  -7   7  187.00  115.90   1
   1   7  -7  211.10  116.20   1
  -1   7  -8   91.30   57.70   1
   1  -7   8   66.20   56.90   1
  -1  -7   8   61.10   57.20   1
   1   7  -8   70.70   57.60   1
  -1   7  -9  110.00   63.70   1
   1  -7   9   81.40   63.40   1
  -1  -7   9   78.40   63.30   1
   1   7  -9   71.50   63.40   1
  -1   7 -10   19.40   31.10   1
   1  -7  10   22.60   31.00   1
  -1  -7  10   31.50   31.40   1
   1   7 -10   20.60   31.60   1
  -1   7 -11  239.30  120.70   1
   1  -7  11  200.10  120.30   1
  -1  -7  11  187.70  120.10   1
   1   7 -11  212.70  120.50   1
  -1   7 -12   11.90   24.50   1
   1  -7  12   17.80   23.80   1
  -1  -7  12    8.90   23.70   1
   1   7 -12   13.60   24.60   1
  -1   7 -13  214.70  118.50   1
   1  -7  13  191.60  118.10   1
  -1  -7  13  160.20  117.20   1
   1   7 -13  260.70  120.10   1
  -1   7 -14   41.90   22.60   1
   1  -7  14   -0.00   21.00   1
  -1  -7  14    0.00   19.80   1
   1   7 -14   39.30   22.90   1
   1  -7  15   58.20   57.70   1
  -1  -7  15   66.10   57.20   1
   1   8   0    4.70   26.20   1
  -1  -8   0   10.70   26.50   1
   1  -8   0   29.00   27.40   1
  -1   8   0   19.60   27.50   1
   1   8   1  588.20  225.20   1
  -1  -8  -1  492.30  224.80   1
   1  -8  -1  343.40  224.20   1
  -1   8   1  337.20  224.20   1
  -1   8  -1  576.00  224.50   1
   1  -8   1  520.30  224.30   1
  -1  -8   1  576.30  224.30   1
   1   8  -1  568.60  224.40   1
   1  -8  -2  352.90  126.10   1
  -1   8   2  370.40  126.20   1
  -1   8  -2  276.30  124.50   1
   1  -8   2  237.50  124.50   1
  -1  -8   2  103.30  126.90   1
   1   8  -2  148.50  127.20   1
   1   8   3  312.60  128.70   1
  -1  -8  -3  267.10  128.10   1
   1  -8  -3  186.40  128.60   1
  -1   8   3  199.10  128.40   1
  -1   8  -3  345.80  128.30   1
   1  -8   3  326.30  127.90   1
  -1  -8   3  205.00  127.20   1
   1   8  -3  166.20  127.00   1
   1   8   4 2494.60  325.10   1
  -1  -8  -4 2601.20  325.20   1
   1  -8  -4 2074.40  358.50   1
  -1   8  -4  733.10  308.30   1
   1  -8   4 1077.80  310.20   1
  -1  -8   4  637.70  308.70   1
   1   8  -4  435.10  307.90   1
  -1   8  -5  503.70  167.20   1
   1  -8   5 1076.80  171.20   1
  -1  -8   5  269.60  165.40   1
   1   8  -5  253.00  165.20   1
  -1   8  -6 3072.20 1374.90   1
   1  -8   6 3441.10 1375.90   1
  -1  -8   6 3847.50 1378.60   1
   1   8  -6 3046.20 1374.80   1
  -1   8  -7  201.00  112.50   1
   1  -8   7  162.20  111.60   1
  -1  -8   7  206.70  111.70   1
   1   8  -7  195.60  111.70   1
  -1   8  -8 3642.70 1385.50   1
   1  -8   8 3117.00 1382.90   1
  -1  -8   8 2973.70 1383.00   1
   1   8  -8 3639.40 1385.40   1
  -1   8  -9   61.00   47.10   1
   1  -8   9   45.20   46.30   1
  -1  -8   9   42.20   46.10   1
   1   8  -9   48.80   46.60   1
  -1   8 -10  227.40   88.30   1
   1  -8  10  114.40   86.50   1
  -1  -8  10  123.30   86.70   1
   1   8 -10  125.80   86.80   1
  -1   8 -11   17.70   29.50   1
   1  -8  11   17.70   28.60   1
  -1  -8  11   21.20   28.80   1
   1   8 -11   21.90   29.50   1
  -1   8 -12  680.50  260.70   1
   1  -8  12  455.50  255.80   1
  -1  -8  12  452.30  255.70   1
   1   8 -12  685.60  260.90   1
  -1   8 -13   21.60   24.00   1
   1  -8  13    6.50   22.50   1
  -1  -8  13   10.10   23.30   1
   1   8 -13   14.90   23.80   1
  -1   8 -14   18.10   25.10   1
   1  -8  14   10.90   24.20   1
  -1  -8  14    9.30   24.30   1
   1   8 -14   12.40   24.50   1
   1   9   0   15.60   22.70   1
  -1  -9   0   17.70   22.80   1
   1  -9   0   -0.00   23.00   1
  -1   9   0   -1.80   23.80   1
   1   9   1  246.20  137.90   1
  -1  -9  -1  292.50  137.80   1
   1  -9  -1  266.70  137.50   1
  -1   9   1  185.80  137.20   1
  -1   9  -1  206.30  137.00   1
   1  -9   1  265.50  137.10   1
  -1  -9   1  401.30  137.30   1
   1   9  -1  291.10  137.10   1
   1   9   2    1.20   40.40   1
  -1  -9  -2    4.20   40.50   1
   1  -9  -2   46.50   42.50   1
  -1   9   2   28.90   42.60   1
  -1   9  -2   59.70   40.10   1
   1  -9   2   47.50   40.10   1
  -1  -9   2   86.20   44.80   1
   1   9  -2   94.00   42.70   1
   1   9   3   63.00   53.80   1
  -1  -9  -3   51.90   53.10   1
   1  -9  -3   61.80   54.50   1
  -1   9   3   68.90   54.60   1
  -1   9  -3   12.60   52.50   1
   1  -9   3   25.70   52.70   1
  -1  -9   3  235.20   54.30   1
   1   9  -3  109.60   53.10   1
   1   9   4   25.70   51.00   1
  -1  -9  -4   22.70   50.70   1
   1  -9  -4   67.90   49.70   1
  -1   9   4   45.10   48.80   1
  -1   9  -4   64.40   48.10   1
   1  -9   4   53.10   48.30   1
  -1  -9   4   83.70   52.10   1
   1   9  -4   38.20   49.00   1
   1   9   5   45.20   50.90   1
  -1  -9  -5   18.20   49.80   1
  -1   9  -5   25.00   50.50   1
   1  -9   5  117.70   54.10   1
  -1  -9   5  137.90   53.80   1
   1   9  -5  103.80   54.00   1
  -1   9  -6   12.30   31.20   1
   1  -9   6    9.90   30.20   1
  -1  -9   6   23.80   31.00   1
   1   9  -6   34.10   30.60   1
  -1   9  -7    4.70   24.80   1
   1  -9   7   12.50   25.40   1
  -1  -9   7   12.70   27.90   1
   1   9  -7    5.90   27.10   1
  -1   9  -8   37.00   38.30   1
   1  -9   8   18.10   36.10   1
  -1  -9   8   75.70   38.10   1
   1   9  -8   11.10   36.70   1
  -1   9  -9  413.80  209.20   1
   1  -9   9  412.50  208.90   1
  -1  -9   9  485.80  209.40   1
   1   9  -9  393.40  208.80   1
  -1   9 -10   43.20   28.50   1
   1  -9  10   14.10   26.60   1
  -1  -9  10    9.90   26.70   1
   1   9 -10   12.90   27.80   1
  -1   9 -11   26.00   27.00   1
   1  -9  11   10.30   25.40   1
  -1  -9  11   10.00   25.60   1
   1   9 -11   19.00   26.30   1
  -1   9 -12    6.60   19.10   1
   1  -9  12    4.10   17.80   1
  -1  -9  12    4.10   17.70   1
   1   9 -12   10.80   19.30   1
  -1   9 -13   30.00   30.30   1
   1  -9  13   22.00   29.20   1
  -1  -9  13   11.20   29.20   1
   1   9 -13   35.00   31.20   1
   1  -9  14    2.80   15.00   1
  -1  -9  14    2.60   16.30   1
   1   9 -14    6.30   16.70   1
   1  10   0   55.60   65.80   1
  -1 -10   0   74.50   65.50   1
   1 -10   0   97.70   66.70   1
  -1  10   0  168.70   67.00   1
   1  10   1  751.00  311.80   1
  -1 -10  -1  734.50  311.90   1
   1 -10  -1  972.80  312.60   1
  -1  10   1 1361.90  314.10   1
  -1  10  -1  724.90  311.20   1
   1 -10   1  619.20  310.80   1
  -1 -10   1  479.70  310.40   1
   1  10  -1  659.50  310.70   1
   1  10   2   52.20   41.60   1
  -1 -10  -2   74.30   41.80   1
   1 -10  -2   23.90   41.40   1
  -1  10   2   17.20   41.40   1
  -1  10  -2   60.90   39.90   1
   1 -10   2   16.60   39.10   1
  -1 -10   2   32.30   40.30   1
   1  10  -2   37.70   39.60   1
   1  10   3  107.20   75.50   1
  -1 -10  -3  116.80   75.50   1
   1 -10  -3  171.40   76.70   1
  -1  10   3  137.10   75.60   1
  -1  10  -3  126.40   78.20   1
   1 -10   3   85.30   78.10   1
  -1 -10   3  149.00   75.80   1
   1  10  -3   49.00   74.30   1
   1  10   4  102.60   58.80   1
  -1 -10  -4   71.70   59.20   1
   1 -10  -4   59.10   59.20   1
  -1  10   4   67.70   59.20   1
  -1  10  -4   68.20   57.00   1
   1 -10   4  127.70   58.30   1
  -1 -10   4   64.30   57.50   1
   1  10  -4   36.40   56.80   1
   1  10   5  187.50   83.30   1
  -1 -10  -5  268.20   85.00   1
   1 -10  -5  215.70   84.20   1
  -1  10  -5   68.10   82.60   1
   1 -10   5   94.30   84.40   1
  -1 -10   5  112.40   83.90   1
   1  10  -5  174.40   84.90   1
  -1  10  -6  128.80   92.60   1
   1 -10   6  164.10   92.50   1
  -1 -10   6  165.80   91.80   1
   1  10  -6  116.30   91.40   1
  -1  10  -7   26.40   35.10   1
   1 -10   7   15.00   35.20   1
  -1 -10   7   42.70   36.90   1
   1  10  -7   23.20   35.00   1
  -1  10  -8 1958.10  614.10   1
   1 -10   8 1293.50  610.70   1
  -1 -10   8 1201.40  610.00   1
   1  10  -8 1488.80  611.80   1
  -1  10  -9  192.20   92.90   1
   1 -10   9  137.00   91.40   1
  -1 -10   9  134.50   91.50   1
   1  10  -9  120.40   91.30   1
  -1  10 -10  582.10  213.10   1
   1 -10  10  365.30  210.70   1
  -1 -10  10  353.70  210.60   1
   1  10 -10  546.90  212.60   1
  -1  10 -11   40.40   36.80   1
   1 -10  11   29.90   35.50   1
  -1 -10  11   23.70   35.40   1
   1  10 -11   25.90   36.40   1
  -1  10 -12   32.10   29.80   1
   1 -10  12   17.60   28.90   1
  -1 -10  12   15.20   28.80   1
   1  10 -12   16.70   29.50   1
  -1  10 -13   10.50   23.20   1
   1 -10  13    7.60   21.90   1
  -1 -10  13   10.80   22.50   1
   1  10 -13  202.10   35.20   1
   1 -10  14   26.20   34.30   1
  -1 -10  14   28.70   34.30   1
   1  11   0   17.20   34.60   1
  -1 -11   0   20.50   34.50   1
   1 -11   0   12.50   34.70   1
  -1  11   0   54.00   36.00   1
   1  11   1  103.00   81.70   1
  -1 -11  -1  116.10   81.50   1
   1 -11  -1  123.40   81.50   1
  -1  11   1   91.10   81.00   1
  -1  11  -1  130.20   80.60   1
   1 -11   1  174.30   80.80   1
  -1 -11   1   86.90   80.10   1
   1  11  -1  180.80   80.50   1
   1  11   2   59.00   68.20   1
  -1 -11  -2   56.50   68.40   1
   1 -11  -2  118.90   68.90   1
  -1  11   2   82.80   68.50   1
  -1  11  -2   90.00   66.90   1
   1 -11   2   79.60   66.80   1
  -1 -11   2  134.60   67.50   1
   1  11  -2  127.30   67.60   1
   1  11   3   82.00   83.80   1
  -1 -11  -3   88.40   83.90   1
   1 -11  -3  298.80   85.90   1
  -1  11   3   98.80   84.70   1
  -1  11  -3  220.20   84.60   1
   1 -11   3  460.30   89.20   1
  -1 -11   3   97.90   84.40   1
   1  11  -3  108.80   85.70   1
   1  11   4   56.60   55.10   1
  -1 -11  -4   46.20   55.40   1
   1 -11  -4   81.00   56.00   1
  -1  11   4  117.80   56.80   1
  -1  11  -4   61.40   53.90   1
   1 -11   4   65.40   53.90   1
  -1 -11   4   76.00   53.40   1
   1  11  -4   27.90   52.60   1
   1  11   5   52.50   67.40   1
  -1 -11  -5   87.40   69.30   1
   1 -11  -5   79.90   66.30   1
  -1  11   5   74.20   65.80   1
  -1  11  -5   75.20   65.00   1
   1 -11   5   80.70   65.70   1
  -1 -11   5  286.50   71.50   1
   1  11  -5   93.60   66.70   1
   1  11   6   12.10   39.20   1
  -1 -11  -6    8.00   39.00   1
  -1  11  -6   49.00   41.00   1
   1 -11   6   33.70   41.40   1
  -1 -11   6   48.80   43.20   1
   1  11  -6   58.20   43.30   1
  -1  11  -7   62.30   70.90   1
   1 -11   7  226.50   73.30   1
  -1 -11   7  125.10   71.00   1
   1  11  -7   70.40   70.90   1
  -1  11  -8   43.70   30.70   1
   1 -11   8   16.20   32.30   1
  -1 -11   8    7.40   33.90   1
   1  11  -8   -0.00   31.20   1
  -1  11  -9   23.70   51.90   1
   1 -11   9  269.00   59.20   1
  -1 -11   9   67.80   52.00   1
   1  11  -9   30.80   52.50   1
  -1  11 -10   11.70   27.30   1
   1 -11  10    7.20   24.60   1
  -1 -11  10   13.30   25.10   1
   1  11 -10    3.80   26.10   1
  -1  11 -11  137.80   64.70   1
   1 -11  11   55.00   61.80   1
  -1 -11  11   89.40   62.40   1
   1  11 -11   71.40   63.60   1
  -1  11 -12   41.10   38.80   1
   1 -11  12   33.60   38.30   1
  -1 -11  12   27.00   37.60   1
   1  11 -12   32.90   38.70   1
  -1  11 -13   17.20   26.30   1
   1 -11  13    7.80   24.90   1
  -1 -11  13   24.30   25.80   1
   1  11 -13   13.50   26.10   1
   1 -11  14    6.60   18.70   1
  -1 -11  14    6.90   19.60   1
   1  12   0   29.20   38.10   1
  -1 -12   0   22.50   37.30   1
   1 -12   0   25.20   37.90   1
  -1  12   0   45.60   38.90   1
   1  12   1  167.80   73.60   1
  -1 -12  -1  174.70   73.80   1
   1 -12  -1   38.50   71.60   1
  -1  12   1   81.30   71.90   1
  -1  12  -1   72.80   71.10   1
   1 -12   1  128.00   71.40   1
  -1 -12   1  130.70   70.90   1
   1  12  -1  105.10   70.90   1
   1  12   2  963.80  274.50   1
  -1 -12  -2 1069.40  275.30   1
   1 -12  -2  533.00  272.80   1
  -1  12   2  591.30  273.10   1
  -1  12  -2  498.60  271.90   1
   1 -12   2  405.30  271.70   1
  -1 -12   2  725.10  272.40   1
   1  12  -2  636.80  272.00   1
   1  12   3  220.20  120.00   1
  -1 -12  -3  176.90  119.70   1
   1 -12  -3  274.60  120.90   1
  -1  12   3  272.90  120.90   1
  -1  12  -3  205.60  118.80   1
   1 -12   3  247.80  119.70   1
  -1 -12   3  167.30  123.50   1
   1  12  -3  137.30  121.70   1
   1  12   4  585.70  122.00   1
  -1 -12  -4  658.70  122.50   1
   1 -12  -4  570.90  122.30   1
  -1  12   4  556.50  122.10   1
  -1  12  -4   60.00  116.30   1
   1 -12   4  465.50  119.60   1
  -1 -12   4  522.60  119.20   1
   1  12  -4  541.70  119.90   1
   1  12   5   51.80   54.50   1
  -1 -12  -5   36.70   54.00   1
   1 -12  -5   61.30   53.80   1
  -1  12   5   65.50   53.40   1
  -1  12  -5   89.90   50.90   1
   1 -12   5   52.40   50.50   1
  -1 -12   5   42.20   51.50   1
   1  12  -5   37.70   50.60   1
   1  12   6  951.70  184.40   1
  -1 -12  -6 1110.50  186.30   1
   1 -12  -6 1058.20  193.90   1
  -1  12  -6  378.40  175.70   1
   1 -12   6  574.30  178.40   1
  -1 -12   6  228.70  175.60   1
   1  12  -6  277.50  175.80   1
  -1 -12  -7   19.80   81.50   1
  -1  12  -7  194.60   86.20   1
   1 -12   7  194.80   84.70   1
  -1 -12   7  233.60   85.20   1
   1  12  -7  177.60   84.50   1
  -1  12  -8  355.50  231.40   1
   1 -12   8  569.50  232.70   1
  -1 -12   8  795.90  234.80   1
   1  12  -8  529.10  232.30   1
  -1  12  -9   26.70   28.30   1
   1 -12   9    0.90   30.90   1
  -1 -12   9    3.90   31.70   1
   1  12  -9   13.30   31.80   1
  -1  12 -10   93.70   86.10   1
   1 -12  10  107.90   85.10   1
  -1 -12  10  152.50   84.90   1
   1  12 -10  146.80   86.80   1
  -1  12 -11   11.50   32.70   1
   1 -12  11   18.90   31.50   1
  -1 -12  11   22.50   31.00   1
   1  12 -11   16.80   31.70   1
  -1  12 -12  251.60   91.10   1
   1 -12  12  101.40   87.40   1
  -1 -12  12  108.70   87.50   1
   1  12 -12  202.30   89.90   1
   1 -12  13   -0.00   13.10   1
  -1 -12  13    2.80   14.90   1
   1  12 -13   -0.00   15.90   1
   1  13   0   24.90   38.50   1
  -1 -13   0   49.90   38.60   1
   1 -13   0   35.90   39.00   1
  -1  13   0   11.90   38.50   1
   1  13   1  458.80  224.40   1
  -1 -13  -1  738.70  226.30   1
   1 -13  -1  572.90  224.90   1
  -1  13   1  604.80  225.10   1
  -1  13  -1  300.80  223.10   1
   1 -13   1  552.70  223.90   1
  -1 -13   1  537.00  223.60   1
   1  13  -1  450.10  223.40   1
   1  13   2  303.30  163.10   1
  -1 -13  -2  241.10  163.00   1
   1 -13  -2  241.90  162.70   1
  -1  13   2  270.80  162.80   1
  -1  13  -2  317.60  162.10   1
   1 -13   2  387.30  162.50   1
  -1 -13   2  356.00  162.00   1
   1  13  -2  445.30  162.70   1
   1  13   3 2573.30 1155.00   1
  -1 -13  -3 2284.40 1154.20   1
   1 -13  -3 4239.90 1163.60   1
  -1  13   3 4993.90 1167.60   1
  -1  13  -3 2901.80 1154.40   1
   1 -13   3 3413.00 1156.00   1
  -1 -13   3 2813.30 1156.60   1
   1  13  -3 2199.70 1153.70   1
   1  13   4   65.50   84.40   1
  -1 -13  -4   83.20   84.30   1
   1 -13  -4  100.10   85.60   1
  -1  13   4   89.00   84.90   1
  -1  13  -4  277.60   89.80   1
   1 -13   4  216.90   86.60   1
  -1 -13   4  193.40   85.10   1
   1  13  -4  182.60   84.60   1
   1  13   5  634.10  240.10   1
  -1 -13  -5  946.50  243.20   1
   1 -13  -5 1307.00  250.00   1
  -1  13   5 1467.80  252.00   1
  -1  13  -5  284.60  237.00   1
   1 -13   5 1148.10  240.80   1
  -1 -13   5  744.20  238.90   1
   1  13  -5  528.90  237.80   1
   1  13   6  546.20  258.00   1
  -1 -13  -6  561.70  258.90   1
   1 -13  -6  418.80  256.80   1
  -1  13   6  434.30  257.20   1
  -1  13  -6  764.90  257.30   1
   1 -13   6  586.40  256.80   1
  -1 -13   6  621.60  258.50   1
   1  13  -6  444.70  256.40   1
   1  13   7  308.80  134.10   1
  -1 -13  -7  363.00  134.10   1
  -1  13  -7  275.20  134.50   1
   1 -13   7  267.80  134.40   1
  -1 -13   7  233.90  134.50   1
   1  13  -7  159.90  132.80   1
  -1  13  -8   80.20   69.10   1
   1 -13   8   79.40   67.80   1
  -1 -13   8   91.60   68.40   1
   1  13  -8   86.30   68.50   1
  -1  13  -9   96.60   72.80   1
   1 -13   9  114.60   73.80   1
  -1 -13   9   96.90   73.40   1
   1  13  -9   87.40   72.90   1
  -1  13 -10  336.00   88.20   1
   1 -13  10  259.20   88.60   1
  -1 -13  10   65.10   83.70   1
   1  13 -10  119.10   85.20   1
  -1  13 -11  968.20  244.30   1
   1 -13  11  419.10  233.50   1
  -1 -13  11  372.00  232.90   1
   1  13 -11  753.20  239.50   1
  -1  13 -12   18.30   37.80   1
   1 -13  12   21.40   37.30   1
  -1 -13  12   45.30   38.60   1
   1  13 -12   37.40   39.00   1
   1 -13  13  175.70  100.60   1
  -1 -13  13  146.50  100.30   1
   1  14   0   61.90   56.30   1
  -1 -14   0   84.10   56.90   1
   1 -14   0   56.90   56.60   1
  -1  14   0   53.60   56.70   1
   1  14   1    8.20   30.80   1
  -1 -14  -1   27.10   29.30   1
   1 -14  -1   21.10   28.90   1
  -1  14   1    6.20   29.70   1
  -1  14  -1   14.40   27.70   1
   1 -14   1   10.70   26.70   1
  -1 -14   1    8.20   26.30   1
   1  14  -1    7.80   26.20   1
   1  14   2   66.10   56.40   1
  -1 -14  -2   78.90   57.70   1
   1 -14  -2   75.30   57.40   1
  -1  14   2   80.20   57.00   1
  -1  14  -2   45.70   55.40   1
   1 -14   2   64.80   55.00   1
  -1 -14   2   38.60   54.50   1
   1  14  -2  111.80   55.40   1
   1  14   3   14.60   46.30   1
  -1 -14  -3   19.40   46.40   1
   1 -14  -3   79.60   48.80   1
  -1  14   3   96.50   48.60   1
  -1  14  -3   24.20   43.80   1
   1 -14   3   29.90   44.10   1
  -1 -14   3   82.90   48.10   1
   1  14  -3   81.80   45.20   1
   1  14   4  113.00   67.80   1
  -1 -14  -4   71.40   66.70   1
   1 -14  -4   50.30   67.10   1
  -1  14   4   49.20   67.10   1
  -1  14  -4  179.10   69.90   1
   1 -14   4  127.20   72.20   1
  -1 -14   4   74.70   65.80   1
   1  14  -4   81.50   67.40   1
   1  14   5   67.90   57.40   1
  -1 -14  -5   68.60   58.10   1
   1 -14  -5   50.00   56.10   1
  -1  14   5   54.70   56.60   1
  -1  14  -5   43.00   55.60   1
   1 -14   5   88.90   55.50   1
  -1 -14   5   50.90   54.00   1
   1  14  -5   53.30   53.60   1
   1  14   6  111.80   66.00   1
  -1 -14  -6  117.90   66.70   1
   1 -14  -6   59.90   64.10   1
  -1  14   6   58.20   61.90   1
  -1  14  -6   42.70   59.20   1
   1 -14   6   70.70   59.60   1
  -1 -14   6   89.60   62.20   1
   1  14  -6   86.80   60.40   1
   1  14   7   12.80   40.60   1
  -1 -14  -7   15.70   42.40   1
   1 -14  -7   17.00   40.30   1
  -1  14   7   13.70   39.50   1
  -1  14  -7   54.30   42.10   1
   1 -14   7   53.40   45.10   1
  -1 -14   7   66.60   46.50   1
   1  14  -7   34.70   43.30   1
  -1 -14  -8  100.30   58.70   1
  -1  14  -8   36.60   58.30   1
   1 -14   8   53.40   58.60   1
  -1 -14   8   54.20   57.60   1
   1  14  -8   91.20   60.10   1
  -1  14  -9   16.30   35.60   1
   1 -14   9   33.90   34.20   1
  -1 -14   9   14.50   33.50   1
   1  14  -9   12.60   33.50   1
  -1  14 -10   14.00   26.60   1
   1 -14  10    3.80   28.10   1
  -1 -14  10   12.00   29.20   1
   1  14 -10    9.00   28.70   1
  -1  14 -11    6.20   28.10   1
   1 -14  11   10.00   29.10   1
  -1 -14  11   -0.00   29.60   1
   1  14 -11   11.20   30.40   1
   1 -14  12   28.90   38.00   1
  -1 -14  12   22.50   37.90   1
   1  14 -12   34.20   41.70   1
   1  15   0   16.00   25.60   1
  -1 -15   0   -0.10   25.00   1
   1 -15   0    2.20   25.50   1
  -1  15   0    4.70   25.40   1
   1  15   1   37.70   46.10   1
  -1 -15  -1   42.30   45.90   1
   1 -15  -1   16.70   45.10   1
  -1  15   1   -0.00   44.20   1
  -1  15  -1   21.80   43.10   1
   1 -15   1   28.90   43.30   1
  -1 -15   1  227.70   45.70   1
   1  15  -1   76.30   42.60   1
   1  15   2   18.10   36.10   1
  -1 -15  -2   38.00   36.70   1
   1 -15  -2  107.30   38.30   1
  -1  15   2   18.20   35.50   1
  -1  15  -2   45.80   33.80   1
   1 -15   2    9.20   33.70   1
  -1 -15   2    8.50   32.40   1
   1  15  -2    6.00   32.80   1
   1  15   3  167.80  105.60   1
  -1 -15  -3  158.70  105.50   1
   1 -15  -3  365.40  107.50   1
  -1  15   3  202.50  106.00   1
  -1  15  -3  215.60  104.20   1
   1 -15   3  227.90  104.20   1
  -1 -15   3  152.30  104.50   1
   1  15  -3  113.70  103.70   1
   1  15   4   83.30   81.20   1
  -1 -15  -4   79.40   81.60   1
   1 -15  -4  116.70   82.30   1
  -1  15   4  103.20   81.90   1
  -1  15  -4  143.80   81.50   1
   1 -15   4  221.70   86.80   1
  -1 -15   4  139.50   84.60   1
   1  15  -4  126.20   85.60   1
   1  15   5  123.80   78.00   1
  -1 -15  -5  150.20   77.90   1
   1 -15  -5  119.20   78.30   1
  -1  15   5   98.00   77.00   1
  -1  15  -5   28.60   74.40   1
   1 -15   5  108.20   75.70   1
  -1 -15   5  146.20   75.80   1
   1  15  -5  188.70   76.60   1
   1  15   6    4.10   46.60   1
  -1 -15  -6    0.00   48.00   1
   1 -15  -6   25.80   49.90   1
  -1  15   6   20.80   49.10   1
  -1  15  -6   41.00   44.40   1
   1 -15   6  112.10   46.50   1
  -1 -15   6   36.70   44.60   1
   1  15  -6   79.20   44.20   1
   1  15   7    6.40   54.30   1
  -1 -15  -7   12.00   57.20   1
   1 -15  -7  145.30   57.50   1
  -1  15   7  119.00   56.20   1
  -1  15  -7   92.40   53.20   1
   1 -15   7  123.50   57.70   1
  -1 -15   7   95.50   57.90   1
   1  15  -7   20.10   54.00   1
   1  15   8   66.10   45.10   1
  -1 -15  -8   38.00   44.80   1
  -1  15  -8   40.50   47.60   1
   1 -15   8   46.90   46.50   1
  -1 -15   8   22.00   48.30   1
   1  15  -8   11.80   46.50   1
  -1  15  -9   41.90   45.60   1
   1 -15   9   32.90   43.50   1
  -1 -15   9   66.90   44.70   1
   1  15  -9   -0.00   44.70   1
  -1  15 -10   12.30   26.70   1
   1 -15  10    6.40   23.00   1
  -1 -15  10   -0.00   24.30   1
   1  15 -10    5.60   24.30   1
  -1  15 -11   47.10   43.20   1
   1 -15  11   26.30   42.80   1
  -1 -15  11   22.50   43.10   1
   1  15 -11   38.30   43.70   1
   1 -15  12   34.20   46.40   1
  -1 -15  12   38.30   46.10   1
   1  16   0   71.00   44.60   1
  -1 -16   0   41.80   43.40   1
   1 -16   0   13.80   43.40   1
  -1  16   0   26.30   43.50   1
   1  16   1  410.00  179.10   1
  -1 -16  -1  379.60  178.90   1
   1 -16  -1  220.10  177.60   1
  -1  16   1  427.30  178.70   1
  -1  16  -1  360.80  177.80   1
   1 -16   1  437.70  177.90   1
  -1 -16   1  361.30  177.00   1
   1  16  -1  340.40  176.90   1
   1  16   2 1039.70  354.10   1
  -1 -16  -2 1161.20  355.10   1
   1 -16  -2  582.60  351.10   1
  -1  16   2  644.40  351.30   1
  -1  16  -2  954.80  351.70   1
   1 -16   2 1181.10  352.60   1
  -1 -16   2  659.30  350.60   1
   1  16  -2  754.90  350.90   1
   1  16   3  119.60   72.00   1
  -1 -16  -3   67.30   71.40   1
   1 -16  -3   68.40   71.50   1
  -1  16   3  119.60   72.10   1
  -1  16  -3   94.70   69.30   1
   1 -16   3   79.20   69.00   1
  -1 -16   3  111.00   69.60   1
   1  16  -3  103.30   69.50   1
   1  16   4  174.20   80.20   1
  -1 -16  -4  167.80   79.90   1
   1 -16  -4  240.00   81.40   1
  -1  16   4  181.80   81.20   1
  -1  16  -4   81.30   76.90   1
   1 -16   4   88.60   79.20   1
  -1 -16   4  183.60   87.00   1
   1  16  -4   37.90   79.40   1
   1  16   5   17.00   37.70   1
  -1 -16  -5   42.00   37.80   1
   1 -16  -5   -0.00   40.40   1
  -1  16   5   24.70   39.20   1
  -1  16  -5   21.10   38.60   1
   1 -16   5    0.50   34.30   1
  -1 -16   5   67.70   38.90   1
   1  16  -5   19.60   35.40   1
   1  16   6  100.20   56.10   1
  -1 -16  -6   48.70   56.60   1
   1 -16  -6   93.70   59.10   1
  -1  16   6   94.30   57.10   1
  -1  16  -6   42.60   51.60   1
   1 -16   6   30.60   51.40   1
  -1 -16   6   97.50   52.10   1
   1  16  -6   32.80   50.40   1
   1  16   7   23.90   38.10   1
  -1 -16  -7    0.00   39.50   1
   1 -16  -7    4.40   36.30   1
  -1  16   7   -0.10   32.10   1
  -1  16  -7   15.20   27.20   1
   1 -16   7   12.20   28.70   1
  -1 -16   7   30.10   33.80   1
   1  16  -7   16.80   29.00   1
   1  16   8   71.40   42.40   1
  -1 -16  -8   60.20   42.80   1
   1 -16  -8   34.60   41.70   1
  -1  16   8   25.40   41.30   1
  -1  16  -8    7.00   40.40   1
   1 -16   8   27.30   44.10   1
  -1 -16   8   15.40   44.80   1
   1  16  -8   29.80   44.80   1
  -1 -16  -9   19.60   38.10   1
  -1  16  -9   22.30   41.40   1
   1 -16   9   33.50   44.70   1
  -1 -16   9   33.30   41.80   1
   1  16  -9   17.30   40.80   1
  -1  16 -10   24.20   40.30   1
   1 -16  10   27.60   37.40   1
  -1 -16  10   27.10   37.70   1
   1  16 -10   16.40   38.10   1
   1 -16  11   -0.00   24.20   1
  -1 -16  11   -0.00   24.80   1
   1  16 -11    5.70   23.50   1
   1  17   0    7.70   27.30   1
  -1 -17   0   -0.00   28.10   1
   1 -17   0   22.60   28.80   1
  -1  17   0    6.80   29.10   1
   1  17   1  207.10   84.10   1
  -1 -17  -1  119.80   83.70   1
   1 -17  -1  152.50   83.70   1
  -1  17   1  116.20   83.10   1
  -1  17  -1  153.30   83.00   1
   1 -17   1   84.50   81.30   1
  -1 -17   1  250.70   82.80   1
   1  17  -1   66.30   81.20   1
   1  17   2    9.30   35.20   1
  -1 -17  -2   20.90   35.80   1
   1 -17  -2   34.90   35.90   1
  -1  17   2  103.80   35.20   1
  -1  17  -2    7.60   30.60   1
   1 -17   2   11.60   30.50   1
  -1 -17   2   13.10   30.10   1
   1  17  -2    3.00   30.80   1
   1  17   3  437.90  110.20   1
  -1 -17  -3  714.40  114.30   1
   1 -17  -3  128.80  107.70   1
  -1  17   3  124.10  107.30   1
  -1  17  -3  188.00  105.90   1
   1 -17   3  121.00  105.30   1
  -1 -17   3  214.40  106.00   1
   1  17  -3  377.00  107.00   1
   1  17   4    9.20   35.70   1
  -1 -17  -4   19.40   33.60   1
   1 -17  -4   23.90   36.80   1
  -1  17   4   27.10   38.30   1
  -1  17  -4    4.90   30.50   1
   1 -17   4   13.00   32.20   1
  -1 -17   4   41.70   42.40   1
   1  17  -4   61.20   36.70   1
   1  17   5  118.70   45.40   1
  -1 -17  -5   68.10   41.40   1
   1 -17  -5    3.10   43.10   1
  -1  17   5    7.80   42.10   1
  -1  17  -5   16.10   44.20   1
   1 -17   5   20.60   46.30   1
  -1 -17   5   31.40   39.60   1
   1  17  -5   12.40   40.40   1
   1  17   6   73.70   44.50   1
  -1 -17  -6   71.30   46.00   1
   1 -17  -6   20.40   44.80   1
  -1  17   6   28.00   45.60   1
  -1  17  -6   15.90   41.20   1
   1 -17   6   38.60   40.80   1
  -1 -17   6   34.70   39.60   1
   1  17  -6   13.30   39.60   1
   1  17   7   -0.00   35.90   1
  -1 -17  -7   13.30   37.70   1
   1 -17  -7   29.80   40.70   1
  -1  17   7    8.80   36.10   1
  -1  17  -7   15.20   27.30   1
   1 -17   7   39.20   28.90   1
  -1 -17   7    6.90   29.40   1
   1  17  -7    3.40   27.50   1
   1  17   8   -0.00   32.30   1
  -1 -17  -8   -0.00   36.70   1
   1 -17  -8   13.90   30.80   1
  -1  17   8    7.30   30.80   1
  -1  17  -8    7.90   26.90   1
   1 -17   8   27.10   34.10   1
  -1 -17   8    9.40   36.00   1
   1  17  -8   20.50   33.60   1
   1  17   9   28.10   39.50   1
  -1 -17  -9   18.40   39.30   1
   1 -17  -9   18.60   39.80   1
  -1  17  -9    8.20   41.40   1
   1 -17   9   73.20   43.40   1
  -1 -17   9   35.40   43.80   1
   1  17  -9    7.60   38.60   1
  -1  17 -10   41.80   41.90   1
   1 -17  10   15.10   37.10   1
  -1 -17  10   14.00   36.60   1
   1  17 -10    7.70   38.80   1
   1 -17  11    8.10   30.50   1
  -1 -17  11   11.00   30.90   1
   1  18   0   14.70   38.80   1
  -1 -18   0   40.60   39.10   1
   1 -18   0   55.70   40.10   1
  -1  18   0    4.20   38.20   1
   1  18   1   86.40   67.00   1
  -1 -18  -1  112.10   67.10   1
   1 -18  -1  113.70   67.50   1
  -1  18   1   30.20   64.20   1
  -1  18  -1   90.30   65.30   1
   1 -18   1   77.40   65.10   1
  -1 -18   1   65.50   64.40   1
   1  18  -1  188.90   65.80   1
   1  18   2  397.80   83.70   1
  -1 -18  -2  197.30   80.30   1
   1 -18  -2   62.50   77.40   1
  -1  18   2   43.50   77.40   1
  -1  18  -2  118.00   76.60   1
   1 -18   2  101.90   76.40   1
  -1 -18   2  136.90   76.80   1
   1  18  -2  201.70   77.30   1
   1  18   3   10.40   33.60   1
  -1 -18  -3    4.10   33.70   1
   1 -18  -3   13.80   33.00   1
  -1  18   3   26.10   33.70   1
  -1  18  -3   18.30   29.30   1
   1 -18   3    8.10   29.40   1
  -1 -18   3   18.50   28.70   1
   1  18  -3   28.50   29.40   1
   1  18   4  281.40   98.00   1
  -1 -18  -4  246.10   98.00   1
   1 -18  -4  183.20   97.10   1
  -1  18   4  150.80   96.60   1
  -1 -18   4  145.10   96.60   1
   1  18  -4   94.90   94.00   1
   1  18   5   22.10   36.10   1
  -1 -18  -5   -0.00   36.00   1
   1 -18  -5   20.50   36.10   1
  -1  18   5   15.40   36.50   1
  -1  18  -5   10.30   34.40   1
   1 -18   5   87.30   47.60   1
  -1 -18   5    8.30   32.70   1
   1  18  -5   14.90   40.90   1
   1  18   6  324.10   84.50   1
  -1 -18  -6  382.70   86.20   1
   1 -18  -6  253.10   84.50   1
  -1  18   6  210.60   81.20   1
  -1  18  -6   19.70   75.20   1
   1 -18   6  294.20   81.10   1
  -1 -18   6  206.50   78.70   1
   1  18  -6  187.40   79.60   1
   1  18   7   40.10   58.60   1
  -1 -18  -7   23.30   59.00   1
   1 -18  -7   16.60   61.80   1
  -1  18   7   40.10   61.00   1
  -1  18  -7   78.50   55.50   1
   1 -18   7   64.50   55.30   1
  -1 -18   7   84.60   55.40   1
   1  18  -7  113.20   56.30   1
   1  18   8  336.70  104.60   1
  -1 -18  -8  280.30  104.90   1
   1 -18  -8  228.60  100.80   1
  -1  18   8  217.20   99.80   1
  -1  18  -8  115.70   94.10   1
   1 -18   8  189.00   97.00   1
  -1 -18   8  106.00   97.30   1
   1  18  -8  147.60   95.70   1
   1  18   9    5.10   32.60   1
  -1 -18  -9    7.80   34.20   1
   1 -18  -9    7.20   34.00   1
  -1  18   9   -0.00   34.60   1
  -1  18  -9   22.10   32.80   1
   1 -18   9   19.20   38.30   1
  -1 -18   9    3.30   36.00   1
   1  18  -9   43.00   39.30   1
  -1 -18 -10  151.20   51.30   1
   1 -18  10   16.90   46.40   1
  -1 -18  10   28.20   45.90   1
   1  19   0   -0.00   24.50   1
  -1 -19   0    6.40   22.40   1
   1 -19   0   -0.20   26.00   1
  -1  19   0   -0.00   24.90   1
   1  19   1   51.20   49.00   1
  -1 -19  -1   43.30   48.60   1
   1 -19  -1   32.40   48.30   1
  -1  19   1  129.00   50.60   1
  -1  19  -1   31.30   46.80   1
   1 -19   1   30.60   46.50   1
  -1 -19   1   24.20   45.40   1
   1  19  -1   66.20   47.40   1
   1  19   2   10.70   29.20   1
  -1 -19  -2   13.00   29.80   1
   1 -19  -2    3.00   27.60   1
  -1  19   2    0.00   26.00   1
  -1  19  -2    3.00   23.10   1
   1 -19   2   -0.00   22.80   1
  -1 -19   2    4.50   23.10   1
   1  19  -2   21.90   24.80   1
   1  19   3   80.40   48.30   1
  -1 -19  -3   65.90   48.80   1
   1 -19  -3   31.40   46.60   1
  -1  19   3   29.90   46.20   1
  -1  19  -3   20.50   44.10   1
   1 -19   3   91.70   45.30   1
  -1 -19   3   29.00   44.00   1
   1  19  -3   41.40   44.40   1
   1  19   4   18.90   28.20   1
  -1 -19  -4   17.50   28.80   1
   1 -19  -4   -0.00   28.80   1
  -1  19   4   14.60   27.80   1
  -1  19  -4    2.80   23.00   1
   1 -19   4    2.00   24.40   1
  -1 -19   4   -0.00   26.50   1
   1  19  -4   11.20   23.20   1
   1  19   5   -0.00   36.10   1
  -1 -19  -5    2.10   35.30   1
   1 -19  -5   19.50   35.80   1
  -1  19   5   13.60   37.40   1
  -1  19  -5   57.80   35.40   1
   1 -19   5   16.60   40.70   1
  -1 -19   5   26.50   42.20   1
   1  19  -5   13.80   40.60   1
   1  19   6   -0.00   34.20   1
  -1 -19  -6   -0.00   34.60   1
   1 -19  -6   16.50   37.10   1
  -1  19   6   17.90   35.30   1
  -1  19  -6    8.80   33.60   1
   1 -19   6   25.10   29.50   1
  -1 -19   6   20.60   31.60   1
   1  19  -6    4.50   29.80   1
   1  19   7   12.10   39.80   1
  -1 -19  -7   30.80   44.30   1
   1 -19  -7   41.90   45.60   1
  -1  19   7   45.10   43.60   1
  -1  19  -7   26.80   37.70   1
   1 -19   7   17.90   36.30   1
  -1 -19   7   34.00   36.60   1
   1  19  -7   20.70   36.50   1
   1  19   8   22.30   42.50   1
  -1 -19  -8    5.70   44.60   1
   1 -19  -8   11.90   44.10   1
  -1  19   8   -0.10   38.50   1
  -1  19  -8    5.90   31.60   1
   1 -19   8   14.90   31.70   1
  -1 -19   8   28.40   34.60   1
   1  19  -8   71.40   33.90   1
   1  19   9    3.20   35.80   1
  -1 -19  -9    2.90   41.70   1
   1 -19  -9    3.50   36.10   1
  -1  19   9   14.40   33.90   1
   1 -19   9   19.40   35.40   1
  -1 -19   9   28.10   38.60   1
   1  19  -9   39.10   36.10   1
   1  20   0    2.20   24.50   1
  -1 -20   0    0.00   24.60   1
   1 -20   0   -0.00   25.00   1
  -1  20   0    2.40   25.30   1
   1  20   1   60.00   41.70   1
  -1 -20  -1   30.40   41.30   1
   1 -20  -1    6.50   39.30   1
  -1  20   1    7.50   39.00   1
  -1  20  -1   30.20   39.50   1
   1 -20   1   26.50   38.50   1
  -1 -20   1   28.10   37.00   1
   1  20  -1   37.40   37.90   1
   1  20   2   29.80   33.10   1
  -1 -20  -2   10.50   32.70   1
   1 -20  -2   18.60   31.70   1
  -1  20   2   30.10   31.60   1
  -1  20  -2    9.10   27.10   1
   1 -20   2    8.40   27.30   1
  -1 -20   2    1.90   27.10   1
   1  20  -2    8.80   26.30   1
   1  20   3   31.70   40.80   1
  -1 -20  -3   13.40   39.70   1
   1 -20  -3   22.90   40.20   1
  -1  20   3   22.90   39.00   1
  -1  20  -3   42.60   37.50   1
   1 -20   3   25.10   37.20   1
  -1 -20   3   35.10   36.10   1
   1  20  -3   19.80   36.60   1
   1  20   4   41.60   53.50   1
  -1 -20  -4   49.70   54.50   1
   1 -20  -4   57.90   53.90   1
  -1  20   4   42.10   54.40   1
  -1  20  -4   44.10   51.50   1
   1 -20   4   72.10   51.70   1
  -1 -20   4  103.50   53.50   1
   1  20  -4   47.40   51.90   1
   1  20   5   12.20   35.40   1
  -1 -20  -5    7.00   34.80   1
   1 -20  -5   10.30   37.10   1
  -1  20   5   13.90   39.00   1
  -1  20  -5   26.80   30.90   1
   1 -20   5   -0.00   35.60   1
  -1 -20   5   67.20   46.10   1
   1  20  -5   20.60   36.10   1
   1  20   6    1.60   34.40   1
  -1 -20  -6    6.20   30.40   1
   1 -20  -6    9.60   36.50   1
  -1  20   6   10.80   35.70   1
  -1  20  -6    8.10   37.30   1
   1 -20   6   -0.00   29.30   1
  -1 -20   6   20.40   30.30   1
   1  20  -6   26.50   29.70   1
   1  20   7    9.60   44.10   1
  -1 -20  -7   -0.00   45.40   1
   1 -20  -7   38.80   46.20   1
  -1  20   7   17.00   43.30   1
  -1  20  -7   47.30   40.00   1
   1 -20   7   47.30   40.30   1
  -1 -20   7   31.90   37.50   1
   1  20  -7   18.80   38.90   1
   1  20   8    0.00   39.20   1
  -1 -20  -8   -0.10   40.80   1
   1 -20  -8    0.00   45.80   1
  -1  20   8   -0.00   40.70   1
   1 -20   8   89.40   33.70   1
  -1 -20   8   16.70   31.00   1
   1  20  -8    9.00   29.10   1
   1  21   0   -0.00   25.10   1
  -1 -21   0    0.60   25.70   1
   1 -21   0   -0.00   25.20   1
  -1  21   0    3.70   24.60   1
   1  21   1   38.40   49.90   1
  -1 -21  -1  328.20   59.00   1
   1 -21  -1   82.00   52.00   1
  -1  21   1   34.30   49.00   1
  -1  21  -1   42.00   49.20   1
   1 -21   1   40.70   49.00   1
  -1 -21   1   38.20   48.00   1
   1  21  -1   40.40   48.60   1
   1  21   2   85.50   41.10   1
  -1 -21  -2   30.40   41.50   1
   1 -21  -2   10.50   39.20   1
  -1  21   2    2.50   37.50   1
  -1  21  -2   26.00   37.40   1
   1 -21   2   43.30   37.60   1
  -1 -21   2   36.50   37.30   1
   1  21  -2   17.70   36.90   1
   1  21   3  137.70   75.50   1
  -1 -21  -3  130.10   75.50   1
   1 -21  -3  101.90   74.90   1
  -1  21   3  110.00   74.40   1
  -1  21  -3  107.50   73.00   1
   1 -21   3   59.50   72.10   1
  -1 -21   3   91.80   71.80   1
   1  21  -3  114.00   72.50   1
   1  21   4    5.50   38.20   1
  -1 -21  -4   14.50   37.90   1
   1 -21  -4   40.80   40.80   1
  -1  21   4   44.30   41.40   1
  -1  21  -4   24.30   34.30   1
   1 -21   4   45.30   35.10   1
  -1 -21   4   12.20   35.00   1
   1  21  -4   20.10   35.30   1
   1  21   5    0.80   36.60   1
  -1 -21  -5   -0.00   36.70   1
   1 -21  -5   27.60   38.00   1
  -1  21   5   19.80   37.00   1
  -1  21  -5   14.40   31.80   1
   1 -21   5  102.70   38.40   1
  -1 -21   5   18.50   43.30   1
   1  21  -5   22.90   34.90   1
   1  21   6   36.10   37.30   1
  -1 -21  -6   37.50   33.60   1
   1 -21  -6   -0.00   35.90   1
  -1  21   6   -0.00   36.10   1
  -1  21  -6   21.50   36.50   1
   1 -21   6    7.10   37.90   1
  -1 -21   6   -0.00   28.50   1
   1  21  -6    9.80   36.60   1
   1  21   7   81.50   59.90   1
  -1 -21  -7   68.80   59.10   1
   1 -21  -7   62.20   60.80   1
  -1  21   7   63.00   57.60   1
   1 -21   7   49.40   55.70   1
  -1 -21   7   52.80   54.30   1
   1  21  -7   49.50   54.70   1
   1  22   0    3.50   28.60   1
  -1 -22   0   12.50   28.60   1
   1 -22   0    1.00   29.60   1
  -1  22   0    5.60   29.10   1
   1  22   1    4.50   28.60   1
  -1 -22  -1   -0.20   29.60   1
   1 -22  -1   -0.00   29.30   1
  -1  22   1   15.50   28.70   1
  -1  22  -1   -0.00   27.00   1
   1 -22   1   -0.00   26.00   1
  -1 -22   1    7.30   23.70   1
   1  22  -1    7.30   26.00   1
   1  22   2   18.30   35.70   1
  -1 -22  -2   10.10   35.60   1
   1 -22  -2   18.20   36.70   1
  -1  22   2   53.70   37.40   1
  -1  22  -2   21.50   33.10   1
   1 -22   2   13.30   32.50   1
  -1 -22   2   18.90   32.60   1
   1  22  -2   12.50   32.60   1
   1  22   3    8.80   28.70   1
  -1 -22  -3   -0.00   29.20   1
   1 -22  -3    0.00   29.30   1
  -1  22   3    7.80   28.50   1
  -1  22  -3   13.80   25.50   1
   1 -22   3   18.10   24.90   1
  -1 -22   3   -0.00   24.00   1
   1  22  -3    0.00   24.20   1
   1  22   4   34.00   44.60   1
  -1 -22  -4   21.60   44.70   1
   1 -22  -4   25.70   45.60   1
  -1  22   4   20.10   45.30   1
  -1  22  -4   25.30   41.30   1
   1 -22   4   28.50   40.30   1
  -1 -22   4   60.80   41.80   1
   1  22  -4   60.20   41.90   1
   1  22   5    4.60   29.30   1
  -1 -22  -5   16.30   29.50   1
   1 -22  -5   -0.00   28.60   1
  -1  22   5   -0.00   28.40   1
  -1  22  -5    3.80   21.90   1
   1 -22   5    6.10   24.60   1
  -1 -22   5   -0.00   31.20   1
   1  22  -5    4.10   23.50   1
   1  23   0   -0.00   26.80   1
  -1 -23   0   -0.00   26.70   1
   1 -23   0   -0.00   27.40   1
  -1  23   0   -0.00   27.00   1
   1  23   1   29.70   34.70   1
  -1 -23  -1   23.20   35.00   1
   1 -23  -1   34.30   36.00   1
  -1  23   1    7.20   33.40   1
  -1  23  -1   24.60   34.10   1
   1 -23   1   -0.00   32.80   1
  -1 -23   1    2.90   30.20   1
   1  23  -1    9.50   31.50   1
   1  23   2    3.90   27.30   1
  -1 -23  -2    6.10   31.00   1
   1 -23  -2   -0.00   31.00   1
  -1  23   2   18.10   30.40   1
  -1  23  -2   15.10   26.90   1
   1 -23   2   13.20   26.70   1
  -1 -23   2    3.30   25.80   1
   1  23  -2   -0.00   25.80   1
   1  23   3  209.30  114.50   1
  -1 -23  -3  193.00  114.00   1
   1 -23  -3  130.80  113.70   1
  -1  23   3  204.00  114.10   1
  -1  23  -3  247.50  113.20   1
   1 -23   3  228.10  112.90   1
  -1 -23   3  148.10  111.80   1
   1  23  -3  211.60  112.70   1
   2   0   0 1876.90  808.50   1
  -2   0   0 1900.20  808.40   1
   2   1   0  240.40  138.70   1
  -2  -1   0  278.50  138.90   1
   2   1   1  597.50  233.80   1
  -2  -1  -1  678.70  234.00   1
  -2   1  -1  592.50  233.80   1
   2  -1   1  515.30  233.60   1
  -2  -1   1  353.20  233.50   1
   2   1  -1  334.10  233.50   1
  -2   1  -2  480.20  229.30   1
  -2  -1   2  461.00  223.30   1
   2   1  -2  450.70  223.20   1
   2   2   0  577.40  336.10   1
  -2  -2   0  891.20  336.80   1
   2  -2   0  848.00  337.00   1
  -2   2   0  968.30  337.40   1
   2   2   1  104.80   74.30   1
  -2  -2  -1  138.40   74.40   1
  -2   2  -1  288.00   75.10   1
   2  -2   1  511.50   76.80   1
  -2  -2   1   73.50   74.40   1
   2   2  -1   84.00   74.40   1
  -2   2  -2  102.50   75.80   1
   2  -2   2  115.00   75.80   1
  -2  -2   2   95.10   75.80   1
   2   2  -2  167.30   76.00   1
  -2   2  -3   40.50   37.50   1
   2  -2   3   22.30   37.50   1
  -2  -2   3   47.90   37.80   1
   2   2  -3   45.00   37.80   1
  -2   2  -4  134.90   91.80   1
   2  -2   4  152.10   92.20   1
  -2  -2   4  139.30   91.70   1
   2   2  -4  158.50   91.80   1
  -2  -2   5   58.20   49.10   1
   2   2  -5   50.50   48.50   1
   2   3   0  577.20  304.40   1
  -2  -3   0  599.60  304.40   1
   2  -3   0  889.60  305.50   1
  -2   3   0 1008.20  305.90   1
   2   3   1  483.60  226.60   1
  -2  -3  -1  371.10  226.30   1
  -2   3  -1  374.60  225.90   1
   2  -3   1  510.00  226.10   1
  -2  -3   1 1218.20  229.70   1
   2   3  -1 1657.10  232.00   1
   2   3   2 1284.60  330.90   1
  -2  -3  -2 1299.20  331.20   1
  -2   3  -2  477.30  327.40   1
   2  -3   2  620.40  327.80   1
  -2  -3   2 1325.10  330.50   1
   2   3  -2 1308.50  330.20   1
  -2   3  -3  990.50  477.40   1
   2  -3   3 1147.20  477.90   1
  -2  -3   3 1116.40  478.30   1
   2   3  -3 1109.30  478.10   1
  -2   3  -4  426.30  201.90   1
   2  -3   4  376.40  201.70   1
  -2  -3   4  412.50  202.10   1
   2   3  -4  412.10  202.00   1
  -2   3  -5  402.20  194.30   1
   2  -3   5  429.90  194.50   1
  -2  -3   5  329.30  193.90   1
   2   3  -5  419.70  194.50   1
  -2   3  -6   64.90   53.00   1
   2  -3   6   37.90   52.70   1
  -2  -3   6   93.40   53.50   1
   2   3  -6  110.00   53.70   1
  -2  -3   7  478.40  233.60   1
   2   3  -7  462.40  231.30   1
   2   4   0  579.70  242.80   1
  -2  -4   0  423.40  242.50   1
   2  -4   0  517.30  242.80   1
  -2   4   0  578.60  243.10   1
   2   4   1 1304.60  387.90   1
  -2  -4  -1 1055.00  386.90   1
   2  -4  -1  629.70  386.10   1
  -2   4   1  454.90  385.70   1
  -2   4  -1 1130.60  386.40   1
   2  -4   1 1221.80  386.60   1
  -2  -4   1 1818.80  388.40   1
   2   4  -1 1868.10  388.80   1
   2   4   2   46.10   44.30   1
  -2  -4  -2   62.10   44.10   1
  -2   4  -2   32.60   42.40   1
   2  -4   2   42.00   42.60   1
  -2  -4   2   37.50   44.60   1
   2   4  -2   50.50   45.00   1
  -2  -4  -3   81.80   68.00   1
  -2   4  -3  187.40   67.70   1
   2  -4   3  172.40   67.60   1
  -2  -4   3   57.90   68.80   1
   2   4  -3   51.10   68.70   1
  -2   4  -4  115.10   75.00   1
   2  -4   4  134.80   75.00   1
  -2  -4   4   89.20   75.00   1
   2   4  -4  103.50   75.10   1
  -2   4  -5   67.60   42.20   1
   2  -4   5   41.80   41.80   1
  -2  -4   5   31.10   41.80   1
   2   4  -5   40.80   42.00   1
  -2   4  -6  108.60   45.00   1
   2  -4   6   23.20   44.30   1
  -2  -4   6   70.70   44.70   1
   2   4  -6  110.20   45.30   1
  -2   4  -7   47.30   53.40   1
   2  -4   7   78.80   53.70   1
  -2  -4   7   67.10   53.60   1
   2   4  -7   78.30   53.80   1
  -2   4  -8  116.20   42.60   1
   2  -4   8   21.90   40.60   1
  -2  -4   8   44.20   41.10   1
   2   4  -8   71.20   41.80   1
  -2   4  -9   62.20   39.00   1
  -2  -4   9   25.00   37.30   1
   2   4  -9   32.40   37.80   1
   2   4 -10    6.30   21.10   1
   2   5   0 1361.90  549.00   1
  -2  -5   0 1340.70  548.90   1
   2  -5   0 1066.60  548.80   1
  -2   5   0 1312.00  549.30   1
   2   5   1  689.50  172.70   1
  -2  -5  -1  355.30  171.30   1
   2  -5  -1  263.30  171.50   1
  -2   5   1  182.80  171.20   1
  -2   5  -1  589.30  171.70   1
   2  -5   1  513.30  171.40   1
  -2  -5   1 1124.20  177.50   1
   2   5  -1 1055.60  177.90   1
   2   5   2 1102.20  153.30   1
  -2  -5  -2  939.00  152.10   1
  -2   5  -2  268.70  148.80   1
   2  -5   2  162.70  148.40   1
  -2  -5   2  498.10  150.50   1
   2   5  -2  485.10  150.10   1
   2   5   3  937.30  439.60   1
  -2  -5  -3  767.50  439.10   1
  -2   5  -3 1385.70  441.50   1
   2  -5   3 1709.00  442.80   1
  -2  -5   3  915.10  439.30   1
   2   5  -3  976.50  439.40   1
  -2   5  -4  932.10  364.50   1
   2  -5   4  782.40  364.10   1
  -2  -5   4  744.20  364.30   1
   2   5  -4  790.30  364.60   1
  -2   5  -5   53.90   65.90   1
   2  -5   5   98.60   66.10   1
  -2  -5   5  110.60   66.00   1
   2   5  -5  130.70   66.30   1
  -2   5  -6  191.80  106.80   1
   2  -5   6  174.90  106.70   1
  -2  -5   6  170.00  106.70   1
   2   5  -6  184.70  106.90   1
  -2   5  -7 1574.00  529.80   1
   2  -5   7  895.50  523.00   1
  -2  -5   7 1591.40  529.30   1
   2   5  -7 1304.20  526.90   1
  -2   5  -8   17.80   23.90   1
   2  -5   8    5.90   23.40   1
  -2  -5   8   23.30   24.00   1
   2   5  -8   14.50   24.10   1
  -2   5  -9  275.70  162.50   1
   2  -5   9  289.00  162.80   1
  -2  -5   9  332.70  163.30   1
   2   5  -9  366.70  163.80   1
  -2   5 -10  236.80  132.60   1
   2  -5  10  232.20  133.20   1
  -2  -5  10  203.50  132.20   1
   2   5 -10  279.60  133.30   1
  -2   5 -11  640.10  337.20   1
   2  -5  11  809.10  358.00   1
  -2  -5  11  655.10  339.10   1
   2   5 -11  811.60  340.80   1
  -2   5 -12    3.10   23.20   1
   2   5 -12   72.80   28.40   1
   2   6   0  145.10   87.00   1
  -2  -6   0  166.60   87.10   1
   2  -6   0  147.20   87.70   1
  -2   6   0   99.20   87.30   1
   2   6   1   98.00   85.00   1
  -2  -6  -1   96.60   85.30   1
   2  -6  -1  199.60   85.90   1
  -2   6   1  132.50   85.60   1
  -2   6  -1  149.60   84.70   1
   2  -6   1   92.40   84.40   1
  -2  -6   1  359.90   87.50   1
   2   6  -1  308.50   86.50   1
   2   6   2  178.30   92.20   1
  -2  -6  -2  128.10   92.10   1
   2  -6  -2   91.10   92.30   1
  -2   6   2  116.40   92.20   1
  -2   6  -2  723.20   96.00   1
   2  -6   2  259.10   93.90   1
  -2  -6   2  149.70   92.10   1
   2   6  -2  145.70   92.00   1
   2   6   3   -0.00   51.10   1
  -2  -6  -3   44.10   51.70   1
  -2   6  -3  150.10   50.60   1
   2  -6   3  143.20   50.70   1
  -2  -6   3   51.60   53.10   1
   2   6  -3   27.20   52.10   1
   2   6   4   56.90   51.80   1
  -2  -6  -4   44.90   51.10   1
  -2   6  -4   50.00   51.90   1
   2  -6   4   43.90   51.90   1
  -2  -6   4   52.10   51.10   1
   2   6  -4  113.40   51.40   1
  -2   6  -5   23.80   45.70   1
   2  -6   5   13.20   45.70   1
  -2  -6   5  184.10   47.60   1
   2   6  -5  323.70   50.10   1
  -2   6  -6  620.10  294.70   1
   2  -6   6  646.10  294.60   1
  -2  -6   6  583.00  294.60   1
   2   6  -6  683.50  294.90   1
  -2   6  -7   82.10   33.70   1
   2  -6   7   17.20   31.90   1
  -2  -6   7   17.60   32.20   1
   2   6  -7   28.70   32.60   1
  -2   6  -8   57.00   45.20   1
   2  -6   8   33.60   44.70   1
  -2  -6   8   49.90   45.10   1
   2   6  -8   61.50   45.60   1
  -2   6  -9   32.00   23.00   1
   2  -6   9    6.30   21.20   1
  -2  -6   9    4.30   21.90   1
   2   6  -9   23.00   23.40   1
  -2   6 -10    7.00   22.80   1
   2  -6  10   72.10   24.30   1
  -2  -6  10    4.70   22.70   1
   2   6 -10   13.70   23.50   1
  -2   6 -11   18.30   29.10   1
   2  -6  11    5.90   28.00   1
  -2  -6  11   50.90   30.00   1
   2   6 -11  104.70   32.50   1
  -2   6 -12   52.70   38.50   1
   2  -6  12   42.70   37.50   1
  -2  -6  12   17.70   36.60   1
   2   6 -12   41.80   37.90   1
  -2   6 -13   53.50   35.30   1
   2  -6  13   15.10   33.10   1
  -2  -6  13   16.10   32.40   1
   2   6 -13   32.60   34.30   1
  -2   6 -14   18.60   36.20   1
  -2  -6  14   25.90   37.10   1
   2   6 -14   69.30   39.60   1
   2   6 -15   -0.00   21.20   1
   2   7   0   69.90   65.80   1
  -2  -7   0   74.60   65.60   1
   2  -7   0  153.30   66.60   1
  -2   7   0  104.80   66.90   1
   2   7   1   30.10   42.50   1
  -2  -7  -1   32.00   42.40   1
   2  -7  -1   51.50   42.20   1
  -2   7   1   58.90   42.30   1
  -2   7  -1   33.10   41.20   1
   2  -7   1  182.30   41.80   1
  -2  -7   1   30.10   40.90   1
   2   7  -1   23.80   40.60   1
   2   7   2  151.40   98.30   1
  -2  -7  -2  209.30   98.40   1
   2  -7  -2  118.10   99.20   1
  -2   7   2  140.00   99.10   1
  -2   7  -2  140.70   97.20   1
   2  -7   2  141.60   97.30   1
  -2  -7   2  212.90   98.70   1
   2   7  -2  237.90   98.70   1
   2   7   3   94.10   60.30   1
  -2  -7  -3  100.90   60.50   1
   2  -7  -3   34.00   59.10   1
  -2   7  -3   59.30   58.90   1
   2  -7   3   46.20   58.60   1
  -2  -7   3  271.20   64.40   1
   2   7  -3  165.60   62.00   1
   2   7   4  210.80  165.30   1
  -2  -7  -4  332.40  166.00   1
  -2   7  -4  527.10  167.80   1
   2  -7   4  332.40  166.70   1
  -2  -7   4  350.50  165.80   1
   2   7  -4  340.70  165.90   1
  -2   7  -5   55.70   47.40   1
   2  -7   5   27.50   46.80   1
  -2  -7   5   59.50   49.10   1
   2   7  -5   85.50   49.10   1
  -2   7  -6   64.80   31.10   1
   2  -7   6   -0.00   28.40   1
  -2  -7   6   16.20   27.30   1
   2   7  -6    5.10   27.60   1
  -2   7  -7   24.20   35.20   1
   2  -7   7   20.20   34.30   1
  -2  -7   7   31.20   34.50   1
   2   7  -7   35.20   35.60   1
  -2   7  -8   58.60   44.30   1
   2  -7   8   30.60   43.50   1
  -2  -7   8   67.70   44.30   1
   2   7  -8   40.40   44.30   1
  -2   7  -9   25.90   39.40   1
   2  -7   9   38.10   39.10   1
  -2  -7   9   55.60   39.70   1
   2   7  -9   37.10   39.80   1
  -2   7 -10   50.90   51.10   1
   2  -7  10   67.20   50.90   1
  -2  -7  10   70.90   51.20   1
   2   7 -10   47.70   51.20   1
  -2   7 -11   21.20   28.30   1
   2  -7  11    8.40   27.70   1
  -2  -7  11   57.50   29.30   1
   2   7 -11   22.30   29.30   1
  -2   7 -12   12.10   20.40   1
   2  -7  12    3.00   19.60   1
  -2  -7  12    6.30   19.60   1
   2   7 -12   12.70   21.00   1
  -2   7 -13   29.90   41.60   1
   2  -7  13   51.20   42.50   1
  -2  -7  13   60.70   42.90   1
   2   7 -13   37.00   42.30   1
  -2   7 -14   17.50   23.60   1
   2  -7  14    2.60   21.80   1
  -2  -7  14    5.50   22.90   1
   2   7 -14   16.20   23.10   1
   2  -7  15   35.00   29.80   1
  -2  -7  15    6.10   25.30   1
   2   8   0 1387.80  577.00   1
  -2  -8   0 1149.70  576.40   1
   2  -8   0 1508.70  577.50   1
  -2   8   0 1346.80  577.10   1
   2   8   1   67.70   63.80   1
  -2  -8  -1   94.50   63.70   1
   2  -8  -1  141.60   63.70   1
  -2   8   1  205.80   63.90   1
  -2   8  -1   99.60   62.90   1
   2  -8   1   86.30   62.40   1
  -2  -8   1   62.50   62.00   1
   2   8  -1   51.00   62.00   1
   2   8   2  525.20  111.60   1
  -2  -8  -2  431.10  111.10   1
   2  -8  -2  315.10  111.30   1
  -2   8   2  382.90  111.50   1
  -2   8  -2  296.90  109.10   1
   2  -8   2  336.60  109.30   1
  -2  -8   2  154.00  110.30   1
   2   8  -2   45.30  109.60   1
   2   8   3   34.50   49.30   1
  -2  -8  -3   29.70   48.80   1
   2  -8  -3   48.90   49.60   1
  -2   8   3   58.60   49.40   1
  -2   8  -3   37.90   48.90   1
   2  -8   3   41.90   48.80   1
  -2  -8   3   79.20   49.30   1
   2   8  -3   92.90   48.80   1
   2   8   4 1525.00  436.20   1
  -2  -8  -4 1306.40  434.90   1
  -2   8  -4  877.10  431.50   1
   2  -8   4  873.70  431.60   1
  -2  -8   4 1241.70  434.20   1
   2   8  -4  833.80  432.40   1
   2   8   5   27.00   41.00   1
  -2  -8  -5   51.70   41.60   1
  -2   8  -5   14.90   42.60   1
   2  -8   5   20.80   40.90   1
  -2  -8   5   75.80   41.30   1
   2   8  -5   37.60   40.70   1
  -2   8  -6  182.20   69.90   1
   2  -8   6  121.80   69.60   1
  -2  -8   6   72.30   70.60   1
   2   8  -6   54.40   69.90   1
  -2   8  -7  417.70  148.50   1
   2  -8   7  225.70  146.30   1
  -2  -8   7  379.00  147.20   1
   2   8  -7  227.40  146.30   1
  -2   8  -8  220.00   81.20   1
   2  -8   8  143.80   80.20   1
  -2  -8   8   72.70   79.30   1
   2   8  -8  140.60   80.70   1
  -2   8  -9  453.50  227.00   1
   2  -8   9  469.50  227.20   1
  -2  -8   9  462.00  227.30   1
   2   8  -9  474.60  227.40   1
  -2   8 -10  156.70   51.00   1
   2  -8  10   46.20   48.60   1
  -2  -8  10   60.50   48.80   1
   2   8 -10   38.80   49.20   1
  -2   8 -11   40.60   53.30   1
   2  -8  11   98.70   54.20   1
  -2  -8  11   67.40   53.50   1
   2   8 -11  119.30   55.30   1
  -2   8 -12   36.50   34.20   1
   2  -8  12   21.70   33.20   1
  -2  -8  12   19.50   33.20   1
   2   8 -12   41.20   34.60   1
  -2   8 -13   30.50   40.90   1
   2  -8  13   41.70   41.10   1
  -2  -8  13   37.10   41.00   1
   2   8 -13   58.70   42.20   1
  -2   8 -14   98.10   68.00   1
   2  -8  14  119.10   69.00   1
  -2  -8  14   70.70   67.00   1
   2   8 -14   89.10   68.00   1
   2   9   0   45.80   43.40   1
  -2  -9   0   36.20   42.80   1
   2  -9   0   39.00   44.60   1
  -2   9   0   48.50   44.50   1
   2   9   1   18.60   37.50   1
  -2  -9  -1   14.60   37.60   1
   2  -9  -1   16.80   37.00   1
  -2   9   1   22.50   37.20   1
  -2   9  -1   76.20   37.10   1
   2  -9   1    7.20   35.60   1
  -2  -9   1   41.10   35.90   1
   2   9  -1   59.70   36.00   1
   2   9   2  224.00  114.60   1
  -2  -9  -2  290.90  114.90   1
   2  -9  -2  206.60  115.20   1
  -2   9   2  304.60  115.80   1
  -2   9  -2  159.60  113.50   1
   2  -9   2  144.50  113.40   1
  -2  -9   2  989.40  128.00   1
   2   9  -2  443.40  119.40   1
   2   9   3   43.50   37.70   1
  -2  -9  -3   55.40   38.00   1
   2  -9  -3   53.30   41.50   1
  -2   9   3   34.80   40.10   1
  -2   9  -3   14.20   41.40   1
   2  -9   3   17.10   40.90   1
  -2  -9   3   17.80   35.40   1
   2   9  -3   15.50   35.20   1
  -2   9  -4 1074.40  428.10   1
   2  -9   4 1052.30  428.20   1
  -2  -9   4 1251.80  431.20   1
   2   9  -4  728.60  428.50   1
   2   9   5   49.10   49.30   1
  -2  -9  -5   40.40   49.60   1
  -2   9  -5   63.30   51.30   1
   2  -9   5   37.70   49.30   1
  -2  -9   5   49.20   50.40   1
   2   9  -5   68.80   51.10   1
  -2   9  -6  378.10   77.40   1
   2  -9   6  170.70   74.50   1
  -2  -9   6   77.70   74.10   1
   2   9  -6   64.80   73.70   1
  -2   9  -7   58.80   61.50   1
   2  -9   7   55.10   61.90   1
  -2  -9   7   94.20   63.60   1
   2   9  -7  207.30   66.20   1
  -2   9  -8   25.60   30.10   1
   2  -9   8    7.20   26.40   1
  -2  -9   8   15.50   28.40   1
   2   9  -8   17.10   29.60   1
  -2   9  -9   47.80   44.50   1
   2  -9   9   30.90   43.20   1
  -2  -9   9   51.90   43.90   1
   2   9  -9   42.60   44.60   1
  -2   9 -10   19.00   23.10   1
   2  -9  10   10.90   22.20   1
  -2  -9  10   -0.00   22.80   1
   2   9 -10   11.20   22.90   1
  -2   9 -11   57.70   42.70   1
   2  -9  11   40.20   42.10   1
  -2  -9  11   29.50   42.20   1
   2   9 -11   44.40   42.90   1
  -2   9 -12    7.70   16.80   1
   2  -9  12    3.00   14.80   1
  -2  -9  12   -0.00   15.00   1
   2   9 -12    4.70   17.50   1
  -2   9 -13   17.60   24.70   1
   2  -9  13   13.00   23.70   1
  -2  -9  13    8.10   24.00   1
   2   9 -13   17.40   25.10   1
   2  -9  14    6.10   17.80   1
  -2  -9  14    1.50   18.30   1
   2   9 -14   16.20   19.50   1
   2  10   0 1150.60  526.60   1
  -2 -10   0 1124.90  526.50   1
   2 -10   0 1669.70  529.10   1
  -2  10   0 1143.30  527.00   1
   2  10   1  143.00   57.30   1
  -2 -10  -1  185.20   57.60   1
   2 -10  -1   48.50   55.50   1
  -2  10   1  116.90   55.90   1
  -2  10  -1   63.60   54.90   1
   2 -10   1   60.90   55.10   1
  -2 -10   1   40.70   54.20   1
   2  10  -1   43.70   54.30   1
   2  10   2  155.60  120.80   1
  -2 -10  -2  181.70  120.90   1
   2 -10  -2  276.60  121.60   1
  -2  10   2  298.80  122.00   1
  -2  10  -2  194.80  120.00   1
   2 -10   2  169.60  120.00   1
  -2 -10   2  585.20  125.10   1
   2  10  -2  326.20  121.90   1
   2  10   3  190.00   77.50   1
  -2 -10  -3  120.90   77.10   1
   2 -10  -3   42.50   76.90   1
  -2  10   3   65.30   77.00   1
  -2 -10   3  171.00   77.00   1
   2  10  -3  156.60   77.10   1
   2  10   4  157.70  115.90   1
  -2 -10  -4  184.80  116.00   1
   2 -10  -4  174.40  115.20   1
  -2  10   4  205.50  115.40   1
  -2  10  -4  322.80  115.80   1
   2 -10   4  260.80  115.10   1
  -2 -10   4  215.30  115.40   1
   2  10  -4  143.40  114.60   1
   2  10   5  158.40   78.40   1
  -2 -10  -5  126.60   78.80   1
  -2  10  -5   77.40   75.80   1
   2 -10   5  219.50   78.50   1
  -2 -10   5  151.20   79.80   1
   2  10  -5   51.10   77.10   1
   2  10   6   71.30   54.20   1
  -2 -10  -6   73.30   53.90   1
  -2  10  -6   40.70   55.70   1
   2 -10   6   57.80   55.90   1
  -2 -10   6   66.50   53.60   1
   2  10  -6   48.60   53.00   1
  -2  10  -7  100.90   89.20   1
   2 -10   7  116.20   89.50   1
  -2 -10   7  246.50   91.70   1
   2  10  -7  227.20   91.10   1
  -2  10  -8   47.30   38.00   1
  -2 -10   8    7.90   36.10   1
   2  10  -8   23.80   39.00   1
  -2  10  -9  245.00  100.20   1
   2 -10   9  138.90   97.70   1
  -2 -10   9  177.20   98.20   1
   2  10  -9  123.70   98.00   1
  -2  10 -10  163.00   90.40   1
   2 -10  10  129.60   89.70   1
  -2 -10  10  110.70   89.00   1
   2  10 -10  168.30   90.50   1
  -2  10 -11    8.10   22.00   1
   2 -10  11   18.00   21.30   1
  -2 -10  11    4.10   21.10   1
   2  10 -11    3.20   21.40   1
  -2  10 -12   35.00   32.30   1
   2 -10  12   24.60   30.80   1
  -2 -10  12   25.00   31.10   1
   2  10 -12   11.60   31.70   1
  -2  10 -13    4.50   21.30   1
   2 -10  13    6.60   19.80   1
  -2 -10  13    7.50   20.60   1
   2  10 -13   46.20   24.40   1
   2 -10  14   18.70   30.30   1
  -2 -10  14   16.70   30.40   1
   2  10 -14   65.30   33.00   1
   2  11   0   10.40   31.70   1
  -2 -11   0   11.90   32.40   1
   2 -11   0   38.40   34.50   1
  -2  11   0   37.00   34.30   1
   2  11   1   55.50   52.40   1
  -2 -11  -1   47.60   52.10   1
   2 -11  -1   37.70   51.10   1
  -2  11   1   88.00   51.70   1
  -2  11  -1   17.70   50.60   1
   2 -11   1   15.90   50.40   1
  -2 -11   1  128.60   50.20   1
   2  11  -1  139.10   50.60   1
   2  11   2   20.80   35.30   1
  -2 -11  -2   16.10   34.20   1
   2 -11  -2    7.30   35.20   1
  -2  11   2   26.40   35.20   1
  -2  11  -2   36.80   33.10   1
  -2 -11   2   29.10   34.10   1
   2  11  -2   25.50   32.40   1
   2  11   3   51.90   42.40   1
  -2 -11  -3   50.30   42.00   1
   2 -11  -3   45.90   43.40   1
  -2  11   3   37.40   42.50   1
  -2  11  -3   36.70   39.30   1
   2 -11   3   55.50   41.10   1
  -2 -11   3   28.00   41.50   1
   2  11  -3    4.10   39.50   1
   2  11   4   47.60   57.30   1
  -2 -11  -4   61.30   57.20   1
   2 -11  -4   31.20   58.80   1
  -2  11   4   40.90   57.90   1
  -2  11  -4   35.90   55.40   1
   2 -11   4  139.20   57.80   1
  -2 -11   4  116.70   56.50   1
   2  11  -4   87.60   56.20   1
   2  11   5   17.20   44.20   1
  -2 -11  -5   50.30   43.90   1
   2 -11  -5   14.50   42.00   1
  -2  11   5   37.30   42.80   1
  -2  11  -5   17.90   39.80   1
   2 -11   5   71.90   41.30   1
  -2 -11   5  105.10   49.40   1
   2  11  -5   34.40   44.30   1
   2  11   6   19.60   38.20   1
  -2 -11  -6   14.20   38.50   1
  -2  11  -6    9.10   41.70   1
   2 -11   6   22.70   40.60   1
  -2 -11   6   41.00   41.10   1
   2  11  -6  120.10   44.50   1
  -2  11  -7   21.50   36.50   1
   2 -11   7   12.90   35.10   1
  -2 -11   7   25.80   34.80   1
   2  11  -7   32.70   34.70   1
  -2  11  -8   41.30   40.70   1
   2 -11   8   11.90   40.10   1
  -2 -11   8   34.40   43.80   1
   2  11  -8   90.80   44.30   1
  -2  11  -9   12.90   46.60   1
   2 -11   9   42.20   48.60   1
  -2 -11   9   66.50   47.30   1
   2  11  -9   60.10   49.40   1
  -2  11 -10   -0.00   27.20   1
   2 -11  10   41.50   26.60   1
  -2 -11  10   -0.00   25.50   1
   2  11 -10    4.60   26.70   1
  -2  11 -11  807.30  143.30   1
   2 -11  11  220.00  131.80   1
  -2 -11  11  169.20  131.30   1
   2  11 -11  417.50  135.20   1
  -2  11 -12    7.80   22.80   1
   2 -11  12    6.40   21.00   1
  -2 -11  12   13.10   21.80   1
   2  11 -12    8.10   22.60   1
  -2  11 -13   -0.00   20.90   1
   2 -11  13   -0.00   19.30   1
  -2 -11  13   18.60   20.10   1
   2  11 -13   22.50   21.90   1
   2  12   0  270.80  125.50   1
  -2 -12   0  246.50  125.20   1
   2 -12   0  183.80  125.80   1
  -2  12   0  196.40  125.80   1
   2  12   1  168.10  116.90   1
  -2 -12  -1  160.50  117.00   1
   2 -12  -1  144.50  116.70   1
  -2  12   1  218.30  116.80   1
  -2  12  -1  220.00  116.60   1
   2 -12   1  212.70  116.60   1
  -2 -12   1  238.00  116.00   1
   2  12  -1  329.00  116.50   1
   2  12   2  116.20   75.80   1
  -2 -12  -2  115.80   76.10   1
   2 -12  -2   87.10   75.70   1
  -2  12   2  118.50   76.20   1
  -2  12  -2  131.20   74.30   1
   2 -12   2  131.00   74.80   1
  -2 -12   2  129.00   74.60   1
   2  12  -2   62.20   74.10   1
   2  12   3  134.90   72.10   1
  -2 -12  -3  157.50   72.40   1
   2 -12  -3   98.90   72.80   1
  -2  12   3   63.50   72.30   1
  -2  12  -3   63.90   69.60   1
   2 -12   3  100.90   69.80   1
  -2 -12   3  146.80   73.40   1
   2  12  -3   76.80   74.20   1
   2  12   4  181.10   79.90   1
  -2 -12  -4  203.20   80.00   1
   2 -12  -4  102.50   80.70   1
  -2  12   4   93.10   80.50   1
  -2  12  -4  169.40   82.30   1
   2 -12   4  146.00   79.30   1
  -2 -12   4   77.60   77.80   1
   2  12  -4   77.10   77.80   1
   2  12   5    5.20   58.60   1
  -2 -12  -5   12.60   60.20   1
   2 -12  -5   62.30   59.00   1
  -2  12   5   44.70   57.70   1
  -2  12  -5   72.80   57.80   1
   2 -12   5  152.00   58.70   1
  -2 -12   5  342.60   63.50   1
   2  12  -5  162.30   59.80   1
   2  12   6   18.80   40.60   1
  -2 -12  -6   17.00   42.90   1
  -2  12  -6   29.90   37.40   1
   2 -12   6   47.10   41.50   1
  -2 -12   6   37.70   43.50   1
   2  12  -6   14.50   40.90   1
   2  12   7  165.50   97.90   1
  -2 -12  -7  164.90   97.60   1
  -2  12  -7  158.90   99.10   1
   2 -12   7  173.50  100.50   1
  -2 -12   7  142.90   97.40   1
   2  12  -7  131.20   97.90   1
  -2  12  -8  132.00   57.70   1
   2 -12   8   58.00   55.10   1
  -2 -12   8   42.60   56.00   1
   2  12  -8   48.00   54.90   1
  -2  12  -9   40.90   47.80   1
   2 -12   9   61.80   48.80   1
  -2 -12   9   51.40   51.90   1
   2  12  -9   32.60   49.30   1
  -2  12 -10    5.20   35.90   1
   2 -12  10    7.70   35.10   1
  -2 -12  10   19.60   32.00   1
   2  12 -10   38.20   36.00   1
  -2  12 -11    2.90   27.00   1
   2 -12  11    9.10   27.00   1
  -2 -12  11   20.80   28.00   1
   2  12 -11   19.80   30.50   1
  -2  12 -12   57.60   50.20   1
   2 -12  12   51.30   48.90   1
  -2 -12  12   34.10   48.00   1
   2  12 -12   71.90   50.60   1
   2 -12  13   -0.00   23.60   1
  -2 -12  13   19.60   23.70   1
   2  12 -13   19.70   25.90   1
   2  13   0  387.00  128.80   1
  -2 -13   0  335.30  128.40   1
   2 -13   0  164.30  128.20   1
  -2  13   0  178.90  128.20   1
   2  13   1  191.30   95.20   1
  -2 -13  -1  165.70   94.90   1
   2 -13  -1   83.50   94.00   1
  -2  13   1  123.20   94.40   1
  -2  13  -1  131.30   93.90   1
   2 -13   1  169.30   94.40   1
  -2 -13   1  190.60   93.30   1
   2  13  -1  187.80   93.50   1
   2  13   2  329.80  114.30   1
  -2 -13  -2  311.80  114.40   1
   2 -13  -2  416.30  115.00   1
  -2  13   2  360.20  114.30   1
  -2  13  -2  201.20  112.20   1
   2 -13   2  234.80  112.20   1
  -2 -13   2  127.80  111.80   1
   2  13  -2  135.70  111.90   1
   2  13   3  558.90  185.20   1
  -2 -13  -3  440.50  184.60   1
   2 -13  -3  564.70  186.00   1
  -2  13   3  562.00  186.30   1
  -2  13  -3  271.40  182.80   1
   2 -13   3  273.00  183.00   1
  -2 -13   3  809.90  192.70   1
   2  13  -3  542.20  187.30   1
   2  13   4  225.80  121.00   1
  -2 -13  -4  178.70  120.40   1
   2 -13  -4  229.60  122.00   1
  -2  13   4  212.70  121.50   1
  -2  13  -4  144.50  121.70   1
   2 -13   4  195.50  123.80   1
  -2 -13   4  306.30  121.30   1
   2  13  -4  220.30  120.40   1
   2  13   5  512.40  146.50   1
  -2 -13  -5  276.80  144.10   1
   2 -13  -5  284.70  144.80   1
  -2  13   5  314.00  144.40   1
  -2  13  -5  264.10  142.70   1
   2 -13   5  222.80  142.30   1
  -2 -13   5  290.80  142.60   1
   2  13  -5  214.30  141.80   1
   2  13   6   39.70   69.00   1
  -2 -13  -6   64.20   70.20   1
   2 -13  -6   62.70   66.40   1
  -2  13   6   70.80   66.50   1
  -2  13  -6  129.80   65.50   1
   2 -13   6   99.50   66.60   1
  -2 -13   6  102.90   71.20   1
   2  13  -6   86.60   69.20   1
   2  13   7  207.50  121.50   1
  -2 -13  -7  148.70  120.70   1
  -2  13  -7  168.70  123.00   1
   2 -13   7  397.50  125.60   1
  -2 -13   7  285.90  124.20   1
   2  13  -7  192.20  123.10   1
  -2 -13  -8   27.70   49.30   1
  -2  13  -8   36.20   50.90   1
   2 -13   8   30.60   48.30   1
  -2 -13   8   59.80   48.20   1
   2  13  -8   70.40   49.30   1
  -2  13  -9   79.80   59.70   1
   2 -13   9   78.00   58.50   1
  -2 -13   9   28.20   59.00   1
   2  13  -9  242.30   63.30   1
  -2  13 -10   14.90   32.30   1
   2 -13  10   -0.00   33.10   1
  -2 -13  10   37.40   37.10   1
   2  13 -10   21.20   35.50   1
  -2  13 -11   77.60   51.80   1
   2 -13  11   24.60   46.10   1
  -2 -13  11   29.10   44.70   1
   2  13 -11   65.40   48.90   1
  -2  13 -12   29.40   44.70   1
   2 -13  12   39.50   44.50   1
  -2 -13  12   37.70   44.80   1
   2  13 -12   90.90   47.90   1
   2 -13  13   18.20   30.20   1
  -2 -13  13   16.90   30.40   1
   2  14   0   56.00   44.00   1
  -2 -14   0   33.00   43.30   1
   2 -14   0   46.40   45.30   1
  -2  14   0   22.90   43.60   1
   2  14   1   58.90   57.40   1
  -2 -14  -1   42.90   57.00   1
   2 -14  -1   48.80   56.40   1
  -2  14   1    9.60   55.50   1
  -2  14  -1   98.70   57.00   1
   2 -14   1   78.50   56.10   1
  -2 -14   1  120.00   55.60   1
   2  14  -1  102.10   55.60   1
   2  14   2  163.50   46.40   1
  -2 -14  -2  198.90   47.20   1
   2 -14  -2   30.10   42.00   1
  -2  14   2   -0.00   41.90   1
  -2  14  -2   40.50   40.40   1
   2 -14   2   44.20   41.00   1
  -2 -14   2   20.50   39.80   1
   2  14  -2   25.20   39.90   1
   2  14   3   94.40   60.30   1
  -2 -14  -3   37.10   59.70   1
   2 -14  -3  119.00   61.30   1
  -2  14   3   92.40   62.00   1
  -2  14  -3   56.00   57.60   1
   2 -14   3   37.50   57.30   1
  -2 -14   3  143.20   65.30   1
   2  14  -3  189.30   62.20   1
   2  14   4   43.10   46.70   1
  -2 -14  -4   27.20   46.10   1
   2 -14  -4   57.00   49.10   1
  -2  14   4   33.00   46.20   1
  -2  14  -4   76.10   45.90   1
   2 -14   4  121.30   53.50   1
  -2 -14   4   18.00   45.40   1
   2  14  -4   22.60   44.20   1
   2  14   5    8.30   45.30   1
  -2 -14  -5   10.50   44.50   1
   2 -14  -5   66.80   49.70   1
  -2  14   5  169.00   51.10   1
  -2  14  -5   17.20   42.10   1
   2 -14   5   64.70   43.90   1
  -2 -14   5   38.10   42.00   1
   2  14  -5   31.10   41.50   1
   2  14   6   14.90   44.90   1
  -2 -14  -6   15.30   46.80   1
   2 -14  -6   13.10   44.50   1
  -2  14   6    5.30   43.80   1
  -2  14  -6   66.80   42.20   1
   2 -14   6   57.80   42.30   1
  -2 -14   6   56.00   47.30   1
   2  14  -6   51.00   43.60   1
   2  14   7   27.30   56.50   1
  -2 -14  -7   18.70   58.50   1
  -2  14  -7   72.70   55.20   1
   2 -14   7  118.80   59.90   1
  -2 -14   7   85.20   61.20   1
   2  14  -7   66.30   58.70   1
   2  14   8   30.50   37.90   1
  -2 -14  -8   27.20   37.40   1
  -2  14  -8    6.60   39.40   1
   2 -14   8   24.50   41.20   1
  -2 -14   8   21.10   38.80   1
   2  14  -8   31.10   42.20   1
  -2  14  -9    8.30   30.00   1
   2 -14   9    5.20   28.40   1
  -2 -14   9    8.40   28.40   1
   2  14  -9   26.50   28.90   1
  -2  14 -10    8.20   20.60   1
   2 -14  10   -0.00   21.60   1
  -2 -14  10    0.90   23.40   1
   2  14 -10   -0.00   23.00   1
  -2  14 -11   12.70   27.20   1
   2 -14  11   -0.00   26.20   1
  -2 -14  11    7.90   29.50   1
   2  14 -11    0.00   31.50   1
   2 -14  12   16.60   36.60   1
  -2 -14  12   30.90   35.40   1
   2  14 -12   20.60   38.50   1
   2  15   0   45.30   43.90   1
  -2 -15   0   34.90   43.20   1
   2 -15   0   19.20   43.60   1
  -2  15   0   55.10   45.30   1
   2  15   1   42.70   46.50   1
  -2 -15  -1   29.80   45.90   1
   2 -15  -1   26.40   46.00   1
  -2  15   1   29.00   45.70   1
  -2  15  -1   83.90   47.10   1
   2 -15   1   41.70   45.70   1
  -2 -15   1   46.00   43.90   1
   2  15  -1   46.90   44.60   1
   2  15   2   25.10   39.80   1
  -2 -15  -2    8.30   39.30   1
   2 -15  -2   18.00   38.80   1
  -2  15   2   40.10   39.90   1
  -2  15  -2   -0.40   36.00   1
   2 -15   2   31.00   37.10   1
  -2 -15   2  122.10   37.80   1
   2  15  -2   38.20   37.00   1
   2  15   3  109.10   56.10   1
  -2 -15  -3  121.00   55.50   1
   2 -15  -3   50.90   56.20   1
  -2  15   3   43.30   56.00   1
  -2  15  -3   49.20   53.20   1
   2 -15   3   82.70   53.10   1
  -2 -15   3   44.60   55.10   1
   2  15  -3   32.30   53.20   1
   2  15   4   64.70   45.80   1
  -2 -15  -4   51.30   44.70   1
   2 -15  -4   22.40   46.30   1
  -2  15   4   17.20   45.90   1
  -2  15  -4   48.10   43.00   1
   2 -15   4   46.50   44.90   1
  -2 -15   4   26.70   44.90   1
   2  15  -4   26.10   48.10   1
   2  15   5   34.50   62.70   1
  -2 -15  -5   45.40   63.00   1
   2 -15  -5   37.80   63.90   1
  -2  15   5   93.50   64.10   1
  -2  15  -5   74.60   64.10   1
   2 -15   5   65.00   61.40   1
  -2 -15   5  221.40   63.20   1
   2  15  -5  107.30   62.20   1
   2  15   6   28.70   35.60   1
  -2 -15  -6   14.60   37.30   1
   2 -15  -6   15.90   35.80   1
  -2  15   6   15.90   34.80   1
  -2  15  -6    6.80   30.30   1
   2 -15   6   21.10   30.00   1
  -2 -15   6   -0.00   31.60   1
   2  15  -6   28.10   30.40   1
   2  15   7   59.10   56.20   1
  -2 -15  -7   75.30   57.80   1
   2 -15  -7   53.60   52.80   1
  -2  15   7   67.00   54.80   1
  -2  15  -7   23.30   50.10   1
   2 -15   7   61.40   53.60   1
  -2 -15   7  209.50   62.40   1
   2  15  -7   61.90   56.50   1
   2  15   8   -0.00   35.90   1
  -2 -15  -8    9.50   37.80   1
  -2  15  -8  146.90   44.70   1
   2 -15   8   21.20   39.10   1
  -2 -15   8   30.00   42.60   1
   2  15  -8   13.10   41.80   1
  -2 -15  -9   15.50   43.90   1
  -2  15  -9   25.10   46.70   1
   2 -15   9   46.20   46.50   1
  -2 -15   9   91.20   45.80   1
   2  15  -9   23.50   43.70   1
  -2  15 -10   21.10   32.00   1
   2 -15  10   31.10   33.10   1
  -2 -15  10    9.20   32.60   1
   2  15 -10    8.70   31.40   1
  -2  15 -11   68.80   63.10   1
   2 -15  11   59.30   63.40   1
  -2 -15  11   98.00   66.10   1
   2  15 -11   89.80   64.20   1
   2 -15  12   -0.00   30.40   1
  -2 -15  12   13.70   29.40   1
   2  15 -12   -0.00   32.50   1
   2  16   0  305.70  161.40   1
  -2 -16   0  316.80  160.90   1
   2 -16   0  262.30  161.50   1
  -2  16   0  351.30  162.60   1
   2  16   1    4.50   39.50   1
  -2 -16  -1    3.70   39.20   1
   2 -16  -1   21.40   39.70   1
  -2  16   1   27.70   39.80   1
  -2  16  -1  117.50   42.10   1
   2 -16   1   92.40   40.80   1
  -2 -16   1   25.90   36.10   1
   2  16  -1   15.20   36.60   1
   2  16   2  117.70   79.30   1
  -2 -16  -2   96.40   79.60   1
   2 -16  -2  106.20   79.30   1
  -2  16   2  434.30   83.50   1
  -2  16  -2  105.00   77.70   1
   2 -16   2  114.80   77.60   1
  -2 -16   2  115.50   77.00   1
   2  16  -2   88.10   77.30   1
   2  16   3   52.90   46.70   1
  -2 -16  -3   50.10   48.20   1
   2 -16  -3   58.90   48.20   1
  -2  16   3   64.80   47.60   1
  -2  16  -3   44.00   44.70   1
   2 -16   3   24.70   44.40   1
  -2 -16   3   41.40   45.70   1
   2  16  -3   37.50   44.30   1
   2  16   4  109.30   45.30   1
  -2 -16  -4  184.20   47.60   1
   2 -16  -4   11.70   43.30   1
  -2  16   4    8.80   44.50   1
  -2  16  -4   20.50   39.50   1
   2 -16   4   17.50   39.90   1
  -2 -16   4   24.70   48.50   1
   2  16  -4   68.60   50.00   1
   2  16   5   11.30   54.20   1
  -2 -16  -5   12.30   54.30   1
   2 -16  -5   74.30   57.30   1
  -2  16   5   34.90   54.30   1
  -2  16  -5   85.80   58.00   1
   2 -16   5   87.90   57.50   1
  -2 -16   5  112.70   55.10   1
   2  16  -5   94.30   54.70   1
   2  16   6  124.50   44.20   1
  -2 -16  -6   21.20   41.30   1
   2 -16  -6   40.80   43.50   1
  -2  16   6   11.60   41.50   1
  -2  16  -6   25.00   35.80   1
   2 -16   6   10.10   34.50   1
  -2 -16   6   21.90   34.30   1
   2  16  -6   16.60   34.10   1
   2  16   7   54.40   39.20   1
  -2 -16  -7   -0.00   36.80   1
   2 -16  -7    8.80   34.20   1
  -2  16   7   -0.00   32.40   1
  -2  16  -7    9.50   28.50   1
   2 -16   7   10.60   28.00   1
  -2 -16   7   62.70   37.70   1
   2  16  -7   18.80   31.40   1
   2  16   8   11.00   45.80   1
  -2 -16  -8   25.20   48.30   1
   2 -16  -8   10.60   44.90   1
  -2  16  -8   75.80   45.50   1
   2 -16   8   45.20   48.10   1
  -2 -16   8   49.40   50.30   1
   2  16  -8   70.70   48.40   1
   2  16   9   20.50   36.00   1
  -2 -16  -9    9.40   34.60   1
  -2  16  -9   30.90   37.30   1
   2 -16   9   37.90   39.10   1
  -2 -16   9   -0.00   36.40   1
   2  16  -9   14.60   40.10   1
  -2  16 -10    8.60   32.30   1
   2 -16  10    2.30   31.10   1
  -2 -16  10   22.90   30.90   1
   2  16 -10   17.70   31.70   1
   2 -16  11   -0.00   25.60   1
  -2 -16  11    7.40   27.20   1
   2  16 -11   10.10   25.50   1
   2  17   0   70.50   67.60   1
  -2 -17   0   73.40   67.10   1
   2 -17   0   67.10   68.20   1
  -2  17   0  229.70   70.40   1
   2  17   1   12.90   35.30   1
  -2 -17  -1   19.40   36.90   1
   2 -17  -1   85.90   40.10   1
  -2  17   1   30.80   36.10   1
  -2  17  -1   16.90   36.30   1
   2 -17   1   24.40   36.30   1
  -2 -17   1   14.70   33.40   1
   2  17  -1   12.60   33.20   1
   2  17   2   86.20   51.20   1
  -2 -17  -2   84.40   51.80   1
   2 -17  -2   25.30   48.70   1
  -2  17   2   87.10   50.40   1
  -2  17  -2   33.00   46.70   1
   2 -17   2   37.70   47.60   1
  -2 -17   2   36.20   47.20   1
   2  17  -2   50.20   47.50   1
   2  17   3   19.20   43.40   1
  -2 -17  -3   34.80   43.20   1
   2 -17  -3   -0.00   42.60   1
  -2  17   3   16.10   41.90   1
  -2  17  -3   18.80   40.80   1
   2 -17   3   57.90   42.00   1
  -2 -17   3  112.30   42.40   1
   2  17  -3   49.00   40.30   1
   2  17   4  177.70   71.40   1
  -2 -17  -4  110.10   69.50   1
   2 -17  -4  152.70   70.60   1
  -2  17   4  165.90   71.50   1
  -2  17  -4   46.70   66.00   1
   2 -17   4   62.60   66.80   1
  -2 -17   4  246.00   80.10   1
   2  17  -4   82.90   71.10   1
   2  17   5   32.70   37.90   1
  -2 -17  -5   83.50   39.90   1
   2 -17  -5   24.60   41.20   1
  -2  17   5   -0.00   38.10   1
  -2  17  -5   17.50   40.20   1
   2 -17   5   -0.00   43.40   1
  -2 -17   5   46.40   37.60   1
   2  17  -5    4.70   34.80   1
   2  17   6    8.50   35.00   1
  -2 -17  -6   14.90   34.90   1
   2 -17  -6   15.50   36.80   1
  -2  17   6   -0.00   36.80   1
  -2  17  -6   -0.00   29.80   1
   2 -17   6    9.70   29.70   1
   2  17  -6   29.30   28.40   1
   2  17   7   75.10   41.30   1
  -2 -17  -7   35.90   39.80   1
   2 -17  -7   31.80   39.30   1
  -2  17   7   22.60   38.60   1
  -2  17  -7   12.00   32.60   1
   2 -17   7    9.40   32.90   1
  -2 -17   7   28.90   35.70   1
   2  17  -7   19.90   34.50   1
   2  17   8   95.00   47.50   1
  -2 -17  -8   16.70   49.00   1
   2 -17  -8   -0.10   42.10   1
  -2  17   8   12.70   43.20   1
  -2  17  -8   18.70   39.40   1
   2 -17   8   55.00   43.30   1
  -2 -17   8  365.70   60.10   1
   2  17  -8  231.90   53.20   1
   2  17   9   13.90   37.50   1
  -2 -17  -9   10.30   38.90   1
  -2  17  -9   27.60   40.70   1
   2 -17   9   24.30   39.90   1
  -2 -17   9   38.50   43.50   1
   2  17  -9   26.10   42.30   1
  -2 -17 -10  113.30   47.60   1
   2 -17  10   48.30   43.80   1
  -2 -17  10   14.40   41.60   1
   2  17 -10   16.10   43.90   1
   2  18   0  170.50  113.90   1
  -2 -18   0  195.40  114.30   1
   2 -18   0  182.80  114.70   1
  -2  18   0  236.50  115.90   1
   2  18   1  116.80   41.70   1
  -2 -18  -1  137.80   41.80   1
   2 -18  -1  186.60   44.00   1
  -2  18   1    7.20   37.60   1
  -2  18  -1   15.10   38.00   1
   2 -18   1   -0.00   36.40   1
  -2 -18   1   31.20   36.00   1
   2  18  -1   -0.00   34.40   1
   2  18   2  134.10   62.60   1
  -2 -18  -2   88.30   62.10   1
   2 -18  -2   55.00   60.10   1
  -2  18   2   29.80   59.70   1
  -2  18  -2   69.10   58.80   1
   2 -18   2   75.90   58.90   1
  -2 -18   2   94.60   58.90   1
   2  18  -2   62.70   58.80   1
   2  18   3   -0.00   45.90   1
  -2 -18  -3    6.60   46.10   1
   2 -18  -3  105.00   48.70   1
  -2  18   3  185.90   50.80   1
  -2  18  -3    3.80   43.40   1
   2 -18   3   27.20   42.90   1
  -2 -18   3   82.10   43.50   1
   2  18  -3   74.30   43.70   1
   2  18   4   81.30   79.80   1
  -2 -18  -4   57.30   79.70   1
  -2  18  -4  329.00   80.20   1
   2 -18   4  137.90   78.40   1
  -2 -18   4  146.50   85.20   1
   2  18  -4  111.50   80.60   1
   2  18   5   18.70   41.60   1
  -2 -18  -5   18.70   41.60   1
   2 -18  -5   61.50   46.20   1
  -2  18   5   28.50   44.60   1
  -2  18  -5   45.60   42.70   1
   2 -18   5  123.10   50.40   1
  -2 -18   5   11.30   40.20   1
   2  18  -5   28.90   43.70   1
   2  18   6    7.70   36.00   1
  -2 -18  -6    7.40   35.20   1
   2 -18  -6    4.20   34.00   1
  -2  18   6   15.40   36.30   1
  -2  18  -6    6.40   33.30   1
   2 -18   6   10.70   32.00   1
  -2 -18   6   16.90   29.70   1
   2  18  -6   41.40   32.40   1
   2  18   7   60.70   60.50   1
  -2 -18  -7   81.90   61.50   1
   2 -18  -7   53.30   63.60   1
  -2  18   7   66.10   61.50   1
  -2  18  -7  213.50   61.50   1
   2 -18   7   55.90   56.90   1
  -2 -18   7   51.60   57.10   1
   2  18  -7   58.10   56.80   1
   2  18   8   36.80   45.40   1
  -2 -18  -8   10.00   45.40   1
   2 -18  -8   11.80   40.50   1
  -2  18   8   22.80   40.00   1
  -2  18  -8   23.00   34.40   1
   2 -18   8   21.30   36.80   1
  -2 -18   8   58.00   45.70   1
   2  18  -8   32.30   38.10   1
   2  18   9   47.30   51.60   1
  -2 -18  -9   73.00   55.10   1
   2 -18  -9   75.50   52.90   1
  -2  18  -9   33.60   48.40   1
   2 -18   9   50.50   50.70   1
  -2 -18   9   59.10   56.00   1
   2  18  -9   21.60   51.90   1
   2  18  10   10.40   35.90   1
  -2 -18 -10   56.00   38.20   1
   2 -18  10   14.50   41.30   1
  -2 -18  10    8.20   39.00   1
   2  18 -10   14.00   38.90   1
   2  19   0   12.60   37.40   1
  -2 -19   0   -0.00   36.80   1
   2 -19   0   27.30   38.00   1
  -2  19   0  169.60   42.90   1
   2  19   1   18.80   27.00   1
  -2 -19  -1   -0.00   26.80   1
   2 -19  -1    5.30   25.80   1
  -2  19   1   -0.00   24.40   1
  -2  19  -1   -0.00   24.10   1
   2 -19   1    7.00   23.90   1
  -2 -19   1   -0.00   21.70   1
   2  19  -1    1.50   22.00   1
   2  19   2   10.20   28.50   1
  -2 -19  -2   15.60   28.60   1
   2 -19  -2   13.80   29.10   1
  -2  19   2   -0.00   28.80   1
  -2  19  -2   -0.00   25.70   1
   2 -19   2   11.90   25.80   1
  -2 -19   2   16.50   26.10   1
   2  19  -2   10.30   24.80   1
   2  19   3   66.10   37.40   1
  -2 -19  -3   50.30   36.50   1
   2 -19  -3   20.20   35.20   1
  -2  19   3   10.70   36.90   1
  -2  19  -3   10.70   32.30   1
   2 -19   3   88.30   34.60   1
  -2 -19   3    3.90   31.30   1
   2  19  -3    1.20   31.20   1
   2  19   4   18.30   34.40   1
  -2 -19  -4   17.70   34.30   1
   2 -19  -4    5.80   34.70   1
  -2  19   4   10.80   35.50   1
  -2  19  -4   25.60   29.60   1
   2 -19   4   21.00   29.40   1
  -2 -19   4   16.70   35.40   1
   2  19  -4   11.00   30.60   1
   2  19   5   28.90   37.00   1
  -2 -19  -5   10.00   36.70   1
   2 -19  -5   19.90   39.60   1
  -2  19   5    9.80   39.40   1
  -2  19  -5   28.60   32.80   1
   2 -19   5   36.90   36.80   1
  -2 -19   5   10.70   36.90   1
   2  19  -5   11.40   42.60   1
   2  19   6  110.40   47.80   1
  -2 -19  -6   79.70   44.50   1
   2 -19  -6    7.80   45.80   1
  -2  19   6   -0.00   43.00   1
  -2  19  -6   41.80   47.30   1
   2 -19   6    7.30   42.10   1
  -2 -19   6  124.20   45.30   1
   2  19  -6   12.10   42.50   1
   2  19   7   24.00   34.60   1
  -2 -19  -7   21.20   36.90   1
   2 -19  -7   -0.10   41.70   1
  -2  19   7   -0.00   36.00   1
  -2  19  -7   16.50   31.60   1
   2 -19   7   12.40   29.10   1
  -2 -19   7   24.10   28.80   1
   2  19  -7    4.40   28.00   1
   2  19   8    0.00   36.80   1
  -2 -19  -8   -0.00   38.00   1
   2 -19  -8   26.40   39.30   1
  -2  19   8   16.00   34.90   1
  -2  19  -8   29.00   28.20   1
   2 -19   8   -0.00   27.50   1
  -2 -19   8   33.30   34.00   1
   2  19  -8   13.00   29.20   1
   2  19   9   13.80   36.30   1
  -2 -19  -9   52.30   44.30   1
   2 -19  -9    1.90   34.00   1
  -2  19   9    3.10   35.20   1
   2 -19   9   10.70   32.40   1
  -2 -19   9   12.70   36.60   1
   2  19  -9   17.50   36.10   1
   2  20   0   12.40   37.80   1
  -2 -20   0   18.60   37.60   1
   2 -20   0   32.60   39.00   1
  -2  20   0   37.90   39.20   1
   2  20   1   45.10   38.40   1
  -2 -20  -1   64.70   37.60   1
   2 -20  -1   27.90   38.60   1
  -2  20   1   13.50   36.90   1
  -2  20  -1   24.20   37.40   1
   2 -20   1   -0.00   35.80   1
  -2 -20   1   14.00   33.60   1
   2  20  -1   20.60   34.40   1
   2  20   2   94.00   47.90   1
  -2 -20  -2   51.80   48.30   1
   2 -20  -2    7.30   46.90   1
  -2  20   2    6.50   46.60   1
  -2  20  -2   21.10   44.50   1
   2 -20   2   58.50   46.00   1
  -2 -20   2   93.00   44.90   1
   2  20  -2   47.10   45.10   1
   2  20   3    5.20   33.90   1
  -2 -20  -3    8.10   34.70   1
   2 -20  -3   12.00   34.10   1
  -2  20   3   20.70   33.90   1
  -2  20  -3   17.50   31.30   1
   2 -20   3  231.80   36.90   1
  -2 -20   3   11.30   30.10   1
   2  20  -3   11.90   30.20   1
   2  20   4   35.20   36.30   1
  -2 -20  -4   37.20   37.10   1
   2 -20  -4   28.80   37.70   1
  -2  20   4   45.60   38.30   1
  -2  20  -4   24.90   32.40   1
   2 -20   4    9.80   31.30   1
  -2 -20   4   16.70   34.60   1
   2  20  -4    6.80   31.80   1
   2  20   5   -0.00   36.60   1
  -2 -20  -5    8.50   35.70   1
   2 -20  -5   21.30   36.30   1
  -2  20   5   -0.00   38.40   1
  -2  20  -5   16.00   31.00   1
   2 -20   5   47.00   34.80   1
  -2 -20   5  164.80   49.70   1
   2  20  -5   13.70   41.40   1
   2  20   6   19.20   41.50   1
  -2 -20  -6   45.30   40.90   1
   2 -20  -6   55.80   44.80   1
  -2  20   6   18.70   41.40   1
  -2  20  -6   33.50   44.10   1
   2 -20   6   23.90   43.40   1
  -2 -20   6   27.10   38.80   1
   2  20  -6   10.70   36.90   1
   2  20   7   11.40   41.20   1
  -2 -20  -7   16.60   41.80   1
   2 -20  -7    5.80   42.10   1
  -2  20   7   -0.00   40.30   1
  -2  20  -7   13.80   33.50   1
   2 -20   7    9.10   34.80   1
  -2 -20   7   29.50   33.90   1
   2  20  -7  116.00   37.10   1
   2  20   8    6.60   31.70   1
  -2 -20  -8   -0.00   36.70   1
   2 -20  -8   -0.00   40.40   1
  -2  20   8    1.30   33.90   1
   2 -20   8   13.40   26.10   1
  -2 -20   8   19.20   27.10   1
   2  20  -8    5.30   24.10   1
   2  21   0   17.70   37.60   1
  -2 -21   0   22.00   38.20   1
   2 -21   0   32.20   39.40   1
  -2  21   0   29.30   39.90   1
   2  21   1   21.30   33.60   1
  -2 -21  -1   27.90   34.60   1
   2 -21  -1   -0.00   33.40   1
  -2  21   1   16.30   33.00   1
  -2  21  -1   51.20   33.50   1
   2 -21   1   -0.00   33.00   1
  -2 -21   1   15.80   30.40   1
   2  21  -1   -0.00   29.90   1
   2  21   2   11.80   34.80   1
  -2 -21  -2    5.50   36.90   1
   2 -21  -2   14.00   36.10   1
  -2  21   2   23.20   35.80   1
  -2  21  -2   51.60   34.70   1
   2 -21   2   16.90   32.60   1
  -2 -21   2   17.00   32.90   1
   2  21  -2   18.10   33.10   1
   2  21   3   19.60   44.30   1
  -2 -21  -3   32.00   44.10   1
   2 -21  -3   15.50   44.20   1
  -2  21   3   16.10   44.10   1
  -2  21  -3  132.40   44.30   1
   2 -21   3   45.80   42.00   1
  -2 -21   3   23.80   40.80   1
   2  21  -3   56.60   42.00   1
   2  21   4  148.20   46.00   1
  -2 -21  -4  150.20   45.40   1
   2 -21  -4    3.90   40.70   1
  -2  21   4    5.20   40.90   1
  -2  21  -4   44.10   38.70   1
   2 -21   4   17.50   37.30   1
  -2 -21   4   13.50   38.30   1
   2  21  -4   53.80   38.90   1
   2  21   5   50.60   47.40   1
  -2 -21  -5   34.30   47.40   1
   2 -21  -5    4.60   46.10   1
  -2  21   5   19.20   47.90   1
  -2  21  -5   55.60   42.50   1
   2 -21   5   27.50   43.50   1
  -2 -21   5   69.20   54.40   1
   2  21  -5   46.50   47.20   1
   2  21   6  111.80   43.60   1
  -2 -21  -6   51.70   40.70   1
   2 -21  -6    1.40   41.20   1
  -2  21   6    4.60   40.80   1
  -2  21  -6   10.80   37.80   1
   2 -21   6   31.50   44.80   1
  -2 -21   6   15.10   36.40   1
   2  21  -6   14.60   38.00   1
   2  21   7   38.70   45.90   1
  -2 -21  -7   31.80   46.40   1
   2 -21  -7   32.50   45.60   1
  -2  21   7   70.00   46.70   1
   2 -21   7   22.50   39.50   1
  -2 -21   7   14.10   38.60   1
   2  21  -7   38.20   40.50   1
   2  22   0   43.10   38.80   1
  -2 -22   0   24.00   38.20   1
   2 -22   0   16.30   38.70   1
  -2  22   0   11.60   37.70   1
   2  22   1   18.20   32.60   1
  -2 -22  -1   10.80   34.60   1
   2 -22  -1   -0.00   33.70   1
  -2  22   1   35.70   33.40   1
  -2  22  -1    7.10   32.80   1
   2 -22   1   12.30   32.90   1
  -2 -22   1   16.20   31.20   1
   2  22  -1   17.40   31.60   1
   2  22   2    6.60   30.60   1
  -2 -22  -2    1.40   31.60   1
   2 -22  -2   -0.00   29.70   1
  -2  22   2   26.60   29.70   1
  -2  22  -2   15.50   27.10   1
   2 -22   2   17.70   28.00   1
  -2 -22   2    2.00   25.50   1
   2  22  -2   -0.00   25.70   1
   2  22   3   -0.00   30.30   1
  -2 -22  -3    6.70   32.20   1
   2 -22  -3   31.10   31.50   1
  -2  22   3   41.20   32.00   1
  -2  22  -3   11.10   27.00   1
   2 -22   3    2.00   27.10   1
  -2 -22   3   11.10   26.50   1
   2  22  -3   -0.10   26.70   1
   2  22   4   24.20   37.90   1
  -2 -22  -4   21.20   39.20   1
   2 -22  -4   12.40   39.20   1
  -2  22   4    8.30   38.90   1
  -2  22  -4   20.70   34.00   1
   2 -22   4   43.60   34.80   1
  -2 -22   4   21.90   34.50   1
   2  22  -4   24.30   34.90   1
   2  22   5   16.90   37.10   1
  -2 -22  -5   12.60   36.50   1
   2 -22  -5   20.30   38.10   1
  -2  22   5   -0.00   37.70   1
   2 -22   5   15.70   32.60   1
  -2 -22   5   24.20   43.60   1
   2  22  -5   30.70   34.20   1
   2  23   0   19.30   37.30   1
  -2 -23   0   40.90   37.70   1
   2 -23   0   21.00   37.70   1
  -2  23   0   -0.00   36.90   1
   2  23   1   -0.00   31.60   1
  -2 -23  -1    1.30   32.00   1
   2 -23  -1   33.70   32.80   1
  -2  23   1   16.20   31.20   1
  -2  23  -1    2.70   30.90   1
   2 -23   1    3.10   29.50   1
  -2 -23   1   11.10   26.10   1
   2  23  -1    8.30   27.90   1
   2  23   2   25.70   39.30   1
  -2 -23  -2   18.50   40.20   1
   2 -23  -2   26.10   38.60   1
  -2  23   2   10.90   36.50   1
  -2  23  -2   38.20   36.20   1
   2 -23   2   30.50   35.90   1
  -2 -23   2    2.50   34.50   1
   2  23  -2   29.00   34.90   1
   2  23   3   16.10   32.60   1
  -2 -23  -3   16.40   34.10   1
   2 -23  -3   13.40   32.40   1
  -2  23   3    9.70   31.30   1
  -2  23  -3   -0.00   27.40   1
   2 -23   3   13.40   26.70   1
  -2 -23   3    8.20   26.20   1
   2  23  -3    9.70   26.70   1
   3   0   0   25.70   23.70   1
  -3   0   0   10.70   23.60   1
   3   0   1 1363.80  580.40   1
  -3   0  -1 1308.10  580.40   1
   3   1   0   11.30   25.60   1
  -3  -1   0   20.80   26.60   1
   3   1   1  814.50  108.80   1
  -3  -1  -1  763.00  108.60   1
  -3  -1   1  139.00  105.80   1
   3   1  -1  137.90  105.80   1
  -3  -1   2 1900.60  821.80   1
   3   1  -2 1939.20  822.00   1
   3   1  -3  435.30  222.20   1
   3   2   0  802.20  355.30   1
  -3  -2   0  764.30  355.20   1
   3   2   1  817.40  370.10   1
  -3  -2  -1  697.10  369.70   1
  -3   2  -1  726.10  369.50   1
   3  -2   1  818.20  369.70   1
  -3  -2   1 1153.00  371.20   1
   3   2  -1 1011.00  370.70   1
   3   2   2  483.30   92.50   1
  -3  -2  -2  499.80   92.90   1
  -3   2  -2  127.30   90.00   1
   3  -2   2  146.20   90.20   1
  -3  -2   2  110.60   89.80   1
   3   2  -2  122.30   89.90   1
  -3   2  -3 1581.70  614.40   1
   3  -2   3 1799.00  616.10   1
  -3  -2   3 1221.00  612.50   1
   3   2  -3 1311.90  613.00   1
  -3   2  -4  200.00  141.40   1
   3  -2   4  214.20  142.30   1
  -3  -2   4  302.20  141.60   1
   3   2  -4  305.50  141.60   1
  -3  -2   5  651.20  298.90   1
   3   2  -5  605.90  295.50   1
   3   3   0  400.20  193.50   1
  -3  -3   0  374.40  193.70   1
   3   3   1  669.30  320.30   1
  -3  -3  -1  706.40  320.30   1
  -3   3  -1  666.50  319.90   1
   3  -3   1  646.80  319.80   1
  -3  -3   1  809.30  321.30   1
   3   3  -1  751.10  321.10   1
   3   3   2 1966.00  682.40   1
  -3  -3  -2 2358.80  683.40   1
  -3   3  -2 1375.60  680.00   1
   3  -3   2 1510.50  680.40   1
  -3  -3   2 1414.20  681.30   1
   3   3  -2 1616.30  681.90   1
  -3   3  -3  664.70  313.50   1
   3  -3   3  606.40  313.40   1
  -3  -3   3  746.20  314.40   1
   3   3  -3  831.10  314.70   1
  -3   3  -4  364.60  171.10   1
   3  -3   4  289.60  170.90   1
  -3  -3   4  336.30  171.40   1
   3   3  -4  355.20  171.60   1
  -3   3  -5  186.80  113.70   1
   3  -3   5  183.00  113.70   1
  -3  -3   5  208.20  114.10   1
   3   3  -5  216.20  114.20   1
  -3   3  -6  129.50   74.70   1
   3  -3   6   96.70   74.60   1
  -3  -3   6  124.40   74.70   1
   3   3  -6   94.40   74.40   1
  -3  -3   7   82.20   72.50   1
   3   3  -7  143.90   73.40   1
   3   3  -8  189.20  115.40   1
   3   4   0 1117.30  505.70   1
  -3  -4   0 1127.60  505.80   1
   3  -4   0 1204.10  506.60   1
  -3   4   0 1218.90  506.60   1
   3   4   1  156.80   89.00   1
  -3  -4  -1  159.80   89.10   1
  -3   4  -1  105.10   88.40   1
   3  -4   1  112.20   88.40   1
  -3  -4   1  169.70   88.90   1
   3   4  -1  196.00   89.00   1
   3   4   2 1414.80  862.90   1
  -3  -4  -2 1582.50  863.20   1
  -3   4  -2 3376.40  867.60   1
   3  -4   2 3024.90  866.30   1
  -3  -4   2 2694.60  865.90   1
   3   4  -2 2685.10  865.90   1
   3   4   3  552.50  192.10   1
  -3  -4  -3  793.60  193.50   1
  -3   4  -3  275.60  190.80   1
   3  -4   3  314.70  190.80   1
  -3  -4   3  810.20  193.70   1
   3   4  -3  815.20  194.10   1
  -3   4  -4   56.30   50.40   1
   3  -4   4   53.30   50.30   1
  -3  -4   4   49.30   50.00   1
   3   4  -4   79.80   50.60   1
  -3   4  -5    5.40   23.50   1
   3  -4   5   18.60   23.90   1
  -3  -4   5   16.90   24.30   1
   3   4  -5   26.40   24.60   1
  -3   4  -6   30.70   30.80   1
   3  -4   6   11.50   30.50   1
  -3  -4   6   24.90   30.90   1
   3   4  -6   50.10   31.60   1
  -3   4  -7  438.30  125.90   1
   3  -4   7  348.80  124.70   1
  -3  -4   7  155.70  122.80   1
   3   4  -7  229.80  123.60   1
  -3   4  -8   24.50   31.20   1
   3  -4   8   10.40   30.90   1
  -3  -4   8   40.30   31.80   1
   3   4  -8   69.90   32.80   1
  -3   4  -9   20.20   25.80   1
  -3  -4   9    5.10   25.10   1
   3   4  -9   37.40   26.30   1
   3   4 -10   13.10   27.20   1
   3   5   0   24.40   27.80   1
  -3  -5   0   15.00   27.60   1
   3   5   1  329.60  163.00   1
  -3  -5  -1  261.40  162.80   1
   3  -5  -1  375.80  163.50   1
  -3   5   1  339.60  163.20   1
  -3   5  -1  282.80  162.50   1
   3  -5   1  297.70  162.50   1
  -3  -5   1  429.40  163.30   1
   3   5  -1  287.30  162.90   1
   3   5   2 2017.60  762.60   1
  -3  -5  -2 2638.10  764.50   1
  -3   5  -2 1520.00  761.70   1
   3  -5   2 2509.40  765.10   1
  -3  -5   2 1485.60  762.60   1
   3   5  -2 1561.20  762.90   1
   3   5   3   80.20   59.90   1
  -3  -5  -3   44.30   59.40   1
  -3   5  -3  219.50   60.30   1
   3  -5   3  276.50   61.50   1
  -3  -5   3   47.70   58.80   1
   3   5  -3   57.90   58.70   1
  -3   5  -4 2435.40 1002.20   1
   3  -5   4 2463.00 1002.10   1
  -3  -5   4 2239.90 1001.70   1
   3   5  -4 2371.30 1002.00   1
  -3   5  -5  672.70  239.40   1
   3  -5   5  513.80  238.60   1
  -3  -5   5  410.40  238.40   1
   3   5  -5  475.60  238.50   1
  -3   5  -6 4208.70 1694.30   1
   3  -5   6 3788.50 1691.40   1
  -3  -5   6 4093.70 1694.50   1
   3   5  -6 4221.20 1694.00   1
  -3   5  -7   31.40   46.60   1
   3  -5   7   48.60   46.50   1
  -3  -5   7  110.70   47.50   1
   3   5  -7   74.40   47.30   1
  -3   5  -8   61.60   44.10   1
   3  -5   8   30.90   43.50   1
  -3  -5   8   49.90   44.00   1
   3   5  -8   57.20   44.10   1
  -3   5  -9   38.00   41.70   1
   3  -5   9   41.50   41.90   1
  -3  -5   9   33.90   41.60   1
   3   5  -9   59.00   42.50   1
  -3   5 -10  198.30  117.10   1
   3  -5  10  228.60  118.70   1
  -3  -5  10  200.30  117.10   1
   3   5 -10  185.80  116.60   1
  -3   5 -11  161.70  114.00   1
  -3  -5  11  215.70  115.70   1
   3   5 -11  201.40  114.10   1
  -3  -5  12  268.60  101.90   1
   3   5 -12  106.40   84.10   1
   3   5 -13    9.60   26.00   1
   3   6   0  806.60  378.20   1
  -3  -6   0  924.20  378.50   1
   3  -6   0  797.20  378.40   1
  -3   6   0  847.10  378.50   1
   3   6   1  192.90   94.10   1
  -3  -6  -1  149.10   93.80   1
   3  -6  -1  157.10   94.10   1
  -3   6   1  136.20   94.00   1
  -3   6  -1  131.40   93.50   1
   3  -6   1  214.60   93.80   1
  -3  -6   1  118.00   95.90   1
   3   6  -1  120.30   96.00   1
   3   6   2 1199.60  402.00   1
  -3  -6  -2  868.50  401.00   1
  -3   6  -2  866.80  400.30   1
   3  -6   2  830.50  400.30   1
   3   6   3  478.80  184.20   1
  -3  -6  -3  506.40  184.20   1
  -3   6  -3  366.90  182.80   1
   3  -6   3  360.90  182.90   1
  -3  -6   3  319.00  183.90   1
   3   6  -3  289.20  183.60   1
   3   6   4   74.50   53.70   1
  -3  -6  -4  113.90   54.50   1
  -3   6  -4  345.30   58.20   1
   3  -6   4  206.50   56.00   1
  -3  -6   4    8.20   53.80   1
   3   6  -4   37.70   53.70   1
  -3   6  -5   76.60   79.40   1
   3  -6   5  377.90   82.50   1
  -3  -6   5  160.30   79.90   1
   3   6  -5  111.40   79.90   1
  -3   6  -6   47.60   51.20   1
   3  -6   6   40.90   51.20   1
  -3  -6   6   88.40   51.20   1
   3   6  -6   71.80   51.30   1
  -3   6  -7  513.60  202.50   1
   3  -6   7  385.80  201.60   1
  -3  -6   7  401.00  201.80   1
   3   6  -7  367.60  201.60   1
  -3   6  -8   30.10   40.40   1
   3  -6   8   54.70   40.60   1
  -3  -6   8   43.00   40.50   1
   3   6  -8   35.70   40.50   1
  -3   6  -9   16.10   25.80   1
   3  -6   9   37.20   25.90   1
  -3  -6   9   11.20   25.70   1
   3   6  -9    9.40   26.10   1
  -3   6 -10   50.30   35.90   1
   3  -6  10   12.40   34.50   1
  -3  -6  10   58.80   35.90   1
   3   6 -10   48.50   36.00   1
  -3   6 -11   46.40   43.40   1
   3  -6  11   44.10   43.00   1
  -3  -6  11   41.40   43.10   1
   3   6 -11   36.60   43.70   1
  -3   6 -12    9.30   23.30   1
   3  -6  12   12.70   23.00   1
  -3  -6  12    7.00   22.60   1
   3   6 -12   12.00   24.00   1
  -3   6 -13  215.10   53.10   1
   3  -6  13   27.70   35.30   1
  -3  -6  13   22.00   34.00   1
   3   6 -13   21.30   34.20   1
  -3   6 -14    3.40   24.30   1
  -3  -6  14   11.20   25.60   1
   3   6 -14   10.70   24.90   1
   3   6 -15   14.50   31.60   1
   3   7   0   11.40   38.60   1
  -3  -7   0   28.90   38.80   1
   3  -7   0   63.10   40.20   1
  -3   7   0   85.30   39.80   1
   3   7   1  748.30  338.00   1
  -3  -7  -1  768.90  338.00   1
   3  -7  -1  614.70  337.70   1
  -3   7   1  617.30  337.70   1
  -3   7  -1  706.40  337.90   1
   3  -7   1  833.00  338.30   1
  -3  -7   1 1060.40  339.40   1
   3   7  -1  848.60  338.20   1
   3   7   2  446.60  222.70   1
  -3  -7  -2  495.70  222.80   1
   3  -7  -2  366.20  222.90   1
  -3   7   2  371.10  222.80   1
  -3   7  -2  420.10  222.00   1
   3  -7   2  475.50  222.10   1
  -3  -7   2  584.40  223.00   1
   3   7  -2  525.60  222.70   1
   3   7   3  211.70   98.40   1
  -3  -7  -3   87.90   97.70   1
  -3   7  -3  189.90   98.20   1
   3  -7   3  440.90   99.30   1
  -3  -7   3  170.80   99.90   1
   3   7  -3  140.50   99.60   1
   3   7   4  808.00  226.40   1
  -3  -7  -4  649.40  225.60   1
  -3   7  -4  416.10  223.60   1
   3  -7   4  366.20  223.90   1
  -3  -7   4  496.70  223.60   1
   3   7  -4  439.80  223.30   1
  -3  -7  -5  154.10   95.60   1
  -3   7  -5  118.60   94.60   1
   3  -7   5  131.90   94.60   1
  -3  -7   5  227.50   96.70   1
   3   7  -5  229.50   96.40   1
  -3   7  -6  116.80   74.90   1
   3  -7   6  119.30   74.90   1
  -3  -7   6   82.00   73.50   1
   3   7  -6  107.40   73.80   1
  -3   7  -7   51.80   49.10   1
   3  -7   7   65.80   49.10   1
  -3  -7   7   45.70   48.60   1
   3   7  -7   49.70   48.90   1
  -3   7  -8   15.90   31.30   1
   3  -7   8   20.30   31.30   1
  -3  -7   8   23.70   31.70   1
   3   7  -8   49.30   32.80   1
  -3   7  -9   25.40   33.30   1
   3  -7   9   22.00   32.80   1
  -3  -7   9   35.40   33.50   1
   3   7  -9   24.80   33.20   1
  -3   7 -10   42.30   55.20   1
   3  -7  10   69.90   55.40   1
  -3  -7  10  100.50   56.10   1
   3   7 -10  118.50   56.60   1
  -3   7 -11   62.30   51.00   1
   3  -7  11   53.10   50.40   1
  -3  -7  11   45.90   50.60   1
   3   7 -11   76.10   51.30   1
  -3   7 -12   17.10   25.80   1
   3  -7  12    7.70   25.30   1
  -3  -7  12   17.70   26.00   1
   3   7 -12   32.80   26.80   1
  -3   7 -13   19.00   35.60   1
   3  -7  13   30.50   35.90   1
  -3  -7  13   70.80   38.50   1
   3   7 -13   39.40   37.00   1
  -3   7 -14   12.90   26.10   1
   3  -7  14   10.40   26.10   1
  -3  -7  14   14.20   26.10   1
   3   7 -14   14.80   27.70   1
   3  -7  15    6.70   22.70   1
  -3  -7  15    5.00   20.60   1
   3   7 -15    2.90   21.60   1
   3   8   0  174.60  105.10   1
  -3  -8   0  208.30  105.00   1
   3  -8   0  171.30  105.50   1
  -3   8   0  152.80  105.40   1
   3   8   1  213.20  143.00   1
  -3  -8  -1  202.60  143.10   1
   3  -8  -1  642.60  145.10   1
  -3   8   1  500.30  144.20   1
  -3   8  -1  281.00  143.20   1
   3  -8   1  229.00  142.80   1
  -3  -8   1  311.20  142.70   1
   3   8  -1  257.90  142.40   1
   3   8   2   76.50   46.50   1
  -3  -8  -2   36.00   46.50   1
   3  -8  -2   12.50   47.10   1
  -3   8   2    6.90   47.00   1
  -3   8  -2   33.90   44.50   1
   3  -8   2   46.40   44.50   1
  -3  -8   2  328.80   50.10   1
   3   8  -2  289.40   49.50   1
   3   8   3  710.90  330.10   1
  -3  -8  -3  817.20  330.40   1
   3  -8  -3  460.90  330.00   1
  -3   8   3  298.20  329.50   1
  -3   8  -3 1780.20  339.70   1
   3  -8   3 1215.60  334.00   1
  -3  -8   3 1106.30  331.60   1
   3   8  -3  993.00  330.90   1
   3   8   4 1150.30  382.70   1
  -3  -8  -4 1119.60  382.60   1
  -3   8  -4  706.30  380.00   1
   3  -8   4  703.50  380.10   1
  -3  -8   4 1397.00  384.80   1
   3   8  -4  831.70  381.90   1
   3   8   5  616.90  205.70   1
  -3  -8  -5  414.40  204.30   1
  -3   8  -5  364.60  204.80   1
   3  -8   5  589.10  205.80   1
  -3  -8   5  456.20  204.10   1
   3   8  -5  321.50  203.40   1
  -3   8  -6  249.30   57.00   1
   3  -8   6   81.00   55.20   1
  -3  -8   6   20.20   56.00   1
   3   8  -6   52.80   56.30   1
  -3   8  -7  205.10  104.90   1
   3  -8   7  106.60  102.40   1
  -3  -8   7  242.30  103.30   1
   3   8  -7  240.00  103.40   1
  -3   8  -8  200.30  107.50   1
   3  -8   8  206.50  107.20   1
  -3  -8   8  140.60  106.70   1
   3   8  -8  187.80  107.40   1
  -3   8  -9  171.10   59.00   1
   3  -8   9   55.40   57.00   1
  -3  -8   9   60.60   57.40   1
   3   8  -9   74.20   58.00   1
  -3   8 -10   28.20   25.60   1
   3  -8  10   -0.00   24.10   1
  -3  -8  10   12.80   25.00   1
   3   8 -10   40.10   26.30   1
  -3   8 -11   58.90   31.40   1
   3  -8  11   11.40   29.10   1
  -3  -8  11   30.50   29.90   1
   3   8 -11   16.50   30.20   1
  -3   8 -12  126.70   31.00   1
   3  -8  12   10.80   25.30   1
  -3  -8  12   11.10   25.60   1
   3   8 -12  132.90   32.20   1
  -3   8 -13   31.80   28.90   1
   3  -8  13   20.00   28.00   1
  -3  -8  13   13.10   28.20   1
   3   8 -13   16.60   28.70   1
   3  -8  14   21.40   26.50   1
  -3  -8  14   13.40   26.20   1
   3   8 -14   12.30   27.00   1
   3   9   0   13.00   21.10   1
  -3  -9   0    7.00   21.10   1
   3  -9   0    8.70   22.80   1
  -3   9   0    4.10   23.50   1
   3   9   1  240.60  139.20   1
  -3  -9  -1  256.00  139.30   1
   3  -9  -1  180.60  138.60   1
  -3   9   1  217.20  138.80   1
  -3   9  -1  250.80  138.90   1
   3  -9   1  220.60  138.90   1
  -3  -9   1  699.60  139.90   1
   3   9  -1  606.10  139.40   1
   3   9   2   74.20   53.70   1
  -3  -9  -2   82.20   53.90   1
   3  -9  -2   61.80   54.80   1
  -3   9   2   64.40   54.80   1
  -3   9  -2  109.40   52.60   1
   3  -9   2   67.00   52.20   1
  -3  -9   2   14.20   53.20   1
   3   9  -2   25.70   55.20   1
   3   9   3  819.60  273.60   1
  -3  -9  -3  809.60  273.40   1
   3  -9  -3  250.40  272.10   1
  -3   9   3  610.80  273.50   1
  -3   9  -3 1340.20  275.80   1
   3  -9   3 1793.30  281.10   1
  -3  -9   3 1578.00  277.40   1
   3   9  -3 1611.20  277.20   1
   3   9   4   24.60   41.40   1
  -3  -9  -4   24.50   42.20   1
  -3   9  -4   32.50   39.10   1
   3  -9   4   40.40   39.20   1
  -3  -9   4   40.60   43.20   1
   3   9  -4   37.60   44.00   1
   3   9   5  222.20  176.30   1
  -3  -9  -5  208.90  176.40   1
  -3   9  -5  920.50  180.90   1
   3  -9   5  524.20  178.30   1
  -3  -9   5  620.00  178.10   1
   3   9  -5  548.70  178.00   1
   3   9   6  171.30   70.40   1
  -3  -9  -6  110.10   69.30   1
  -3   9  -6   87.70   68.70   1
   3  -9   6   63.80   68.30   1
  -3  -9   6   98.70   68.60   1
   3   9  -6  102.60   68.40   1
  -3   9  -7   87.20   40.10   1
   3  -9   7   51.10   39.70   1
  -3  -9   7    4.60   40.20   1
   3   9  -7    7.00   39.90   1
  -3   9  -8   72.30   42.40   1
   3  -9   8    7.20   38.20   1
  -3  -9   8   50.60   38.90   1
   3   9  -8   28.10   39.20   1
  -3   9  -9   24.80   28.00   1
   3  -9   9   -0.00   25.20   1
  -3  -9   9   17.20   25.50   1
   3   9  -9   13.80   26.50   1
  -3   9 -10   24.20   23.70   1
   3  -9  10   -0.10   21.80   1
  -3  -9  10   10.40   22.50   1
   3   9 -10   14.90   23.70   1
  -3   9 -11   24.20   24.20   1
   3  -9  11    8.80   22.50   1
  -3  -9  11    6.00   23.10   1
   3   9 -11   13.30   24.20   1
  -3   9 -12   49.60   35.50   1
   3  -9  12   22.50   33.80   1
  -3  -9  12   24.30   34.20   1
   3   9 -12   28.30   35.10   1
  -3   9 -13    6.80   19.50   1
   3  -9  13    5.80   18.90   1
  -3  -9  13    7.30   19.30   1
   3   9 -13   12.00   20.90   1
   3  -9  14   17.80   31.50   1
  -3  -9  14   33.40   32.40   1
   3   9 -14   26.50   32.70   1
   3  10   0   92.40   73.20   1
  -3 -10   0   77.60   73.10   1
   3 -10   0  190.10   74.60   1
  -3  10   0  120.90   73.90   1
   3  10   1  358.60  150.80   1
  -3 -10  -1  261.70  150.30   1
   3 -10  -1  270.30  150.10   1
  -3  10   1  218.80  149.80   1
  -3  10  -1  297.90  150.30   1
   3 -10   1  273.00  150.00   1
  -3 -10   1  294.40  149.10   1
   3  10  -1  317.70  149.30   1
   3  10   2   31.70   36.70   1
  -3 -10  -2   21.50   35.80   1
   3 -10  -2   21.00   37.40   1
  -3  10   2   27.90   37.70   1
  -3  10  -2   28.40   34.20   1
   3 -10   2   21.60   33.80   1
  -3 -10   2   48.50   43.90   1
   3  10  -2   41.30   42.00   1
   3  10   3  501.60  396.10   1
  -3 -10  -3  772.80  396.70   1
   3 -10  -3 2794.10  415.80   1
  -3  10   3 2593.00  412.30   1
  -3  10  -3 1258.50  397.30   1
   3 -10   3 1456.10  398.20   1
  -3 -10   3 1626.60  399.00   1
   3  10  -3 1159.00  397.60   1
   3  10   4  402.20  129.40   1
  -3 -10  -4  392.80  129.30   1
   3 -10  -4  280.70  128.50   1
  -3  10   4  212.90  128.50   1
  -3  10  -4  265.10  127.80   1
   3 -10   4  339.90  128.40   1
  -3 -10   4  157.80  128.30   1
   3  10  -4  150.80  127.30   1
   3  10   5  731.10  317.10   1
  -3 -10  -5  889.90  317.90   1
  -3  10  -5  491.10  314.70   1
   3 -10   5  730.40  315.70   1
  -3 -10   5 1367.50  321.70   1
   3  10  -5  782.10  317.60   1
   3  10   6   30.80   45.30   1
  -3 -10  -6   39.30   45.90   1
  -3  10  -6   38.90   46.80   1
   3 -10   6   45.80   48.70   1
  -3 -10   6   47.10   45.40   1
   3  10  -6   56.10   45.70   1
  -3  10  -7  167.80  129.20   1
   3 -10   7  244.60  129.50   1
  -3 -10   7  319.60  131.30   1
   3  10  -7  323.90  130.90   1
  -3  10  -8   20.30   30.10   1
   3 -10   8   -0.20   30.80   1
  -3 -10   8   -0.00   30.60   1
   3  10  -8   74.60   35.00   1
  -3  10  -9  115.70   60.50   1
   3 -10   9   26.20   56.20   1
  -3 -10   9   92.10   58.00   1
   3  10  -9  187.90   60.50   1
  -3  10 -10   14.90   32.10   1
   3 -10  10   20.60   30.80   1
  -3 -10  10   18.20   30.30   1
   3  10 -10   21.50   31.90   1
  -3  10 -11   23.20   21.70   1
   3 -10  11   11.90   19.40   1
  -3 -10  11   -0.00   19.50   1
   3  10 -11   -0.00   20.70   1
  -3  10 -12   91.10   51.80   1
   3 -10  12   48.30   50.20   1
  -3 -10  12   43.00   50.30   1
   3  10 -12   68.80   51.30   1
  -3  10 -13   17.60   28.60   1
   3 -10  13   18.20   28.00   1
  -3 -10  13   16.80   28.10   1
   3  10 -13   21.10   29.10   1
   3 -10  14   30.80   30.20   1
  -3 -10  14   23.10   30.10   1
   3  10 -14   13.10   30.70   1
   3  11   0  140.50   58.10   1
  -3 -11   0  217.30   58.60   1
   3 -11   0   44.10   58.50   1
  -3  11   0   18.50   58.00   1
   3  11   1  436.70  220.30   1
  -3 -11  -1  265.70  219.80   1
   3 -11  -1  592.70  220.60   1
  -3  11   1  547.90  220.40   1
  -3  11  -1  400.20  219.90   1
   3 -11   1  560.00  220.70   1
  -3 -11   1  618.30  219.80   1
   3  11  -1  586.90  219.90   1
   3  11   2  284.10   97.20   1
  -3 -11  -2  119.20   96.30   1
   3 -11  -2  247.00   97.20   1
  -3  11   2  307.50   97.80   1
  -3  11  -2  129.00   94.90   1
   3 -11   2   97.90   94.80   1
  -3 -11   2  249.20   99.00   1
   3  11  -2  169.40   96.30   1
   3  11   3  129.40   68.50   1
  -3 -11  -3   90.70   68.30   1
   3 -11  -3   35.10   68.50   1
  -3  11   3    6.80   68.50   1
  -3  11  -3  508.30   69.30   1
   3 -11   3  576.20   70.30   1
  -3 -11   3  109.80   68.70   1
   3  11  -3  101.90   69.20   1
   3  11   4   80.30   65.00   1
  -3 -11  -4   64.40   64.40   1
   3 -11  -4  122.00   65.20   1
  -3  11   4  184.70   65.50   1
  -3  11  -4   67.00   65.10   1
   3 -11   4   25.80   63.40   1
  -3 -11   4  325.40   66.50   1
   3  11  -4  108.90   63.90   1
   3  11   5    2.00   33.80   1
  -3 -11  -5    3.40   35.30   1
  -3  11  -5   35.50   31.40   1
   3 -11   5   21.00   31.00   1
  -3 -11   5   48.00   39.40   1
   3  11  -5   11.90   37.60   1
   3  11   6  105.50   75.50   1
  -3 -11  -6  109.50   77.40   1
  -3  11  -6   32.00   75.20   1
   3 -11   6  132.30   77.70   1
  -3 -11   6  143.70   76.60   1
   3  11  -6  240.60   78.50   1
   3  11   7    9.50   33.30   1
  -3 -11  -7   39.40   33.00   1
  -3  11  -7   25.70   35.00   1
   3 -11   7   -0.00   32.00   1
  -3 -11   7   14.70   31.60   1
   3  11  -7   25.70   31.30   1
  -3  11  -8   16.50   33.10   1
   3 -11   8   10.90   32.80   1
  -3 -11   8   16.80   38.00   1
   3  11  -8   59.60   37.20   1
  -3  11  -9   60.70   45.30   1
   3 -11   9   26.80   45.40   1
  -3 -11   9   25.90   43.80   1
   3  11  -9   42.80   46.10   1
  -3  11 -10   10.60   37.90   1
   3 -11  10    9.90   36.50   1
  -3 -11  10   99.60   41.00   1
   3  11 -10  273.10   46.60   1
  -3  11 -11    3.00   24.60   1
   3 -11  11    6.20   21.60   1
  -3 -11  11   10.80   21.90   1
   3  11 -11   10.10   24.80   1
  -3  11 -12    7.90   20.10   1
   3 -11  12    4.90   18.30   1
  -3 -11  12   -0.00   18.70   1
   3  11 -12   12.00   20.10   1
   3 -11  13   -0.00   15.50   1
  -3 -11  13    8.20   16.80   1
   3  11 -13    6.40   18.50   1
   3  12   0 1215.50  465.40   1
  -3 -12   0 1057.20  464.90   1
   3 -12   0  939.40  465.00   1
  -3  12   0 1039.60  465.40   1
   3  12   1  147.90  101.30   1
  -3 -12  -1  123.50  101.20   1
   3 -12  -1  187.60  100.80   1
  -3  12   1  408.30  102.30   1
  -3  12  -1  145.40  101.40   1
   3 -12   1  155.20  101.00   1
   3  12   2  148.90   69.90   1
  -3 -12  -2  121.90   69.40   1
   3 -12  -2  126.30   69.10   1
  -3  12   2   77.00   69.00   1
  -3  12  -2   50.80   66.30   1
   3 -12   2   41.10   66.70   1
  -3 -12   2  207.40   68.80   1
   3  12  -2  212.90   67.90   1
   3  12   3  219.90  134.40   1
  -3 -12  -3  296.80  135.10   1
   3 -12  -3  154.80  135.00   1
  -3  12   3  143.90  134.90   1
  -3  12  -3  306.80  133.70   1
   3 -12   3  308.80  133.80   1
  -3 -12   3  595.10  137.90   1
   3  12  -3  264.60  135.70   1
   3  12   4  324.00  156.10   1
  -3 -12  -4  415.90  156.50   1
   3 -12  -4  482.20  159.20   1
  -3  12   4  484.40  158.60   1
  -3  12  -4  264.00  157.00   1
   3 -12   4  788.50  164.00   1
  -3 -12   4  258.00  155.10   1
   3  12  -4  216.30  154.80   1
   3  12   5  187.70  109.00   1
  -3 -12  -5  172.30  109.30   1
   3 -12  -5  377.80  111.40   1
  -3  12   5  310.30  111.20   1
  -3  12  -5  240.00  108.00   1
   3 -12   5  190.50  106.90   1
  -3 -12   5   86.40  108.70   1
   3  12  -5  206.30  108.80   1
   3  12   6  106.60   96.60   1
  -3 -12  -6   53.90   96.40   1
  -3  12  -6  143.10   94.20   1
   3 -12   6  256.50   95.90   1
  -3 -12   6  275.40  100.40   1
   3  12  -6  261.30   99.00   1
   3  12   7   44.60   82.60   1
  -3 -12  -7  110.70   84.30   1
  -3  12  -7  230.10   87.20   1
   3 -12   7  360.90   90.60   1
  -3 -12   7  189.60   85.50   1
   3  12  -7  124.70   84.10   1
  -3  12  -8   93.60   77.70   1
   3 -12   8  130.80   77.30   1
  -3 -12   8   97.20   77.10   1
   3  12  -8  107.60   77.00   1
  -3  12  -9   32.90   45.00   1
   3 -12   9   36.80   46.40   1
  -3 -12   9   94.90   51.60   1
   3  12  -9   41.20   49.00   1
  -3  12 -10   63.30   51.20   1
   3 -12  10   34.20   49.90   1
  -3 -12  10   46.60   49.00   1
   3  12 -10   49.70   50.70   1
  -3  12 -11   71.30   53.00   1
   3 -12  11   40.70   50.30   1
  -3 -12  11   63.90   51.70   1
   3  12 -11   50.60   52.10   1
  -3  12 -12   17.50   28.30   1
   3 -12  12    5.60   26.50   1
  -3 -12  12   12.90   26.50   1
   3  12 -12   17.80   27.70   1
   3 -12  13   37.20   48.20   1
  -3 -12  13   72.20   49.40   1
   3  12 -13   68.40   50.10   1
   3  13   0  123.80   55.30   1
  -3 -13   0  102.60   54.60   1
   3 -13   0   27.90   54.40   1
  -3  13   0   28.50   55.20   1
   3  13   1  247.40  123.30   1
  -3 -13  -1  219.00  122.80   1
   3 -13  -1  153.80  122.00   1
  -3  13   1  226.90  122.40   1
  -3  13  -1  245.10  122.80   1
   3 -13   1  178.20  122.70   1
  -3 -13   1  242.90  121.30   1
   3  13  -1  244.00  121.60   1
   3  13   2  590.20  249.40   1
  -3 -13  -2  731.40  250.20   1
   3 -13  -2  418.60  248.60   1
  -3  13   2  526.10  249.00   1
  -3  13  -2  715.10  248.90   1
   3 -13   2  577.90  248.20   1
  -3 -13   2  493.90  247.90   1
   3  13  -2  437.60  247.60   1
   3  13   3  435.80  160.40   1
  -3 -13  -3  315.70  159.60   1
   3 -13  -3  815.30  165.10   1
  -3  13   3  502.00  162.00   1
  -3  13  -3  492.00  159.40   1
   3 -13   3  635.00  159.70   1
  -3 -13   3  139.90  159.90   1
   3  13  -3  181.30  161.70   1
   3  13   4   26.30   35.40   1
  -3 -13  -4   11.30   34.80   1
   3 -13  -4   17.70   38.40   1
  -3  13   4   23.90   39.00   1
  -3 -13   4   23.40   33.60   1
   3  13  -4   22.30   32.80   1
   3  13   5  312.10  159.70   1
  -3 -13  -5  293.90  159.50   1
   3 -13  -5  448.60  161.20   1
  -3  13   5  249.10  158.80   1
  -3  13  -5  181.70  158.00   1
   3 -13   5  362.70  159.10   1
  -3 -13   5  817.50  162.80   1
   3  13  -5  667.30  160.70   1
   3  13   6   63.10   83.00   1
  -3 -13  -6   15.50   82.50   1
  -3  13  -6  243.20   81.60   1
   3 -13   6  184.70   81.00   1
  -3 -13   6  264.10   88.60   1
   3  13  -6  210.40   86.30   1
   3  13   7   68.90   62.30   1
  -3 -13  -7   70.20   64.70   1
  -3  13  -7   65.60   62.80   1
   3 -13   7  176.70   66.30   1
  -3 -13   7   32.90   63.00   1
   3  13  -7   71.20   64.30   1
   3  13   8   21.50   57.90   1
  -3 -13  -8   21.30   57.10   1
  -3  13  -8  124.60   61.40   1
   3 -13   8   86.70   60.60   1
  -3 -13   8   95.60   58.70   1
   3  13  -8  189.10   61.00   1
  -3  13  -9   75.10   68.20   1
   3 -13   9   64.30   67.50   1
  -3 -13   9  106.00   69.60   1
   3  13  -9  152.40   69.90   1
  -3  13 -10   35.50   40.60   1
   3 -13  10    5.10   41.20   1
  -3 -13  10   73.00   48.70   1
   3  13 -10   63.10   46.30   1
  -3  13 -11  199.90   45.00   1
   3 -13  11    8.40   34.70   1
  -3 -13  11    8.00   33.00   1
   3  13 -11   15.20   34.90   1
  -3  13 -12   14.10   39.60   1
   3 -13  12   15.10   37.00   1
  -3 -13  12  275.70   48.60   1
   3  13 -12  153.60   44.80   1
   3 -13  13    6.80   22.60   1
  -3 -13  13    3.20   22.40   1
   3  13 -13   14.90   26.90   1
   3  14   0  480.20  198.70   1
  -3 -14   0  468.30  198.70   1
   3 -14   0  319.50  198.60   1
  -3  14   0  367.20  198.80   1
   3  14   1   78.60   59.20   1
  -3 -14  -1   63.40   59.50   1
   3 -14  -1  105.70   58.90   1
  -3  14   1    3.00   56.90   1
  -3  14  -1   81.30   59.10   1
   3 -14   1   38.60   58.50   1
  -3 -14   1   82.70   56.60   1
   3  14  -1  144.50   57.00   1
   3  14   2  165.90   51.10   1
  -3 -14  -2   95.40   50.20   1
   3 -14  -2   26.70   47.80   1
  -3  14   2   12.60   47.30   1
  -3  14  -2    6.70   46.10   1
   3 -14   2   14.00   46.30   1
  -3 -14   2  253.60   48.20   1
   3  14  -2  334.20   49.10   1
   3  14   3  144.50   52.70   1
  -3 -14  -3   31.30   52.10   1
   3 -14  -3  145.70   55.40   1
  -3  14   3   75.70   53.70   1
  -3  14  -3   25.90   49.20   1
   3 -14   3   42.70   49.80   1
  -3 -14   3   85.20   60.20   1
   3  14  -3   57.90   54.80   1
   3  14   4   11.00   45.60   1
  -3 -14  -4   43.70   45.70   1
   3 -14  -4   15.60   46.80   1
  -3  14   4   64.70   47.80   1
   3 -14   4   48.30   45.60   1
  -3 -14   4  109.00   48.40   1
   3  14  -4   28.90   45.50   1
   3  14   5  208.00  111.80   1
  -3 -14  -5  281.20  112.20   1
   3 -14  -5  239.70  114.10   1
  -3  14   5  253.90  113.00   1
  -3  14  -5   80.10  109.90   1
   3 -14   5  187.60  110.90   1
  -3 -14   5  314.80  111.20   1
   3  14  -5  234.40  110.20   1
   3  14   6   98.70   77.20   1
  -3 -14  -6  145.20   79.20   1
   3 -14  -6   -0.00   73.70   1
  -3  14   6   88.10   76.40   1
  -3  14  -6  260.80   76.10   1
   3 -14   6  333.70   77.00   1
  -3 -14   6  649.80   88.80   1
   3  14  -6  282.00   79.00   1
   3  14   7   60.60   47.70   1
  -3 -14  -7   25.80   48.10   1
  -3  14  -7   31.20   39.80   1
   3 -14   7   32.60   43.70   1
  -3 -14   7   72.80   50.70   1
   3  14  -7    1.60   45.80   1
   3  14   8   23.60   50.20   1
  -3 -14  -8   28.40   50.80   1
  -3  14  -8   48.90   52.30   1
   3 -14   8   30.70   53.30   1
  -3 -14   8  112.70   53.40   1
   3  14  -8  394.90   62.80   1
  -3 -14  -9   21.70   42.60   1
  -3  14  -9   38.00   41.90   1
   3 -14   9   26.00   41.20   1
  -3 -14   9   41.90   41.00   1
   3  14  -9   27.50   40.70   1
  -3  14 -10   24.90   26.10   1
   3 -14  10    4.40   25.30   1
  -3 -14  10   -0.00   28.70   1
   3  14 -10    4.40   27.80   1
  -3  14 -11   18.30   32.80   1
   3 -14  11   17.40   35.70   1
  -3 -14  11   14.70   36.20   1
   3  14 -11   21.90   38.10   1
   3 -14  12   -0.00   21.00   1
  -3 -14  12    2.10   20.30   1
   3  14 -12   -0.00   23.40   1
   3  15   0   30.40   33.70   1
  -3 -15   0   22.70   32.10   1
   3 -15   0   17.40   35.50   1
  -3  15   0    5.50   35.00   1
   3  15   1  216.40   89.80   1
  -3 -15  -1  185.70   89.10   1
   3 -15  -1  317.10   90.10   1
  -3  15   1  230.40   89.30   1
  -3  15  -1  191.10   89.30   1
   3 -15   1  162.20   88.60   1
  -3 -15   1   63.70   86.10   1
   3  15  -1   96.50   86.30   1
   3  15   2   52.70   45.70   1
  -3 -15  -2   10.40   45.90   1
   3 -15  -2   44.80   46.70   1
  -3  15   2  201.70   49.20   1
  -3  15  -2  139.90   44.80   1
   3 -15   2   49.50   44.40   1
  -3 -15   2   25.20   42.90   1
   3  15  -2   12.40   42.30   1
   3  15   3   92.60   72.50   1
  -3 -15  -3   61.00   72.40   1
   3 -15  -3  116.60   73.40   1
  -3  15   3  135.00   74.10   1
  -3  15  -3   72.20   69.90   1
   3 -15   3   70.50   69.80   1
  -3 -15   3  281.90   78.90   1
   3  15  -3  211.30   73.60   1
   3  15   4  510.60   88.20   1
  -3 -15  -4  524.70   88.90   1
   3 -15  -4  249.70   86.60   1
  -3  15   4  198.50   85.10   1
  -3  15  -4  132.10   80.70   1
   3 -15   4  100.20   81.30   1
  -3 -15   4  125.60   83.40   1
   3  15  -4   44.00   81.30   1
   3  15   5   47.80   48.00   1
  -3 -15  -5   67.40   47.70   1
   3 -15  -5   46.70   51.30   1
  -3  15   5   67.90   51.10   1
  -3  15  -5   14.70   49.10   1
   3 -15   5   10.90   46.70   1
  -3 -15   5   63.40   45.00   1
   3  15  -5   22.90   43.90   1
   3  15   6   45.10   73.90   1
  -3 -15  -6   72.30   74.20   1
   3 -15  -6  109.50   74.60   1
  -3  15   6   94.50   72.90   1
  -3  15  -6  180.10   73.80   1
   3 -15   6  140.20   72.30   1
  -3 -15   6  113.50   73.80   1
   3  15  -6   71.10   71.50   1
   3  15   7   -0.00   41.00   1
  -3 -15  -7   16.00   41.30   1
   3 -15  -7   11.90   38.20   1
  -3  15  -7   12.20   32.30   1
   3 -15   7   15.90   33.50   1
  -3 -15   7   94.70   44.60   1
   3  15  -7  159.20   47.30   1
   3  15   8  246.10   92.80   1
  -3 -15  -8  296.40   95.80   1
  -3  15  -8  160.40   91.90   1
   3 -15   8  163.10   93.20   1
  -3 -15   8  107.30   91.70   1
   3  15  -8   80.80   91.20   1
   3  15   9   16.50   31.60   1
  -3 -15  -9   -0.00   30.20   1
  -3  15  -9   20.40   33.80   1
   3 -15   9   11.30   32.90   1
  -3 -15   9   17.00   29.00   1
   3  15  -9    1.70   29.60   1
  -3  15 -10   49.50   58.10   1
   3 -15  10   83.00   58.60   1
  -3 -15  10   98.70   59.00   1
   3  15 -10   49.00   57.30   1
   3 -15  11   10.60   31.30   1
  -3 -15  11   25.50   37.20   1
   3  15 -11   15.40   33.80   1
   3 -15  12   44.30   59.20   1
  -3 -15  12   54.30   58.20   1
   3  15 -12  173.10   66.40   1
   3  16   0  148.80   99.70   1
  -3 -16   0  144.30   99.20   1
   3 -16   0  169.20  100.70   1
  -3  16   0  190.80  100.90   1
   3  16   1  250.40  140.50   1
  -3 -16  -1  220.00  139.70   1
   3 -16  -1  226.50  140.00   1
  -3  16   1  353.30  140.20   1
  -3  16  -1  221.20  139.70   1
   3 -16   1  186.10  139.80   1
  -3 -16   1  308.50  138.80   1
   3  16  -1  330.20  138.90   1
   3  16   2   69.70   70.30   1
  -3 -16  -2   70.30   71.00   1
   3 -16  -2   79.40   69.90   1
  -3  16   2   68.00   69.80   1
  -3  16  -2  170.10   70.40   1
   3 -16   2   95.90   68.70   1
  -3 -16   2  107.70   68.20   1
   3  16  -2   89.00   68.40   1
   3  16   3  202.60  104.70   1
  -3 -16  -3  157.70  104.50   1
   3 -16  -3  212.00  105.00   1
  -3  16   3  243.40  106.20   1
  -3  16  -3  110.60  102.30   1
   3 -16   3  228.00  103.30   1
  -3 -16   3  171.80  104.50   1
   3  16  -3  163.90  103.00   1
   3  16   4   21.10   44.20   1
  -3 -16  -4   19.10   43.90   1
   3 -16  -4   23.80   47.40   1
  -3  16   4   27.10   45.70   1
  -3  16  -4   29.00   41.30   1
   3 -16   4  212.90   44.30   1
  -3 -16   4   46.50   45.60   1
   3  16  -4   44.60   50.50   1
   3  16   5   83.30   51.60   1
  -3 -16  -5  101.50   52.60   1
   3 -16  -5   12.10   51.80   1
  -3  16   5   27.70   51.50   1
  -3  16  -5   86.90   53.40   1
   3 -16   5   96.80   58.80   1
  -3 -16   5   23.30   48.30   1
   3  16  -5   39.10   49.40   1
   3  16   6   55.80   41.60   1
  -3 -16  -6   31.40   40.30   1
   3 -16  -6   22.70   40.20   1
  -3  16   6   -0.20   38.20   1
   3 -16   6   30.30   36.10   1
  -3 -16   6   20.90   34.60   1
   3  16  -6   18.20   33.70   1
   3  16   7   26.90   51.00   1
  -3 -16  -7   12.20   51.10   1
   3 -16  -7   19.00   49.50   1
  -3  16   7   16.80   49.70   1
  -3  16  -7   64.70   47.40   1
   3 -16   7   82.20   47.90   1
  -3 -16   7   98.40   55.40   1
   3  16  -7   70.70   50.20   1
   3  16   8   22.00   45.20   1
  -3 -16  -8   12.70   47.60   1
  -3  16  -8   16.70   39.10   1
   3 -16   8   33.90   42.90   1
  -3 -16   8  125.50   51.90   1
   3  16  -8   55.40   44.70   1
   3  16   9   21.00   40.90   1
  -3 -16  -9   14.80   41.80   1
  -3  16  -9   49.90   44.80   1
   3 -16   9   24.40   43.60   1
  -3 -16   9   47.60   42.70   1
   3  16  -9   29.90   44.60   1
  -3 -16 -10   49.00   37.00   1
  -3  16 -10   33.80   39.30   1
   3 -16  10   10.40   35.40   1
  -3 -16  10   12.80   33.20   1
   3  16 -10    8.40   33.20   1
   3 -16  11   30.40   45.70   1
  -3 -16  11   48.10   46.70   1
   3  16 -11   46.70   46.80   1
   3  17   0    5.50   29.00   1
  -3 -17   0   12.30   27.70   1
   3 -17   0   15.60   32.00   1
  -3  17   0   17.40   31.70   1
   3  17   1  197.80   83.20   1
  -3 -17  -1  165.60   83.70   1
   3 -17  -1  105.90   81.00   1
  -3  17   1   49.00   80.20   1
  -3  17  -1  232.70   83.80   1
   3 -17   1  314.00   84.80   1
  -3 -17   1  118.20   79.50   1
   3  17  -1   86.90   79.50   1
   3  17   2   51.70   43.00   1
  -3 -17  -2   47.50   42.10   1
   3 -17  -2   19.40   40.70   1
  -3  17   2   60.40   41.10   1
  -3  17  -2   47.40   38.70   1
   3 -17   2   19.40   37.70   1
  -3 -17   2   19.10   37.40   1
   3  17  -2   14.90   37.00   1
   3  17   3   95.90   80.40   1
  -3 -17  -3   69.60   80.00   1
   3 -17  -3   62.70   80.70   1
  -3  17   3  117.30   81.20   1
  -3  17  -3  166.40   79.30   1
   3 -17   3  210.80   79.80   1
  -3 -17   3  151.70   80.10   1
   3  17  -3  111.00   78.80   1
   3  17   4   40.10   48.60   1
  -3 -17  -4   41.00   47.80   1
   3 -17  -4   64.60   50.00   1
  -3  17   4   24.60   50.60   1
  -3  17  -4   41.50   46.30   1
   3 -17   4   65.40   45.90   1
  -3 -17   4   28.10   52.70   1
   3  17  -4   35.70   54.10   1
   3 -17  -5   53.30   59.60   1
  -3  17   5   34.40   57.70   1
  -3  17  -5  128.80   58.00   1
   3 -17   5   25.60   59.00   1
  -3 -17   5  278.40   61.40   1
   3  17  -5   36.70   56.10   1
   3  17   6    2.30   37.60   1
  -3 -17  -6    6.70   36.20   1
   3 -17  -6   -0.00   42.40   1
  -3  17   6   20.10   41.70   1
  -3  17  -6   77.60   35.90   1
   3 -17   6   26.70   34.20   1
  -3 -17   6    9.40   32.80   1
   3  17  -6   23.60   32.80   1
   3  17   7   22.40   41.70   1
  -3 -17  -7   13.40   44.10   1
   3 -17  -7    2.70   41.60   1
  -3  17   7   -0.00   39.80   1
  -3  17  -7  220.40   42.50   1
   3 -17   7   13.50   37.00   1
  -3 -17   7   60.20   42.40   1
   3  17  -7   43.20   38.20   1
   3  17   8   90.00   49.20   1
  -3 -17  -8   15.40   47.10   1
   3 -17  -8    6.40   42.30   1
  -3  17  -8   25.70   37.80   1
   3 -17   8   45.90   40.30   1
  -3 -17   8   27.90   46.00   1
   3  17  -8   38.40   46.30   1
   3  17   9   20.60   55.50   1
  -3 -17  -9   12.80   56.90   1
  -3  17  -9  155.60   59.90   1
   3 -17   9   50.30   57.50   1
  -3 -17   9  114.40   61.20   1
   3  17  -9  137.10   61.90   1
   3  17  10   16.80   43.90   1
  -3 -17 -10   33.60   44.00   1
   3 -17  10   21.50   45.90   1
  -3 -17  10   38.60   42.80   1
   3  17 -10   47.20   44.90   1
   3  18   0   -0.20   21.10   1
  -3 -18   0   -0.00   19.70   1
   3 -18   0   -0.00   23.90   1
  -3  18   0   -0.00   22.50   1
   3  18   1  116.50   57.00   1
  -3 -18  -1  112.20   56.00   1
   3 -18  -1   51.40   53.00   1
  -3  18   1    8.60   51.70   1
  -3  18  -1  127.50   56.90   1
   3 -18   1   76.50   55.60   1
  -3 -18   1   52.30   50.90   1
   3  18  -1   33.10   50.30   1
   3  18   2   18.10   36.10   1
  -3 -18  -2   16.90   36.40   1
   3 -18  -2   19.40   34.30   1
  -3  18   2   34.40   35.00   1
  -3  18  -2   20.20   32.20   1
   3 -18   2   20.40   32.40   1
  -3 -18   2   18.10   30.50   1
   3  18  -2    8.50   31.00   1
   3  18   3   71.10   58.50   1
  -3 -18  -3   46.80   57.80   1
   3 -18  -3   43.10   57.40   1
  -3  18   3   60.80   58.30   1
  -3  18  -3   56.70   56.00   1
   3 -18   3   34.10   55.70   1
  -3 -18   3  258.10   59.00   1
   3  18  -3  406.10   60.30   1
   3  18   4  176.90   96.70   1
  -3 -18  -4  130.60   96.00   1
   3 -18  -4  205.70   97.90   1
  -3  18   4  208.00   98.50   1
  -3  18  -4  155.10   94.40   1
   3 -18   4  199.50   94.70   1
  -3 -18   4  127.40  101.30   1
   3  18  -4   74.90   96.80   1
   3  18   5   69.70   43.60   1
  -3 -18  -5   44.90   42.40   1
   3 -18  -5   11.30   45.20   1
  -3  18   5   37.90   43.00   1
  -3  18  -5   25.90   38.00   1
   3 -18   5   38.20   43.30   1
  -3 -18   5   48.50   42.00   1
   3  18  -5    4.10   39.70   1
   3  18   6   13.20   36.20   1
  -3 -18  -6   62.20   35.80   1
   3 -18  -6   15.80   40.60   1
  -3  18   6   55.90   40.90   1
  -3  18  -6   -0.00   37.00   1
   3 -18   6   11.40   32.90   1
  -3 -18   6   11.30   31.40   1
   3  18  -6    7.50   31.60   1
   3  18   7  132.30   62.20   1
  -3 -18  -7   77.50   61.80   1
   3 -18  -7   30.20   60.00   1
  -3  18   7   60.40   59.90   1
  -3  18  -7   87.40   58.10   1
   3 -18   7   71.70   56.10   1
  -3 -18   7   73.00   57.00   1
   3  18  -7   38.80   55.30   1
   3  18   8   10.80   37.70   1
  -3 -18  -8   14.30   37.80   1
   3 -18  -8   26.40   34.60   1
  -3  18   8   20.50   34.70   1
  -3  18  -8    5.50   26.00   1
   3 -18   8   15.80   27.10   1
  -3 -18   8   13.30   37.80   1
   3  18  -8   10.90   32.50   1
   3  18   9    4.00   49.40   1
  -3 -18  -9    7.00   54.20   1
   3 -18   9   43.30   47.80   1
  -3 -18   9   99.50   55.80   1
   3  18  -9  224.00   58.30   1
   3  18  10  110.80   48.30   1
  -3 -18 -10   16.80   44.80   1
   3 -18  10   37.30   48.10   1
  -3 -18  10   42.80   47.10   1
   3  18 -10   27.70   48.80   1
   3  19   0   11.60   33.50   1
  -3 -19   0    4.50   31.90   1
   3 -19   0    8.50   34.60   1
  -3  19   0  106.20   38.40   1
   3  19   1  201.40   60.40   1
  -3 -19  -1  151.50   58.40   1
   3 -19  -1   42.80   55.70   1
  -3  19   1   12.60   53.90   1
  -3  19  -1  236.50   59.80   1
   3 -19   1  112.20   58.40   1
  -3 -19   1   32.50   52.40   1
   3  19  -1   44.90   52.80   1
   3  19   2   -0.00   41.50   1
  -3 -19  -2   36.70   43.10   1
   3 -19  -2   44.80   41.10   1
  -3  19   2   24.40   40.60   1
  -3  19  -2   -0.00   38.50   1
   3 -19   2   20.80   39.00   1
  -3 -19   2   48.80   38.90   1
   3  19  -2  113.60   40.00   1
   3  19   3   13.50   38.90   1
  -3 -19  -3   15.70   39.50   1
   3 -19  -3   33.60   39.70   1
  -3  19   3   11.30   39.60   1
  -3  19  -3   35.30   36.30   1
   3 -19   3   20.70   36.40   1
  -3 -19   3   23.30   35.70   1
   3  19  -3   40.40   35.20   1
   3  19   4   83.80   48.70   1
  -3 -19  -4   82.70   48.30   1
   3 -19  -4   53.10   49.70   1
  -3  19   4   40.80   50.20   1
  -3  19  -4   12.10   43.50   1
   3 -19   4   33.80   43.40   1
  -3 -19   4   61.90   53.60   1
   3  19  -4   60.70   47.90   1
   3  19   5   24.40   39.10   1
  -3 -19  -5   17.60   40.30   1
   3 -19  -5    9.50   42.60   1
  -3  19   5   14.80   41.30   1
  -3  19  -5   24.20   34.60   1
   3 -19   5   25.60   37.30   1
  -3 -19   5   33.90   37.40   1
   3  19  -5   40.20   41.70   1
   3  19   6   62.10   44.00   1
  -3 -19  -6   43.90   43.60   1
   3 -19  -6   -0.00   43.70   1
  -3  19   6   11.80   43.50   1
  -3  19  -6   75.70   45.50   1
   3 -19   6   28.30   45.40   1
  -3 -19   6   18.10   38.30   1
   3  19  -6   22.80   39.50   1
   3  19   7   16.80   36.80   1
  -3 -19  -7   14.80   39.20   1
   3 -19  -7    6.00   43.60   1
  -3  19   7   -0.00   37.00   1
  -3  19  -7   51.60   33.90   1
   3 -19   7   14.80   33.70   1
  -3 -19   7   19.00   31.20   1
   3  19  -7   10.80   30.40   1
   3  19   8   19.80   34.50   1
  -3 -19  -8    1.40   38.40   1
   3 -19  -8   22.10   34.50   1
  -3  19   8   21.70   33.80   1
   3 -19   8   12.40   26.50   1
  -3 -19   8   15.20   34.10   1
   3  19  -8    2.30   28.50   1
   3  19   9    0.00   40.70   1
  -3 -19  -9   16.40   45.20   1
   3 -19  -9    2.30   35.40   1
   3 -19   9   28.00   34.80   1
  -3 -19   9   35.30   40.10   1
   3  19  -9   13.40   38.10   1
   3  20   0   -0.00   25.70   1
  -3 -20   0    2.00   24.10   1
   3 -20   0   10.40   27.20   1
  -3  20   0    6.10   26.80   1
   3  20   1  180.60   54.20   1
  -3 -20  -1  147.30   52.50   1
   3 -20  -1   45.80   48.80   1
  -3  20   1   28.00   47.60   1
  -3  20  -1  109.60   51.50   1
   3 -20   1   86.70   51.30   1
  -3 -20   1   18.60   45.00   1
   3  20  -1    9.90   44.60   1
   3  20   2   -0.00   29.10   1
  -3 -20  -2    0.00   29.90   1
   3 -20  -2   -0.00   28.10   1
  -3  20   2   37.40   27.70   1
  -3  20  -2    0.60   24.40   1
   3 -20   2   -0.00   25.10   1
  -3 -20   2   15.70   24.00   1
   3  20  -2   -0.00   24.00   1
   3  20   3   36.90   48.10   1
  -3 -20  -3   39.80   49.10   1
   3 -20  -3  133.50   51.40   1
  -3  20  -3   18.40   45.40   1
   3 -20   3   21.10   45.20   1
  -3 -20   3   54.40   45.10   1
   3  20  -3   66.70   45.20   1
   3  20   4   14.10   36.20   1
  -3 -20  -4   43.60   39.40   1
   3 -20  -4   54.40   41.10   1
  -3  20   4   42.20   40.30   1
  -3  20  -4   19.10   33.70   1
   3 -20   4   12.10   34.30   1
  -3 -20   4   25.70   40.00   1
   3  20  -4   21.70   35.50   1
   3  20   5  217.50   66.60   1
  -3 -20  -5  173.30   65.60   1
   3 -20  -5   63.30   62.70   1
  -3  20   5   21.70   63.10   1
  -3  20  -5   88.70   59.80   1
   3 -20   5   70.00   59.80   1
  -3 -20   5   43.30   62.00   1
   3  20  -5   65.90   65.90   1
   3  20   6   24.20   39.40   1
  -3 -20  -6   23.80   38.90   1
   3 -20  -6   -0.00   43.70   1
  -3  20   6   11.80   39.90   1
  -3  20  -6   19.50   39.60   1
   3 -20   6   97.20   48.30   1
  -3 -20   6   11.90   38.40   1
   3  20  -6   57.90   39.60   1
   3  20   7   12.50   40.60   1
  -3 -20  -7   18.80   42.50   1
   3 -20  -7  197.20   57.40   1
  -3  20   7  192.70   54.80   1
   3 -20   7   11.60   38.60   1
  -3 -20   7   28.90   36.60   1
   3  20  -7   25.40   36.20   1
   3  20   8   13.00   39.60   1
  -3 -20  -8   20.80   44.20   1
   3 -20  -8   26.80   44.40   1
  -3  20   8    4.70   37.90   1
   3 -20   8   14.60   33.40   1
  -3 -20   8   24.90   36.70   1
   3  20  -8   53.80   35.00   1
   3  21   0    6.70   27.60   1
  -3 -21   0   11.30   26.50   1
   3 -21   0    8.20   29.50   1
  -3  21   0   -0.00   28.00   1
   3  21   1  277.90   56.10   1
  -3 -21  -1  206.50   54.10   1
   3 -21  -1   66.50   48.00   1
  -3  21   1   32.10   45.70   1
  -3  21  -1  230.10   55.00   1
   3 -21   1  158.90   51.20   1
  -3 -21   1   -0.00   43.20   1
   3  21  -1    4.10   43.20   1
   3  21   2   38.50   52.90   1
  -3 -21  -2   38.20   52.90   1
   3 -21  -2  157.00   55.10   1
  -3  21   2  252.40   57.40   1
  -3  21  -2   29.50   51.40   1
   3 -21   2   53.20   50.00   1
  -3 -21   2   29.20   49.90   1
   3  21  -2   62.90   50.40   1
   3  21   3   39.40   43.70   1
  -3 -21  -3   26.70   42.10   1
   3 -21  -3   28.40   43.10   1
  -3  21   3   69.30   44.30   1
  -3  21  -3   18.50   39.90   1
   3 -21   3   27.90   39.20   1
  -3 -21   3   33.30   38.90   1
   3  21  -3   30.60   39.30   1
   3  21   4   12.60   45.40   1
  -3 -21  -4   53.00   47.90   1
   3 -21  -4   73.80   48.70   1
  -3  21   4   29.30   47.30   1
  -3  21  -4   14.90   43.40   1
   3 -21   4   52.90   43.60   1
  -3 -21   4   59.20   46.70   1
   3  21  -4   59.30   43.70   1
   3  21   5    0.00   32.20   1
  -3 -21  -5    6.30   32.30   1
   3 -21  -5    3.00   32.50   1
  -3  21   5   22.00   34.50   1
  -3  21  -5   23.70   26.60   1
   3 -21   5    3.20   27.50   1
  -3 -21   5   38.00   40.10   1
   3  21  -5   -0.00   36.90   1
   3  21   6  101.40   50.70   1
  -3 -21  -6  164.90   52.90   1
   3 -21  -6   38.30   49.50   1
  -3  21   6   40.00   48.90   1
   3 -21   6   32.20   50.60   1
  -3 -21   6   62.70   46.50   1
   3  21  -6    0.10   43.80   1
   3  21   7    9.00   35.70   1
  -3 -21  -7   -0.00   35.00   1
   3 -21  -7    7.50   39.40   1
  -3  21   7   -0.00   36.50   1
   3 -21   7   28.80   30.30   1
  -3 -21   7   12.30   28.20   1
   3  21  -7   11.40   29.20   1
   3  22   0   61.00   62.70   1
  -3 -22   0   88.10   62.90   1
   3 -22   0   55.10   63.10   1
  -3  22   0  100.80   64.90   1
   3  22   1   53.80   43.80   1
  -3 -22  -1   44.40   43.30   1
   3 -22  -1   19.00   40.40   1
  -3  22   1   14.10   40.00   1
  -3  22  -1   36.20   41.70   1
   3 -22   1   97.30   44.40   1
  -3 -22   1   13.10   37.20   1
   3  22  -1    9.50   37.20   1
   3  22   2   21.20   44.00   1
  -3 -22  -2   33.00   45.50   1
   3 -22  -2   18.40   43.90   1
  -3  22   2   31.00   43.40   1
  -3  22  -2   27.00   42.90   1
   3 -22   2    8.10   40.30   1
  -3 -22   2  161.90   44.20   1
   3  22  -2   55.80   42.00   1
   3  22   3   26.30   38.10   1
  -3 -22  -3   15.80   39.10   1
   3 -22  -3   28.00   36.00   1
  -3  22   3    6.90   35.90   1
  -3  22  -3    6.50   33.20   1
   3 -22   3   13.20   33.00   1
  -3 -22   3   29.70   32.90   1
   3  22  -3   37.40   33.60   1
   3  22   4    9.20   35.50   1
  -3 -22  -4   37.90   39.10   1
   3 -22  -4   20.70   37.50   1
  -3  22   4   32.30   38.50   1
  -3  22  -4   -0.00   32.60   1
   3 -22   4   53.10   35.50   1
  -3 -22   4   32.90   35.30   1
   3  22  -4   12.10   33.20   1
   3  22   5   10.50   31.80   1
  -3 -22  -5   -0.00   32.30   1
   3 -22  -5   -0.10   35.00   1
  -3  22   5   -0.00   35.80   1
   3 -22   5   30.80   28.60   1
  -3 -22   5   45.00   44.80   1
   3  22  -5    5.50   35.90   1
   3  23   0   -0.00   28.70   1
  -3 -23   0   17.40   28.10   1
   3 -23   0    6.40   30.60   1
  -3  23   0    0.00   29.00   1
   3  23   1   38.00   42.30   1
  -3 -23  -1   38.20   42.20   1
   3 -23  -1    3.30   39.30   1
  -3  23   1   13.00   38.00   1
  -3  23  -1   33.70   40.40   1
   3 -23   1   47.00   41.20   1
  -3 -23   1   22.10   35.70   1
   3  23  -1   13.80   35.70   1
   3  23   2   23.40   48.20   1
  -3 -23  -2   29.00   50.20   1
   3 -23  -2   86.90   51.00   1
  -3  23   2   40.40   47.80   1
  -3  23  -2  102.80   51.30   1
   3 -23   2   62.50   47.80   1
  -3 -23   2   14.20   45.70   1
   3  23  -2   47.60   46.40   1
   3  23   3   41.80   46.60   1
  -3 -23  -3   25.50   46.10   1
   3 -23  -3   45.20   45.90   1
  -3  23   3   15.50   44.90   1
   3 -23   3   41.40   42.40   1
  -3 -23   3   59.50   42.80   1
   3  23  -3   25.50   41.50   1
   4   0   0 1342.00  567.20   1
  -4   0   0 1259.30  566.40   1
   4   0   1   98.30   78.40   1
  -4   0  -1  284.70   78.90   1
   4   1   0  362.50  184.30   1
  -4  -1   0  368.50  184.40   1
   4   1   1  343.10  147.50   1
  -4  -1  -1  309.30  147.40   1
  -4  -1   1  224.10  147.60   1
   4   1  -1  224.00  147.60   1
   4   1   2  648.30  282.30   1
  -4  -1  -2  778.60  282.70   1
  -4  -1   2  509.60  282.60   1
   4   1  -2  477.10  282.50   1
  -4  -1   3   31.50   41.30   1
   4   1  -3   58.30   41.50   1
   4   2   0  550.40  253.70   1
  -4  -2   0  518.50  253.70   1
   4   2   1 1695.60  803.60   1
  -4  -2  -1 1742.30  803.80   1
  -4   2  -1 1666.10  803.40   1
   4  -2   1 1844.90  803.60   1
  -4  -2   1 3428.10  811.30   1
   4   2  -1 2928.90  808.40   1
   4   2   2   37.30   37.00   1
  -4  -2  -2   51.30   37.00   1
  -4   2  -2   60.00   35.70   1
   4  -2   2   29.70   35.60   1
  -4  -2   2   26.20   36.10   1
   4   2  -2   11.60   36.20   1
  -4   2  -3  503.50  210.20   1
   4  -2   3  659.40  211.50   1
  -4  -2   3  340.10  209.60   1
   4   2  -3  413.00  210.00   1
  -4   2  -4   40.90   38.60   1
  -4  -2   4   45.10   38.90   1
   4   2  -4   29.70   38.80   1
  -4  -2   5  346.80  186.40   1
   4   2  -5  378.20  186.20   1
   4   3   0  123.40   93.80   1
  -4  -3   0  987.60   99.70   1
   4   3   1  222.50  123.90   1
  -4  -3  -1  197.20  123.80   1
  -4   3  -1  201.10  123.70   1
   4  -3   1  244.10  123.80   1
  -4  -3   1  253.40  125.20   1
   4   3  -1  245.80  125.10   1
   4   3   2 3031.40 1244.80   1
  -4  -3  -2 3145.40 1244.90   1
  -4   3  -2 2721.30 1243.60   1
   4  -3   2 2637.20 1243.40   1
  -4  -3   2 3650.60 1248.50   1
   4   3  -2 4321.00 1251.70   1
   4   3   3  211.00   35.00   1
  -4  -3  -3  153.70   34.40   1
  -4   3  -3   23.40   32.50   1
   4  -3   3   10.50   32.00   1
  -4  -3   3   20.40   32.00   1
   4   3  -3   21.70   31.80   1
  -4   3  -4 1530.50  621.20   1
   4  -3   4 1497.90  622.10   1
  -4  -3   4 1357.10  621.60   1
   4   3  -4 1330.70  621.50   1
  -4   3  -5   33.20   32.80   1
   4  -3   5   44.40   32.90   1
  -4  -3   5   20.60   33.10   1
   4   3  -5   18.20   33.30   1
  -4   3  -6 3623.00 1426.70   1
   4  -3   6 3529.40 1443.00   1
  -4  -3   6 3299.20 1408.40   1
   4   3  -6 3217.70 1405.00   1
  -4  -3   7   55.20   55.20   1
   4   3  -7   84.10   55.70   1
   4   3  -8  141.60   92.80   1
   4   4   0   58.60   50.00   1
  -4  -4   0  244.00   52.10   1
   4  -4   0   58.70   49.90   1
  -4   4   0   22.70   49.80   1
   4   4   1   65.10   67.80   1
  -4  -4  -1   58.70   67.80   1
  -4   4  -1  114.40   67.70   1
   4  -4   1  113.60   67.70   1
  -4  -4   1  140.80   68.90   1
   4   4  -1  143.70   68.60   1
   4   4   2   52.30   54.40   1
  -4  -4  -2  123.10   54.90   1
  -4   4  -2  229.00   55.20   1
   4  -4   2   91.10   55.80   1
  -4  -4   2   40.90   54.40   1
   4   4  -2   37.30   54.30   1
   4   4   3  138.10   92.70   1
  -4  -4  -3   85.10   92.30   1
  -4   4  -3  143.70   92.30   1
   4  -4   3  196.10   92.40   1
  -4  -4   3  217.50   92.90   1
   4   4  -3  236.00   93.00   1
  -4   4  -4   38.90   46.10   1
   4  -4   4   56.10   46.00   1
  -4  -4   4   45.80   45.80   1
   4   4  -4   58.60   46.10   1
  -4   4  -5   54.70   55.00   1
   4  -4   5   79.60   55.00   1
  -4  -4   5   77.30   55.40   1
   4   4  -5   68.20   55.40   1
  -4   4  -6   67.60   67.70   1
   4  -4   6  159.50   68.40   1
  -4  -4   6  109.00   68.30   1
   4   4  -6  106.60   68.40   1
  -4   4  -7  118.20   71.90   1
   4  -4   7  129.70   72.00   1
  -4  -4   7   85.30   71.90   1
   4   4  -7   94.00   72.10   1
  -4   4  -8    7.50   20.20   1
   4  -4   8    4.30   20.30   1
  -4  -4   8   14.60   21.00   1
   4   4  -8   15.00   21.40   1
  -4   4  -9   13.40   18.80   1
  -4  -4   9    0.00   18.20   1
   4   4  -9   10.00   19.40   1
   4   4 -10   27.80   36.90   1
   4   5   0  427.00  203.10   1
  -4  -5   0  313.10  203.00   1
   4  -5   0 1261.10  207.30   1
  -4   5   0 1163.70  206.80   1
   4   5   1  795.60  347.20   1
  -4  -5  -1  818.40  347.20   1
   4  -5  -1  746.40  348.40   1
  -4   5   1  714.80  349.10   1
  -4   5  -1  793.80  347.20   1
   4  -5   1  762.70  347.10   1
  -4  -5   1  706.70  346.70   1
   4   5  -1  767.00  346.80   1
   4   5   2  736.20  170.60   1
  -4  -5  -2  383.60  169.40   1
  -4   5  -2  327.70  168.50   1
   4  -5   2  382.50  168.60   1
  -4  -5   2  319.80  170.40   1
   4   5  -2  202.50  169.80   1
   4   5   3  153.30   85.50   1
  -4  -5  -3  150.10   85.30   1
  -4   5  -3  175.30   84.20   1
   4  -5   3  440.90   85.70   1
  -4  -5   3   83.30   84.60   1
   4   5  -3   89.10   84.40   1
   4   5   4  154.40   41.20   1
  -4  -5  -4  124.30   40.60   1
  -4   5  -4   41.10   38.80   1
   4  -5   4   16.80   38.40   1
  -4  -5   4   37.40   40.00   1
   4   5  -4   19.20   39.40   1
  -4   5  -5  141.40   84.50   1
   4  -5   5  112.00   84.30   1
  -4  -5   5  126.80   84.50   1
   4   5  -5  147.40   84.70   1
  -4   5  -6 1127.50  467.30   1
   4  -5   6 1097.70  467.00   1
  -4  -5   6  901.50  466.40   1
   4   5  -6 1131.90  467.50   1
  -4   5  -7   47.60   58.00   1
   4  -5   7  465.50   65.70   1
  -4  -5   7  252.70   61.10   1
   4   5  -7  382.70   64.70   1
  -4   5  -8    8.50   24.50   1
   4  -5   8   13.70   24.80   1
  -4  -5   8   38.50   25.50   1
   4   5  -8   19.40   25.70   1
  -4   5  -9    7.40   19.30   1
   4  -5   9   12.10   19.20   1
  -4  -5   9    6.80   19.60   1
   4   5  -9    4.90   19.80   1
  -4   5 -10  371.80  186.00   1
   4  -5  10  365.90  187.70   1
  -4  -5  10  375.00  185.80   1
   4   5 -10  332.70  184.10   1
  -4   5 -11  344.80  164.00   1
  -4  -5  11  275.00  159.80   1
   4   5 -11  283.40  158.90   1
  -4  -5  12  180.60  119.70   1
   4   5 -12  200.80  117.90   1
   4   5 -13   10.40   27.20   1
   4   6   0   64.80   59.00   1
  -4  -6   0   69.00   58.90   1
   4  -6   0   89.00   60.00   1
  -4   6   0  103.20   60.10   1
   4   6   1   33.40   33.60   1
  -4  -6  -1    2.90   32.10   1
   4  -6  -1   23.40   34.70   1
  -4   6   1   32.70   35.00   1
  -4   6  -1    8.00   32.10   1
   4  -6   1   55.70   33.40   1
  -4  -6   1   61.70   35.00   1
   4   6  -1   25.80   33.50   1
   4   6   2   35.60   36.10   1
  -4  -6  -2   -0.10   35.60   1
  -4   6  -2   23.20   34.10   1
   4  -6   2   20.60   33.80   1
  -4  -6   2   93.10   38.40   1
   4   6  -2  114.00   38.40   1
   4   6   3  118.60   53.60   1
  -4  -6  -3   35.60   53.20   1
  -4   6  -3   86.20   52.60   1
   4  -6   3   59.10   52.40   1
  -4  -6   3   55.30   53.90   1
   4   6  -3   33.30   53.90   1
   4   6   4   14.50   37.40   1
  -4   6  -4   15.60   36.50   1
   4  -6   4   39.80   37.60   1
  -4  -6   4   49.00   38.00   1
   4   6  -4   30.10   36.70   1
  -4   6  -5   62.70   44.90   1
   4  -6   5   73.00   45.40   1
  -4  -6   5   35.30   45.60   1
   4   6  -5   20.20   45.20   1
  -4   6  -6   48.30   45.40   1
   4  -6   6   48.30   45.40   1
  -4  -6   6   42.80   45.50   1
   4   6  -6   48.20   45.70   1
  -4   6  -7  280.70  145.50   1
   4  -6   7  263.90  145.30   1
  -4  -6   7  263.70  145.50   1
   4   6  -7  272.30  145.50   1
  -4   6  -8    6.60   16.90   1
   4  -6   8    6.30   16.40   1
  -4  -6   8    3.70   17.00   1
   4   6  -8    7.60   17.70   1
  -4   6  -9   79.80   50.40   1
   4  -6   9   91.00   50.50   1
  -4  -6   9   36.60   50.00   1
   4   6  -9   64.80   51.00   1
  -4   6 -10   40.20   35.60   1
   4  -6  10   19.20   34.80   1
  -4  -6  10   26.50   35.30   1
   4   6 -10   44.70   36.40   1
  -4   6 -11   96.60   73.90   1
   4  -6  11   82.80   73.70   1
  -4  -6  11  117.50   74.40   1
   4   6 -11  131.00   74.70   1
  -4   6 -12   24.20   36.10   1
   4  -6  12   46.30   37.00   1
  -4  -6  12   33.70   36.60   1
   4   6 -12   26.20   36.80   1
  -4   6 -13   69.40   41.30   1
  -4  -6  13   34.40   37.80   1
   4   6 -13   22.30   37.50   1
  -4   6 -14   -0.00   24.10   1
  -4  -6  14   11.20   25.10   1
   4   6 -14   10.90   24.20   1
   4   6 -15    0.60   20.80   1
   4   7   0 1434.00  532.30   1
  -4  -7   0 1279.10  531.80   1
   4  -7   0 1457.30  532.70   1
  -4   7   0  975.60  531.40   1
   4   7   1   38.10   42.30   1
  -4  -7  -1   62.30   42.40   1
   4  -7  -1   17.40   42.40   1
  -4   7   1   11.20   42.20   1
  -4   7  -1   62.30   42.60   1
   4  -7   1   88.50   42.40   1
  -4  -7   1   20.20   46.40   1
   4   7  -1   28.50   46.40   1
   4   7   2 1397.40  498.90   1
  -4  -7  -2 1455.30  499.10   1
   4  -7  -2 1066.50  499.10   1
  -4   7   2 1398.20  503.10   1
  -4   7  -2 1265.90  497.40   1
   4  -7   2  991.70  496.80   1
  -4  -7   2 1060.30  497.40   1
   4   7  -2 1006.30  497.10   1
   4   7   3   23.20   34.50   1
  -4  -7  -3   15.80   34.60   1
  -4   7  -3   23.50   37.30   1
   4  -7   3   80.50   37.00   1
  -4  -7   3   11.90   38.70   1
   4   7  -3   22.30   38.30   1
   4   7   4   37.80   47.00   1
  -4  -7  -4   18.20   45.90   1
  -4   7  -4  132.00   45.70   1
  -4  -7   4   42.20   45.00   1
   4   7  -4   34.90   45.10   1
   4   7   5   -0.00   27.60   1
  -4  -7  -5   17.80   28.40   1
  -4   7  -5   19.30   27.70   1
   4  -7   5   27.10   27.30   1
  -4  -7   5   14.80   29.30   1
   4   7  -5    5.10   29.50   1
  -4   7  -6  459.50  251.40   1
   4  -7   6  549.90  252.20   1
  -4  -7   6  595.10  252.10   1
   4   7  -6  549.70  251.90   1
  -4   7  -7   26.50   31.70   1
   4  -7   7   20.20   30.80   1
  -4  -7   7   17.10   30.90   1
   4   7  -7   26.60   31.70   1
  -4   7  -8  651.90  347.60   1
   4  -7   8  802.00  348.90   1
  -4  -7   8  854.10  349.60   1
   4   7  -8  828.10  349.40   1
  -4   7  -9   12.70   24.10   1
   4  -7   9   11.20   23.40   1
  -4  -7   9    8.30   24.10   1
   4   7  -9   28.20   25.40   1
  -4   7 -10  284.10  181.40   1
   4  -7  10  377.60  182.60   1
  -4  -7  10  511.60  185.10   1
   4   7 -10  361.00  182.60   1
  -4   7 -11    6.50   22.50   1
   4  -7  11    7.60   21.90   1
  -4  -7  11   20.90   23.00   1
   4   7 -11   18.90   23.70   1
  -4   7 -12   17.70   22.10   1
   4  -7  12    5.50   22.00   1
  -4  -7  12   14.00   22.10   1
   4   7 -12    7.10   22.80   1
  -4   7 -13    3.80   20.30   1
   4  -7  13   -0.00   18.40   1
  -4  -7  13   11.50   19.40   1
   4   7 -13   15.90   20.70   1
   4  -7  14  156.80  122.10   1
  -4  -7  14  215.80  123.90   1
   4   7 -14  264.10  125.10   1
   4   8   0   99.20   78.50   1
  -4  -8   0  110.50   78.50   1
   4  -8   0  109.60   79.20   1
  -4   8   0  200.00   79.80   1
   4   8   1  983.70  407.40   1
  -4  -8  -1 1117.90  407.80   1
   4  -8  -1 1373.90  408.70   1
  -4   8   1 1799.40  411.40   1
  -4   8  -1  869.90  406.80   1
   4  -8   1 1234.50  408.00   1
  -4  -8   1  764.20  406.90   1
   4   8  -1  673.40  406.30   1
   4   8   2  142.70   83.90   1
  -4  -8  -2  120.90   83.90   1
   4  -8  -2  134.30   84.60   1
  -4   8   2   82.70   83.80   1
  -4   8  -2  541.50   84.60   1
   4  -8   2  148.10   82.50   1
  -4  -8   2  104.50   83.30   1
   4   8  -2  106.00   83.50   1
   4   8   3 1729.20  458.50   1
  -4  -8  -3 2054.80  459.90   1
  -4   8  -3  724.00  455.40   1
   4  -8   3 1172.00  457.50   1
  -4  -8   3 1056.80  457.40   1
   4   8  -3 1024.90  456.90   1
   4   8   4  247.50  170.90   1
  -4  -8  -4  290.20  171.00   1
  -4   8  -4  367.40  170.30   1
   4  -8   4  359.10  170.30   1
  -4  -8   4  386.70  172.00   1
   4   8  -4  369.60  172.20   1
   4   8   5 1391.50  491.70   1
  -4  -8  -5 1329.30  491.60   1
   4  -8   5  794.80  488.90   1
  -4  -8   5 1528.30  491.80   1
   4   8  -5 1441.30  491.30   1
  -4  -8  -6  117.80   57.20   1
  -4   8  -6   51.50   54.10   1
   4  -8   6   61.90   54.50   1
  -4  -8   6   66.00   57.20   1
   4   8  -6   78.00   57.70   1
  -4   8  -7 4595.80 2083.60   1
   4  -8   7 4704.70 2084.00   1
  -4  -8   7 5493.80 2087.90   1
   4   8  -7 5730.40 2089.00   1
  -4   8  -8   30.70   53.60   1
   4  -8   8   62.60   54.20   1
  -4  -8   8  209.80   55.90   1
   4   8  -8  156.60   55.20   1
  -4   8  -9   56.10   57.90   1
   4  -8   9   61.00   57.40   1
  -4  -8   9   76.20   57.70   1
   4   8  -9  124.50   58.90   1
  -4   8 -10   24.00   34.30   1
   4  -8  10   35.70   34.10   1
  -4  -8  10   27.10   34.70   1
   4   8 -10   25.20   35.10   1
  -4   8 -11  218.80   54.50   1
   4  -8  11  112.30   50.40   1
  -4  -8  11   72.90   49.80   1
   4   8 -11   31.20   49.60   1
  -4   8 -12   23.20   31.80   1
   4  -8  12   23.40   31.20   1
  -4  -8  12   21.60   31.70   1
   4   8 -12   29.60   32.90   1
  -4   8 -13  186.90  119.60   1
   4  -8  13  204.90  120.40   1
  -4  -8  13  198.80  120.20   1
   4   8 -13  239.30  121.40   1
   4  -8  14   -0.00   19.00   1
  -4  -8  14   14.60   20.10   1
   4   8 -14   12.90   21.10   1
   4   9   0   75.90   57.70   1
  -4  -9   0   69.30   57.70   1
   4  -9   0  206.10   59.80   1
  -4   9   0   38.10   58.10   1
   4   9   1   43.70   43.20   1
  -4  -9  -1   52.60   42.90   1
   4  -9  -1   30.90   42.90   1
  -4   9   1   72.40   44.80   1
  -4   9  -1   55.20   43.00   1
   4  -9   1   48.20   42.90   1
  -4  -9   1   22.60   41.70   1
   4   9  -1   28.10   41.30   1
   4   9   2   31.10   33.00   1
  -4  -9  -2   38.20   33.60   1
   4  -9  -2   31.60   35.40   1
  -4   9   2    9.80   33.50   1
  -4   9  -2   21.50   29.90   1
   4  -9   2   12.70   29.70   1
  -4  -9   2   28.20   33.10   1
   4   9  -2   13.40   32.70   1
   4   9   3    4.70   32.30   1
  -4  -9  -3   -0.00   32.10   1
   4  -9  -3   28.90   33.50   1
  -4   9   3   21.30   33.40   1
  -4   9  -3   23.50   30.80   1
   4  -9   3   25.70   31.20   1
  -4  -9   3   42.10   33.20   1
   4   9  -3   33.80   31.80   1
   4   9   4  109.00   66.20   1
  -4  -9  -4  168.80   66.60   1
  -4   9  -4   81.70   64.90   1
   4  -9   4   98.10   65.20   1
  -4  -9   4   60.80   67.20   1
   4   9  -4   31.80   66.50   1
   4   9   5   59.20   46.20   1
  -4  -9  -5   37.20   45.20   1
  -4   9  -5   28.90   42.60   1
   4  -9   5   24.10   44.20   1
  -4  -9   5  164.10   45.50   1
   4   9  -5   17.90   42.90   1
   4   9   6   63.90   55.20   1
  -4  -9  -6   89.30   55.70   1
  -4   9  -6   44.30   55.70   1
   4  -9   6  119.40   56.50   1
  -4  -9   6   49.70   55.50   1
   4   9  -6   45.90   54.90   1
  -4   9  -7   25.20   35.50   1
   4  -9   7   21.20   36.10   1
  -4  -9   7   35.90   38.10   1
   4   9  -7   29.80   39.20   1
  -4   9  -8   48.80   35.90   1
   4  -9   8   17.70   33.10   1
  -4  -9   8   14.50   34.10   1
   4   9  -8   16.60   34.50   1
  -4   9  -9   13.30   28.60   1
   4  -9   9   17.10   29.20   1
  -4  -9   9   19.20   28.40   1
   4   9  -9   17.30   29.60   1
  -4   9 -10   64.20   36.90   1
   4  -9  10   51.80   35.90   1
  -4  -9  10    7.00   35.10   1
   4   9 -10   33.10   36.40   1
  -4   9 -11   19.80   27.40   1
   4  -9  11   19.60   26.90   1
  -4  -9  11   14.50   27.20   1
   4   9 -11   14.20   27.90   1
  -4   9 -12    5.40   21.30   1
   4  -9  12    6.80   20.40   1
  -4  -9  12    9.90   21.30   1
   4   9 -12   27.70   22.80   1
  -4   9 -13    7.40   16.40   1
   4  -9  13   -0.00   14.70   1
  -4  -9  13    8.70   16.10   1
   4   9 -13    0.90   17.50   1
   4  -9  14   11.90   27.50   1
  -4  -9  14   22.90   28.10   1
   4   9 -14   27.20   29.20   1
   4  10   0  190.60  128.10   1
  -4 -10   0  267.70  128.40   1
   4 -10   0  334.70  129.40   1
  -4  10   0  209.30  128.80   1
   4  10   1   30.80   36.10   1
  -4 -10  -1   27.40   36.80   1
   4 -10  -1   43.30   36.70   1
  -4  10   1   47.30   36.60   1
  -4  10  -1   25.80   36.90   1
   4 -10   1   -0.10   36.10   1
   4  10   2   76.80   50.20   1
  -4 -10  -2   55.60   50.20   1
   4 -10  -2   42.70   50.60   1
  -4  10   2   25.70   50.00   1
  -4  10  -2   54.00   47.80   1
   4 -10   2   41.70   47.60   1
  -4 -10   2  101.10   51.50   1
   4  10  -2   49.40   52.30   1
   4  10   3  251.60  108.60   1
  -4 -10  -3  189.70  108.00   1
   4 -10  -3  236.50  109.30   1
  -4  10   3  166.60  108.10   1
  -4  10  -3  354.40  107.40   1
   4 -10   3   93.30  106.50   1
  -4 -10   3  336.80  108.50   1
   4  10  -3  251.10  107.90   1
   4  10   4   38.70   47.00   1
  -4 -10  -4   43.20   47.00   1
  -4  10  -4   39.80   46.50   1
   4 -10   4   38.20   46.40   1
  -4 -10   4   58.70   50.90   1
   4  10  -4   68.60   48.60   1
   4  10   5  292.70  136.70   1
  -4 -10  -5  365.80  137.50   1
  -4  10  -5  203.60  134.70   1
   4 -10   5  185.50  134.80   1
  -4 -10   5  568.40  140.50   1
   4  10  -5  319.50  138.10   1
   4  10   6   22.50   37.00   1
  -4 -10  -6   17.20   39.70   1
  -4  10  -6   77.00   39.80   1
   4 -10   6   20.00   37.80   1
  -4 -10   6   32.10   35.30   1
   4  10  -6   11.10   35.00   1
  -4 -10  -7  325.10   71.70   1
  -4  10  -7   66.10   63.70   1
   4 -10   7  119.90   64.10   1
  -4 -10   7   55.00   65.00   1
   4  10  -7   77.40   65.20   1
  -4  10  -8    4.60   19.90   1
   4 -10   8   -0.00   21.00   1
  -4 -10   8   11.40   23.40   1
   4  10  -8   -0.00   24.90   1
  -4  10  -9  551.50  203.90   1
   4 -10   9  285.30  200.20   1
  -4 -10   9  516.80  201.90   1
   4  10  -9  502.00  202.10   1
  -4  10 -10   67.60   53.70   1
   4 -10  10   57.30   53.50   1
  -4 -10  10   54.30   52.60   1
   4  10 -10   58.60   53.80   1
  -4  10 -11   32.70   36.50   1
   4 -10  11   36.80   35.80   1
  -4 -10  11   18.50   35.60   1
   4  10 -11   34.00   36.80   1
  -4  10 -12   64.70   44.90   1
   4 -10  12   33.40   43.40   1
  -4 -10  12   39.80   43.80   1
   4  10 -12   51.40   44.50   1
  -4  10 -13   27.90   22.10   1
   4 -10  13    5.20   19.10   1
  -4 -10  13    6.90   20.10   1
   4  10 -13    4.80   20.80   1
   4 -10  14   72.00   32.10   1
  -4 -10  14   78.90   33.10   1
   4  10 -14    9.00   30.40   1
   4  11   0   84.40   66.80   1
  -4 -11   0   87.10   66.80   1
   4 -11   0   81.20   67.70   1
  -4  11   0  109.20   67.60   1
   4  11   1   64.80   36.40   1
  -4 -11  -1  195.20   38.30   1
   4 -11  -1   29.80   34.60   1
  -4  11   1   16.50   34.30   1
  -4  11  -1   40.00   36.00   1
   4 -11   1   89.00   36.40   1
  -4 -11   1   -0.30   32.00   1
   4  11  -1    1.80   32.20   1
   4  11   2   73.10   48.80   1
  -4 -11  -2   55.30   48.40   1
   4 -11  -2   81.00   49.90   1
  -4  11   2  135.70   51.50   1
  -4  11  -2   68.20   46.80   1
   4 -11   2   12.50   45.70   1
  -4 -11   2   37.50   53.80   1
   4  11  -2   40.20   51.40   1
   4  11   3   26.00   38.80   1
  -4 -11  -3   23.70   39.30   1
   4 -11  -3   24.00   43.60   1
  -4  11   3   31.00   43.10   1
  -4  11  -3   59.10   37.60   1
   4 -11   3   17.00   36.80   1
  -4 -11   3   43.20   40.00   1
   4  11  -3   40.90   39.40   1
   4  11   4   27.40   40.60   1
  -4 -11  -4   23.40   40.20   1
   4 -11  -4   35.10   40.80   1
  -4  11   4   30.50   40.50   1
  -4  11  -4   12.60   42.00   1
   4 -11   4   21.50   43.20   1
  -4 -11   4   82.80   41.90   1
   4  11  -4   38.30   39.10   1
   4  11   5   43.10   41.90   1
  -4 -11  -5   79.10   42.40   1
  -4  11  -5   35.20   38.40   1
   4 -11   5   29.10   38.20   1
  -4 -11   5   10.00   43.30   1
   4  11  -5    0.00   41.90   1
   4  11   6   81.20   44.20   1
  -4 -11  -6    3.60   42.40   1
  -4  11  -6   23.10   37.80   1
   4 -11   6  122.20   43.20   1
  -4 -11   6   16.10   38.60   1
   4  11  -6    8.50   40.10   1
   4  11   7   11.90   30.50   1
  -4 -11  -7   13.70   31.20   1
  -4  11  -7   15.00   33.40   1
   4 -11   7   28.10   32.50   1
  -4 -11   7   19.90   31.00   1
   4  11  -7   10.20   30.20   1
  -4  11  -8  190.40  116.20   1
   4 -11   8  226.80  116.30   1
  -4 -11   8  165.00  118.00   1
   4  11  -8  216.70  118.10   1
  -4  11  -9   28.10   39.60   1
   4 -11   9   60.50   42.30   1
  -4 -11   9   26.80   38.40   1
   4  11  -9   11.60   38.60   1
  -4  11 -10    5.70   39.50   1
   4 -11  10    7.10   35.40   1
  -4 -11  10  205.00   42.80   1
   4  11 -10  185.60   43.70   1
  -4  11 -11    7.00   20.90   1
   4 -11  11    0.00   19.30   1
  -4 -11  11    7.20   18.80   1
   4  11 -11    1.60   21.10   1
  -4  11 -12   92.60   38.80   1
   4 -11  12   23.10   34.90   1
  -4 -11  12   24.20   35.20   1
   4  11 -12   24.10   36.10   1
   4 -11  13   -0.00   14.40   1
  -4 -11  13    4.60   15.60   1
   4  11 -13    7.30   17.80   1
   4  12   0  125.00   66.90   1
  -4 -12   0  113.70   67.20   1
   4 -12   0   75.00   68.00   1
  -4  12   0   54.70   67.30   1
   4  12   1 1719.50  616.30   1
  -4 -12  -1 1484.60  615.20   1
   4 -12  -1 1478.80  614.70   1
  -4  12   1  944.00  613.10   1
  -4  12  -1 1733.50  615.80   1
   4 -12   1 1667.00  615.50   1
  -4 -12   1 1556.00  613.70   1
   4  12  -1 1745.60  614.40   1
   4  12   2   81.50   56.80   1
  -4 -12  -2  145.70   58.60   1
   4 -12  -2   27.30   57.00   1
  -4  12   2    2.10   56.30   1
  -4  12  -2   70.20   54.80   1
   4 -12   2   88.10   55.20   1
  -4 -12   2  110.50   60.80   1
   4  12  -2   65.60   57.00   1
   4  12   3  313.90  142.70   1
  -4 -12  -3  212.70  142.10   1
   4 -12  -3  303.30  143.50   1
  -4  12   3  361.80  144.20   1
  -4  12  -3  396.70  141.70   1
   4 -12   3  254.90  141.00   1
  -4 -12   3  337.20  143.20   1
   4  12  -3  164.50  142.20   1
   4  12   4   72.70   53.90   1
  -4 -12  -4   25.30   52.80   1
   4 -12  -4   66.10   54.90   1
  -4  12   4   41.60   53.70   1
  -4  12  -4  142.20   54.80   1
   4 -12   4   75.20   56.50   1
  -4 -12   4   41.20   52.60   1
   4  12  -4   60.30   52.50   1
   4  12   5  629.50  178.00   1
  -4 -12  -5  611.30  177.40   1
   4 -12  -5  451.40  180.30   1
  -4  12  -5  262.60  174.60   1
   4 -12   5  316.30  174.50   1
  -4 -12   5  507.60  178.10   1
   4  12  -5  271.90  175.90   1
   4  12   6   -0.00   40.10   1
  -4 -12  -6    2.10   40.40   1
  -4  12  -6   44.80   36.70   1
   4 -12   6   51.00   38.00   1
  -4 -12   6   31.90   44.30   1
   4  12  -6   15.90   43.50   1
   4  12   7 1664.60  431.30   1
  -4 -12  -7 2365.50  440.70   1
   4 -12   7  702.10  419.90   1
  -4 -12   7 2413.60  433.00   1
   4  12  -7  900.20  420.30   1
  -4 -12  -8    3.50   35.80   1
  -4  12  -8   91.50   39.60   1
   4 -12   8   17.10   35.10   1
  -4 -12   8   24.60   36.50   1
   4  12  -8   11.90   34.70   1
  -4  12  -9  203.50  147.00   1
   4 -12   9  312.80  148.20   1
  -4 -12   9  322.30  150.90   1
   4  12  -9  358.00  150.50   1
  -4  12 -10    3.30   24.60   1
   4 -12  10   -0.00   25.50   1
  -4 -12  10    7.70   21.50   1
   4  12 -10   -0.00   24.30   1
  -4  12 -11   18.10   37.00   1
   4 -12  11   20.50   34.80   1
  -4 -12  11   35.50   36.30   1
   4  12 -11   31.40   37.20   1
  -4  12 -12    2.00   21.40   1
   4 -12  12   -0.00   18.50   1
  -4 -12  12   11.10   18.70   1
   4  12 -12    1.30   21.30   1
   4 -12  13  100.10   70.70   1
  -4 -12  13   81.50   70.50   1
   4  12 -13  109.80   71.70   1
   4  13   0 2819.90 1003.50   1
  -4 -13   0 2453.10 1001.90   1
   4 -13   0 1903.10 1001.30   1
  -4  13   0 2717.90 1004.70   1
   4  13   1  173.60   88.30   1
  -4 -13  -1  130.50   88.00   1
   4 -13  -1   85.90   87.00   1
  -4  13   1   81.30   87.50   1
  -4  13  -1  206.60   89.00   1
   4 -13   1  149.80   88.00   1
  -4 -13   1  156.20   86.60   1
   4  13  -1  164.20   86.70   1
   4  13   2 3372.60 1088.50   1
  -4 -13  -2 3409.90 1089.40   1
   4 -13  -2 2675.60 1085.70   1
  -4  13   2 3244.10 1087.80   1
  -4  13  -2 3226.20 1086.00   1
   4 -13   2 2488.40 1083.80   1
  -4 -13   2 2317.90 1082.90   1
   4  13  -2 2011.10 1082.00   1
   4  13   3   69.80   68.40   1
  -4 -13  -3  174.40   70.00   1
   4 -13  -3   33.60   69.40   1
  -4  13   3   13.40   68.00   1
  -4  13  -3  130.70   66.80   1
   4 -13   3  126.30   67.00   1
  -4 -13   3  132.90   69.60   1
   4  13  -3  223.20   72.30   1
   4  13   4 1275.60  262.30   1
   4 -13  -4 1008.50  264.20   1
  -4  13   4  955.70  262.90   1
  -4  13  -4  633.50  257.00   1
   4 -13   4  564.70  257.40   1
  -4 -13   4  488.00  257.10   1
   4  13  -4  391.10  256.70   1
   4  13   5   23.10   41.40   1
  -4 -13  -5   37.40   41.50   1
   4 -13  -5   17.20   40.70   1
  -4  13   5   13.00   40.80   1
  -4  13  -5    8.00   39.10   1
   4 -13   5   25.00   39.50   1
  -4 -13   5  170.20   45.90   1
   4  13  -5   53.70   39.50   1
   4  13   6 3397.60  428.30   1
  -4 -13  -6 3871.70  438.40   1
  -4  13  -6 2006.20  398.20   1
   4 -13   6 1739.30  397.30   1
  -4 -13   6  832.20  395.00   1
   4  13  -6  524.50  393.20   1
   4  13   7   88.80   91.90   1
  -4 -13  -7   90.40   92.60   1
  -4  13  -7  140.20   90.60   1
   4 -13   7  108.30   91.60   1
  -4 -13   7  255.70   93.70   1
   4  13  -7  323.60   95.20   1
   4  13   8  334.10  132.60   1
  -4 -13  -8  363.50  132.40   1
  -4  13  -8  122.60  129.70   1
   4 -13   8  279.80  131.60   1
  -4 -13   8  554.00  133.70   1
   4  13  -8  326.50  130.30   1
  -4  13  -9   13.50   25.00   1
   4 -13   9   -0.00   24.20   1
  -4 -13   9   12.40   28.90   1
   4  13  -9    6.00   26.20   1
  -4  13 -10  149.20  110.30   1
   4 -13  10  146.30  110.80   1
  -4 -13  10  385.70  117.10   1
   4  13 -10  464.50  119.70   1
  -4  13 -11   12.40   41.30   1
   4 -13  11   37.40   40.70   1
  -4 -13  11   38.40   38.90   1
   4  13 -11   26.30   40.50   1
   4 -13  12  147.20   70.90   1
  -4 -13  12  120.60   70.50   1
   4  13 -12   59.10   69.60   1
   4  14   0  126.20   56.60   1
  -4 -14   0   36.00   55.70   1
   4 -14   0   40.90   57.70   1
  -4  14   0   89.70   57.70   1
   4  14   1   50.20   46.50   1
  -4 -14  -1   47.60   46.30   1
   4 -14  -1   38.10   45.70   1
  -4  14   1   84.60   46.90   1
  -4  14  -1   47.30   45.10   1
   4 -14   1   41.90   45.40   1
  -4 -14   1   28.30   43.50   1
   4  14  -1   26.30   43.20   1
   4  14   2  169.00   52.40   1
  -4 -14  -2  134.40   52.50   1
   4 -14  -2   13.00   48.40   1
  -4  14   2   23.00   48.20   1
  -4  14  -2  138.10   48.80   1
   4 -14   2   88.60   48.30   1
  -4 -14   2   29.30   46.40   1
   4  14  -2   23.10   45.90   1
   4  14   3   16.00   37.40   1
  -4 -14  -3   25.80   38.70   1
   4 -14  -3   12.20   40.00   1
  -4  14   3   13.40   40.70   1
  -4  14  -3   15.00   34.90   1
   4 -14   3   89.20   37.20   1
  -4 -14   3   37.20   43.70   1
   4  14  -3   45.40   46.30   1
   4  14   4   -0.00   32.00   1
  -4 -14  -4    3.50   31.60   1
   4 -14  -4   -0.00   37.80   1
  -4  14   4   15.50   36.50   1
  -4  14  -4   31.70   28.10   1
   4 -14   4   27.20   29.30   1
  -4 -14   4   12.80   30.90   1
   4  14  -4   12.80   32.30   1
   4  14   5  355.70   77.10   1
  -4 -14  -5  361.20   77.40   1
   4 -14  -5   74.10   74.20   1
  -4  14   5   29.70   72.30   1
  -4  14  -5  187.20   79.60   1
   4 -14   5  116.80   74.40   1
  -4 -14   5   89.90   72.50   1
   4  14  -5   93.60   71.60   1
   4  14   6   64.40   63.10   1
  -4 -14  -6   90.30   64.10   1
   4 -14  -6   56.00   61.10   1
  -4  14  -6   56.30   59.50   1
   4 -14   6   75.60   59.40   1
  -4 -14   6   65.30   62.90   1
   4  14  -6   84.70   63.60   1
   4  14   7  153.10   88.40   1
  -4 -14  -7  123.50   87.50   1
  -4  14  -7   97.00   83.00   1
   4 -14   7  123.20   85.10   1
  -4 -14   7  180.80   90.00   1
   4  14  -7  126.30   88.00   1
   4  14   8    4.00   31.50   1
  -4 -14  -8   17.50   34.20   1
  -4  14  -8   24.90   33.50   1
   4 -14   8    2.50   31.70   1
  -4 -14   8   13.90   31.10   1
   4  14  -8    6.20   30.50   1
  -4 -14  -9   56.80   51.80   1
  -4  14  -9   54.30   53.60   1
   4 -14   9   65.30   52.30   1
  -4 -14   9   48.20   51.40   1
   4  14  -9   38.70   50.70   1
  -4  14 -10    1.50   19.70   1
   4 -14  10   -0.00   18.70   1
  -4 -14  10   -0.00   25.40   1
   4  14 -10   -0.00   21.50   1
  -4  14 -11   30.90   33.70   1
   4 -14  11   15.90   33.90   1
  -4 -14  11   11.30   36.00   1
   4  14 -11   13.50   37.00   1
   4 -14  12    2.40   23.40   1
  -4 -14  12   -0.00   20.60   1
   4  14 -12    5.50   24.20   1
   4  15   0  573.90  273.80   1
  -4 -15   0  651.40  274.00   1
   4 -15   0  573.30  274.60   1
  -4  15   0  527.10  274.20   1
   4  15   1   19.50   31.50   1
  -4 -15  -1    5.20   30.40   1
   4 -15  -1   13.60   29.40   1
  -4  15   1    2.00   28.40   1
  -4  15  -1   29.20   29.40   1
   4 -15   1   13.90   31.10   1
  -4 -15   1   14.90   27.30   1
   4  15  -1    7.50   27.20   1
   4  15   2  174.50   80.50   1
  -4 -15  -2  123.20   80.00   1
   4 -15  -2   75.80   78.50   1
  -4  15   2   55.50   77.90   1
  -4  15  -2  141.10   78.00   1
   4 -15   2  265.50   78.40   1
  -4 -15   2  110.70   76.90   1
   4  15  -2  102.10   76.80   1
   4  15   3   40.80   48.60   1
  -4 -15  -3   32.30   49.10   1
   4 -15  -3   28.00   49.70   1
  -4  15   3   36.80   50.60   1
  -4  15  -3   34.80   47.10   1
   4 -15   3  224.70   48.90   1
  -4 -15   3   52.60   57.80   1
   4  15  -3   52.40   52.90   1
   4  15   4   64.80   53.30   1
  -4 -15  -4   50.30   53.10   1
   4 -15  -4    9.20   54.60   1
  -4  15   4   17.50   53.20   1
  -4  15  -4  115.50   51.20   1
   4 -15   4  105.80   51.30   1
  -4 -15   4   51.40   54.00   1
   4  15  -4   21.00   52.90   1
   4  15   5   59.40   68.10   1
  -4 -15  -5   50.40   68.10   1
   4 -15  -5   63.70   71.10   1
  -4  15   5   65.60   69.20   1
  -4  15  -5  102.70   70.60   1
   4 -15   5  118.50   73.40   1
  -4 -15   5  118.90   67.30   1
   4  15  -5  128.40   67.10   1
   4  15   6  366.40  135.00   1
  -4 -15  -6  365.70  134.60   1
   4 -15  -6  989.50  155.50   1
  -4  15   6  608.20  144.80   1
  -4  15  -6  271.70  132.50   1
   4 -15   6  384.70  133.00   1
  -4 -15   6  157.00  132.20   1
   4  15  -6  166.20  131.20   1
   4  15   7  109.50   47.90   1
  -4 -15  -7   53.40   46.60   1
  -4  15  -7   46.20   41.30   1
   4 -15   7   20.40   40.80   1
  -4 -15   7    8.40   47.60   1
   4  15  -7   30.50   47.50   1
   4  15   8   58.20   52.20   1
  -4 -15  -8  171.90   58.00   1
  -4  15  -8   36.00   49.10   1
   4 -15   8   62.00   52.60   1
  -4 -15   8   27.90   51.90   1
   4  15  -8   30.40   52.70   1
   4  15   9   23.50   33.90   1
  -4 -15  -9   13.70   34.90   1
  -4  15  -9    9.50   35.80   1
   4 -15   9   21.30   37.20   1
  -4 -15   9   20.50   33.60   1
   4  15  -9   12.40   34.30   1
  -4 -15 -10   12.10   37.60   1
  -4  15 -10   17.20   36.60   1
   4 -15  10   50.30   34.20   1
  -4 -15  10   10.00   35.00   1
   4  15 -10   12.90   34.50   1
   4 -15  11   -0.00   23.70   1
  -4 -15  11   25.40   31.90   1
   4  15 -11   -0.00   26.60   1
   4  16   0  349.10  167.60   1
  -4 -16   0  318.10  167.30   1
   4 -16   0  280.60  168.10   1
  -4  16   0  339.80  168.20   1
   4  16   1  306.80  172.20   1
  -4 -16  -1  249.50  172.20   1
   4 -16  -1  352.30  172.60   1
  -4  16   1  562.70  173.80   1
  -4  16  -1  550.90  174.40   1
   4 -16   1  290.20  172.30   1
  -4 -16   1  337.90  171.40   1
   4  16  -1  318.90  171.30   1
   4  16   2   43.70   48.40   1
  -4 -16  -2   58.60   48.50   1
   4 -16  -2   67.90   47.00   1
  -4  16   2  125.60   47.90   1
  -4  16  -2   74.30   45.70   1
   4 -16   2   35.50   44.50   1
  -4 -16   2   17.00   42.90   1
   4  16  -2   17.10   42.70   1
   4  16   3  454.30  188.60   1
  -4 -16  -3  602.30  190.00   1
   4 -16  -3  516.30  189.20   1
  -4  16   3  504.80  189.10   1
  -4  16  -3  463.90  186.90   1
   4 -16   3  569.90  187.60   1
  -4 -16   3  407.10  190.10   1
   4  16  -3  203.50  186.60   1
   4  16   4   51.70   49.70   1
  -4 -16  -4   43.30   49.00   1
   4 -16  -4   20.60   51.50   1
  -4  16   4    3.70   49.20   1
  -4  16  -4   50.40   46.10   1
   4 -16   4   56.20   46.60   1
  -4 -16   4   84.00   50.40   1
   4  16  -4   59.40   50.10   1
   4  16   5   25.10   52.10   1
  -4 -16  -5   18.20   52.00   1
   4 -16  -5   20.90   56.50   1
  -4  16   5   12.20   55.50   1
  -4  16  -5   87.90   52.80   1
   4 -16   5   31.60   55.60   1
  -4 -16   5  200.60   53.70   1
   4  16  -5  109.50   51.60   1
   4  16   6    7.50   35.90   1
  -4 -16  -6   -0.00   36.10   1
   4 -16  -6   18.70   37.40   1
  -4  16   6   18.80   35.10   1
  -4  16  -6   17.10   33.30   1
   4 -16   6   39.10   35.10   1
  -4 -16   6   26.70   33.90   1
   4  16  -6   25.40   32.80   1
   4  16   7  112.90   53.50   1
  -4 -16  -7  137.60   55.10   1
   4 -16  -7  144.10   54.40   1
  -4  16  -7   61.90   47.60   1
   4 -16   7   20.00   46.70   1
  -4 -16   7   39.80   53.60   1
   4  16  -7   19.80   50.80   1
   4  16   8    9.10   37.90   1
  -4 -16  -8    7.00   36.90   1
  -4  16  -8   13.20   28.00   1
   4 -16   8   33.00   32.50   1
  -4 -16   8    4.50   39.10   1
   4  16  -8    8.50   35.30   1
   4  16   9   24.20   38.30   1
  -4 -16  -9   16.80   40.50   1
  -4  16  -9   37.00   41.00   1
   4 -16   9   61.00   41.00   1
  -4 -16   9    6.20   38.10   1
   4  16  -9    3.50   39.90   1
   4  16  10   -0.00   27.30   1
  -4 -16 -10    6.40   28.70   1
  -4  16 -10    7.40   30.80   1
   4 -16  10   -0.00   27.70   1
  -4 -16  10   10.20   26.60   1
   4  16 -10   16.50   27.70   1
   4 -16  11   26.70   35.50   1
  -4 -16  11   38.40   39.00   1
   4  16 -11    7.90   37.10   1
   4  17   0   23.20   33.00   1
  -4 -17   0   19.90   32.90   1
   4 -17   0   33.70   35.50   1
  -4  17   0    0.40   33.70   1
   4  17   1   23.80   39.30   1
  -4 -17  -1   25.80   37.40   1
   4 -17  -1   33.20   38.50   1
  -4  17   1   18.10   37.00   1
  -4  17  -1   23.40   37.10   1
   4 -17   1   33.40   37.80   1
  -4 -17   1   15.10   34.20   1
   4  17  -1   25.30   35.30   1
   4  17   2   18.30   58.90   1
  -4 -17  -2   19.70   59.80   1
   4 -17  -2  433.00   66.30   1
  -4  17   2   90.80   60.10   1
  -4  17  -2   33.10   58.20   1
   4 -17   2   56.60   58.00   1
  -4 -17   2  114.50   57.30   1
   4  17  -2  148.70   57.70   1
   4  17   3   11.00   32.80   1
  -4 -17  -3   14.70   31.50   1
   4 -17  -3   29.40   33.40   1
  -4  17   3   17.50   33.10   1
  -4  17  -3   -0.00   26.50   1
   4 -17   3   16.90   27.80   1
  -4 -17   3   20.00   32.20   1
   4  17  -3   10.00   28.20   1
   4  17   4  126.70   43.90   1
  -4 -17  -4   62.40   43.30   1
   4 -17  -4   11.90   42.30   1
  -4  17   4   11.70   43.10   1
  -4  17  -4   94.40   39.00   1
   4 -17   4   11.20   37.60   1
  -4 -17   4    0.00   41.40   1
   4  17  -4   -0.00   47.10   1
   4  17   5   16.90   36.20   1
  -4 -17  -5    0.80   35.50   1
   4 -17  -5   -0.00   39.70   1
  -4  17   5    3.50   40.40   1
  -4  17  -5   29.90   33.40   1
   4 -17   5    0.00   35.70   1
  -4 -17   5   43.30   36.30   1
   4  17  -5  126.10   39.70   1
   4  17   6  143.40   59.30   1
  -4 -17  -6   93.00   58.50   1
   4 -17  -6  117.00   61.70   1
  -4  17   6  200.80   62.10   1
  -4  17  -6   12.80   57.70   1
   4 -17   6    6.30   54.50   1
  -4 -17   6   63.80   54.70   1
   4  17  -6  131.80   55.20   1
   4  17   7   14.00   37.40   1
  -4 -17  -7   11.10   38.40   1
   4 -17  -7   22.90   35.90   1
  -4  17   7   47.50   34.60   1
  -4  17  -7   11.90   31.20   1
   4 -17   7   16.60   30.70   1
  -4 -17   7   22.50   38.00   1
   4  17  -7    8.50   32.30   1
   4  17   8   63.20   38.70   1
  -4 -17  -8   16.30   37.50   1
  -4  17  -8   15.50   28.00   1
   4 -17   8    6.20   29.50   1
  -4 -17   8   -0.10   37.50   1
   4  17  -8   17.80   38.10   1
   4  17   9   -0.00   33.90   1
  -4 -17  -9   11.90   39.30   1
  -4  17  -9    6.00   29.00   1
   4 -17   9   11.20   34.90   1
  -4 -17   9   17.90   36.50   1
   4  17  -9   30.00   37.70   1
   4  17  10   57.10   43.90   1
  -4 -17 -10   33.40   44.20   1
   4 -17  10   52.80   46.70   1
  -4 -17  10   29.80   42.70   1
   4  17 -10    9.50   42.20   1
   4  18   0   95.00   66.30   1
  -4 -18   0   80.20   65.30   1
   4 -18   0   71.80   67.00   1
  -4  18   0   82.40   68.00   1
   4  18   1  321.30  141.20   1
  -4 -18  -1  251.80  140.00   1
   4 -18  -1  327.80  140.90   1
  -4  18   1  162.10  139.00   1
  -4  18  -1  230.30  140.00   1
   4 -18   1  301.10  141.00   1
  -4 -18   1  291.40  138.80   1
   4  18  -1  273.70  138.90   1
   4  18   2   17.30   41.30   1
  -4 -18  -2   46.00   43.10   1
   4 -18  -2   28.30   40.80   1
  -4  18   2   18.70   40.10   1
  -4  18  -2   84.70   42.50   1
   4 -18   2   13.30   38.00   1
  -4 -18   2   43.50   38.50   1
   4  18  -2   28.00   38.20   1
   4  18   3  198.50   81.30   1
  -4 -18  -3  280.30   83.10   1
   4 -18  -3   98.90   80.30   1
  -4  18   3   87.30   80.30   1
  -4  18  -3  132.80   78.90   1
   4 -18   3   60.00   77.50   1
  -4 -18   3  127.70   79.40   1
   4  18  -3  183.70   78.90   1
   4  18   4   30.30   34.40   1
  -4 -18  -4    8.20   33.50   1
   4 -18  -4   11.80   35.30   1
  -4  18   4   -0.00   37.00   1
  -4  18  -4   20.20   30.30   1
   4 -18   4    7.70   28.90   1
  -4 -18   4   52.80   43.20   1
   4  18  -4   60.00   42.50   1
   4  18   5  182.20   88.10   1
  -4 -18  -5  205.80   88.50   1
   4 -18  -5  175.70   89.70   1
  -4  18   5  202.30   89.30   1
  -4  18  -5  157.40   84.30   1
   4 -18   5   68.40   84.40   1
  -4 -18   5  282.50   88.80   1
   4  18  -5   82.50   85.10   1
   4  18   6   28.70   44.10   1
  -4 -18  -6   23.00   43.50   1
   4 -18  -6    3.60   47.40   1
  -4  18   6    9.50   45.70   1
  -4  18  -6   25.10   46.70   1
   4 -18   6   13.20   43.50   1
  -4 -18   6   97.10   41.90   1
   4  18  -6   46.70   40.40   1
   4  18   7  789.90  176.40   1
  -4 -18  -7  773.00  174.80   1
   4 -18  -7  439.50  170.40   1
  -4  18   7  450.10  171.60   1
  -4  18  -7  236.30  164.70   1
   4 -18   7  682.60  168.60   1
  -4 -18   7  360.00  165.80   1
   4  18  -7  223.40  163.80   1
   4  18   8    9.10   41.90   1
  -4 -18  -8   -0.00   44.20   1
   4 -18  -8   26.00   41.80   1
  -4  18  -8   30.90   37.60   1
   4 -18   8   69.80   38.90   1
  -4 -18   8   18.90   46.20   1
   4  18  -8   37.50   44.40   1
   4  18   9   96.20   63.50   1
  -4 -18  -9  134.00   67.20   1
   4 -18   9  118.60   59.90   1
  -4 -18   9   84.90   64.60   1
   4  18  -9    6.40   58.40   1
   4  19   0    0.00   23.40   1
  -4 -19   0    9.40   21.80   1
   4 -19   0   -0.00   25.10   1
  -4  19   0    1.30   24.30   1
   4  19   1   12.00   28.70   1
  -4 -19  -1   15.70   29.50   1
   4 -19  -1   -0.00   28.20   1
  -4  19   1   14.30   28.30   1
  -4  19  -1   11.30   29.90   1
   4 -19   1   -0.00   29.10   1
  -4 -19   1    7.30   23.80   1
   4  19  -1    8.60   24.20   1
   4  19   2   24.90   37.50   1
  -4 -19  -2   12.10   36.60   1
   4 -19  -2   19.50   34.90   1
  -4  19   2   24.70   35.10   1
  -4  19  -2   99.80   37.20   1
   4 -19   2   17.30   32.90   1
  -4 -19   2    8.70   31.60   1
   4  19  -2   11.60   32.20   1
   4  19   3   25.90   32.80   1
  -4 -19  -3   13.60   32.00   1
   4 -19  -3   -0.10   30.50   1
  -4  19   3    3.60   30.10   1
  -4  19  -3    7.40   26.90   1
   4 -19   3    8.80   25.90   1
  -4 -19   3   18.80   27.10   1
   4  19  -3   11.90   25.50   1
   4  19   4   68.90   42.10   1
  -4 -19  -4   15.00   41.00   1
   4 -19  -4   -0.00   39.80   1
  -4  19   4   -0.00   42.00   1
  -4  19  -4   45.20   36.90   1
   4 -19   4   38.40   37.80   1
  -4 -19   4   54.00   50.90   1
   4  19  -4   21.40   42.90   1
   4  19   5    8.50   33.60   1
  -4 -19  -5    0.00   32.50   1
   4 -19  -5   -0.30   37.00   1
  -4  19   5    9.60   34.60   1
  -4  19  -5   44.70   29.10   1
   4 -19   5   20.60   28.70   1
  -4 -19   5   13.60   33.00   1
   4  19  -5   -0.00   30.90   1
   4  19   6   41.00   50.20   1
  -4 -19  -6   35.40   50.20   1
   4 -19  -6   49.80   54.00   1
  -4  19   6  193.70   59.20   1
  -4  19  -6   32.30   50.70   1
   4 -19   6   30.40   55.00   1
  -4 -19   6   44.90   47.50   1
   4  19  -6   55.20   48.00   1
   4  19   7   12.70   32.20   1
  -4 -19  -7   -0.00   33.80   1
   4 -19  -7   11.80   34.40   1
  -4  19   7   21.30   32.40   1
  -4  19  -7    1.40   26.50   1
   4 -19   7   13.40   28.70   1
  -4 -19   7   12.20   26.50   1
   4  19  -7    9.10   25.30   1
   4  19   8   44.80   46.70   1
  -4 -19  -8  110.10   51.90   1
   4 -19  -8  101.10   48.10   1
  -4  19   8  104.70   49.90   1
   4 -19   8   25.10   41.00   1
  -4 -19   8   22.90   47.90   1
   4  19  -8   17.50   41.70   1
   4  19   9   -0.00   35.10   1
  -4 -19  -9   -0.30   38.20   1
   4 -19  -9    4.60   30.40   1
   4 -19   9   26.50   28.10   1
  -4 -19   9   -0.00   34.80   1
   4  19  -9    0.70   33.90   1
   4  20   0   17.50   29.50   1
  -4 -20   0   -0.00   28.40   1
   4 -20   0   14.70   32.90   1
  -4  20   0   17.60   31.00   1
   4  20   1   97.00   50.00   1
  -4 -20  -1  104.30   48.90   1
   4 -20  -1   36.00   46.10   1
  -4  20   1   21.90   45.20   1
  -4  20  -1   44.10   46.70   1
   4 -20   1  123.30   50.30   1
  -4 -20   1   23.70   43.80   1
   4  20  -1   19.00   43.20   1
   4  20   2   21.60   33.20   1
  -4 -20  -2   14.70   34.70   1
   4 -20  -2   25.80   32.50   1
  -4  20   2   20.50   33.30   1
  -4  20  -2   19.00   32.00   1
   4 -20   2   -0.20   30.80   1
  -4 -20   2   -0.00   27.30   1
   4  20  -2   20.50   28.40   1
   4  20   3   42.60   44.30   1
  -4 -20  -3   44.20   45.40   1
   4 -20  -3   27.70   42.90   1
  -4  20   3   38.40   43.00   1
  -4  20  -3   29.30   41.10   1
   4 -20   3   36.90   41.30   1
  -4 -20   3   41.60   40.90   1
   4  20  -3   20.90   40.30   1
   4  20   4   24.80   29.70   1
  -4 -20  -4   -0.00   31.60   1
   4 -20  -4    3.30   32.30   1
  -4  20   4   54.90   35.30   1
  -4  20  -4    3.70   26.20   1
   4 -20   4   -0.00   24.30   1
  -4 -20   4   21.60   38.40   1
   4  20  -4   12.20   30.00   1
   4  20   5   35.10   49.60   1
  -4 -20  -5   54.90   50.40   1
   4 -20  -5  157.50   57.60   1
  -4  20   5   69.80   52.40   1
  -4  20  -5   73.70   47.40   1
   4 -20   5   86.40   48.70   1
  -4 -20   5    1.00   47.80   1
   4  20  -5   10.90   53.20   1
   4  20   6   10.30   39.80   1
  -4 -20  -6   -0.00   39.90   1
   4 -20  -6    7.20   42.80   1
  -4  20   6   25.20   42.80   1
  -4  20  -6   29.00   37.10   1
   4 -20   6    5.50   42.90   1
  -4 -20   6   50.40   39.00   1
   4  20  -6  147.50   43.00   1
   4  20   7   28.90   43.60   1
  -4 -20  -7   35.10   41.20   1
   4 -20  -7   59.40   50.60   1
  -4  20   7   37.20   45.90   1
   4 -20   7   21.30   38.60   1
  -4 -20   7   35.20   38.40   1
   4  20  -7   17.30   37.20   1
   4  20   8   10.70   33.80   1
  -4 -20  -8    6.80   34.90   1
   4 -20  -8   -0.00   33.20   1
  -4  20   8   -0.00   29.70   1
   4 -20   8    4.70   23.70   1
  -4 -20   8   15.30   29.10   1
   4  20  -8    6.50   24.30   1
   4  21   0   40.60   37.50   1
  -4 -21   0   24.50   34.60   1
   4 -21   0   11.70   38.00   1
  -4  21   0   12.10   38.80   1
   4  21   1   -0.00   30.60   1
  -4 -21  -1   -0.00   28.40   1
   4 -21  -1   13.30   27.20   1
  -4  21   1   -0.00   26.30   1
  -4  21  -1   10.30   31.40   1
   4 -21   1   26.40   32.60   1
  -4 -21   1   -0.00   24.30   1
   4  21  -1   14.10   25.00   1
   4  21   2   95.00   64.50   1
  -4 -21  -2  111.40   65.60   1
   4 -21  -2   83.90   62.30   1
  -4  21   2   60.20   61.70   1
  -4  21  -2   96.80   63.60   1
   4 -21   2   98.10   62.00   1
  -4 -21   2   47.00   60.10   1
   4  21  -2   57.90   60.20   1
   4  21   3   25.30   36.60   1
  -4 -21  -3    4.90   38.60   1
   4 -21  -3   39.90   38.90   1
  -4  21   3   80.10   41.20   1
  -4  21  -3    9.90   33.90   1
   4 -21   3    2.20   32.50   1
  -4 -21   3   24.40   32.80   1
   4  21  -3   26.90   32.70   1
   4  21   4   42.60   46.30   1
  -4 -21  -4   49.20   46.70   1
   4 -21  -4   25.10   46.70   1
  -4  21   4   83.20   49.50   1
  -4  21  -4   55.30   43.70   1
   4 -21   4   31.80   43.30   1
  -4 -21   4   41.70   48.10   1
   4  21  -4   14.50   43.00   1
   4  21   5   18.10   29.50   1
  -4 -21  -5   -0.00   28.00   1
   4 -21  -5   -0.10   32.50   1
  -4  21   5   10.70   33.60   1
  -4  21  -5   -0.30   23.90   1
   4 -21   5   19.30   23.90   1
  -4 -21   5   -0.00   30.60   1
   4  21  -5   -0.00   36.40   1
   4  21   6   19.90   38.50   1
  -4 -21  -6   71.30   41.20   1
   4 -21  -6   59.30   45.50   1
  -4  21   6    4.70   40.10   1
   4 -21   6   16.30   39.40   1
  -4 -21   6   28.70   37.60   1
   4  21  -6   13.10   36.60   1
   4  22   0    6.70   30.20   1
  -4 -22   0   -0.00   28.20   1
   4 -22   0   24.00   33.60   1
  -4  22   0   20.60   31.10   1
   4  22   1  124.20   52.00   1
  -4 -22  -1  154.00   53.30   1
   4 -22  -1   51.00   49.20   1
  -4  22   1   12.00   48.60   1
  -4  22  -1   44.00   49.70   1
   4 -22   1  182.00   53.70   1
  -4 -22   1   22.80   45.90   1
   4  22  -1   20.60   46.10   1
   4  22   2   -0.00   27.20   1
  -4 -22  -2   10.30   27.90   1
   4 -22  -2   -0.00   28.20   1
  -4  22   2    5.90   26.30   1
  -4  22  -2   -0.10   26.40   1
   4 -22   2   19.20   24.90   1
  -4 -22   2   -0.00   23.20   1
   4  22  -2   -0.00   23.50   1
   4  22   3   84.40   61.70   1
  -4 -22  -3   73.30   61.80   1
   4 -22  -3   77.70   61.70   1
  -4  22   3   56.20   60.90   1
  -4  22  -3   88.40   59.20   1
   4 -22   3   67.30   58.50   1
  -4 -22   3   61.90   57.70   1
   4  22  -3   54.60   57.80   1
   4  22   4   14.80   28.40   1
  -4 -22  -4    4.60   30.40   1
   4 -22  -4    3.90   29.80   1
  -4  22   4   10.00   29.50   1
   4 -22   4    3.60   23.10   1
  -4 -22   4    6.70   27.10   1
   4  22  -4   -0.00   22.60   1
   4  22   5   69.70   43.60   1
  -4 -22  -5   32.80   43.00   1
   4 -22  -5   50.20   44.80   1
  -4  22   5   26.10   45.90   1
   4 -22   5   25.00   38.30   1
  -4 -22   5    2.10   48.40   1
   4  22  -5   11.50   45.20   1
   4  23   0   81.50   75.40   1
  -4 -23   0   87.40   74.80   1
   4 -23   0  197.90   79.80   1
  -4  23   0  112.60   76.90   1
   4  23   1   28.20   36.90   1
  -4 -23  -1   33.90   36.10   1
   4 -23  -1   23.50   35.00   1
  -4  23   1   -0.00   32.10   1
   4 -23   1   28.50   36.00   1
  -4 -23   1    1.20   29.00   1
   4  23  -1    7.70   28.20   1
   4  23   2  153.30  105.90   1
  -4 -23  -2  239.40  107.70   1
   4 -23  -2  113.70  104.90   1
  -4  23   2  169.70  105.30   1
   4 -23   2  297.50  106.80   1
  -4 -23   2  163.90  103.90   1
   4  23  -2  160.80  104.00   1
   5   0   0   23.90   32.20   1
  -5   0   0   30.60   32.10   1
   5   0   1 9082.60 4016.40   1
  -5   0  -111395.60 4026.20   1
  -5   0  -2   54.60   48.00   1
   5   1   0   11.60   20.90   1
  -5  -1   0    8.70   21.30   1
  -5  -1   1  195.20  117.70   1
   5   1  -1  220.00  117.90   1
   5   1   2 1387.10  629.30   1
  -5  -1  -2 1646.80  630.10   1
  -5  -1   2 1325.70  631.80   1
   5   1  -2 1426.00  632.70   1
  -5  -1   3   -0.00   17.50   1
   5   1  -3   47.30   18.70   1
   5   2   0 1090.10  361.10   1
  -5  -2   0  666.30  360.00   1
   5   2   1  871.40  456.10   1
  -5  -2  -1  990.10  456.20   1
  -5   2  -1 1139.50  458.80   1
   5  -2   1 1158.70  457.80   1
  -5  -2   1 1202.60  458.00   1
   5   2  -1 1359.40  458.80   1
   5   2   2  523.90  159.10   1
  -5  -2  -2  529.20  159.10   1
  -5   2  -2  651.80  159.80   1
   5  -2   2 1148.20  162.60   1
  -5  -2   2  178.00  158.20   1
   5   2  -2  204.80  158.30   1
   5   2   3 1396.40  671.60   1
  -5  -2  -3 1592.60  671.70   1
  -5   2  -3 1788.40  673.60   1
   5  -2   3 1721.20  674.10   1
  -5  -2   3 1713.20  673.40   1
   5   2  -3 1341.00  671.30   1
  -5  -2   4  228.90  135.10   1
   5   2  -4  269.80  135.40   1
  -5  -2   5   41.40   46.70   1
   5   2  -5   65.10   46.90   1
   5   3   0   80.30   62.40   1
  -5  -3   0   83.10   62.60   1
   5   3   1  202.30  124.20   1
  -5  -3  -1  238.90  124.30   1
  -5   3  -1  185.20  124.20   1
   5  -3   1  244.90  124.30   1
  -5  -3   1  353.70  125.40   1
   5   3  -1  209.80  124.90   1
   5   3   2 2084.10  971.90   1
  -5  -3  -2 2205.40  972.50   1
  -5   3  -2 2808.00  973.30   1
   5   3   3  115.00   84.00   1
  -5  -3  -3  119.60   83.90   1
  -5   3  -3  198.40   83.20   1
   5  -3   3  133.10   83.20   1
  -5  -3   3  109.80   83.00   1
   5   3  -3  109.60   83.10   1
  -5   3  -4 1246.90  518.20   1
   5  -3   4 1221.80  519.20   1
  -5  -3   4 1090.50  519.00   1
   5   3  -4 1140.40  519.40   1
  -5   3  -5   12.20   22.10   1
   5  -3   5   17.80   22.10   1
  -5  -3   5    7.50   22.90   1
   5   3  -5   12.90   23.30   1
  -5   3  -6 2014.10  900.10   1
  -5  -3   6 2069.30  889.80   1
   5   3  -6 2109.20  888.80   1
  -5  -3   7   40.70   44.60   1
   5   3  -7   51.40   44.70   1
   5   3  -8  235.10  134.20   1
   5   4   0  949.40  157.50   1
  -5  -4   0 1148.00  158.20   1
   5  -4   0  224.40  151.20   1
  -5   4   0  224.40  151.20   1
   5   4   1  719.80  263.80   1
  -5  -4  -1  646.50  263.60   1
  -5   4  -1  530.70  263.40   1
   5  -4   1  898.40  264.30   1
  -5  -4   1  479.10  264.40   1
   5   4  -1  402.40  264.00   1
   5   4   2  273.30  116.90   1
  -5  -4  -2  265.90  116.80   1
  -5   4  -2  237.00  115.70   1
   5  -4   2  237.70  115.70   1
  -5  -4   2  109.60  116.20   1
   5   4  -2  258.00  116.70   1
   5   4   3   72.40   65.50   1
  -5  -4  -3  105.40   65.70   1
   5  -4   3  264.10   66.30   1
  -5  -4   3   52.70   65.00   1
   5   4  -3   96.80   65.40   1
   5   4   4   14.80   24.90   1
  -5  -4  -4   64.80   25.40   1
  -5   4  -4   25.20   24.70   1
   5  -4   4    7.70   23.30   1
  -5  -4   4    4.10   23.10   1
   5   4  -4    4.50   23.40   1
  -5   4  -5  282.30  141.10   1
   5  -4   5  316.80  141.20   1
  -5  -4   5  215.80  141.20   1
   5   4  -5  245.00  141.40   1
  -5   4  -6   29.50   31.40   1
   5  -4   6   17.00   31.20   1
  -5  -4   6   28.70   31.90   1
   5   4  -6   33.40   32.20   1
  -5   4  -7   71.10   32.30   1
   5  -4   7   10.90   31.30   1
  -5  -4   7   34.70   32.20   1
   5   4  -7   45.80   32.80   1
  -5   4  -8  110.10   51.90   1
   5  -4   8  148.40   54.30   1
  -5  -4   8   42.90   50.50   1
   5   4  -8   58.60   51.10   1
  -5  -4   9   39.10   42.80   1
   5   4  -9   43.90   43.00   1
  -5  -4  10   71.80   65.60   1
   5   4 -10   88.80   65.20   1
   5   4 -11    8.80   24.30   1
   5  -5   0   20.90   36.40   1
  -5   5   0   43.50   36.70   1
   5   5   1   24.30   29.40   1
  -5  -5  -1   22.00   29.20   1
  -5   5  -1   25.40   29.40   1
   5  -5   1   19.40   29.60   1
  -5  -5   1   22.90   30.70   1
   5   5  -1   11.90   29.70   1
   5   5   2 3913.90 1594.20   1
  -5  -5  -2 3885.90 1593.70   1
  -5   5  -2 3703.30 1592.20   1
   5  -5   2 3119.40 1591.50   1
  -5  -5   2 5130.50 1599.40   1
   5   5  -2 5170.70 1599.90   1
   5   5   3   50.70   55.90   1
  -5  -5  -3   66.60   56.00   1
  -5   5  -3   72.10   54.80   1
   5  -5   3  102.00   54.90   1
  -5  -5   3   42.10   56.10   1
   5   5  -3   57.60   55.80   1
   5   5   4  728.20  246.80   1
  -5  -5  -4  756.90  247.30   1
  -5   5  -4  388.80  244.60   1
   5  -5   4  680.00  245.50   1
  -5  -5   4  535.90  245.60   1
   5   5  -4  461.30  245.30   1
  -5   5  -5   72.60   39.60   1
   5  -5   5   24.00   38.70   1
  -5  -5   5   30.30   38.50   1
   5   5  -5   34.80   38.90   1
  -5   5  -6   39.20   36.60   1
   5  -5   6   30.20   36.40   1
  -5  -5   6   25.00   37.00   1
   5   5  -6   37.00   37.20   1
  -5   5  -7  118.90   80.90   1
   5  -5   7   91.00   80.60   1
  -5  -5   7  177.80   81.70   1
   5   5  -7  174.50   81.90   1
  -5   5  -8   60.10   48.30   1
   5  -5   8  136.50   49.40   1
  -5  -5   8   57.30   48.60   1
   5   5  -8   37.00   48.50   1
  -5   5  -9   36.70   21.30   1
   5  -5   9    5.60   19.60   1
  -5  -5   9   -0.00   20.40   1
   5   5  -9   13.30   20.80   1
  -5   5 -10 5903.10 2298.30   1
   5  -5  10 6202.40 2361.00   1
  -5  -5  10 4703.80 2252.50   1
   5   5 -10 5380.50 2254.20   1
  -5   5 -11   -0.00   17.40   1
  -5  -5  11   -0.00   15.00   1
   5   5 -11   -0.00   15.90   1
  -5  -5  12  117.90   81.30   1
   5   5 -12  105.40   79.30   1
   5   5 -13    5.70   23.70   1
   5   6   0  509.60  270.30   1
  -5  -6   0  736.40  270.90   1
   5  -6   0  542.50  270.80   1
  -5   6   0  594.50  271.10   1
   5   6   1  706.20  294.70   1
  -5  -6  -1  469.70  294.10   1
   5  -6  -1  588.70  295.10   1
  -5   6   1 1062.20  298.60   1
  -5   6  -1  712.50  295.00   1
   5  -6   1  606.50  294.60   1
  -5  -6   1  686.30  294.80   1
   5   6  -1  723.90  295.00   1
   5   6   2  703.10  389.70   1
  -5  -6  -2 1116.70  391.00   1
  -5   6  -2  866.40  389.60   1
   5  -6   2  912.80  389.50   1
  -5  -6   2  782.90  391.00   1
   5   6  -2 1083.40  392.00   1
   5   6   3  415.50  101.10   1
  -5  -6  -3  317.20  100.30   1
  -5   6  -3  110.60   99.60   1
   5  -6   3  115.50   99.30   1
  -5  -6   3  263.20  100.50   1
   5   6  -3  148.00   99.90   1
   5   6   4   44.50   43.90   1
  -5  -6  -4   35.80   44.20   1
   5  -6   4  232.20   47.00   1
  -5  -6   4   23.30   44.90   1
   5   6  -4   21.80   44.20   1
   5   6   5   39.70   52.60   1
  -5  -6  -5  170.40   53.90   1
  -5   6  -5   27.60   51.40   1
   5  -6   5   88.60   52.10   1
  -5  -6   5   89.70   52.70   1
   5   6  -5   82.80   53.00   1
  -5   6  -6   16.50   30.40   1
   5  -6   6   27.90   30.50   1
  -5  -6   6   17.90   30.00   1
   5   6  -6   26.60   30.70   1
  -5   6  -7  211.70  106.00   1
   5  -6   7  232.20  106.10   1
  -5  -6   7  158.80  105.90   1
   5   6  -7  147.90  105.90   1
  -5   6  -8   10.20   26.80   1
   5  -6   8   24.30   27.00   1
  -5  -6   8   17.90   27.40   1
   5   6  -8   26.70   28.00   1
  -5   6  -9   19.30   24.30   1
   5  -6   9   16.70   23.80   1
  -5  -6   9    8.30   24.40   1
   5   6  -9   11.00   25.20   1
  -5   6 -10   32.60   40.90   1
   5  -6  10   41.20   40.80   1
  -5  -6  10   35.40   40.90   1
   5   6 -10   53.30   42.10   1
  -5   6 -11  526.70  210.20   1
   5  -6  11  367.80  207.50   1
  -5  -6  11  352.30  206.10   1
   5   6 -11  453.10  208.00   1
  -5   6 -12   20.70   26.00   1
   5  -6  12    7.20   26.00   1
  -5  -6  12    8.10   25.50   1
   5   6 -12   53.20   27.90   1
  -5   6 -13  241.90   97.60   1
  -5  -6  13   94.30   87.30   1
   5   6 -13  177.60   90.60   1
  -5   6 -14   -0.10   23.90   1
  -5  -6  14    0.00   22.40   1
   5   6 -14   21.20   23.60   1
   5   7   0   21.30   37.60   1
  -5  -7   0   51.60   37.80   1
   5  -7   0   10.40   38.40   1
  -5   7   0  113.90   39.90   1
   5   7   1  151.80   84.30   1
  -5  -7  -1  123.10   84.20   1
   5  -7  -1   99.30   85.70   1
  -5   7   1  199.70   86.20   1
  -5   7  -1   66.50   84.10   1
   5  -7   1  183.60   84.80   1
  -5  -7   1  271.50   86.30   1
   5   7  -1  178.80   85.80   1
   5   7   2  453.50  200.70   1
  -5  -7  -2  398.30  200.40   1
  -5   7  -2  323.90  199.40   1
   5  -7   2  371.20  199.60   1
  -5  -7   2  535.30  201.00   1
   5   7  -2  448.80  200.40   1
   5   7   3  137.40  106.30   1
  -5  -7  -3  137.70  106.40   1
  -5   7  -3  611.40  108.80   1
   5  -7   3  176.00  107.80   1
  -5  -7   3  321.00  109.30   1
   5   7  -3  201.80  108.20   1
   5   7   4  124.00   72.80   1
  -5  -7  -4  112.70   72.90   1
  -5   7  -4   82.60   70.80   1
   5  -7   4  199.80   71.40   1
  -5  -7   4   91.00   71.90   1
   5   7  -4   67.90   71.40   1
   5   7   5  177.40   81.80   1
  -5  -7  -5  111.70   81.90   1
  -5   7  -5  232.10   81.80   1
   5  -7   5  190.00   80.90   1
  -5  -7   5   67.70   80.80   1
   5   7  -5   74.30   81.40   1
  -5   7  -6   99.00   74.50   1
   5  -7   6   89.00   74.60   1
  -5  -7   6  118.30   75.00   1
   5   7  -6  126.30   75.60   1
  -5   7  -7   15.60   37.10   1
   5  -7   7   30.60   37.00   1
  -5  -7   7   45.70   37.30   1
   5   7  -7   44.50   37.70   1
  -5   7  -8  523.20  193.70   1
   5  -7   8  385.40  192.90   1
  -5  -7   8  340.80  192.80   1
   5   7  -8  343.70  192.90   1
  -5   7  -9   21.60   22.40   1
   5  -7   9   10.10   21.30   1
  -5  -7   9    6.00   22.50   1
   5   7  -9    5.70   22.90   1
  -5   7 -10   33.00   48.20   1
   5  -7  10   73.00   48.60   1
  -5  -7  10   75.20   49.10   1
   5   7 -10   62.10   49.10   1
  -5   7 -11   33.20   36.90   1
   5  -7  11   43.90   37.00   1
  -5  -7  11   19.40   36.60   1
   5   7 -11   53.50   38.00   1
  -5   7 -12   46.00   42.70   1
   5  -7  12  115.30   45.30   1
  -5  -7  12   36.10   42.60   1
   5   7 -12   34.50   43.00   1
  -5   7 -13   12.80   21.90   1
   5  -7  13   20.00   22.40   1
  -5  -7  13    5.80   21.80   1
   5   7 -13    4.40   22.60   1
   5  -7  14   30.80   35.60   1
  -5  -7  14   18.70   34.60   1
   5   7 -14   35.10   36.20   1
   5   8   0   34.90   40.70   1
  -5  -8   0   33.50   40.70   1
   5  -8   0   46.00   42.00   1
  -5   8   0   49.50   42.00   1
   5   8   1  265.00  109.60   1
  -5  -8  -1  186.90  109.20   1
   5  -8  -1  157.90  109.80   1
  -5   8   1  110.30  109.60   1
  -5   8  -1  173.50  109.30   1
   5  -8   1  252.20  109.70   1
  -5  -8   1  951.10  123.20   1
   5   8  -1  372.50  114.00   1
   5   8   2  107.30   76.00   1
  -5  -8  -2  111.30   76.10   1
   5  -8  -2   90.50   75.50   1
  -5   8   2   86.90   75.70   1
  -5   8  -2  109.70   74.70   1
   5  -8   2  107.00   74.70   1
  -5  -8   2  133.50   75.50   1
   5   8  -2  107.50   75.50   1
   5   8   3 1260.10  515.70   1
  -5  -8  -3  919.90  514.60   1
  -5   8  -3 1523.20  515.20   1
   5  -8   3  962.20  514.20   1
  -5  -8   3 2280.00  522.90   1
   5   8  -3 1754.90  519.20   1
   5   8   4  110.00   65.20   1
  -5  -8  -4   80.20   64.60   1
   5  -8   4   79.80   63.60   1
  -5  -8   4   87.30   65.80   1
   5   8  -4   65.80   65.10   1
   5   8   5 2246.20  896.70   1
  -5  -8  -5 1659.50  893.70   1
  -5   8  -5 4907.30  909.80   1
   5  -8   5 1828.10  893.80   1
  -5  -8   5 2378.10  895.80   1
   5   8  -5 2241.20  895.40   1
   5   8   6  145.50  112.90   1
  -5  -8  -6  102.40  112.40   1
  -5   8  -6  310.70  113.20   1
   5  -8   6  199.60  112.20   1
  -5  -8   6  311.00  114.90   1
   5   8  -6  335.50  115.80   1
  -5   8  -7  826.70  311.00   1
   5  -8   7  527.30  309.60   1
  -5  -8   7  636.90  309.80   1
   5   8  -7  893.20  311.60   1
  -5   8  -8   43.10   37.20   1
   5  -8   8   26.40   36.50   1
  -5  -8   8   21.60   35.80   1
   5   8  -8   38.90   37.40   1
  -5   8  -9  628.30  286.50   1
   5  -8   9  596.00  286.70   1
  -5  -8   9  674.20  288.00   1
   5   8  -9  554.50  286.80   1
  -5   8 -10   31.00   40.50   1
   5  -8  10   44.40   40.60   1
  -5  -8  10   33.60   40.60   1
   5   8 -10   47.00   41.40   1
  -5   8 -11   17.00   27.10   1
   5  -8  11   12.30   26.20   1
  -5  -8  11   15.00   26.90   1
   5   8 -11   31.50   28.80   1
  -5   8 -12   17.60   25.20   1
   5  -8  12    9.60   24.80   1
  -5  -8  12   13.60   25.50   1
   5   8 -12   32.70   27.50   1
  -5   8 -13   40.60   43.90   1
   5  -8  13   76.80   45.30   1
  -5  -8  13   39.50   44.10   1
   5   8 -13   40.40   44.70   1
   5  -8  14    4.20   14.30   1
  -5  -8  14   -0.00   14.00   1
   5   8 -14   -0.00   16.00   1
   5   9   0   26.30   35.10   1
  -5  -9   0   39.80   35.30   1
   5  -9   0   35.30   36.50   1
  -5   9   0   15.50   35.80   1
   5   9   1  171.60   99.80   1
  -5  -9  -1  142.80   99.60   1
   5  -9  -1   88.90  100.00   1
  -5   9   1  117.00  100.20   1
  -5   9  -1  227.00  100.50   1
   5  -9   1  207.60  100.70   1
  -5  -9   1  617.20  105.40   1
   5   9  -1  367.20  101.50   1
   5   9   2   49.80   53.60   1
  -5  -9  -2   34.10   53.20   1
   5  -9  -2   70.20   55.00   1
  -5   9   2   31.10   54.00   1
  -5   9  -2   52.60   52.00   1
   5  -9   2  109.40   52.50   1
  -5  -9   2   77.10   53.70   1
   5   9  -2   76.70   54.00   1
   5   9   3   28.00   63.40   1
  -5  -9  -3   89.40   64.60   1
  -5   9  -3   71.80   62.50   1
   5  -9   3  149.90   62.90   1
  -5  -9   3  130.30   65.40   1
   5   9  -3   95.30   64.50   1
   5   9   4  395.40  146.90   1
  -5  -9  -4  402.20  146.90   1
  -5   9  -4  153.70  145.50   1
   5  -9   4  407.70  146.70   1
  -5  -9   4  440.80  149.60   1
   5   9  -4  298.60  148.10   1
   5   9   5   27.40   79.80   1
  -5  -9  -5   91.90   81.20   1
  -5   9  -5  343.90   80.80   1
   5  -9   5  152.60   80.50   1
  -5  -9   5  208.60   80.80   1
   5   9  -5  253.30   81.20   1
   5   9   6  122.10   45.60   1
  -5  -9  -6   97.20   46.80   1
  -5   9  -6   25.50   43.10   1
   5  -9   6  106.20   44.50   1
  -5  -9   6    7.30   42.70   1
   5   9  -6   12.90   41.80   1
  -5  -9  -7   17.60   38.70   1
  -5   9  -7   75.50   38.20   1
   5  -9   7   37.50   37.00   1
  -5  -9   7   10.40   38.70   1
   5   9  -7   14.00   40.10   1
  -5   9  -8   76.80   45.80   1
   5  -9   8   49.20   44.40   1
  -5  -9   8   25.50   42.50   1
   5   9  -8   23.80   43.20   1
  -5   9  -9   10.10   32.90   1
   5  -9   9   21.40   32.50   1
  -5  -9   9   39.20   33.10   1
   5   9  -9   29.40   33.80   1
  -5   9 -10  132.90  105.60   1
   5  -9  10  259.30  106.80   1
  -5  -9  10  186.20  106.30   1
   5   9 -10  253.50  107.40   1
  -5   9 -11    1.90   17.40   1
   5  -9  11    2.00   16.10   1
  -5  -9  11    4.60   17.70   1
   5   9 -11   17.50   19.10   1
  -5   9 -12   17.70   25.20   1
   5  -9  12   14.40   24.70   1
  -5  -9  12    6.50   25.30   1
   5   9 -12   33.60   27.30   1
  -5   9 -13   14.80   21.20   1
   5  -9  13    4.80   20.30   1
  -5  -9  13   11.10   21.40   1
   5   9 -13   10.00   22.80   1
   5  -9  14   40.60   43.10   1
  -5  -9  14   44.10   43.50   1
   5   9 -14   41.90   44.00   1
   5  10   0    9.80   28.80   1
  -5 -10   0    8.30   28.90   1
   5 -10   0   20.40   30.60   1
  -5  10   0   77.20   31.70   1
   5  10   1 2156.10  799.80   1
  -5 -10  -1 1871.70  798.70   1
   5 -10  -1 2033.70  799.70   1
  -5  10   1 1924.30  799.30   1
  -5  10  -1 2169.80  800.30   1
   5 -10   1 2119.10  800.50   1
  -5 -10   1 1808.80  798.20   1
   5  10  -1 1531.60  797.50   1
   5  10   2   -0.10   33.90   1
  -5 -10  -2   13.50   34.10   1
   5 -10  -2   13.90   34.40   1
  -5  10   2   18.70   34.90   1
  -5  10  -2   38.60   32.00   1
   5 -10   2   52.50   32.00   1
  -5 -10   2   27.10   34.60   1
   5  10  -2    3.30   33.50   1
   5  10   3 1034.40  189.20   1
  -5 -10  -3  516.80  186.10   1
   5 -10  -3  573.30  187.60   1
  -5  10   3  684.20  189.40   1
  -5  10  -3  553.00  184.90   1
   5 -10   3  347.20  184.20   1
  -5 -10   3  279.90  184.70   1
   5  10  -3  264.00  184.70   1
   5  10   4   90.50   56.90   1
  -5 -10  -4   34.70   56.20   1
  -5  10  -4   31.30   57.60   1
   5 -10   4   59.50   59.50   1
  -5 -10   4  225.90   64.30   1
   5  10  -4  159.40   61.60   1
   5  10   5   10.30   46.10   1
  -5 -10  -5   55.60   46.70   1
  -5  10  -5   26.20   42.90   1
   5 -10   5  142.40   44.50   1
  -5 -10   5   30.20   46.80   1
   5  10  -5   34.60   46.90   1
   5  10   6   49.80   62.90   1
  -5 -10  -6   49.50   63.30   1
  -5  10  -6  177.40   65.40   1
   5 -10   6   77.50   64.00   1
  -5 -10   6   63.00   61.50   1
   5  10  -6   98.60   61.70   1
   5  10   7  593.40  118.20   1
  -5 -10  -7  236.50  110.20   1
  -5  10  -7  145.10  109.00   1
   5 -10   7  131.90  108.10   1
  -5 -10   7  655.80  117.40   1
   5  10  -7  583.10  114.80   1
  -5  10  -8   26.30   40.90   1
   5 -10   8   39.40   41.90   1
  -5 -10   8   37.20   42.70   1
   5  10  -8   50.60   44.10   1
  -5  10  -9 2022.40  851.90   1
   5 -10   9 1855.50  850.00   1
  -5 -10   9 2214.70  852.90   1
   5  10  -9 1947.00  851.10   1
  -5  10 -10   -0.00   26.40   1
   5 -10  10   22.30   25.30   1
  -5 -10  10   10.80   25.00   1
   5  10 -10   12.50   26.30   1
  -5  10 -11  207.30  124.90   1
   5 -10  11  205.30  124.70   1
  -5 -10  11  221.70  125.10   1
   5  10 -11  261.30  126.00   1
  -5  10 -12   14.00   17.60   1
   5 -10  12    1.30   14.60   1
  -5 -10  12   -0.00   15.70   1
   5  10 -12    2.60   17.20   1
   5 -10  13    3.80   17.60   1
  -5 -10  13    5.10   19.10   1
   5  10 -13   15.20   20.90   1
   5  11   0   93.40   44.50   1
  -5 -11   0   28.60   43.90   1
   5 -11   0   39.00   45.20   1
  -5  11   0   29.30   44.50   1
   5  11   1  447.50  160.30   1
  -5 -11  -1  437.50  159.90   1
   5 -11  -1  219.40  159.10   1
  -5  11   1  347.70  159.90   1
  -5  11  -1  453.70  160.70   1
   5 -11   1  382.10  160.10   1
  -5 -11   1  302.70  158.80   1
   5  11  -1  232.30  158.40   1
   5  11   2   64.00   69.50   1
  -5 -11  -2   67.80   70.20   1
   5 -11  -2   81.20   69.70   1
  -5  11   2  125.80   69.70   1
  -5  11  -2  185.20   69.30   1
   5 -11   2  123.00   68.20   1
  -5 -11   2   56.00   69.70   1
   5  11  -2   77.30   72.30   1
   5  11   3  262.50  131.00   1
  -5 -11  -3  255.90  131.40   1
   5 -11  -3  150.90  131.50   1
  -5  11   3  110.40  130.50   1
  -5  11  -3  287.00  130.00   1
   5 -11   3  264.70  129.90   1
  -5 -11   3  423.40  131.80   1
   5  11  -3  417.20  131.70   1
   5  11   4  272.90   78.80   1
  -5 -11  -4  279.70   79.00   1
   5 -11  -4  270.30   81.80   1
  -5  11  -4  339.00   78.90   1
   5 -11   4   81.00   79.20   1
  -5 -11   4   81.90   78.00   1
   5  11  -4   36.30   76.50   1
   5  11   5   33.20   51.10   1
  -5 -11  -5   20.60   51.40   1
  -5  11  -5   50.20   49.20   1
   5 -11   5   52.40   48.80   1
  -5 -11   5  127.50   55.90   1
   5  11  -5   75.30   53.20   1
   5  11   6   16.40   47.20   1
  -5 -11  -6    9.70   47.80   1
  -5  11  -6   57.60   44.90   1
   5 -11   6   42.90   46.50   1
  -5 -11   6   67.10   46.80   1
   5  11  -6   53.40   47.00   1
   5  11   7  137.10   78.80   1
  -5 -11  -7   66.00   79.50   1
  -5  11  -7  303.60   82.90   1
   5 -11   7  463.30   85.30   1
  -5 -11   7   54.90   77.50   1
   5  11  -7  138.70   78.50   1
  -5 -11  -8  168.80  108.70   1
  -5  11  -8  202.50  107.70   1
   5 -11   8  188.60  107.50   1
  -5 -11   8  186.80  110.60   1
   5  11  -8  139.30  109.20   1
  -5  11  -9   14.30   26.60   1
   5 -11   9   27.70   29.00   1
  -5 -11   9   -0.00   27.70   1
   5  11  -9    0.10   30.40   1
  -5  11 -10   95.60   49.40   1
   5 -11  10   14.60   43.30   1
   5  11 -10  144.30   49.10   1
  -5  11 -11   11.20   21.70   1
   5 -11  11   10.80   20.30   1
  -5 -11  11    0.00   20.40   1
   5  11 -11    2.10   22.60   1
  -5  11 -12   95.60   66.40   1
   5 -11  12   70.40   64.70   1
  -5 -11  12  106.40   65.80   1
   5  11 -12   81.10   65.90   1
   5 -11  13    2.70   16.20   1
  -5 -11  13   -0.00   16.70   1
   5  11 -13   13.00   18.90   1
   5  12   0   84.90   58.00   1
  -5 -12   0   44.10   57.80   1
   5 -12   0  108.20   59.30   1
  -5  12   0   69.80   59.30   1
   5  12   1  291.20  125.20   1
  -5 -12  -1  257.20  124.70   1
   5 -12  -1  360.00  125.40   1
  -5  12   1  278.10  124.90   1
  -5  12  -1  317.50  125.70   1
   5 -12   1  216.20  124.90   1
  -5 -12   1  162.70  123.30   1
   5  12  -1  177.60  123.30   1
   5  12   2  247.80  121.20   1
  -5 -12  -2  282.60  121.20   1
   5 -12  -2  157.00  120.80   1
  -5  12   2  157.20  120.60   1
  -5  12  -2  202.90  119.70   1
   5 -12   2  214.60  119.60   1
  -5 -12   2  490.00  127.20   1
   5  12  -2  205.00  122.30   1
   5  12   3  755.50  350.30   1
  -5 -12  -3  729.20  350.30   1
   5 -12  -3  816.00  352.10   1
  -5  12   3 1035.00  353.60   1
  -5  12  -3  536.10  348.70   1
   5 -12   3 1032.60  350.30   1
  -5 -12   3 1118.90  351.40   1
   5  12  -3  843.70  350.60   1
   5  12   4  300.20  126.70   1
  -5 -12  -4  210.00  126.00   1
   5 -12  -4  135.00  126.20   1
  -5  12   4  114.00  125.40   1
  -5  12  -4  240.50  124.80   1
  -5 -12   4  416.20  127.30   1
   5  12  -4  350.50  126.10   1
   5  12   5   65.10   58.10   1
  -5 -12  -5   70.80   58.20   1
  -5  12  -5   26.00   56.40   1
   5 -12   5   55.00   57.50   1
  -5 -12   5  228.60   66.50   1
   5  12  -5  242.70   64.80   1
   5  12   6   59.40   91.30   1
  -5 -12  -6  129.90   93.30   1
  -5  12  -6  200.20   90.40   1
   5 -12   6  157.10   90.30   1
  -5 -12   6  165.20   94.40   1
   5  12  -6  231.30   95.70   1
   5  12   7  623.50  342.40   1
  -5 -12  -7  697.60  343.20   1
  -5  12  -7  781.00  342.30   1
   5 -12   7  988.90  344.00   1
  -5 -12   7  626.30  341.20   1
   5  12  -7  848.70  342.50   1
   5  12   8   29.60   51.10   1
  -5 -12  -8   28.20   50.80   1
  -5  12  -8   67.30   54.30   1
   5 -12   8  137.50   54.30   1
  -5 -12   8   59.80   52.40   1
   5  12  -8   47.20   51.60   1
  -5  12  -9   77.10   39.40   1
   5 -12   9   22.40   38.40   1
  -5 -12   9   19.70   43.60   1
   5  12  -9    4.10   43.50   1
  -5  12 -10   26.70   41.80   1
   5 -12  10   36.80   43.50   1
  -5 -12  10   37.00   39.80   1
   5  12 -10   25.80   41.60   1
  -5  12 -11  121.60   69.80   1
   5 -12  11   67.70   66.90   1
  -5 -12  11  101.20   68.00   1
   5  12 -11   80.20   68.50   1
  -5  12 -12   21.70   28.30   1
   5 -12  12   11.40   26.60   1
  -5 -12  12   10.70   26.80   1
   5  12 -12   11.50   28.50   1
   5 -12  13   13.70   25.30   1
  -5 -12  13   14.70   25.50   1
   5  12 -13   10.80   27.10   1
   5  13   0   79.40   73.80   1
  -5 -13   0  119.00   73.90   1
   5 -13   0  183.40   75.60   1
  -5  13   0   87.10   74.60   1
   5  13   1  249.50  113.70   1
  -5 -13  -1  265.60  113.50   1
   5 -13  -1  129.80  113.10   1
  -5  13   1  146.70  113.00   1
  -5  13  -1  187.30  113.40   1
   5 -13   1  179.30  113.00   1
  -5 -13   1  236.60  112.30   1
   5  13  -1  211.60  112.10   1
   5  13   2 1589.20  576.80   1
  -5 -13  -2 1431.60  575.80   1
   5 -13  -2 1042.20  574.20   1
  -5  13   2 1135.70  574.70   1
  -5  13  -2 1635.10  575.80   1
   5 -13   2 1108.60  573.60   1
  -5 -13   2 2162.20  579.70   1
   5  13  -2 1459.20  575.00   1
   5  13   3  242.80   95.50   1
  -5 -13  -3  266.80   95.60   1
   5 -13  -3  176.10   95.80   1
  -5  13   3  129.80   95.50   1
  -5  13  -3  223.10   93.30   1
   5 -13   3  190.60   93.10   1
  -5 -13   3  246.60   95.90   1
   5  13  -3   41.20   93.40   1
   5  13   4  416.70  234.20   1
  -5 -13  -4  585.10  235.20   1
   5 -13  -4  613.40  237.10   1
  -5  13   4  411.20  235.00   1
  -5  13  -4  354.10  233.00   1
   5 -13   4  568.20  233.90   1
  -5 -13   4  727.80  235.40   1
   5  13  -4  649.10  234.90   1
   5  13   5  230.90  128.60   1
  -5 -13  -5  285.90  128.60   1
   5 -13  -5   60.80  127.30   1
  -5  13  -5  673.60  136.40   1
   5 -13   5  550.80  131.40   1
  -5 -13   5  390.00  131.50   1
   5  13  -5  366.20  129.50   1
   5  13   6 2437.90 1358.90   1
  -5 -13  -6 3205.50 1362.40   1
  -5  13  -6 3336.50 1358.00   1
   5 -13   6 3259.40 1358.00   1
  -5 -13   6 5360.70 1373.20   1
   5  13  -6 3310.90 1361.70   1
   5  13   7   46.70   52.10   1
  -5 -13  -7   47.20   53.70   1
  -5  13  -7   57.50   47.80   1
   5 -13   7   63.50   50.20   1
  -5 -13   7   22.50   49.50   1
   5  13  -7   33.90   50.80   1
   5  13   8  134.80   89.00   1
  -5 -13  -8   82.00   89.40   1
  -5  13  -8  257.70   92.60   1
   5 -13   8  194.80   92.90   1
  -5 -13   8   85.80   88.00   1
   5  13  -8  171.60   88.70   1
  -5 -13  -9   40.70   52.80   1
  -5  13  -9   48.60   51.40   1
   5 -13   9   46.00   50.80   1
  -5 -13   9   70.40   53.60   1
   5  13  -9   60.80   52.50   1
  -5  13 -10  155.40  123.70   1
   5 -13  10  229.20  124.90   1
  -5 -13  10  359.90  129.70   1
   5  13 -10  303.00  129.50   1
  -5  13 -11  125.20   72.10   1
   5 -13  11   98.70   71.00   1
  -5 -13  11   88.10   69.10   1
   5  13 -11   66.30   69.60   1
   5 -13  12   22.50   40.30   1
  -5 -13  12   39.10   41.80   1
   5  13 -12   56.70   43.80   1
   5  14   0  237.70  138.10   1
  -5 -14   0  269.70  138.20   1
   5 -14   0  259.50  139.00   1
  -5  14   0  242.00  138.70   1
   5  14   1   17.80   39.40   1
  -5 -14  -1    9.10   38.60   1
   5 -14  -1   18.10   38.80   1
  -5  14   1   27.30   39.10   1
  -5  14  -1   23.00   39.50   1
   5 -14   1   22.00   38.50   1
  -5 -14   1   77.60   36.90   1
   5  14  -1   27.30   36.60   1
   5  14   2  246.30  136.40   1
  -5 -14  -2  203.90  136.10   1
   5 -14  -2  141.40  136.10   1
  -5  14   2  226.40  136.80   1
  -5  14  -2  326.50  136.10   1
   5 -14   2  212.10  135.00   1
  -5 -14   2  611.60  138.20   1
   5  14  -2  566.70  136.60   1
   5  14   3  216.90   73.70   1
  -5 -14  -3  214.40   74.40   1
   5 -14  -3  199.80   75.90   1
  -5  14   3  111.70   73.10   1
  -5  14  -3  158.30   70.80   1
   5 -14   3  111.10   70.30   1
  -5 -14   3   13.20   71.40   1
   5  14  -3   34.30   73.60   1
   5  14   4  344.50  116.00   1
  -5 -14  -4  166.20  114.60   1
   5 -14  -4  112.10  116.70   1
  -5  14   4  173.40  116.50   1
  -5  14  -4  155.90  112.90   1
   5 -14   4  179.80  112.90   1
  -5 -14   4  332.80  115.20   1
   5  14  -4  364.10  115.70   1
   5  14   5 1093.50  338.70   1
  -5 -14  -5 1214.70  339.30   1
   5 -14  -5  981.00  341.80   1
  -5  14   5  720.10  339.30   1
  -5  14  -5  770.90  337.20   1
   5 -14   5  850.00  339.40   1
  -5 -14   5  824.80  336.50   1
   5  14  -5  489.30  334.60   1
   5  14   6  244.10  176.10   1
  -5 -14  -6  255.00  176.20   1
  -5  14  -6  465.50  176.20   1
   5 -14   6  394.30  175.40   1
  -5 -14   6  406.60  179.20   1
   5  14  -6  381.40  177.90   1
   5  14   7   53.50   68.10   1
  -5 -14  -7   23.20   68.10   1
  -5  14  -7   95.70   65.50   1
   5 -14   7  326.50   69.60   1
  -5 -14   7  120.70   72.40   1
   5  14  -7  106.40   70.40   1
   5  14   8   14.30   45.60   1
  -5 -14  -8   21.50   48.30   1
  -5  14  -8  199.00   52.30   1
   5 -14   8   81.60   47.20   1
  -5 -14   8   19.50   44.00   1
   5  14  -8   21.40   43.80   1
   5  14   9   62.50   65.30   1
  -5 -14  -9   50.20   64.10   1
  -5  14  -9  110.30   66.20   1
   5 -14   9   84.50   65.10   1
  -5 -14   9   81.10   64.40   1
   5  14  -9   77.10   63.80   1
  -5  14 -10   15.90   26.50   1
   5 -14  10    2.50   24.00   1
  -5 -14  10   -0.00   30.00   1
   5  14 -10   16.50   28.80   1
  -5  14 -11    6.80   28.20   1
   5 -14  11    3.40   27.90   1
  -5 -14  11   17.10   30.80   1
   5  14 -11   22.20   34.90   1
   5 -14  12   -0.00   21.70   1
  -5 -14  12   -0.00   20.50   1
   5  14 -12   -0.00   21.50   1
   5  15   0   21.80   38.00   1
  -5 -15   0   30.40   37.80   1
   5 -15   0  126.20   41.80   1
  -5  15   0    1.90   39.20   1
   5  15   1  108.20   61.20   1
  -5 -15  -1   89.30   60.90   1
   5 -15  -1   57.90   59.60   1
  -5  15   1   77.60   60.30   1
  -5  15  -1   71.30   61.70   1
   5 -15   1  109.80   61.40   1
  -5 -15   1   43.40   57.70   1
   5  15  -1   62.70   57.80   1
   5  15   2   71.40   73.70   1
  -5 -15  -2   86.60   73.80   1
   5 -15  -2   76.30   72.70   1
  -5  15   2  138.40   74.20   1
  -5  15  -2  128.30   72.80   1
   5 -15   2  134.80   72.30   1
  -5 -15   2   87.00   71.20   1
   5  15  -2   91.90   70.50   1
   5  15   3   42.10   51.30   1
  -5 -15  -3   27.50   51.70   1
   5 -15  -3   85.10   54.20   1
  -5  15   3  157.50   55.70   1
  -5  15  -3   17.00   48.20   1
   5 -15   3   59.40   48.30   1
  -5 -15   3   89.90   57.80   1
   5  15  -3  114.60   59.70   1
   5  15   4 1685.50  708.60   1
  -5 -15  -4 1179.80  706.40   1
   5 -15  -4 1578.10  710.60   1
  -5  15   4 2198.70  716.90   1
  -5  15  -4 1647.40  706.40   1
   5 -15   4 1830.70  706.90   1
  -5 -15   4 2073.20  709.30   1
   5  15  -4 1727.70  708.30   1
   5  15   5   27.80   43.80   1
  -5 -15  -5   50.20   43.60   1
   5 -15  -5   18.60   46.60   1
  -5  15   5    5.50   43.30   1
  -5  15  -5  160.90   45.50   1
   5 -15   5   21.90   46.50   1
  -5 -15   5   37.10   42.00   1
   5  15  -5   32.60   42.20   1
   5  15   6  114.40   79.10   1
  -5 -15  -6  182.50   79.50   1
   5 -15  -6   38.20   76.70   1
  -5  15  -6   57.90   76.40   1
   5 -15   6  191.50   78.90   1
  -5 -15   6  329.90   85.40   1
   5  15  -6  221.70   79.80   1
   5  15   7   29.40   37.90   1
  -5 -15  -7   -0.00   39.70   1
  -5  15  -7   23.40   31.80   1
   5 -15   7   13.50   31.40   1
  -5 -15   7   89.00   46.30   1
   5  15  -7    9.50   40.00   1
   5  15   8  248.70   72.10   1
  -5 -15  -8  109.90   69.60   1
  -5  15  -8   56.70   63.00   1
   5 -15   8  103.60   66.30   1
  -5 -15   8   71.60   66.00   1
   5  15  -8   60.60   65.60   1
   5  15   9   41.40   38.20   1
  -5 -15  -9   18.90   40.20   1
  -5  15  -9   19.10   38.40   1
   5 -15   9   42.50   42.00   1
  -5 -15   9   18.40   37.30   1
   5  15  -9   15.80   37.60   1
  -5 -15 -10   69.50   58.40   1
  -5  15 -10  148.60   62.70   1
   5 -15  10   37.40   56.20   1
  -5 -15  10   49.30   57.70   1
   5  15 -10   96.50   58.60   1
   5 -15  11   -0.00   27.30   1
  -5 -15  11   23.30   35.10   1
   5  15 -11   20.80   32.40   1
   5  16   0   64.60   50.70   1
  -5 -16   0   46.00   50.00   1
   5 -16   0   45.50   52.50   1
  -5  16   0   47.70   52.00   1
   5  16   1 2694.90 1121.60   1
  -5 -16  -1 3031.10 1122.00   1
   5 -16  -1 2185.00 1119.10   1
  -5  16   1 2850.20 1122.10   1
  -5  16  -1 2660.10 1122.00   1
   5 -16   1 2745.50 1121.70   1
  -5 -16   1 2724.60 1119.60   1
   5  16  -1 2661.70 1119.70   1
   5  16   2  335.60  176.60   1
  -5 -16  -2  295.90  176.10   1
   5 -16  -2  204.50  175.50   1
  -5  16   2  301.80  176.00   1
  -5  16  -2  486.60  177.00   1
   5 -16   2  384.80  176.00   1
  -5 -16   2  542.20  176.20   1
   5  16  -2  548.10  175.90   1
   5  16   3  787.40  325.90   1
  -5 -16  -3  714.30  325.40   1
   5 -16  -3  515.70  324.40   1
  -5  16   3  721.30  326.30   1
  -5  16  -3  762.70  324.00   1
   5 -16   3  585.20  323.30   1
  -5 -16   3 1778.90  340.10   1
   5  16  -3 1160.40  329.10   1
   5  16   4   27.80   43.50   1
  -5 -16  -4    1.80   43.20   1
   5 -16  -4  113.80   48.10   1
  -5  16   4    4.30   43.90   1
  -5  16  -4   14.90   39.20   1
   5 -16   4   43.00   39.90   1
  -5 -16   4  115.70   45.80   1
   5  16  -4   75.10   44.10   1
   5  16   5  259.00   65.70   1
  -5 -16  -5  211.80   65.10   1
   5 -16  -5   39.90   65.30   1
  -5  16   5   38.30   63.20   1
   5 -16   5   47.40   61.10   1
  -5 -16   5  178.80   62.50   1
   5  16  -5   40.20   60.10   1
   5  16   6    1.20   35.20   1
  -5 -16  -6   20.70   34.90   1
   5 -16  -6   11.80   34.60   1
  -5  16   6    1.70   33.30   1
  -5  16  -6    7.10   34.80   1
   5 -16   6   41.70   31.70   1
  -5 -16   6   12.80   33.00   1
   5  16  -6   27.00   31.60   1
   5  16   7  305.10  110.80   1
  -5 -16  -7  228.80  109.90   1
  -5  16  -7  141.50  105.60   1
   5 -16   7  147.40  105.40   1
  -5 -16   7  167.00  109.90   1
   5  16  -7  259.90  111.10   1
   5  16   8   -0.00   37.80   1
  -5 -16  -8   17.40   38.60   1
  -5  16  -8   38.90   30.70   1
   5 -16   8   -0.00   32.50   1
  -5 -16   8   33.30   41.70   1
   5  16  -8   16.40   38.90   1
   5  16   9  113.20   83.70   1
  -5 -16  -9   90.50   85.90   1
  -5  16  -9  396.00   90.00   1
   5 -16   9  209.50   85.90   1
  -5 -16   9  128.40   83.30   1
   5  16  -9   65.10   81.30   1
   5  16  10    5.60   32.70   1
  -5 -16 -10   -0.00   32.50   1
   5 -16  10   28.10   33.40   1
  -5 -16  10   17.70   31.10   1
   5  16 -10   13.20   30.90   1
  -5 -16 -11   11.60   46.00   1
   5 -16  11   27.30   42.60   1
  -5 -16  11   47.10   46.10   1
   5  16 -11   81.90   46.60   1
   5  17   0  129.50   42.30   1
  -5 -17   0   29.90   39.80   1
   5 -17   0   -0.10   41.50   1
  -5  17   0   20.20   42.70   1
   5  17   1  119.50   64.00   1
  -5 -17  -1   72.40   62.10   1
   5 -17  -1   98.70   61.80   1
  -5  17   1   78.70   61.20   1
  -5  17  -1  113.40   64.60   1
   5 -17   1   57.70   61.70   1
  -5 -17   1   59.80   59.40   1
   5  17  -1   40.20   59.20   1
   5  17   2    7.30   44.30   1
  -5 -17  -2   -0.00   45.30   1
   5 -17  -2   19.00   43.20   1
  -5  17   2   29.40   44.00   1
  -5  17  -2   24.30   43.50   1
   5 -17   2   24.50   44.10   1
  -5 -17   2  162.00   43.80   1
   5  17  -2  142.20   43.50   1
   5  17   3   -0.00   38.10   1
  -5 -17  -3   27.70   38.00   1
   5 -17  -3    7.80   38.10   1
  -5  17   3    2.90   38.70   1
  -5  17  -3   16.80   34.60   1
   5 -17   3   10.70   34.00   1
  -5 -17   3  203.40   50.90   1
   5  17  -3  107.10   38.70   1
   5  17   4   53.30   40.10   1
  -5 -17  -4   46.80   40.20   1
   5 -17  -4   14.30   42.30   1
  -5  17   4   13.00   40.40   1
  -5  17  -4   56.40   36.00   1
   5 -17   4   13.60   34.60   1
  -5 -17   4   14.70   38.60   1
   5  17  -4   11.90   41.40   1
   5  17   5   44.70   49.60   1
  -5 -17  -5   72.10   50.40   1
   5 -17  -5   12.90   52.60   1
  -5  17   5   20.20   52.80   1
  -5  17  -5   84.20   46.50   1
   5 -17   5   91.40   48.10   1
  -5 -17   5   21.50   47.10   1
   5  17  -5   22.90   47.50   1
   5  17   6   12.70   35.70   1
  -5 -17  -6   33.80   36.70   1
   5 -17  -6   46.60   40.20   1
  -5  17   6   28.90   36.00   1
  -5  17  -6   -0.00   39.10   1
   5 -17   6   24.20   36.80   1
  -5 -17   6   22.50   33.20   1
   5  17  -6   10.50   31.60   1
   5  17   7   20.90   55.90   1
  -5 -17  -7   50.00   56.80   1
   5 -17  -7   14.60   53.70   1
  -5  17  -7  137.50   54.50   1
   5 -17   7  121.40   53.50   1
  -5 -17   7   40.40   57.60   1
   5  17  -7   48.80   53.80   1
   5  17   8   53.90   52.30   1
  -5 -17  -8   92.30   55.10   1
  -5  17  -8   30.90   47.40   1
   5 -17   8   60.00   48.30   1
  -5 -17   8   71.20   55.80   1
   5  17  -8   32.80   53.40   1
   5  17   9    9.70   42.40   1
  -5 -17  -9   18.60   45.80   1
  -5  17  -9   10.40   33.90   1
   5 -17   9   28.00   38.80   1
  -5 -17   9   33.70   42.20   1
   5  17  -9   62.90   44.80   1
   5  17  10   35.30   36.40   1
  -5 -17 -10   19.00   38.00   1
   5 -17  10   -0.00   38.70   1
  -5 -17  10   19.30   35.90   1
   5  17 -10   19.60   36.50   1
   5  18   0    5.80   24.00   1
  -5 -18   0    6.30   22.80   1
   5 -18   0    7.90   26.30   1
  -5  18   0   -0.00   25.80   1
   5  18   1  300.30  130.70   1
  -5 -18  -1  257.70  130.10   1
   5 -18  -1  305.10  130.10   1
  -5  18   1  421.30  131.30   1
  -5  18  -1  271.50  130.50   1
   5 -18   1  252.40  130.90   1
  -5 -18   1  175.10  127.80   1
   5  18  -1  165.40  128.10   1
   5  18   2   15.70   43.10   1
  -5 -18  -2   19.50   43.30   1
   5 -18  -2  111.90   45.60   1
  -5  18   2  139.10   45.80   1
  -5  18  -2   40.40   42.40   1
   5 -18   2  120.70   43.60   1
  -5 -18   2   12.10   38.30   1
   5  18  -2   13.10   38.70   1
   5  18   3   56.80   49.90   1
  -5 -18  -3  171.50   54.00   1
  -5  18  -3   37.50   47.20   1
   5 -18   3   10.90   46.50   1
  -5 -18   3   65.00   51.20   1
   5  18  -3   71.50   47.70   1
   5  18   4   34.90   40.20   1
  -5 -18  -4   16.60   40.80   1
   5 -18  -4  127.30   47.20   1
  -5  18   4   55.10   43.40   1
  -5  18  -4   17.20   35.80   1
   5 -18   4   17.90   35.50   1
  -5 -18   4   32.70   41.70   1
   5  18  -4   22.80   46.60   1
   5  18   5   45.50   59.90   1
  -5 -18  -5   47.70   60.00   1
   5 -18  -5   -0.00   61.00   1
  -5  18   5   19.50   62.00   1
  -5  18  -5  142.50   59.00   1
   5 -18   5  364.50   62.40   1
  -5 -18   5  116.90   60.70   1
   5  18  -5  122.90   61.60   1
   5  18   6   22.80   40.70   1
  -5 -18  -6   28.70   41.30   1
   5 -18  -6   13.20   46.20   1
  -5  18   6    2.70   42.10   1
  -5  18  -6   28.10   40.50   1
   5 -18   6  116.00   51.40   1
  -5 -18   6   24.60   38.00   1
   5  18  -6   42.00   37.70   1
   5  18   7  134.60   82.00   1
  -5 -18  -7  143.10   81.40   1
   5 -18  -7   22.30   78.40   1
  -5  18   7   79.50   80.10   1
  -5  18  -7  224.20   80.70   1
   5 -18   7  262.50   81.50   1
  -5 -18   7  125.90   80.30   1
   5  18  -7  146.80   78.90   1
   5  18   8   23.20   38.30   1
  -5 -18  -8   40.10   42.30   1
   5 -18  -8   18.00   37.50   1
  -5  18  -8    9.40   32.80   1
   5 -18   8   11.10   31.60   1
  -5 -18   8   23.50   40.90   1
   5  18  -8   73.20   42.30   1
   5  18   9   57.50   62.10   1
  -5 -18  -9   85.90   63.80   1
   5 -18   9  110.20   59.00   1
  -5 -18   9  108.50   64.50   1
   5  18  -9   13.70   58.00   1
   5  19   0   31.70   39.60   1
  -5 -19   0   58.60   40.20   1
   5 -19   0    8.20   41.30   1
  -5  19   0   23.90   40.60   1
   5  19   1   11.70   36.20   1
  -5 -19  -1   29.00   36.80   1
   5 -19  -1   21.30   36.10   1
  -5  19   1   15.80   36.20   1
  -5  19  -1   42.70   38.60   1
   5 -19   1   35.30   37.40   1
  -5 -19   1   12.90   33.30   1
   5  19  -1   13.60   33.50   1
   5  19   2   31.90   39.20   1
  -5 -19  -2   12.00   38.50   1
   5 -19  -2   30.90   39.90   1
  -5  19   2   26.60   38.00   1
  -5  19  -2   29.20   39.00   1
   5 -19   2   20.70   37.50   1
  -5 -19   2   23.00   34.40   1
   5  19  -2   30.40   35.60   1
   5  19   3   43.70   48.60   1
  -5 -19  -3   57.40   48.90   1
   5 -19  -3   17.00   48.50   1
  -5  19   3   15.40   48.40   1
  -5  19  -3   44.30   45.80   1
   5 -19   3   53.80   46.10   1
  -5 -19   3   53.00   47.60   1
   5  19  -3   59.40   46.10   1
   5  19   4  115.70   55.40   1
  -5 -19  -4   61.40   55.10   1
   5 -19  -4   33.10   55.30   1
  -5  19   4   72.50   56.70   1
  -5  19  -4   48.60   51.00   1
   5 -19   4   58.50   52.00   1
  -5 -19   4   47.00   59.30   1
   5  19  -4   30.50   57.90   1
   5  19   5   50.30   44.50   1
  -5 -19  -5   48.10   43.70   1
   5 -19  -5    7.40   46.40   1
  -5  19   5   -0.10   44.40   1
  -5  19  -5   91.50   41.90   1
   5 -19   5   18.50   40.20   1
  -5 -19   5   31.10   43.80   1
   5  19  -5   47.00   42.90   1
   5  19   6   85.40   60.50   1
  -5 -19  -6   72.20   59.90   1
   5 -19  -6   56.60   63.00   1
  -5  19   6   59.00   62.50   1
  -5  19  -6   86.60   57.80   1
   5 -19   6  163.70   65.60   1
  -5 -19   6   40.90   56.50   1
   5  19  -6   49.80   57.10   1
   5  19   7   12.00   36.10   1
  -5 -19  -7   15.40   35.60   1
   5 -19  -7   -0.00   37.30   1
  -5  19   7   -0.00   33.60   1
  -5  19  -7   37.10   34.50   1
   5 -19   7   46.00   31.80   1
  -5 -19   7   11.40   31.20   1
   5  19  -7    5.80   29.10   1
   5  19   8   56.60   48.10   1
  -5 -19  -8   84.20   50.30   1
   5 -19  -8   46.20   46.50   1
   5 -19   8   24.80   40.50   1
  -5 -19   8   31.10   49.50   1
   5  19  -8   24.60   44.30   1
   5  20   0   28.80   33.90   1
  -5 -20   0   27.00   34.50   1
   5 -20   0   14.00   35.80   1
  -5  20   0    9.60   34.90   1
   5  20   1  147.20   89.80   1
  -5 -20  -1  160.90   89.20   1
   5 -20  -1   94.10   88.50   1
  -5  20   1  143.30   88.90   1
  -5  20  -1  121.00   89.20   1
   5 -20   1  108.70   88.60   1
  -5 -20   1  143.60   87.20   1
   5  20  -1  145.70   87.70   1
   5  20   2   10.50   30.50   1
  -5 -20  -2    5.50   32.50   1
   5 -20  -2    0.00   29.50   1
  -5  20   2   19.60   30.20   1
  -5  20  -2   24.70   30.00   1
   5 -20   2   -0.00   28.20   1
  -5 -20   2    9.80   26.40   1
   5  20  -2   16.90   26.20   1
   5  20   3   66.00   73.10   1
  -5 -20  -3   93.80   74.10   1
   5 -20  -3   80.80   73.10   1
  -5  20   3   95.20   73.40   1
  -5  20  -3   84.90   71.10   1
   5 -20   3  107.80   71.80   1
  -5 -20   3  149.70   72.30   1
   5  20  -3   95.50   70.90   1
   5  20   4   -0.00   27.20   1
  -5 -20  -4   -0.00   30.80   1
   5 -20  -4    6.70   30.70   1
  -5  20   4    7.20   32.30   1
  -5  20  -4    8.90   26.60   1
   5 -20   4    3.90   24.10   1
  -5 -20   4   66.50   43.60   1
   5  20  -4   35.50   33.40   1
   5  20   5  291.20  140.50   1
  -5 -20  -5  297.60  140.90   1
   5 -20  -5  370.90  144.40   1
  -5  20   5  343.40  143.10   1
  -5  20  -5  490.10  140.30   1
   5 -20   5  305.10  138.20   1
  -5 -20   5  327.10  141.00   1
   5  20  -5  120.40  139.10   1
   5  20   6   -0.00   30.30   1
  -5 -20  -6   15.50   30.30   1
   5 -20  -6   13.30   38.30   1
  -5  20   6   14.30   37.50   1
   5 -20   6   18.60   29.80   1
  -5 -20   6    1.10   26.50   1
   5  20  -6    9.50   28.50   1
   5  20   7   55.80   40.50   1
  -5 -20  -7   44.80   40.70   1
   5 -20  -7   29.00   43.50   1
  -5  20   7   33.90   40.60   1
   5 -20   7   12.90   34.20   1
  -5 -20   7    8.10   33.90   1
   5  20  -7   17.20   33.60   1
   5  21   0    7.60   27.80   1
  -5 -21   0    9.90   27.20   1
   5 -21   0   10.80   31.90   1
  -5  21   0    8.40   28.80   1
   5  21   1    8.20   30.20   1
  -5 -21  -1   18.00   31.90   1
   5 -21  -1   25.40   30.20   1
  -5  21   1   17.50   30.70   1
  -5  21  -1   10.50   30.70   1
   5 -21   1   14.50   33.80   1
  -5 -21   1    6.40   27.90   1
   5  21  -1   -0.00   27.40   1
   5  21   2   94.50   68.00   1
  -5 -21  -2   89.90   67.30   1
   5 -21  -2   57.00   65.80   1
  -5  21   2  119.10   67.10   1
  -5  21  -2   55.80   66.60   1
   5 -21   2   72.40   66.00   1
  -5 -21   2   95.50   64.90   1
   5  21  -2   90.00   65.00   1
   5  21   3   52.30   45.00   1
  -5 -21  -3   25.10   45.60   1
   5 -21  -3   31.30   43.50   1
  -5  21   3   24.80   44.20   1
  -5  21  -3   37.50   42.50   1
   5 -21   3   44.70   42.70   1
  -5 -21   3   31.20   41.20   1
   5  21  -3   32.30   40.90   1
   5  21   4  181.70  106.60   1
  -5 -21  -4  182.70  106.70   1
   5 -21  -4  159.30  106.90   1
  -5  21   4  249.10  109.40   1
  -5  21  -4  242.00  105.00   1
   5 -21   4  298.70  106.00   1
  -5 -21   4  169.90  109.80   1
   5  21  -4   98.90  105.00   1
   5  21   5   37.70   35.80   1
  -5 -21  -5   35.40   34.30   1
   5 -21  -5   20.60   39.60   1
  -5  21   5   -0.00   37.70   1
   5 -21   5   17.30   29.20   1
  -5 -21   5    3.70   30.90   1
   5  21  -5   10.90   41.30   1
   5  21   6   95.60   51.20   1
  -5 -21  -6   22.70   47.90   1
   5 -21  -6    7.40   51.10   1
  -5  21   6    9.10   50.20   1
   5 -21   6  140.90   49.30   1
  -5 -21   6   66.70   47.80   1
   5  21  -6   23.70   46.70   1
   5  22   0   54.80   41.50   1
  -5 -22   0   35.20   39.60   1
   5 -22   0   22.00   41.50   1
  -5  22   0   11.60   41.10   1
   5  22   1   19.60   33.50   1
  -5 -22  -1   17.90   33.70   1
   5 -22  -1    8.30   31.60   1
  -5  22   1    6.00   32.10   1
  -5  22  -1   13.10   33.60   1
   5 -22   1   10.30   31.80   1
  -5 -22   1   12.60   28.60   1
   5  22  -1   14.10   29.50   1
   5  22   2   15.10   31.30   1
  -5 -22  -2   10.20   32.30   1
   5 -22  -2   -0.00   29.80   1
  -5  22   2    0.00   29.60   1
  -5  22  -2   -0.00   29.00   1
   5 -22   2   20.60   30.20   1
  -5 -22   2   13.00   25.60   1
   5  22  -2   10.30   25.90   1
   5  22   3   43.20   50.10   1
  -5 -22  -3   46.70   51.40   1
   5 -22  -3    7.40   49.00   1
  -5  22   3   17.40   48.40   1
   5 -22   3  105.00   48.20   1
  -5 -22   3   65.80   47.10   1
   5  22  -3   49.90   46.70   1
   5  22   4    5.40   33.70   1
  -5 -22  -4    6.10   35.30   1
   5 -22  -4    5.00   36.70   1
  -5  22   4   36.90   38.10   1
   5 -22   4   -0.00   29.90   1
  -5 -22   4   84.10   38.80   1
   5  22  -4   22.10   31.50   1
   5  23   0    8.90   27.10   1
  -5 -23   0   -0.00   25.60   1
   5 -23   0    4.90   28.60   1
   5  23   1   -0.00   24.80   1
  -5 -23  -1   -0.40   27.30   1
   5 -23  -1   -0.00   25.20   1
   5 -23   1   -0.00   28.60   1
  -5 -23   1   -0.00   21.30   1
   5  23  -1    4.60   19.70   1
   6   0   0 2464.50 1005.10   1
  -6   0   0 2292.70 1003.20   1
   6   0   1  557.60  305.80   1
  -6   0  -1  998.30  307.10   1
   6   0  -1 1057.00  321.10   1
  -6   0   1 1058.30  330.00   1
   6   0   2  186.10  117.30   1
  -6   0  -2  243.90  117.40   1
   6   1   0  902.10  439.10   1
  -6  -1   0 1121.70  439.90   1
   6   1   1  247.70   90.80   1
  -6  -1  -1  280.70   90.90   1
  -6  -1   1   87.20   90.40   1
   6   1  -1  101.20   90.40   1
   6   1   2  543.90  240.80   1
  -6  -1  -2  468.20  240.50   1
  -6  -1   2  497.80  241.70   1
   6   1  -2  528.10  241.90   1
  -6  -1   3   71.50   66.20   1
   6   1  -3  154.20   67.20   1
   6   2   0  192.90   95.10   1
  -6  -2   0  126.00   95.10   1
   6   2   1  151.80  111.70   1
  -6  -2  -1  308.80  112.50   1
  -6  -2   1  206.40  112.30   1
   6   2  -1  207.70  112.40   1
   6   2   2  133.40   94.20   1
  -6  -2  -2  186.20   94.40   1
  -6   2  -2  230.30   93.80   1
   6  -2   2  136.60   93.70   1
  -6  -2   2  137.20   94.10   1
   6   2  -2  131.50   94.10   1
   6   2   3    4.50   36.70   1
  -6  -2  -3   10.30   36.50   1
  -6   2  -3  133.00   35.70   1
   6  -2   3   40.50   35.00   1
  -6  -2   3  209.40   38.10   1
   6   2  -3   55.40   36.10   1
  -6  -2   4   27.90   34.50   1
   6   2  -4   30.70   34.50   1
  -6  -2   5   44.80   36.90   1
   6   2  -5   26.30   36.70   1
   6   2  -6   73.80   60.30   1
   6   3   0  870.40  453.10   1
  -6  -3   0 1435.60  454.60   1
   6   3   1   96.20   71.10   1
  -6  -3  -1  108.00   71.00   1
  -6   3  -1   86.90   71.20   1
   6  -3   1  107.50   71.50   1
  -6  -3   1   91.20   71.90   1
   6   3  -1  132.20   71.90   1
   6   3   2 2383.30  946.20   1
  -6  -3  -2 2444.20  946.60   1
  -6   3  -2 2123.00  944.40   1
   6  -3   2 1813.50  944.20   1
  -6  -3   2 3378.70  951.10   1
   6   3  -2 2578.80  947.40   1
   6   3   3  287.00   86.80   1
  -6  -3  -3  252.90   86.30   1
  -6   3  -3  214.40   85.30   1
   6  -3   3  169.70   85.10   1
  -6  -3   3   84.30   85.20   1
   6   3  -3   74.50   85.20   1
   6   3   4  421.10  263.30   1
  -6  -3  -4  719.20  264.40   1
  -6   3  -4  599.90  262.40   1
   6  -3   4  590.60  262.90   1
  -6  -3   4  538.70  263.20   1
   6   3  -4  492.60  262.90   1
  -6   3  -5  133.10   70.00   1
   6  -3   5  130.00   70.00   1
  -6  -3   5   92.10   70.20   1
   6   3  -5   77.50   70.00   1
  -6   3  -6  404.20  218.00   1
  -6  -3   6  426.20  215.50   1
   6   3  -6  460.10  215.60   1
  -6  -3   7  301.80  166.20   1
   6   3  -7  327.40  166.10   1
  -6  -3   8   95.20   76.20   1
   6   3  -8  113.00   75.60   1
   6   4   0   83.80   70.30   1
  -6  -4   0  116.10   70.70   1
   6   4   1  110.10   47.40   1
  -6  -4  -1   42.70   47.20   1
  -6   4  -1   23.10   47.60   1
   6  -4   1  109.80   47.80   1
  -6  -4   1   78.60   50.20   1
   6   4  -1   18.60   49.40   1
   6   4   2  113.50   42.40   1
  -6  -4  -2  108.70   42.80   1
  -6   4  -2   56.80   39.90   1
   6  -4   2   37.50   39.80   1
  -6  -4   2   -0.00   41.10   1
   6   4  -2   17.60   41.20   1
   6   4   3   46.40   50.50   1
  -6  -4  -3   66.70   50.70   1
  -6   4  -3  119.70   50.00   1
   6  -4   3  311.40   51.50   1
  -6  -4   3   22.40   50.30   1
   6   4  -3   35.90   50.70   1
   6   4   4   11.00   26.40   1
  -6  -4  -4    9.40   26.80   1
  -6   4  -4   14.80   24.10   1
   6  -4   4   11.30   24.00   1
  -6  -4   4   13.70   23.10   1
   6   4  -4   12.90   23.40   1
  -6   4  -5   43.00   31.20   1
   6  -4   5   22.20   30.90   1
  -6  -4   5   22.30   31.50   1
   6   4  -5   16.60   31.70   1
  -6   4  -6   97.00   52.10   1
   6  -4   6   76.70   51.90   1
  -6  -4   6   52.80   52.20   1
   6   4  -6   46.40   52.30   1
  -6   4  -7   32.40   34.30   1
   6  -4   7   14.80   34.00   1
  -6  -4   7   66.10   35.00   1
   6   4  -7   69.40   35.50   1
  -6   4  -8   68.30   42.70   1
   6  -4   8   25.90   42.20   1
  -6  -4   8   44.50   42.30   1
   6   4  -8   42.70   42.70   1
  -6  -4   9   18.50   32.70   1
   6   4  -9   35.40   33.50   1
  -6  -4  10   23.20   39.30   1
   6   4 -10   47.60   40.00   1
   6   4 -11   30.00   39.30   1
   6   5   0  404.30  196.60   1
  -6  -5   0  298.70  195.90   1
   6  -5   0 1898.70  208.80   1
  -6   5   0 1694.50  207.90   1
   6   5   1  707.60  210.90   1
  -6  -5  -1  687.30  210.90   1
  -6   5  -1  454.70  210.20   1
   6  -5   1  257.70  209.80   1
  -6  -5   1  678.40  211.70   1
   6   5  -1  646.40  211.40   1
   6   5   2 1420.70  455.60   1
  -6  -5  -2 1275.00  454.90   1
  -6   5  -2 1626.60  455.10   1
   6  -5   2 1291.50  454.20   1
  -6  -5   2  871.00  453.90   1
   6   5  -2  719.70  453.60   1
   6   5   3  302.40   79.90   1
  -6  -5  -3  129.70   79.00   1
  -6   5  -3  161.90   78.80   1
   6  -5   3  359.10   79.70   1
  -6  -5   3   44.30   79.60   1
   6   5  -3   70.00   79.30   1
   6   5   4  114.00   95.80   1
  -6  -5  -4  167.80   96.00   1
  -6   5  -4  188.60   95.60   1
   6  -5   4  117.10   94.80   1
  -6  -5   4  227.00   95.90   1
   6   5  -4  234.10   96.00   1
   6   5   5   45.20   27.30   1
  -6  -5  -5   14.90   25.20   1
  -6   5  -5  132.00   28.00   1
   6  -5   5    7.30   23.90   1
  -6  -5   5    1.00   24.10   1
   6   5  -5    5.20   24.40   1
  -6   5  -6   98.10   68.10   1
   6  -5   6   95.60   68.00   1
  -6  -5   6   88.10   68.40   1
   6   5  -6   93.00   68.60   1
  -6   5  -7  277.90  206.80   1
   6  -5   7  850.70  213.50   1
  -6  -5   7  619.90  210.40   1
   6   5  -7  850.60  214.60   1
  -6   5  -8   26.60   32.40   1
   6  -5   8   32.50   32.30   1
  -6  -5   8   24.70   32.70   1
   6   5  -8   20.80   33.10   1
  -6   5  -9   22.10   26.60   1
   6  -5   9   24.20   26.20   1
  -6  -5   9   12.40   26.50   1
   6   5  -9    8.80   26.90   1
  -6   5 -10  245.00  115.80   1
   6  -5  10  259.40  119.00   1
  -6  -5  10  150.00  112.90   1
   6   5 -10  207.90  113.90   1
  -6   5 -11  413.90  223.60   1
  -6  -5  11  419.60  219.60   1
   6   5 -11  446.80  218.60   1
  -6  -5  12  273.20  155.50   1
   6   5 -12  268.20  152.10   1
   6   5 -13   21.70   35.10   1
   6   6   0  141.00   84.00   1
  -6  -6   0  207.60   85.30   1
   6  -6   0   99.00   83.80   1
  -6   6   0  108.30   83.90   1
   6   6   1   45.60   49.90   1
  -6  -6  -1   73.60   50.00   1
  -6   6  -1  108.00   50.40   1
   6  -6   1   51.60   50.20   1
  -6  -6   1   54.50   50.50   1
   6   6  -1   34.40   50.40   1
   6   6   2   81.70   47.50   1
  -6  -6  -2   57.20   47.00   1
  -6   6  -2   56.90   45.20   1
   6  -6   2   26.60   44.90   1
  -6  -6   2   34.80   48.50   1
   6   6  -2   76.40   49.20   1
   6   6   3   92.50   75.00   1
  -6  -6  -3  175.70   75.70   1
  -6   6  -3  265.00   75.60   1
   6  -6   3  141.20   76.40   1
  -6  -6   3   77.20   75.00   1
   6   6  -3   70.40   75.00   1
   6   6   4   35.60   43.30   1
  -6  -6  -4   29.20   42.20   1
  -6   6  -4   42.80   40.90   1
   6  -6   4   57.70   42.40   1
  -6  -6   4   40.20   44.10   1
   6   6  -4   23.20   43.30   1
   6   6   5   58.90   31.50   1
  -6  -6  -5   20.30   31.40   1
  -6   6  -5   24.20   27.50   1
   6  -6   5    7.40   26.80   1
  -6  -6   5   15.80   29.00   1
   6   6  -5   13.00   28.90   1
  -6   6  -6    8.50   18.10   1
   6  -6   6    2.90   16.50   1
  -6  -6   6    6.60   16.80   1
   6   6  -6    3.00   17.10   1
  -6   6  -7  119.90   74.60   1
   6  -6   7  128.40   74.60   1
  -6  -6   7   95.10   74.80   1
   6   6  -7   94.00   75.00   1
  -6   6  -8   21.90   32.20   1
   6  -6   8   26.00   31.90   1
  -6  -6   8   23.70   32.30   1
   6   6  -8   34.80   33.20   1
  -6   6  -9   32.80   30.80   1
   6  -6   9   19.60   30.30   1
  -6  -6   9   18.00   30.90   1
   6   6  -9   24.60   31.60   1
  -6   6 -10   17.90   25.80   1
   6  -6  10    8.10   25.10   1
  -6  -6  10   13.60   25.90   1
   6   6 -10   28.80   27.30   1
  -6   6 -11   61.30   46.90   1
   6  -6  11   53.00   46.60   1
  -6  -6  11   36.80   46.30   1
   6   6 -11   51.40   47.20   1
  -6   6 -12   24.30   28.80   1
   6  -6  12   16.40   28.70   1
  -6  -6  12   11.00   28.10   1
   6   6 -12   19.80   28.90   1
  -6   6 -13   20.10   28.70   1
  -6  -6  13    9.30   27.30   1
   6   6 -13   20.00   28.50   1
  -6  -6  14   19.40   36.00   1
   6   6 -14   32.80   36.30   1
   6   7   0   67.70   48.30   1
  -6  -7   0   45.50   48.60   1
   6  -7   0   66.20   50.00   1
  -6   7   0   34.10   49.70   1
   6   7   1   19.00   37.10   1
  -6  -7  -1   17.80   36.50   1
   6  -7  -1  189.90   41.00   1
  -6   7   1    9.60   37.50   1
  -6   7  -1   39.50   37.30   1
   6  -7   1   76.30   37.50   1
  -6  -7   1   21.10   38.40   1
   6   7  -1   74.50   39.50   1
   6   7   2  241.20  138.40   1
  -6  -7  -2  209.70  138.30   1
  -6   7  -2  234.20  137.60   1
   6  -7   2  304.30  137.70   1
  -6  -7   2  219.30  138.90   1
   6   7  -2  455.60  139.70   1
   6   7   3   25.40   44.00   1
  -6  -7  -3   62.10   44.50   1
  -6   7  -3   42.60   42.30   1
   6  -7   3   26.30   42.40   1
  -6  -7   3  303.10   50.80   1
   6   7  -3   98.80   47.70   1
   6   7   4   51.70   64.60   1
  -6  -7  -4   78.90   64.40   1
  -6   7  -4  114.00   63.60   1
   6  -7   4   70.00   63.40   1
  -6  -7   4   93.70   64.40   1
   6   7  -4  110.70   64.80   1
   6   7   5   29.40   53.10   1
  -6  -7  -5   30.40   52.30   1
  -6   7  -5   68.00   51.80   1
   6  -7   5   80.90   51.60   1
  -6  -7   5   53.20   52.70   1
   6   7  -5   72.30   52.70   1
   6   7   6  397.70  229.10   1
  -6  -7   6  471.60  228.50   1
   6   7  -6  507.30  228.80   1
  -6   7  -7   49.60   45.80   1
   6  -7   7   43.10   45.40   1
  -6  -7   7   42.30   45.50   1
   6   7  -7   53.10   45.80   1
  -6   7  -8  232.90   90.90   1
   6  -7   8  130.40   90.00   1
  -6  -7   8  116.60   90.20   1
   6   7  -8  136.60   90.60   1
  -6   7  -9   73.00   59.70   1
   6  -7   9   81.70   59.60   1
  -6  -7   9   62.00   59.90   1
   6   7  -9   92.10   60.70   1
  -6   7 -10   34.60   48.00   1
   6  -7  10   55.50   48.30   1
  -6  -7  10  113.30   50.00   1
   6   7 -10   73.30   49.30   1
  -6   7 -11   16.90   22.00   1
   6  -7  11    5.40   20.80   1
  -6  -7  11    9.60   22.00   1
   6   7 -11   13.50   22.50   1
  -6   7 -12   28.30   37.60   1
   6  -7  12   47.50   38.00   1
  -6  -7  12   33.30   37.70   1
   6   7 -12   31.00   38.50   1
  -6   7 -13    7.60   18.90   1
   6  -7  13   12.00   18.60   1
  -6  -7  13    0.00   18.60   1
   6   7 -13    2.80   19.70   1
   6  -7  14  199.20   70.60   1
  -6  -7  14   47.50   53.00   1
   6   7 -14   64.10   53.80   1
   6   8   0  286.90  161.60   1
  -6  -8   0  281.20  161.70   1
   6  -8   0  342.20  162.50   1
  -6   8   0  464.60  163.00   1
   6   8   1   17.10   37.00   1
  -6  -8  -1   36.80   37.30   1
   6  -8  -1   54.30   41.90   1
  -6   8   1   43.20   40.70   1
  -6   8  -1   47.30   38.20   1
   6  -8   1   43.20   38.40   1
  -6  -8   1   16.40   39.30   1
   6   8  -1   27.10   40.80   1
   6   8   2   27.70   43.40   1
  -6  -8  -2   72.20   44.20   1
  -6   8  -2   50.60   42.70   1
   6  -8   2   38.60   42.30   1
  -6  -8   2   37.70   43.00   1
   6   8  -2   33.00   42.90   1
   6   8   3  212.00  152.50   1
  -6  -8  -3  603.60  154.50   1
  -6   8  -3  550.00  152.50   1
   6  -8   3  525.20  152.40   1
  -6  -8   3  182.80  153.80   1
   6   8  -3  218.50  153.60   1
   6   8   4  187.90   82.20   1
  -6  -8  -4  180.60   82.50   1
  -6   8  -4   91.10   81.50   1
   6  -8   4  228.00   82.20   1
  -6  -8   4  103.10   82.30   1
   6   8  -4   73.30   82.00   1
   6   8   5  162.90   98.20   1
  -6  -8  -5  156.80   98.20   1
  -6   8  -5  162.90   97.10   1
   6  -8   5  233.90   98.50   1
  -6  -8   5  141.90   97.60   1
   6   8  -5  119.30   97.30   1
   6   8   6   58.20   64.50   1
  -6  -8  -6   72.30   65.20   1
  -6   8  -6   93.70   63.80   1
   6  -8   6   51.10   63.00   1
  -6  -8   6  176.40   65.70   1
   6   8  -6  195.90   67.50   1
  -6   8  -7 2344.80  915.80   1
   6  -8   7 1888.30  914.60   1
  -6  -8   7 2298.40  916.50   1
   6   8  -7 2187.30  916.20   1
  -6   8  -8  164.10   74.00   1
   6  -8   8  122.70   73.10   1
  -6  -8   8   68.10   72.70   1
   6   8  -8   99.60   73.30   1
  -6   8  -9  787.90  385.20   1
   6  -8   9  704.60  385.20   1
  -6  -8   9 1249.20  392.30   1
   6   8  -9 1122.10  390.30   1
  -6   8 -10  102.80   65.10   1
   6  -8  10   75.00   64.70   1
  -6  -8  10   72.80   65.00   1
   6   8 -10  101.50   65.90   1
  -6   8 -11  244.30  140.90   1
   6  -8  11  235.30  140.80   1
  -6  -8  11  255.80  141.50   1
   6   8 -11  310.60  142.80   1
  -6   8 -12   27.60   23.60   1
   6  -8  12    3.40   22.20   1
  -6  -8  12   12.40   22.80   1
   6   8 -12   20.90   23.80   1
  -6   8 -13  113.20   78.10   1
   6  -8  13  157.40   79.70   1
  -6  -8  13   86.80   77.70   1
   6   8 -13  128.80   79.00   1
   6  -8  14   20.00   32.10   1
  -6  -8  14   26.10   32.70   1
   6   8 -14   26.00   33.10   1
   6   9   0   23.30   38.90   1
  -6  -9   0   24.50   38.80   1
   6  -9   0   51.40   40.60   1
  -6   9   0   91.40   41.00   1
   6   9   1    3.70   24.30   1
  -6  -9  -1   21.20   25.30   1
   6  -9  -1    1.90   27.50   1
  -6   9   1   -0.00   26.60   1
  -6   9  -1   20.50   25.10   1
   6  -9   1   19.30   25.20   1
  -6  -9   1   20.20   34.80   1
   6   9  -1   26.30   32.80   1
   6   9   2   16.80   41.00   1
  -6  -9  -2    5.00   40.70   1
   6  -9  -2  112.60   42.10   1
  -6   9   2   21.50   40.50   1
  -6   9  -2   26.30   40.00   1
   6  -9   2    9.70   39.90   1
  -6  -9   2  156.60   42.40   1
   6   9  -2  145.90   42.30   1
   6   9   3    8.20   26.20   1
  -6  -9  -3    1.70   26.20   1
  -6   9  -3   21.40   24.00   1
   6  -9   3    4.00   23.10   1
  -6  -9   3   27.20   31.00   1
   6   9  -3   61.80   31.40   1
   6   9   4   53.90   58.60   1
  -6  -9  -4   68.20   58.90   1
  -6   9  -4  120.60   62.10   1
   6  -9   4  186.80   61.50   1
  -6  -9   4   38.20   60.70   1
   6   9  -4   58.10   61.70   1
   6   9   5   22.20   39.50   1
  -6  -9  -5   18.50   39.00   1
  -6   9  -5   26.00   35.30   1
   6  -9   5   47.80   36.20   1
  -6  -9   5   25.50   37.30   1
   6   9  -5   27.00   36.90   1
   6   9   6   22.10   36.70   1
  -6  -9  -6   44.10   37.90   1
  -6   9  -6    4.50   33.80   1
   6  -9   6   20.90   34.60   1
  -6  -9   6   33.30   35.70   1
   6   9  -6   18.20   34.00   1
   6   9   7    6.90   34.10   1
  -6  -9  -7   21.50   34.60   1
  -6   9  -7   53.90   33.70   1
   6  -9   7   36.90   32.90   1
  -6  -9   7   11.50   34.50   1
   6   9  -7    9.40   34.50   1
  -6   9  -8   17.90   44.50   1
   6  -9   8   23.10   44.10   1
  -6  -9   8   54.40   43.30   1
   6   9  -8   68.70   43.90   1
  -6   9  -9   13.00   29.10   1
   6  -9   9   15.50   28.40   1
  -6  -9   9   15.80   27.70   1
   6   9  -9   19.10   28.90   1
  -6   9 -10   60.40   33.20   1
   6  -9  10   19.70   30.70   1
  -6  -9  10   19.70   31.10   1
   6   9 -10    7.90   31.90   1
  -6   9 -11    7.30   21.80   1
   6  -9  11    5.70   21.00   1
  -6  -9  11   20.30   22.60   1
   6   9 -11   16.20   23.60   1
  -6   9 -12   18.20   24.60   1
   6  -9  12    7.10   23.40   1
  -6  -9  12   24.60   24.70   1
   6   9 -12   11.90   25.10   1
  -6   9 -13   -0.00   16.20   1
   6  -9  13    5.10   15.10   1
  -6  -9  13    8.50   17.00   1
   6   9 -13    4.90   18.10   1
   6  -9  14    0.90   13.50   1
  -6  -9  14    1.10   14.90   1
   6   9 -14    7.60   16.10   1
   6  10   0  435.80  183.50   1
  -6 -10   0  500.10  183.70   1
   6 -10   0  284.30  183.60   1
  -6  10   0  325.60  183.70   1
   6  10   1  100.30   53.50   1
  -6 -10  -1   48.10   52.60   1
   6 -10  -1   -0.00   53.70   1
  -6  10   1   38.80   54.60   1
  -6  10  -1   35.80   53.00   1
   6 -10   1  142.30   54.30   1
  -6 -10   1  134.60   57.70   1
   6  10  -1  133.20   54.90   1
   6  10   2   21.70   37.70   1
  -6 -10  -2   38.40   38.20   1
   6 -10  -2   43.80   39.50   1
  -6  10   2   25.30   38.60   1
  -6  10  -2   22.70   35.50   1
   6 -10   2   16.80   35.40   1
  -6 -10   2   34.70   38.20   1
   6  10  -2   45.60   38.00   1
   6  10   3   24.40   42.40   1
  -6 -10  -3   21.10   43.00   1
   6 -10  -3   19.20   42.20   1
  -6  10  -3   68.80   41.00   1
   6 -10   3  194.50   42.20   1
  -6 -10   3   22.30   42.30   1
   6  10  -3   23.00   41.50   1
   6  10   4  180.00   79.40   1
  -6 -10  -4  124.00   79.00   1
  -6  10  -4  247.00   79.20   1
   6 -10   4   66.00   79.90   1
  -6 -10   4   79.70   80.70   1
   6  10  -4   67.00   80.40   1
   6  10   5   48.40   48.30   1
  -6 -10  -5   36.60   47.40   1
  -6  10  -5   46.60   45.70   1
   6 -10   5   31.50   45.30   1
   6  10  -5  310.50   54.40   1
   6  10   6   42.40   44.90   1
  -6 -10  -6   17.90   44.30   1
  -6  10  -6   46.80   42.60   1
   6 -10   6   65.70   44.60   1
  -6 -10   6   33.70   42.30   1
   6  10  -6   25.90   41.60   1
   6  10   7  241.30   85.80   1
  -6 -10  -7  204.10   86.00   1
  -6  10  -7   89.00   84.90   1
   6 -10   7   75.40   83.50   1
  -6 -10   7  211.90   87.20   1
   6  10  -7  172.50   86.20   1
  -6 -10  -8   24.00   34.20   1
  -6  10  -8   25.60   31.20   1
   6 -10   8   15.10   31.60   1
  -6 -10   8   18.60   33.80   1
   6  10  -8   15.50   34.50   1
  -6  10  -9  399.00  183.10   1
   6 -10   9  292.70  181.20   1
  -6 -10   9  415.50  181.60   1
   6  10  -9  352.60  181.30   1
  -6  10 -10  200.70  111.40   1
   6 -10  10  208.20  111.00   1
  -6 -10  10  150.20  110.30   1
   6  10 -10  193.60  111.00   1
  -6  10 -11   24.40   25.60   1
   6 -10  11   11.30   23.90   1
  -6 -10  11    7.80   24.20   1
   6  10 -11    8.50   25.60   1
  -6  10 -12   37.20   36.50   1
   6 -10  12   31.90   35.80   1
  -6 -10  12   24.90   36.10   1
   6  10 -12   27.90   36.90   1
   6 -10  13   15.90   25.40   1
  -6 -10  13   11.90   26.30   1
   6  10 -13   19.10   27.00   1
   6  11   0  151.80   42.70   1
  -6 -11   0   47.60   41.70   1
   6 -11   0   17.80   42.10   1
  -6  11   0   14.30   41.80   1
   6  11   1   60.10   47.20   1
  -6 -11  -1   25.30   46.10   1
   6 -11  -1   48.80   48.60   1
  -6  11   1   50.20   49.50   1
  -6  11  -1   31.40   47.20   1
   6 -11   1  105.00   48.70   1
  -6 -11   1   48.70   47.10   1
   6  11  -1   53.20   46.60   1
   6  11   2   69.70   49.30   1
  -6 -11  -2   52.20   48.60   1
   6 -11  -2   30.30   49.50   1
  -6  11   2   39.90   49.40   1
  -6  11  -2   34.60   47.50   1
   6 -11   2   46.50   47.50   1
  -6 -11   2   80.70   50.00   1
   6  11  -2   50.00   48.70   1
   6  11   3   18.90   35.10   1
  -6 -11  -3   23.50   35.70   1
   6 -11  -3   -0.10   34.60   1
  -6  11   3    3.90   34.10   1
  -6  11  -3   25.80   32.40   1
   6 -11   3   59.20   33.10   1
  -6 -11   3   38.10   34.80   1
   6  11  -3   22.60   33.90   1
   6  11   4   23.90   42.20   1
  -6 -11  -4   16.80   42.70   1
  -6  11  -4   21.70   39.90   1
   6 -11   4   42.70   41.60   1
  -6 -11   4  164.00   49.30   1
   6  11  -4  183.20   47.10   1
   6  11   5   39.40   36.70   1
  -6 -11  -5    9.50   36.10   1
  -6  11  -5   25.80   34.60   1
   6 -11   5   33.80   35.70   1
  -6 -11   5   28.80   42.20   1
   6  11  -5   14.40   41.10   1
   6  11   6   33.40   52.10   1
  -6 -11  -6   60.60   54.50   1
  -6  11  -6   62.00   50.30   1
   6 -11   6   80.70   51.90   1
  -6 -11   6   49.50   52.60   1
   6  11  -6   39.70   52.30   1
   6  11   7    2.00   42.80   1
  -6 -11  -7   12.50   43.70   1
  -6  11  -7   48.00   42.40   1
   6 -11   7   79.70   44.40   1
  -6 -11   7   29.20   40.90   1
   6  11  -7   27.90   39.70   1
   6  11   8  103.50   68.40   1
  -6 -11  -8  113.40   68.20   1
  -6  11  -8   54.90   66.90   1
   6 -11   8   99.40   67.20   1
  -6 -11   8   85.20   70.80   1
   6  11  -8  110.00   70.70   1
  -6  11  -9    8.20   26.40   1
   6 -11   9    3.50   28.60   1
  -6 -11   9   21.00   28.50   1
   6  11  -9   14.70   29.10   1
  -6  11 -10  133.50   46.00   1
   6 -11  10   11.00   37.00   1
  -6 -11  10   26.40   37.80   1
   6  11 -10   28.70   38.40   1
  -6  11 -11   17.00   28.30   1
   6 -11  11   24.70   28.00   1
  -6 -11  11    8.10   27.00   1
   6  11 -11   14.20   28.50   1
  -6  11 -12   -0.00   22.80   1
   6 -11  12   11.20   21.80   1
  -6 -11  12   12.20   22.20   1
   6  11 -12   13.70   23.60   1
   6 -11  13   13.40   27.20   1
  -6 -11  13   15.60   28.00   1
   6  11 -13   45.00   30.40   1
   6  12   0  108.40   73.90   1
  -6 -12   0  139.80   74.20   1
   6 -12   0   72.30   74.60   1
  -6  12   0  109.80   75.20   1
   6  12   1  304.60   82.40   1
  -6 -12  -1  150.80   81.00   1
   6 -12  -1  113.10   81.80   1
  -6  12   1  118.80   82.40   1
  -6  12  -1  148.80   81.60   1
   6 -12   1  138.00   81.80   1
  -6 -12   1   64.30   80.20   1
   6  12  -1  120.30   80.10   1
   6  12   2  165.10   69.70   1
  -6 -12  -2  123.10   69.10   1
   6 -12  -2   81.40   68.80   1
  -6  12   2   72.50   68.00   1
  -6  12  -2  109.30   67.80   1
   6 -12   2  122.20   68.20   1
  -6 -12   2   36.00   68.60   1
   6  12  -2   51.60   71.30   1
   6  12   3   19.40   34.40   1
  -6 -12  -3   42.40   35.00   1
   6 -12  -3   15.50   35.40   1
  -6  12   3   23.40   33.60   1
  -6  12  -3   22.00   29.70   1
   6 -12   3   12.20   29.40   1
  -6 -12   3   21.60   32.70   1
   6  12  -3   15.20   32.70   1
   6  12   4   30.20   44.70   1
  -6 -12  -4   60.30   45.80   1
   6 -12  -4   38.70   45.70   1
  -6  12  -4   50.20   43.00   1
   6 -12   4   36.70   43.10   1
  -6 -12   4   37.50   46.20   1
   6  12  -4   36.10   44.30   1
   6  12   5   52.20   42.90   1
  -6 -12  -5   88.80   43.50   1
  -6  12  -5   77.60   45.30   1
   6 -12   5   -0.00   39.80   1
  -6 -12   5   25.90   45.70   1
   6  12  -5   26.00   44.40   1
   6  12   6   23.20   36.30   1
  -6 -12  -6   27.30   38.10   1
  -6  12  -6   15.90   31.10   1
   6 -12   6   26.50   30.30   1
  -6 -12   6   10.30   37.20   1
   6  12  -6   -0.00   37.30   1
   6  12   7  651.10  197.30   1
  -6 -12  -7  637.60  196.50   1
  -6  12  -7  263.90  191.00   1
   6 -12   7  345.10  192.80   1
  -6 -12   7  692.90  195.00   1
   6  12  -7  481.70  192.90   1
   6  12   8   20.00   41.60   1
  -6 -12  -8    8.70   43.20   1
  -6  12  -8  118.00   46.40   1
   6 -12   8   80.70   43.90   1
  -6 -12   8   -0.00   40.70   1
   6  12  -8   31.60   41.00   1
  -6 -12  -9   27.10   40.50   1
  -6  12  -9   34.50   37.50   1
   6 -12   9   19.20   36.80   1
  -6 -12   9   40.10   42.50   1
   6  12  -9   23.80   42.50   1
  -6  12 -10   14.10   23.00   1
   6 -12  10    2.90   26.70   1
  -6 -12  10   -0.00   24.40   1
   6  12 -10    3.10   24.30   1
  -6  12 -11  102.00   57.70   1
   6 -12  11   29.60   51.60   1
  -6 -12  11   90.40   53.80   1
   6  12 -11   73.10   53.90   1
   6 -12  12   12.90   24.50   1
  -6 -12  12    9.30   24.20   1
   6  12 -12    8.50   24.70   1
   6 -12  13   -0.00   14.90   1
  -6 -12  13    5.20   15.30   1
   6  12 -13   -0.00   18.70   1
   6  13   0  688.30  277.10   1
  -6 -13   0  845.60  277.90   1
   6 -13   0  521.10  277.10   1
  -6  13   0  477.40  276.80   1
   6  13   1   41.40   54.80   1
  -6 -13  -1   63.50   54.70   1
   6 -13  -1   36.70   55.20   1
  -6  13   1   39.00   54.90   1
  -6  13  -1   58.40   55.90   1
   6 -13   1   26.30   55.00   1
  -6 -13   1  277.40   55.60   1
   6  13  -1  140.10   54.40   1
   6  13   2 1736.40  612.00   1
  -6 -13  -2 1702.00  611.80   1
   6 -13  -2 2201.00  616.00   1
  -6  13   2 1881.70  614.30   1
  -6  13  -2 1664.90  611.60   1
   6 -13   2 1952.60  612.70   1
  -6 -13   2 1131.90  611.40   1
   6  13  -2  943.40  609.60   1
   6  13   3  209.60  125.40   1
  -6 -13  -3  161.40  125.30   1
   6 -13  -3  147.70  126.70   1
  -6  13   3  165.20  126.60   1
  -6  13  -3  221.20  124.00   1
   6 -13   3  309.10  124.30   1
  -6 -13   3  295.10  126.30   1
   6  13  -3  311.10  125.80   1
   6  13   4  410.70  124.70   1
  -6 -13  -4  286.40  123.20   1
   6 -13  -4  250.60  123.70   1
  -6  13   4  359.30  125.60   1
  -6  13  -4  215.90  121.40   1
   6 -13   4  162.20  121.10   1
  -6 -13   4  214.90  122.40   1
   6  13  -4  190.10  122.10   1
   6  13   5  158.50   84.50   1
  -6 -13  -5   65.20   83.30   1
  -6  13  -5  100.30   85.40   1
   6 -13   5  128.10   87.30   1
  -6 -13   5  773.70   99.50   1
   6  13  -5  638.00   93.60   1
   6  13   6  368.70  138.70   1
  -6 -13  -6  247.10  137.00   1
  -6  13  -6  331.20  136.70   1
   6 -13   6  288.20  135.90   1
  -6 -13   6  464.80  143.20   1
   6  13  -6  121.40  136.90   1
   6  13   7  300.10  152.80   1
  -6 -13  -7  233.00  151.80   1
  -6  13  -7  306.30  150.40   1
   6 -13   7  480.60  152.70   1
  -6 -13   7  360.80  152.70   1
   6  13  -7  192.00  151.10   1
   6  13   8   49.90   46.20   1
  -6 -13  -8   79.30   49.90   1
  -6  13  -8  150.60   50.30   1
   6 -13   8   37.40   46.60   1
  -6 -13   8    7.40   43.50   1
   6  13  -8   17.40   43.10   1
   6  13   9    2.70   27.70   1
  -6 -13  -9    4.90   28.70   1
  -6  13  -9   41.90   30.50   1
   6 -13   9   11.20   27.50   1
  -6 -13   9    4.80   33.30   1
   6  13  -9   -0.00   29.70   1
  -6  13 -10   57.00   63.90   1
   6 -13  10   95.90   65.20   1
  -6 -13  10   84.30   66.70   1
   6  13 -10  113.90   69.30   1
  -6  13 -11   68.40   55.60   1
   6 -13  11   46.60   55.40   1
  -6 -13  11   45.40   54.70   1
   6  13 -11   98.70   56.90   1
   6 -13  12   12.50   34.30   1
  -6 -13  12   31.80   35.90   1
   6  13 -12   41.40   37.50   1
   6  14   0   58.90   46.40   1
  -6 -14   0   45.20   46.90   1
   6 -14   0   42.80   48.90   1
  -6  14   0   35.30   48.10   1
   6  14   1    6.50   25.70   1
  -6 -14  -1    5.30   24.00   1
   6 -14  -1    6.30   25.30   1
  -6  14   1   13.00   26.80   1
  -6  14  -1    7.40   25.80   1
   6 -14   1   19.00   26.40   1
  -6 -14   1   13.60   22.50   1
   6  14  -1    1.50   22.40   1
   6  14   2   73.30   61.10   1
  -6 -14  -2   60.70   60.50   1
   6 -14  -2   65.70   60.70   1
  -6  14   2   12.80   60.70   1
  -6  14  -2  119.10   60.80   1
   6 -14   2   62.00   59.50   1
  -6 -14   2  165.60   66.50   1
   6  14  -2   79.90   60.20   1
   6  14   3   60.20   43.60   1
  -6 -14  -3  108.10   45.90   1
   6 -14  -3    9.80   43.30   1
  -6  14   3   13.00   42.90   1
  -6  14  -3   74.90   40.30   1
   6 -14   3   25.10   38.80   1
  -6 -14   3   41.90   42.40   1
   6  14  -3   -0.00   40.60   1
   6  14   4    0.70   30.40   1
  -6 -14  -4    3.90   30.90   1
   6 -14  -4   14.80   35.10   1
  -6  14   4   10.90   31.40   1
  -6  14  -4   19.20   27.20   1
   6 -14   4   16.70   26.60   1
  -6 -14   4   19.90   29.00   1
   6  14  -4   12.40   29.20   1
   6  14   5   64.90   58.80   1
  -6 -14  -5   93.70   59.90   1
   6 -14  -5  105.30   60.80   1
  -6  14  -5   69.00   58.20   1
   6 -14   5   54.50   61.50   1
  -6 -14   5   64.20   60.00   1
   6  14  -5   48.50   57.70   1
   6  14   6   40.20   45.90   1
  -6 -14  -6   54.60   47.30   1
  -6  14  -6   32.10   42.60   1
   6 -14   6   93.30   45.50   1
  -6 -14   6    4.40   49.00   1
   6  14  -6   -0.00   48.70   1
   6  14   7  112.80   75.50   1
  -6 -14  -7   86.30   74.60   1
  -6  14  -7  109.30   70.50   1
   6 -14   7   64.20   70.30   1
  -6 -14   7  139.70   76.40   1
   6  14  -7  112.30   76.50   1
   6  14   8   28.80   40.90   1
  -6 -14  -8   26.60   39.90   1
  -6  14  -8   17.60   35.60   1
   6 -14   8   32.20   39.30   1
  -6 -14   8   16.60   34.50   1
   6  14  -8   12.90   34.90   1
   6  14   9   39.00   45.80   1
  -6 -14  -9   40.20   47.00   1
  -6  14  -9   34.20   47.10   1
   6 -14   9   54.00   46.70   1
  -6 -14   9   32.40   45.30   1
   6  14  -9   37.80   44.90   1
  -6 -14 -10   36.10   29.70   1
  -6  14 -10    8.70   26.40   1
   6 -14  10   10.50   27.40   1
  -6 -14  10    0.00   32.90   1
   6  14 -10    2.00   28.80   1
   6 -14  11   -0.00   20.10   1
  -6 -14  11   -0.00   23.70   1
   6  14 -11    7.20   29.60   1
   6 -14  12    3.30   28.00   1
  -6 -14  12    7.30   23.10   1
   6  14 -12    5.10   25.50   1
   6  15   0  100.80   81.20   1
  -6 -15   0  147.20   81.70   1
   6 -15   0  119.90   82.80   1
  -6  15   0  118.10   82.80   1
   6  15   1   26.10   40.10   1
  -6 -15  -1   11.60   38.80   1
   6 -15  -1   79.10   43.50   1
  -6  15  -1   35.20   41.50   1
   6 -15   1   32.50   41.30   1
  -6 -15   1   25.30   38.30   1
   6  15  -1   45.00   38.90   1
   6  15   2   34.80   44.10   1
  -6 -15  -2   25.70   44.10   1
   6 -15  -2  244.50   47.90   1
  -6  15  -2   34.30   42.80   1
   6 -15   2   20.80   41.80   1
  -6 -15   2   31.10   43.20   1
   6  15  -2   28.60   40.80   1
   6  15   3   38.90   40.80   1
  -6 -15  -3   46.60   42.10   1
   6 -15  -3   38.10   42.50   1
  -6  15   3   16.60   40.30   1
  -6  15  -3   28.30   37.20   1
   6 -15   3   33.00   37.10   1
  -6 -15   3   14.10   40.60   1
   6  15  -3   16.70   43.00   1
   6  15   4  217.10   68.60   1
  -6 -15  -4   60.90   66.30   1
   6 -15  -4   97.60   71.50   1
  -6  15   4   78.50   69.40   1
  -6  15  -4   81.00   64.20   1
   6 -15   4   93.50   63.90   1
  -6 -15   4   69.70   65.80   1
   6  15  -4   57.90   66.40   1
   6  15   5  121.50   67.00   1
  -6 -15  -5   94.00   66.10   1
   6 -15  -5   39.30   64.70   1
  -6  15   5   60.30   65.10   1
  -6  15  -5   73.30   63.10   1
   6 -15   5  110.60   65.40   1
  -6 -15   5   96.60   63.90   1
   6  15  -5   70.10   63.90   1
   6  15   6   41.00   44.00   1
  -6 -15  -6   79.30   46.10   1
  -6  15  -6   -0.00   42.60   1
   6 -15   6   31.80   40.70   1
  -6 -15   6   45.50   49.00   1
   6  15  -6   34.40   43.50   1
   6  15   7   37.30   55.80   1
  -6 -15  -7   19.70   55.20   1
  -6  15  -7  120.60   52.60   1
   6 -15   7  186.70   53.70   1
  -6 -15   7   23.30   58.90   1
   6  15  -7    4.00   55.50   1
   6  15   8   17.30   43.10   1
  -6 -15  -8  189.70   50.60   1
  -6  15  -8   32.70   37.50   1
   6 -15   8   35.60   42.20   1
  -6 -15   8    9.10   41.30   1
   6  15  -8   22.40   43.40   1
   6  15   9   44.60   54.20   1
  -6 -15  -9   96.70   58.10   1
  -6  15  -9   48.10   53.40   1
   6 -15   9   83.80   56.30   1
  -6 -15   9   41.40   52.90   1
   6  15  -9   46.20   52.80   1
   6  15  10   42.10   36.70   1
  -6 -15 -10   37.10   36.40   1
  -6  15 -10   -0.00   38.10   1
   6 -15  10    6.80   35.30   1
  -6 -15  10    6.30   34.50   1
   6  15 -10   39.20   34.90   1
   6 -15  11   27.20   33.70   1
  -6 -15  11   26.30   40.90   1
   6  15 -11    4.40   38.10   1
   6  16   0  386.00  189.40   1
  -6 -16   0  361.90  189.30   1
   6 -16   0  348.80  190.50   1
  -6  16   0  405.40  190.60   1
   6  16   1  247.90  107.00   1
  -6 -16  -1  205.80  106.10   1
   6 -16  -1  139.30  105.60   1
  -6  16   1   97.60  105.50   1
  -6  16  -1  189.70  106.70   1
   6 -16   1  157.30  107.20   1
  -6 -16   1  242.40  105.40   1
   6  16  -1  222.70  105.10   1
   6  16   2   88.80   65.80   1
  -6 -16  -2   45.00   65.60   1
   6 -16  -2   80.30   66.10   1
  -6  16   2   90.40   65.50   1
  -6  16  -2   82.10   64.20   1
   6 -16   2   96.80   64.40   1
  -6 -16   2   88.60   63.20   1
   6  16  -2   66.90   62.30   1
   6  16   3  300.10  138.90   1
  -6 -16  -3  312.90  139.20   1
   6 -16  -3  437.50  141.40   1
  -6  16   3  320.20  139.90   1
  -6  16  -3  299.60  137.20   1
   6 -16   3  245.90  136.80   1
  -6 -16   3  151.40  140.70   1
   6  16  -3  166.50  140.80   1
   6  16   4   71.90   46.90   1
  -6 -16  -4   82.20   47.80   1
   6 -16  -4   24.00   50.10   1
  -6  16   4   32.60   50.30   1
  -6  16  -4   41.80   42.90   1
   6 -16   4   -0.10   42.10   1
  -6 -16   4   97.20   47.80   1
   6  16  -4  100.70   48.90   1
   6  16   5   48.40   60.00   1
  -6 -16  -5   66.70   60.70   1
   6 -16  -5  103.30   64.50   1
  -6  16   5  157.50   63.80   1
  -6  16  -5   37.10   57.90   1
   6 -16   5  142.50   60.20   1
  -6 -16   5   95.50   60.20   1
   6  16  -5   73.50   59.40   1
   6  16   6   -0.00   32.30   1
  -6 -16  -6    4.10   31.40   1
   6 -16  -6   24.00   31.60   1
  -6  16   6    5.20   31.30   1
  -6  16  -6    9.50   36.10   1
   6 -16   6   53.50   33.80   1
  -6 -16   6   21.30   34.10   1
   6  16  -6   12.90   31.00   1
   6  16   7  169.40   65.50   1
  -6 -16  -7  127.30   64.40   1
  -6  16  -7   94.90   60.60   1
   6 -16   7   75.90   59.40   1
  -6 -16   7   22.10   62.90   1
   6  16  -7   25.80   62.70   1
   6  16   8   15.90   42.70   1
  -6 -16  -8    5.30   43.60   1
  -6  16  -8   30.60   37.80   1
   6 -16   8   36.00   39.60   1
  -6 -16   8   53.20   46.80   1
   6  16  -8   88.10   48.80   1
   6  16   9   38.70   44.80   1
  -6 -16  -9  119.10   49.90   1
  -6  16  -9   19.80   39.30   1
   6 -16   9   42.80   43.60   1
  -6 -16   9   23.50   40.70   1
   6  16  -9    5.40   39.80   1
   6  16  10    7.60   32.40   1
  -6 -16 -10    3.50   34.90   1
   6 -16  10   43.40   36.30   1
  -6 -16  10   13.70   32.60   1
   6  16 -10   11.00   30.40   1
   6  17   0   17.90   42.00   1
  -6 -17   0   32.90   42.60   1
   6 -17   0   37.70   44.00   1
  -6  17   0  103.40   45.60   1
   6  17   1   58.40   40.20   1
  -6 -17  -1   45.20   39.00   1
   6 -17  -1    9.80   38.00   1
  -6  17   1   34.60   39.90   1
  -6  17  -1   21.80   38.50   1
   6 -17   1   48.40   40.40   1
  -6 -17   1   13.10   36.30   1
   6  17  -1   19.90   37.10   1
   6  17   2   36.10   56.10   1
  -6 -17  -2   46.90   56.70   1
   6 -17  -2   98.20   57.30   1
  -6  17   2   59.90   56.00   1
  -6  17  -2   59.20   56.30   1
   6 -17   2   43.20   55.30   1
  -6 -17   2   60.00   53.40   1
   6  17  -2   78.30   53.60   1
   6  17   3   11.50   31.60   1
  -6 -17  -3   -0.00   31.80   1
   6 -17  -3    9.00   33.70   1
  -6  17   3    4.70   33.80   1
  -6  17  -3   15.10   28.00   1
   6 -17   3    6.70   27.00   1
  -6 -17   3   40.10   43.60   1
   6  17  -3   53.10   37.00   1
   6  17   4   31.30   38.20   1
  -6 -17  -4   17.50   38.20   1
   6 -17  -4   18.50   41.40   1
  -6  17   4   11.60   39.50   1
   6 -17   4   89.00   36.00   1
  -6 -17   4   15.50   38.60   1
   6  17  -4   -0.00   36.60   1
   6  17   5    6.00   28.40   1
  -6 -17  -5    3.80   28.40   1
   6 -17  -5   -0.20   35.70   1
  -6  17   5    1.60   32.50   1
  -6  17  -5    2.00   23.20   1
   6 -17   5   26.30   24.10   1
  -6 -17   5    5.60   26.30   1
   6  17  -5   12.90   24.80   1
   6  17   6   26.40   43.00   1
  -6 -17  -6   32.80   43.40   1
   6 -17  -6   24.40   43.50   1
  -6  17   6   80.00   45.40   1
  -6  17  -6   30.10   42.80   1
   6 -17   6   67.10   48.50   1
  -6 -17   6   36.90   42.00   1
   6  17  -6   23.50   39.70   1
   6  17   7   39.50   37.80   1
  -6 -17  -7    2.00   35.20   1
   6 -17  -7    8.10   35.80   1
  -6  17  -7   14.40   31.10   1
   6 -17   7   16.90   31.60   1
  -6 -17   7   19.00   41.30   1
   6  17  -7   27.10   36.70   1
   6  17   8   15.70   34.00   1
  -6 -17  -8   21.90   37.90   1
  -6  17  -8    9.60   26.00   1
   6 -17   8    4.60   26.20   1
  -6 -17   8   58.10   42.10   1
   6  17  -8   17.50   35.00   1
   6  17   9   21.90   42.40   1
  -6 -17  -9   12.50   42.70   1
   6 -17   9   14.80   37.30   1
  -6 -17   9   37.90   41.10   1
   6  17  -9   25.10   41.40   1
   6  17  10   -0.00   37.10   1
  -6 -17 -10   -0.00   42.10   1
   6 -17  10   10.00   37.50   1
  -6 -17  10   37.80   37.10   1
   6  17 -10   52.20   38.30   1
   6  18   0   66.80   66.50   1
  -6 -18   0  113.50   67.10   1
   6 -18   0   90.70   68.80   1
  -6  18   0   84.50   68.20   1
   6  18   1    9.90   41.00   1
  -6 -18  -1   15.50   40.80   1
   6 -18  -1   38.70   41.20   1
  -6  18   1   23.20   41.30   1
  -6  18  -1   18.30   41.20   1
   6 -18   1   29.50   42.30   1
  -6 -18   1   52.70   40.30   1
   6  18  -1   75.50   40.20   1
   6  18   2   -0.00   36.20   1
  -6 -18  -2   15.00   37.30   1
   6 -18  -2    0.00   34.40   1
  -6  18   2   19.40   36.50   1
  -6  18  -2   19.40   36.30   1
   6 -18   2    7.40   35.00   1
  -6 -18   2   40.30   32.60   1
   6  18  -2   49.80   33.20   1
   6  18   3   29.00   44.80   1
  -6 -18  -3    3.20   45.10   1
   6 -18  -3    1.10   43.80   1
  -6  18   3   14.10   44.70   1
  -6  18  -3   28.00   41.40   1
   6 -18   3   54.20   41.50   1
  -6 -18   3  190.60   55.70   1
   6  18  -3  124.40   46.40   1
   6  18   4    3.80   28.10   1
  -6 -18  -4    2.00   29.70   1
   6 -18  -4   -0.00   33.60   1
  -6  18   4    6.50   31.20   1
  -6  18  -4   55.90   27.30   1
   6 -18   4    1.90   25.30   1
  -6 -18   4    0.80   28.30   1
   6  18  -4   14.10   34.40   1
   6  18   5   30.10   42.30   1
  -6 -18  -5   10.90   42.50   1
   6 -18  -5   45.20   49.00   1
  -6  18   5   37.40   47.00   1
  -6  18  -5   27.10   39.20   1
   6 -18   5  103.80   40.90   1
  -6 -18   5   23.10   41.60   1
   6  18  -5   22.80   42.30   1
   6  18   6    3.30   31.90   1
  -6 -18  -6    4.00   30.60   1
   6 -18  -6    9.40   36.30   1
  -6  18   6   24.90   33.10   1
  -6  18  -6   64.40   31.00   1
   6 -18   6   26.20   36.80   1
  -6 -18   6    2.60   27.90   1
   6  18  -6   -0.00   27.30   1
   6  18   7  159.90   63.60   1
  -6 -18  -7  124.40   62.70   1
   6 -18  -7  154.50   63.30   1
  -6  18   7  161.80   66.80   1
  -6  18  -7   43.90   58.70   1
   6 -18   7   80.10   59.40   1
  -6 -18   7   52.00   61.00   1
   6  18  -7   41.60   58.30   1
   6  18   8   10.30   42.60   1
  -6 -18  -8   32.20   43.80   1
   6 -18   8   33.10   36.50   1
  -6 -18   8   25.50   44.30   1
   6  18  -8   31.90   44.40   1
   6  18   9   72.30   57.20   1
  -6 -18  -9   25.30   56.80   1
   6 -18   9  116.20   54.20   1
  -6 -18   9   72.00   59.30   1
   6  18  -9   12.80   57.20   1
   6  19   0   -0.00   25.60   1
  -6 -19   0   -0.00   25.20   1
   6 -19   0   47.10   30.30   1
  -6  19   0    5.80   27.30   1
   6  19   1   13.40   28.60   1
  -6 -19  -1    8.40   28.40   1
   6 -19  -1   16.10   30.40   1
  -6  19   1    2.70   29.40   1
  -6  19  -1   11.30   30.50   1
   6 -19   1   -0.00   31.10   1
  -6 -19   1    6.60   25.90   1
   6  19  -1   15.70   25.90   1
   6  19   2   26.00   36.00   1
  -6 -19  -2   38.80   36.70   1
   6 -19  -2   24.60   33.70   1
  -6  19   2   15.80   32.40   1
  -6  19  -2   31.60   33.50   1
   6 -19   2    6.20   31.80   1
  -6 -19   2   10.50   29.70   1
   6  19  -2    7.50   29.10   1
   6  19   3   16.20   27.50   1
  -6 -19  -3    7.20   28.20   1
   6 -19  -3    0.00   27.80   1
  -6  19   3   -0.00   30.70   1
  -6  19  -3   -0.00   21.30   1
   6 -19   3   -0.00   21.00   1
  -6 -19   3    8.10   25.50   1
   6  19  -3   -0.00   20.50   1
   6  19   4   -0.50   38.40   1
  -6 -19  -4    7.60   38.70   1
   6 -19  -4   36.20   42.90   1
  -6  19   4   48.80   41.60   1
  -6  19  -4   20.90   35.60   1
   6 -19   4   49.70   35.70   1
  -6 -19   4   17.80   39.40   1
   6  19  -4   35.60   47.10   1
   6  19   5   47.40   33.10   1
  -6 -19  -5   50.10   33.50   1
   6 -19  -5   -0.00   35.20   1
  -6  19   5    4.10   34.80   1
  -6  19  -5   -0.00   26.30   1
   6 -19   5    4.30   25.90   1
  -6 -19   5   24.20   31.90   1
   6  19  -5    7.50   30.70   1
   6  19   6    0.00   44.40   1
  -6 -19  -6   67.90   46.00   1
   6 -19  -6   11.10   46.90   1
  -6  19   6   32.20   45.90   1
  -6  19  -6   28.80   40.80   1
   6 -19   6   27.60   43.90   1
  -6 -19   6   67.70   42.80   1
   6  19  -6   51.40   42.20   1
   6  19   7    6.30   32.30   1
  -6 -19  -7    0.00   31.50   1
   6 -19  -7   22.90   33.20   1
  -6  19   7   14.00   31.50   1
   6 -19   7    8.90   25.70   1
  -6 -19   7   -0.00   29.00   1
   6  19  -7   12.40   25.60   1
   6  19   8   29.40   37.30   1
  -6 -19  -8    5.40   36.80   1
   6 -19  -8    8.70   34.70   1
   6 -19   8   13.30   26.90   1
  -6 -19   8   24.30   40.90   1
   6  19  -8   -0.00   35.30   1
   6  20   0   59.30   52.50   1
  -6 -20   0   52.30   52.40   1
   6 -20   0   52.40   54.90   1
  -6  20   0   51.60   54.20   1
   6  20   1   10.10   33.90   1
  -6 -20  -1   13.70   33.20   1
   6 -20  -1   27.50   33.30   1
  -6  20   1   56.70   34.20   1
  -6  20  -1    7.80   33.30   1
   6 -20   1   13.60   35.10   1
  -6 -20   1   13.80   31.00   1
   6  20  -1    7.70   30.10   1
   6  20   2    6.40   37.90   1
  -6 -20  -2   18.40   38.50   1
   6 -20  -2   39.50   38.30   1
  -6  20   2  149.40   41.70   1
  -6  20  -2   -0.10   37.00   1
   6 -20   2   -0.00   34.40   1
  -6 -20   2   31.80   32.00   1
   6  20  -2   14.00   31.30   1
   6  20   3   21.90   36.10   1
  -6 -20  -3   28.00   37.00   1
   6 -20  -3   34.90   36.10   1
  -6  20   3   21.30   38.80   1
  -6  20  -3   16.40   32.00   1
   6 -20   3   16.70   32.30   1
  -6 -20   3   13.90   33.30   1
   6  20  -3   10.60   31.40   1
   6  20   4   -0.00   28.80   1
  -6 -20  -4    7.20   31.00   1
   6 -20  -4    7.00   34.20   1
  -6  20   4   26.50   34.00   1
  -6  20  -4   15.20   25.80   1
   6 -20   4   -0.00   25.30   1
  -6 -20   4    7.60   38.80   1
   6  20  -4   17.80   35.90   1
   6  20   5   47.60   44.10   1
  -6 -20  -5   44.00   45.00   1
   6 -20  -5   41.40   48.30   1
  -6  20   5   65.10   46.60   1
  -6  20  -5   57.70   41.80   1
   6 -20   5   39.60   40.30   1
  -6 -20   5   16.20   43.60   1
   6  20  -5    2.40   41.60   1
   6  20   6   36.10   37.30   1
  -6 -20  -6   59.70   37.60   1
   6 -20  -6   18.60   43.50   1
  -6  20   6   12.30   40.60   1
   6 -20   6   15.60   32.40   1
  -6 -20   6   12.10   30.50   1
   6  20  -6    1.40   31.00   1
   6  20   7   75.90   52.40   1
  -6 -20  -7   56.50   51.70   1
   6 -20  -7  149.30   58.80   1
  -6  20   7   82.90   53.10   1
   6 -20   7   18.00   50.60   1
  -6 -20   7   53.40   48.40   1
   6  20  -7   30.80   46.90   1
   6  21   0   27.20   50.40   1
  -6 -21   0   63.60   50.00   1
   6 -21   0   59.10   53.60   1
  -6  21   0   69.30   52.60   1
   6  21   1   10.80   38.60   1
  -6 -21  -1   15.50   38.30   1
   6 -21  -1   -0.00   38.10   1
  -6  21   1   22.00   37.80   1
  -6  21  -1   61.70   39.90   1
   6 -21   1   14.30   40.00   1
  -6 -21   1   47.10   37.20   1
   6  21  -1   37.00   36.40   1
   6  21   2  153.10   86.50   1
  -6 -21  -2  220.10   88.30   1
   6 -21  -2  126.90   85.30   1
  -6  21   2   53.80   83.70   1
  -6  21  -2  222.10   87.10   1
   6 -21   2   90.80   84.30   1
  -6 -21   2  152.10   83.10   1
   6  21  -2  161.40   83.70   1
   6  21   3   31.30   35.00   1
  -6 -21  -3   16.80   34.90   1
   6 -21  -3   -0.00   34.00   1
  -6  21   3   16.20   32.60   1
  -6  21  -3   11.20   30.40   1
   6 -21   3   23.00   30.00   1
  -6 -21   3    7.90   29.30   1
   6  21  -3    5.70   28.10   1
   6  21   4   64.10   64.00   1
  -6 -21  -4   67.00   64.50   1
   6 -21  -4   59.00   64.00   1
  -6  21   4   98.10   67.10   1
   6 -21   4   84.10   61.80   1
  -6 -21   4   73.20   69.00   1
   6  21  -4   77.60   64.40   1
   6  21   5   31.30   39.90   1
  -6 -21  -5   31.90   40.30   1
   6 -21  -5   27.50   43.10   1
  -6  21   5   33.00   41.00   1
   6 -21   5    8.70   34.80   1
  -6 -21   5   36.80   38.80   1
   6  21  -5   24.20   41.10   1
   6  21   6   59.50   48.00   1
  -6 -21  -6   58.60   48.60   1
   6 -21  -6   45.00   53.80   1
  -6  21   6   64.60   53.20   1
   6 -21   6   42.00   44.20   1
  -6 -21   6   28.40   44.70   1
   6  21  -6   17.10   45.60   1
   6  22   0    6.40   26.80   1
  -6 -22   0    9.80   26.00   1
   6 -22   0   13.10   29.00   1
  -6  22   0   -0.00   27.90   1
   6  22   1   -0.20   29.80   1
  -6 -22  -1   -0.00   26.10   1
   6 -22  -1   -0.00   27.70   1
  -6  22   1    8.30   27.10   1
   6 -22   1   -0.00   27.60   1
  -6 -22   1   12.60   25.00   1
   6  22  -1   14.90   25.30   1
   6  22   2   21.30   36.60   1
  -6 -22  -2   20.30   34.50   1
   6 -22  -2    3.50   30.80   1
  -6  22   2    2.90   31.20   1
   6 -22   2    7.40   32.10   1
  -6 -22   2   15.00   28.00   1
   6  22  -2   22.80   29.40   1
   6  22   3   10.70   38.10   1
  -6 -22  -3   43.30   40.80   1
   6 -22  -3   15.60   37.00   1
  -6  22   3   64.30   39.60   1
   6 -22   3   16.90   34.50   1
  -6 -22   3   18.80   34.20   1
   6  22  -3   16.20   32.70   1
   6  22   4    4.80   28.60   1
  -6 -22  -4   -0.00   28.10   1
   6 -22  -4    3.00   28.30   1
  -6  22   4   -0.10   31.10   1
   6 -22   4    2.60   22.30   1
  -6 -22   4    6.90   36.70   1
   6  22  -4    6.10   26.10   1
   7   0   0  206.70  110.20   1
  -7   0   0  176.90  110.00   1
   7   0   1  527.90  276.30   1
  -7   0  -1  661.90  276.80   1
   7   0  -1  722.40  281.70   1
  -7   0   1  664.00  282.30   1
   7   0   2  562.40  233.60   1
  -7   0  -2  436.10  233.30   1
   7   1   0    3.10   23.10   1
  -7  -1   0   29.20   23.90   1
   7   1   1  315.30  145.90   1
  -7  -1  -1  467.80  146.50   1
  -7  -1   1  199.00  145.80   1
   7   1  -1  198.20  145.80   1
   7   1   2  294.80  158.50   1
  -7  -1  -2  306.50  158.40   1
  -7  -1   2  344.50  159.50   1
   7   1  -2  285.40  159.10   1
   7   1   3  557.00  135.20   1
  -7  -1  -3  272.70  133.50   1
  -7  -1   3  191.50  134.00   1
   7   1  -3  144.60  133.40   1
   7   2   0   68.10   54.30   1
  -7  -2   0   60.30   53.80   1
   7   2   1   22.80   48.00   1
  -7  -2  -1   49.60   48.00   1
  -7  -2   1   72.00   48.00   1
   7   2  -1  218.60   49.20   1
   7   2   2  217.70   99.10   1
  -7  -2  -2  184.70   98.90   1
  -7  -2   2  132.20   98.70   1
   7   2  -2  137.30   98.80   1
   7   2   3  134.60   86.70   1
  -7  -2  -3  108.40   86.70   1
  -7   2  -3  440.10   88.80   1
   7  -2   3  118.40   86.10   1
  -7  -2   3  728.50   95.10   1
   7   2  -3  313.10   88.40   1
  -7  -2   4  510.90  265.20   1
   7   2  -4  632.70  266.20   1
  -7  -2   5   19.10   31.30   1
   7   2  -5   33.00   31.70   1
   7   2  -6  143.40   92.80   1
   7   3   0  747.80  156.60   1
  -7  -3   0  225.30  154.80   1
   7   3   1  672.30  398.20   1
  -7  -3  -1 1111.90  399.60   1
  -7  -3   1 1897.40  404.20   1
   7   3  -1 1296.70  400.90   1
   7   3   2  608.70  294.10   1
  -7  -3  -2  661.80  294.20   1
  -7   3  -2  652.90  293.70   1
   7  -3   2  597.10  293.60   1
  -7  -3   2  709.50  294.70   1
   7   3  -2  590.50  294.30   1
  -7   3  -3  136.60   48.40   1
   7  -3   3  102.00   47.80   1
  -7  -3   3   19.40   48.10   1
   7   3  -3   40.40   48.40   1
   7   3   4  601.70  271.50   1
  -7  -3  -4  701.40  272.10   1
  -7   3  -4  552.00  271.10   1
   7  -3   4  569.70  271.50   1
  -7  -3   4  524.50  271.90   1
   7   3  -4  475.80  271.70   1
  -7   3  -5  174.50   99.40   1
   7  -3   5  186.90   99.70   1
  -7  -3   5  132.90   99.60   1
   7   3  -5  188.80  100.00   1
  -7  -3   6  114.60   84.20   1
   7   3  -6  149.30   84.70   1
  -7  -3   7   20.90   33.70   1
   7   3  -7   36.70   34.20   1
  -7  -3   8  449.30  243.40   1
   7   3  -8  511.40  241.30   1
   7   4   0 1483.60  613.60   1
  -7  -4   0 1355.30  613.50   1
   7   4   1   20.20   33.20   1
  -7  -4  -1   35.30   33.40   1
  -7   4  -1   24.70   34.20   1
   7  -4   1   21.60   34.40   1
  -7  -4   1   44.50   38.00   1
   7   4  -1   54.10   38.00   1
   7   4   2  715.00  339.10   1
  -7  -4  -2  651.90  339.00   1
  -7   4  -2  786.00  339.00   1
   7  -4   2  845.80  339.00   1
   7   4   3   22.00   35.30   1
  -7  -4  -3   64.60   36.00   1
  -7   4  -3   49.60   34.60   1
   7  -4   3   23.80   34.30   1
  -7  -4   3   27.10   35.80   1
   7   4  -3    7.20   35.30   1
   7   4   4   70.80   34.30   1
  -7  -4  -4   23.20   33.20   1
  -7   4  -4   15.60   30.90   1
   7  -4   4   21.00   31.50   1
  -7  -4   4   28.40   31.60   1
   7   4  -4   23.10   31.80   1
  -7  -4  -5   12.30   27.50   1
  -7   4  -5   12.90   24.60   1
   7  -4   5   16.00   24.40   1
  -7  -4   5   19.40   25.60   1
   7   4  -5   19.10   25.80   1
  -7   4  -6   31.90   31.10   1
   7  -4   6   16.90   30.90   1
  -7  -4   6   35.50   32.20   1
   7   4  -6   26.70   31.80   1
  -7   4  -7   59.40   36.20   1
   7  -4   7   30.10   35.80   1
  -7  -4   7   31.40   36.50   1
   7   4  -7   22.40   36.70   1
  -7   4  -8  145.40  106.70   1
  -7  -4   8  178.60  106.70   1
   7   4  -8  204.70  106.90   1
  -7  -4   9   15.80   29.70   1
   7   4  -9   26.00   30.40   1
  -7  -4  10   17.90   33.00   1
   7   4 -10   26.80   33.40   1
   7   4 -11   11.30   26.90   1
   7   5   0   11.40   27.30   1
  -7  -5   0   23.30   28.40   1
   7   5   1  234.50  143.90   1
  -7  -5  -1  224.10  143.80   1
  -7   5  -1  319.90  144.50   1
   7  -5   1  343.70  144.40   1
  -7  -5   1  381.50  146.40   1
   7   5  -1  300.90  145.50   1
   7   5   2  525.60  250.00   1
  -7  -5  -2  464.00  249.80   1
  -7   5  -2  510.10  249.50   1
   7  -5   2  588.80  249.60   1
  -7  -5   2  603.60  250.40   1
   7   5  -2  486.50  250.00   1
   7   5   3  263.50  168.30   1
  -7  -5  -3  542.30  169.30   1
  -7   5  -3  390.90  168.20   1
   7  -5   3  303.30  169.00   1
  -7  -5   3  292.60  169.40   1
   7   5  -3  312.40  169.50   1
   7   5   4   39.60   74.70   1
  -7  -5  -4   97.10   74.90   1
  -7   5  -4  590.90   79.00   1
   7  -5   4  117.20   74.40   1
  -7  -5   4  419.40   77.10   1
   7   5  -4  189.40   75.10   1
   7   5   5  230.50  136.80   1
  -7  -5  -5  337.10  137.90   1
  -7   5  -5  303.90  136.80   1
   7  -5   5  195.40  136.20   1
  -7  -5   5  279.70  136.70   1
   7   5  -5  259.00  136.70   1
  -7   5  -6  245.40  141.70   1
   7  -5   6  277.00  141.90   1
  -7  -5   6  263.10  142.50   1
   7   5  -6  274.40  142.50   1
  -7   5  -7  194.60  119.70   1
   7  -5   7  219.50  119.90   1
  -7  -5   7  189.90  120.10   1
   7   5  -7  262.00  121.10   1
  -7   5  -8  899.90  397.40   1
   7  -5   8  858.90  397.40   1
  -7  -5   8  806.30  396.70   1
   7   5  -8  943.60  397.80   1
  -7   5  -9   69.90   50.30   1
   7  -5   9   44.20   49.90   1
  -7  -5   9   55.00   50.60   1
   7   5  -9   60.00   50.80   1
  -7   5 -10   72.50   46.50   1
   7  -5  10  153.20   54.40   1
  -7  -5  10   33.00   45.30   1
   7   5 -10   48.20   46.40   1
  -7   5 -11    7.70   26.40   1
  -7  -5  11   19.20   26.50   1
   7   5 -11   14.90   26.40   1
  -7  -5  12   74.50   69.70   1
   7   5 -12  120.60   71.90   1
   7   5 -13   69.30   61.40   1
   7   5 -14   11.70   29.40   1
   7   6   0   94.20   62.10   1
  -7  -6   0  113.00   62.00   1
   7  -6   0   61.40   58.30   1
  -7   6   0   60.80   57.80   1
   7   6   1   84.00   37.70   1
  -7  -6  -1   47.70   37.50   1
  -7   6  -1   37.20   37.90   1
   7  -6   1   24.00   37.90   1
  -7  -6   1   14.60   38.60   1
   7   6  -1   11.60   37.90   1
   7   6   2  212.20  119.00   1
  -7  -6  -2  174.20  118.90   1
  -7   6  -2  255.80  118.60   1
   7  -6   2  190.60  118.30   1
  -7  -6   2  311.70  121.30   1
   7   6  -2  179.60  120.20   1
   7   6   3   53.70   45.10   1
  -7  -6  -3  236.30   47.10   1
  -7   6  -3   40.80   42.90   1
   7  -6   3   62.40   43.20   1
  -7  -6   3   31.50   44.80   1
   7   6  -3   14.40   44.10   1
   7   6   4  106.50   52.90   1
  -7  -6  -4   54.40   52.90   1
  -7   6  -4   77.90   51.00   1
   7  -6   4   86.60   51.40   1
  -7  -6   4   12.50   53.30   1
   7   6  -4   10.00   53.50   1
   7   6   5   30.80   37.70   1
  -7  -6  -5   34.30   37.80   1
  -7   6  -5   27.50   34.30   1
   7  -6   5   28.80   33.80   1
  -7  -6   5   25.00   34.90   1
   7   6  -5   21.40   35.00   1
  -7  -6  -6   30.60   26.40   1
  -7   6  -6   44.80   26.30   1
   7  -6   6    6.90   23.50   1
  -7  -6   6    0.00   23.70   1
   7   6  -6   13.00   24.60   1
  -7   6  -7   62.20   51.60   1
   7  -6   7   54.30   51.40   1
  -7  -6   7   55.80   52.00   1
   7   6  -7   69.20   52.30   1
  -7   6  -8   69.60   55.80   1
   7  -6   8   57.60   55.40   1
  -7  -6   8   69.90   56.10   1
   7   6  -8   78.80   56.40   1
  -7   6  -9   17.30   26.60   1
   7  -6   9   23.80   26.70   1
  -7  -6   9   11.00   27.30   1
   7   6  -9   18.40   28.20   1
  -7   6 -10   15.20   24.80   1
   7  -6  10   21.60   25.20   1
  -7  -6  10   10.60   25.80   1
   7   6 -10   12.20   25.80   1
  -7   6 -11   25.40   29.80   1
   7  -6  11   33.00   29.70   1
  -7  -6  11   11.50   29.50   1
   7   6 -11   20.90   30.20   1
  -7   6 -12   75.80   29.90   1
   7  -6  12   -0.00   25.70   1
  -7  -6  12   87.40   30.30   1
   7   6 -12  127.80   33.80   1
  -7   6 -13    8.60   18.50   1
  -7  -6  13   -0.00   17.10   1
   7   6 -13   -0.00   17.80   1
  -7  -6  14   18.40   30.70   1
   7   6 -14   13.70   30.30   1
   7   7   0   47.40   46.80   1
  -7  -7   0  330.30   52.20   1
   7  -7   0   21.30   46.40   1
  -7   7   0   47.60   47.50   1
   7   7   1  506.60  214.70   1
  -7  -7  -1  349.50  214.30   1
  -7   7  -1  474.50  214.60   1
   7  -7   1  685.30  215.50   1
  -7  -7   1  352.70  214.70   1
   7   7  -1  582.70  215.30   1
   7   7   2   62.60   49.30   1
  -7  -7  -2   23.60   48.50   1
  -7   7  -2   46.60   48.20   1
   7  -7   2   42.20   48.30   1
  -7  -7   2  292.70   56.50   1
   7   7  -2  110.80   51.60   1
   7   7   3  130.60   89.90   1
  -7  -7  -3  126.20   89.60   1
  -7   7  -3  138.00   88.30   1
   7  -7   3  124.70   88.20   1
  -7  -7   3  275.20   91.80   1
   7   7  -3  154.40   91.00   1
   7   7   4  226.60  103.00   1
  -7  -7  -4  171.40  102.90   1
  -7   7  -4  279.00  102.80   1
   7  -7   4  152.20  102.00   1
  -7  -7   4  147.50  103.30   1
   7   7  -4  128.50  102.70   1
   7   7   5  474.70  194.70   1
  -7  -7  -5  521.70  195.20   1
  -7   7  -5  393.10  194.20   1
   7  -7   5  799.00  196.30   1
  -7  -7   5  315.80  194.10   1
   7   7  -5  276.30  194.20   1
   7   7   6   51.00   57.00   1
  -7  -7  -6  105.10   58.50   1
  -7   7  -6   86.20   56.10   1
   7  -7   6   63.30   55.80   1
  -7  -7   6   55.50   56.70   1
   7   7  -6   63.90   57.00   1
  -7   7  -7   58.30   35.00   1
   7  -7   7   18.80   32.80   1
  -7  -7   7   20.80   32.70   1
   7   7  -7   23.80   33.80   1
  -7   7  -8   12.40   23.00   1
   7  -7   8   25.70   22.40   1
  -7  -7   8    3.70   23.40   1
   7   7  -8    3.50   23.20   1
  -7   7  -9   14.20   20.60   1
   7  -7   9    8.60   20.00   1
  -7  -7   9    6.00   21.00   1
   7   7  -9    5.90   22.00   1
  -7   7 -10   92.30   47.20   1
   7  -7  10   32.10   45.80   1
  -7  -7  10   50.90   46.60   1
   7   7 -10   70.40   47.40   1
  -7   7 -11   82.80   41.70   1
   7  -7  11   30.90   40.00   1
  -7  -7  11   29.80   40.60   1
   7   7 -11   49.00   41.50   1
  -7   7 -12   31.10   29.30   1
   7  -7  12   46.60   30.20   1
  -7  -7  12   13.20   29.30   1
   7   7 -12   14.70   29.90   1
  -7   7 -13   70.40   65.50   1
   7  -7  13  180.00   72.70   1
  -7  -7  13   85.70   66.30   1
   7   7 -13   89.50   66.70   1
   7  -7  14   28.80   37.80   1
  -7  -7  14   27.00   36.80   1
   7   7 -14   30.50   37.80   1
   7   8   0   56.50   52.40   1
  -7  -8   0   67.10   52.60   1
   7  -8   0   34.70   53.60   1
  -7   8   0  128.10   54.70   1
   7   8   1  457.40  185.90   1
  -7  -8  -1  584.30  186.30   1
   7  -8  -1  429.60  187.00   1
  -7   8   1  441.80  187.00   1
  -7   8  -1  503.90  186.40   1
   7  -8   1  413.90  186.10   1
  -7  -8   1  532.00  187.20   1
   7   8  -1  197.30  186.00   1
   7   8   2   97.80   69.90   1
  -7  -8  -2   84.30   69.50   1
  -7   8  -2  113.10   69.20   1
   7  -8   2   90.70   69.30   1
  -7  -8   2   97.20   70.20   1
   7   8  -2   87.10   69.50   1
   7   8   3  608.60  192.90   1
  -7  -8  -3  472.70  192.00   1
  -7   8  -3  732.20  191.70   1
   7  -8   3 1053.00  193.40   1
  -7  -8   3  428.20  193.40   1
   7   8  -3  196.20  191.70   1
   7   8   4  405.70  115.30   1
  -7  -8  -4  856.90  118.90   1
  -7   8  -4  207.70  115.30   1
   7  -8   4   93.70  113.50   1
  -7  -8   4  779.50  119.50   1
   7   8  -4  459.20  116.30   1
   7   8   5  247.70  176.30   1
  -7  -8  -5  407.80  177.20   1
  -7   8  -5  456.50  176.00   1
   7  -8   5  649.80  177.50   1
  -7  -8   5  238.80  176.50   1
   7   8  -5  411.00  177.20   1
   7   8   6   25.90   38.80   1
  -7  -8  -6   -0.00   38.90   1
  -7   8  -6   65.40   38.10   1
   7  -8   6   61.70   36.70   1
  -7  -8   6   12.10   37.40   1
   7   8  -6    7.70   38.20   1
   7   8   7   57.80   37.60   1
  -7  -8  -7   32.50   36.10   1
  -7   8  -7   39.60   35.40   1
   7  -8   7   41.00   36.10   1
  -7  -8   7    8.70   35.10   1
   7   8  -7    8.00   35.30   1
  -7   8  -8  101.10   86.20   1
   7  -8   8  178.40   86.30   1
  -7  -8   8  129.40   86.00   1
   7   8  -8  148.60   86.50   1
  -7   8  -9  277.60   53.80   1
   7  -8   9   45.20   49.80   1
  -7  -8   9   40.20   49.90   1
   7   8  -9   73.60   51.20   1
  -7   8 -10  784.80  276.40   1
   7  -8  10  584.60  274.00   1
  -7  -8  10  471.80  273.40   1
   7   8 -10  555.10  274.10   1
  -7   8 -11   20.10   36.50   1
   7  -8  11   28.30   36.10   1
  -7  -8  11   60.10   37.70   1
   7   8 -11   63.40   38.70   1
  -7   8 -12   26.60   25.20   1
   7  -8  12    7.40   24.10   1
  -7  -8  12   10.50   25.00   1
   7   8 -12   51.30   27.70   1
  -7   8 -13  125.50   97.10   1
   7  -8  13  140.50   97.70   1
  -7  -8  13  189.10   99.60   1
   7   8 -13  228.20  100.90   1
   7  -8  14   52.80   36.90   1
  -7  -8  14   25.60   35.70   1
   7   8 -14   25.90   36.90   1
   7   9   0   11.00   28.30   1
  -7  -9   0   29.30   29.00   1
   7  -9   0   26.90   31.00   1
  -7   9   0   15.80   30.60   1
   7   9   1  115.30   85.40   1
  -7  -9  -1  113.40   85.30   1
   7  -9  -1  112.20   87.50   1
  -7   9   1  132.90   87.30   1
  -7   9  -1  189.60   86.00   1
   7  -9   1  133.60   86.00   1
  -7  -9   1  175.80   87.70   1
   7   9  -1  124.70   88.90   1
   7   9   2   55.60   36.90   1
  -7  -9  -2    9.80   34.90   1
   7  -9  -2   -0.00   35.00   1
  -7   9  -2   19.20   34.90   1
   7  -9   2   64.90   35.70   1
  -7  -9   2   35.80   35.20   1
   7   9  -2   30.30   34.70   1
   7   9   3  349.30  201.40   1
  -7  -9  -3  504.60  202.30   1
  -7   9  -3  468.70  200.80   1
   7  -9   3  296.80  200.40   1
  -7  -9   3 1070.30  209.00   1
   7   9  -3  541.50  203.70   1
   7   9   4   12.40   43.50   1
  -7  -9  -4   26.80   43.60   1
  -7   9  -4   86.90   43.70   1
   7  -9   4   77.90   47.20   1
  -7  -9   4   47.40   46.80   1
   7   9  -4   30.50   45.80   1
   7   9   5  288.10  179.20   1
  -7  -9  -5  317.50  179.30   1
  -7   9  -5  491.10  178.90   1
   7  -9   5  629.50  179.60   1
  -7  -9   5  272.20  179.20   1
   7   9  -5  316.90  179.30   1
   7   9   6   -0.00   28.90   1
  -7  -9  -6    3.70   27.70   1
  -7   9  -6   60.30   30.70   1
   7  -9   6    0.00   27.60   1
  -7  -9   6    5.80   29.30   1
   7   9  -6   12.70   28.20   1
   7   9   7   25.90   46.40   1
  -7  -9  -7   35.90   46.60   1
  -7   9  -7   70.00   45.40   1
   7  -9   7   66.00   45.00   1
  -7  -9   7   31.70   45.90   1
   7   9  -7   30.60   47.00   1
  -7   9  -8   18.40   28.50   1
   7  -9   8   17.80   29.70   1
  -7  -9   8    9.00   27.60   1
   7   9  -8    7.60   28.20   1
  -7   9  -9   24.60   24.80   1
   7  -9   9    7.50   23.10   1
  -7  -9   9    5.00   23.50   1
   7   9  -9    8.10   24.80   1
  -7   9 -10   12.70   23.20   1
   7  -9  10    6.10   21.10   1
  -7  -9  10    7.90   22.70   1
   7   9 -10   17.20   24.20   1
  -7   9 -11   18.50   25.00   1
   7  -9  11   13.10   23.70   1
  -7  -9  11    8.70   24.50   1
   7   9 -11   11.30   25.60   1
  -7   9 -12   35.20   31.30   1
   7  -9  12   17.50   30.00   1
  -7  -9  12   18.50   30.70   1
   7   9 -12   25.70   31.40   1
   7  -9  13   14.10   24.00   1
  -7  -9  13   13.60   24.70   1
   7   9 -13   12.10   26.10   1
   7  10   0   20.00   32.30   1
  -7 -10   0   33.90   32.30   1
   7 -10   0   19.30   34.60   1
  -7  10   0   20.90   34.20   1
   7  10   1   74.10   45.10   1
  -7 -10  -1   40.30   44.60   1
   7 -10  -1   36.90   46.90   1
  -7  10   1   22.10   46.20   1
  -7  10  -1   56.60   45.50   1
   7 -10   1   33.50   45.30   1
  -7 -10   1   55.00   51.40   1
   7  10  -1   54.50   49.20   1
   7  10   2   43.40   55.70   1
  -7 -10  -2   32.30   55.00   1
   7 -10  -2  103.80   56.60   1
  -7  10   2   94.70   55.40   1
  -7  10  -2  138.70   55.70   1
   7 -10   2   38.70   54.90   1
  -7 -10   2   68.90   55.80   1
   7  10  -2   75.90   55.80   1
   7  10   3  214.20  130.40   1
  -7 -10  -3  217.50  130.10   1
  -7  10  -3  275.70  129.10   1
   7 -10   3  448.80  129.80   1
  -7 -10   3  247.20  130.70   1
   7  10  -3  162.90  129.50   1
   7  10   4  132.70   72.20   1
  -7 -10  -4  107.40   72.40   1
  -7  10  -4  102.30   70.20   1
   7 -10   4  119.00   71.20   1
  -7 -10   4  115.10   76.00   1
   7  10  -4   32.90   72.80   1
   7  10   5   31.00   37.50   1
  -7 -10  -5    8.40   36.90   1
  -7  10  -5   27.60   35.70   1
   7 -10   5   30.90   36.20   1
  -7 -10   5   37.80   38.00   1
   7  10  -5   36.10   38.60   1
   7  10   6   93.50   77.50   1
  -7 -10  -6  141.60   78.00   1
  -7  10  -6   66.90   75.20   1
   7 -10   6  109.20   76.80   1
  -7 -10   6  184.90   78.20   1
   7  10  -6  191.90   77.80   1
   7  10   7  147.90   97.70   1
  -7 -10  -7  201.80  100.10   1
  -7  10  -7  135.80   97.50   1
   7 -10   7  135.50   97.00   1
  -7 -10   7  165.50   99.20   1
   7  10  -7  165.20   98.70   1
   7  10   8    6.30   31.80   1
  -7 -10  -8   27.20   32.70   1
  -7  10  -8   40.30   30.30   1
   7 -10   8   14.90   29.70   1
  -7 -10   8    8.30   31.60   1
   7  10  -8    4.20   33.30   1
  -7  10  -9   67.90   42.60   1
   7 -10   9   47.40   40.40   1
  -7 -10   9   16.70   37.90   1
   7  10  -9   17.20   39.30   1
  -7  10 -10   13.70   26.90   1
   7 -10  10   15.00   26.00   1
  -7 -10  10    9.30   25.60   1
   7  10 -10   16.40   27.70   1
  -7  10 -11   25.40   24.20   1
   7 -10  11    7.10   22.40   1
  -7 -10  11    9.90   23.20   1
   7  10 -11    5.50   23.30   1
  -7  10 -12   -0.00   12.20   1
   7 -10  12   -0.00   10.50   1
  -7 -10  12   -0.00   12.10   1
   7  10 -12   -0.10   14.70   1
   7 -10  13   44.20   47.60   1
  -7 -10  13   46.20   48.00   1
   7  10 -13   78.80   49.60   1
   7  11   0   45.20   34.20   1
  -7 -11   0    2.00   33.60   1
   7 -11   0  100.60   36.50   1
  -7  11   0   10.10   34.60   1
   7  11   1  190.30   54.30   1
  -7 -11  -1   27.00   52.80   1
   7 -11  -1   92.80   56.00   1
  -7  11   1   65.90   55.10   1
  -7  11  -1   33.20   53.10   1
   7 -11   1   26.10   53.40   1
  -7 -11   1  263.30   61.10   1
   7  11  -1  280.00   57.10   1
   7  11   2   60.00   55.20   1
  -7 -11  -2   62.40   54.70   1
   7 -11  -2   55.50   56.50   1
  -7  11   2   32.80   55.70   1
  -7  11  -2   64.10   54.10   1
   7 -11   2   62.50   54.50   1
  -7 -11   2   83.30   56.10   1
   7  11  -2   66.50   55.00   1
   7  11   3   55.60   38.10   1
  -7 -11  -3   -0.00   36.40   1
   7 -11  -3   84.20   37.60   1
  -7  11   3   18.60   35.30   1
  -7  11  -3   46.60   34.60   1
   7 -11   3   30.10   33.60   1
  -7 -11   3   13.80   35.20   1
   7  11  -3   11.40   34.50   1
   7  11   4   66.10   44.60   1
  -7 -11  -4   24.70   43.60   1
  -7  11  -4   27.90   41.80   1
   7 -11   4   38.60   41.70   1
  -7 -11   4   72.30   50.50   1
   7  11  -4   65.40   47.90   1
   7  11   5   74.00   62.20   1
  -7 -11  -5   35.20   62.40   1
  -7  11  -5   73.80   62.30   1
   7 -11   5  120.30   62.30   1
  -7 -11   5  116.80   67.00   1
   7  11  -5   77.00   66.10   1
   7  11   6   61.00   41.70   1
  -7 -11  -6   36.80   42.00   1
  -7  11  -6   37.60   36.10   1
   7 -11   6   18.10   35.30   1
  -7 -11   6   18.60   38.50   1
   7  11  -6   19.80   38.60   1
   7  11   7   69.50   49.50   1
  -7 -11  -7   59.90   49.90   1
  -7  11  -7   27.70   48.10   1
   7 -11   7   74.10   49.50   1
  -7 -11   7   29.30   46.50   1
   7  11  -7   26.40   46.40   1
   7  11   8   51.60   48.50   1
  -7 -11  -8   35.20   49.70   1
  -7  11  -8   18.70   47.10   1
   7 -11   8   43.70   47.30   1
  -7 -11   8  135.50   54.30   1
   7  11  -8   99.10   54.40   1
  -7 -11  -9   24.40   33.80   1
  -7  11  -9   16.90   29.70   1
   7 -11   9   12.80   30.70   1
  -7 -11   9   17.40   32.40   1
   7  11  -9   19.40   33.40   1
  -7  11 -10   53.70   60.90   1
   7 -11  10   57.10   58.20   1
  -7 -11  10   97.30   58.90   1
   7  11 -10   75.90   59.40   1
  -7  11 -11   31.50   45.30   1
   7 -11  11   39.10   44.90   1
  -7 -11  11   53.90   44.90   1
   7  11 -11   71.00   46.70   1
  -7  11 -12   10.90   19.30   1
   7 -11  12    0.00   16.40   1
  -7 -11  12    3.60   17.00   1
   7  11 -12    5.30   18.70   1
   7 -11  13    9.20   16.00   1
  -7 -11  13   -0.00   16.90   1
   7  11 -13   -0.00   18.80   1
   7  12   0  455.40  212.10   1
  -7 -12   0  490.80  212.00   1
   7 -12   0  690.70  213.90   1
  -7  12   0  321.40  212.00   1
   7  12   1   99.60   84.10   1
  -7 -12  -1  128.50   84.20   1
   7 -12  -1  221.00   86.50   1
  -7  12   1  218.50   86.00   1
  -7  12  -1  125.90   84.80   1
   7 -12   1  135.20   85.20   1
  -7 -12   1  116.00   84.60   1
   7  12  -1  102.80   84.00   1
   7  12   2  168.60   91.80   1
  -7 -12  -2  124.00   91.70   1
   7 -12  -2  133.10   91.80   1
  -7  12   2  138.90   92.70   1
  -7  12  -2  110.80   90.80   1
   7 -12   2  169.30   91.40   1
  -7 -12   2  128.80   91.80   1
   7  12  -2  196.00   93.40   1
   7  12   3   33.30   44.90   1
  -7 -12  -3   30.20   45.00   1
   7 -12  -3   53.50   45.90   1
  -7  12   3   83.30   45.60   1
  -7  12  -3   40.40   42.60   1
   7 -12   3   43.50   42.90   1
  -7 -12   3   34.40   44.00   1
   7  12  -3   33.40   43.90   1
   7  12   4  403.90  222.50   1
  -7 -12  -4  503.80  223.00   1
  -7  12  -4  580.30  221.60   1
   7 -12   4  647.60  221.80   1
  -7 -12   4  457.60  223.40   1
   7  12  -4  318.90  222.00   1
   7  12   5   25.00   37.80   1
  -7 -12  -5   29.50   38.80   1
  -7  12  -5   49.10   41.70   1
   7 -12   5   14.20   40.80   1
  -7 -12   5   27.80   44.90   1
   7  12  -5   23.40   42.40   1
   7  12   6  124.60   98.50   1
  -7 -12  -6  100.40   97.40   1
  -7  12  -6  195.70   96.50   1
   7 -12   6  125.30   95.70   1
  -7 -12   6  267.50  100.30   1
   7  12  -6  364.60  102.30   1
   7  12   7   -0.00   33.30   1
  -7 -12  -7   21.20   35.60   1
  -7  12  -7   12.60   28.80   1
   7 -12   7   17.70   34.20   1
  -7 -12   7   26.90   32.10   1
   7  12  -7   13.00   30.80   1
   7  12   8   76.20   67.90   1
  -7 -12  -8  100.30   72.20   1
  -7  12  -8  266.70   72.10   1
   7 -12   8  207.60   70.30   1
  -7 -12   8   46.50   67.40   1
   7  12  -8   49.00   67.00   1
   7  12   9   29.00   39.00   1
  -7 -12  -9   38.80   38.20   1
  -7  12  -9   10.90   37.10   1
   7 -12   9   41.70   37.10   1
  -7 -12   9   17.20   39.30   1
   7  12  -9   33.40   42.10   1
  -7  12 -10  131.10   98.80   1
   7 -12  10  155.80  100.00   1
  -7 -12  10  213.70  100.40   1
   7  12 -10  159.50   99.80   1
  -7  12 -11   54.40   37.40   1
   7 -12  11    3.30   30.00   1
  -7 -12  11   18.30   30.90   1
   7  12 -11   22.30   32.30   1
   7 -12  12   21.40   25.90   1
  -7 -12  12    5.90   25.00   1
   7  12 -12    8.50   26.50   1
   7  13   0   90.70   36.00   1
  -7 -13   0   29.10   35.50   1
   7 -13   0   -0.00   35.20   1
  -7  13   0   17.10   36.40   1
   7  13   1  802.60  348.60   1
  -7 -13  -1  933.50  349.20   1
   7 -13  -1  868.80  349.70   1
  -7  13   1 1075.90  350.80   1
  -7  13  -1  889.60  349.80   1
   7 -13   1  634.00  348.40   1
  -7 -13   1  803.80  348.30   1
   7  13  -1  607.10  347.50   1
   7  13   2  234.00  105.70   1
  -7 -13  -2  128.70  104.90   1
   7 -13  -2  254.00  106.30   1
  -7  13   2  166.60  105.80   1
  -7  13  -2  126.40  104.30   1
   7 -13   2  216.40  105.10   1
  -7 -13   2  224.30  108.70   1
   7  13  -2  151.10  108.70   1
   7  13   3  143.30   72.50   1
  -7 -13  -3   71.70   71.80   1
   7 -13  -3  180.40   75.00   1
  -7  13   3  146.20   72.90   1
  -7  13  -3   37.40   68.90   1
   7 -13   3  154.50   70.10   1
  -7 -13   3  130.70   71.30   1
   7  13  -3  107.10   71.80   1
   7  13   4  602.00  239.70   1
  -7 -13  -4  459.50  239.00   1
   7 -13  -4  411.40  240.10   1
  -7  13   4  468.60  242.60   1
  -7  13  -4  631.20  238.30   1
   7 -13   4  580.30  237.90   1
  -7 -13   4  520.50  238.90   1
   7  13  -4  366.10  238.00   1
   7  13   5  399.70   94.70   1
  -7 -13  -5  238.20   92.80   1
  -7  13  -5  129.90   91.00   1
   7 -13   5  211.40   95.40   1
  -7 -13   5   89.10   94.80   1
   7  13  -5   72.10   92.60   1
   7  13   6  349.10   83.10   1
  -7 -13  -6   95.20   79.60   1
  -7  13  -6  117.80   78.90   1
   7 -13   6  162.30   78.60   1
  -7 -13   6  139.30   84.30   1
   7  13  -6   32.10   80.40   1
   7  13   7   12.40   44.90   1
  -7 -13  -7   34.50   47.00   1
  -7  13  -7   22.30   40.90   1
   7 -13   7  112.30   44.80   1
  -7 -13   7   38.10   44.90   1
   7  13  -7   49.30   46.20   1
   7  13   8  368.50  124.30   1
  -7 -13  -8  175.20  122.50   1
  -7  13  -8  219.90  121.60   1
   7 -13   8  173.20  120.80   1
  -7 -13   8  255.40  120.60   1
   7  13  -8  179.90  119.40   1
   7  13   9  130.00   76.90   1
  -7 -13  -9  155.70   78.20   1
  -7  13  -9   78.40   76.30   1
   7 -13   9   64.90   75.40   1
  -7 -13   9  456.40   88.90   1
   7  13  -9  343.50   82.90   1
  -7 -13 -10  185.20  100.60   1
  -7  13 -10  168.70   96.30   1
   7 -13  10  120.70   95.80   1
  -7 -13  10  169.80   98.60   1
   7  13 -10  155.60   99.90   1
  -7  13 -11   55.60   60.70   1
   7 -13  11  107.20   64.10   1
  -7 -13  11   77.40   60.60   1
   7  13 -11   66.50   60.90   1
   7 -13  12   -0.00   23.90   1
  -7 -13  12    9.50   25.20   1
   7  13 -12   25.10   27.40   1
   7  14   0  199.20   83.50   1
  -7 -14   0  142.20   82.90   1
   7 -14   0   69.90   83.50   1
  -7  14   0  129.50   84.00   1
   7  14   1   48.90   35.20   1
  -7 -14  -1   51.60   34.30   1
   7 -14  -1   13.20   35.60   1
  -7  14   1    6.60   34.80   1
  -7  14  -1   29.30   35.50   1
   7 -14   1   46.60   36.70   1
  -7 -14   1   11.60   32.00   1
   7  14  -1    6.60   32.30   1
   7  14   2   62.20   55.30   1
  -7 -14  -2   51.30   54.90   1
   7 -14  -2   34.50   55.90   1
  -7  14   2   61.30   56.60   1
  -7  14  -2   60.50   54.50   1
   7 -14   2   79.90   54.90   1
  -7 -14   2   56.20   60.80   1
   7  14  -2   56.90   57.30   1
   7  14   3  141.60   77.70   1
  -7 -14  -3   88.90   77.30   1
   7 -14  -3  160.70   80.40   1
  -7  14   3  140.50   79.80   1
  -7  14  -3  118.40   74.80   1
   7 -14   3   77.80   74.80   1
  -7 -14   3  198.80   78.00   1
   7  14  -3   56.60   76.00   1
   7  14   4   28.90   43.00   1
  -7 -14  -4   35.30   42.70   1
   7 -14  -4   35.20   44.10   1
  -7  14   4   21.00   41.70   1
  -7  14  -4   39.00   38.40   1
   7 -14   4   22.50   38.20   1
  -7 -14   4   41.00   40.00   1
   7  14  -4   46.70   41.20   1
   7  14   5   14.10   34.30   1
  -7 -14  -5    6.60   35.80   1
  -7  14  -5   29.70   31.40   1
   7 -14   5   19.40   33.60   1
  -7 -14   5   19.40   37.50   1
   7  14  -5   27.30   35.70   1
   7  14   6  120.50   61.00   1
  -7 -14  -6   40.30   59.70   1
  -7  14  -6   84.70   59.00   1
   7 -14   6   57.00   59.00   1
  -7 -14   6   83.70   65.40   1
   7  14  -6   56.50   63.70   1
   7  14   7   -0.00   37.50   1
  -7 -14  -7   -0.00   38.20   1
  -7  14  -7   22.40   32.50   1
   7 -14   7   36.00   32.50   1
  -7 -14   7   23.30   40.10   1
   7  14  -7   30.80   39.70   1
   7  14   8   36.20   51.90   1
  -7 -14  -8   45.40   50.90   1
  -7  14  -8   38.20   46.60   1
   7 -14   8   84.80   50.90   1
  -7 -14   8   47.50   48.60   1
   7  14  -8   31.90   48.20   1
   7  14   9   -0.00   26.90   1
  -7 -14  -9    7.70   31.70   1
  -7  14  -9   12.20   26.80   1
   7 -14   9   13.70   28.80   1
  -7 -14   9   -0.00   25.70   1
   7  14  -9   -0.00   23.80   1
   7  14  10   -0.00   32.00   1
  -7 -14 -10   19.50   31.70   1
  -7  14 -10   33.50   32.10   1
   7 -14  10   18.50   29.00   1
  -7 -14  10    3.50   36.00   1
   7  14 -10    4.80   34.60   1
   7 -14  11   20.90   34.40   1
  -7 -14  11   18.40   35.70   1
   7  14 -11   23.60   38.50   1
   7  15   0   31.50   35.90   1
  -7 -15   0   62.20   37.30   1
   7 -15   0   10.80   37.30   1
  -7  15   0   12.20   36.90   1
   7  15   1   93.90   72.30   1
  -7 -15  -1  102.60   72.10   1
   7 -15  -1   74.40   73.10   1
  -7  15   1  131.30   73.50   1
  -7  15  -1   98.00   72.60   1
   7 -15   1   80.70   73.30   1
  -7 -15   1  146.90   71.40   1
   7  15  -1   78.80   70.90   1
   7  15   2  109.50   78.10   1
  -7 -15  -2  102.20   78.00   1
   7 -15  -2   89.60   78.00   1
  -7  15   2  141.00   78.90   1
  -7  15  -2   61.60   76.90   1
   7 -15   2  111.40   77.80   1
  -7 -15   2  351.80   85.20   1
   7  15  -2  112.20   76.70   1
   7  15   3  169.50   72.70   1
  -7 -15  -3   93.70   71.40   1
   7 -15  -3  299.20   77.20   1
  -7  15   3  111.40   73.20   1
  -7  15  -3   64.00   68.90   1
   7 -15   3  269.80   70.90   1
  -7 -15   3   70.20   70.50   1
   7  15  -3   43.20   70.30   1
   7  15   4   23.50   50.30   1
  -7 -15  -4   11.40   50.50   1
   7 -15  -4   27.10   53.70   1
  -7  15   4   36.60   51.20   1
  -7  15  -4   96.40   49.10   1
   7 -15   4   71.30   49.60   1
  -7 -15   4   75.60   50.90   1
   7  15  -4   64.60   50.70   1
   7  15   5    8.00   38.30   1
  -7 -15  -5    8.10   38.20   1
   7 -15  -5   79.20   42.40   1
  -7  15   5  129.80   46.40   1
  -7  15  -5   35.70   35.30   1
   7 -15   5   19.30   36.50   1
  -7 -15   5   58.30   39.50   1
   7  15  -5   18.40   36.10   1
   7  15   6   84.40   61.50   1
  -7 -15  -6   70.80   60.80   1
  -7  15  -6   45.00   62.10   1
   7 -15   6   51.60   59.90   1
  -7 -15   6  109.10   66.50   1
   7  15  -6   84.90   62.30   1
   7  15   7   68.90   44.50   1
  -7 -15  -7   20.90   44.40   1
  -7  15  -7   16.90   38.90   1
   7 -15   7   22.30   38.60   1
  -7 -15   7   84.90   48.10   1
   7  15  -7   42.10   44.40   1
   7  15   8   21.70   41.80   1
  -7 -15  -8   32.20   42.60   1
  -7  15  -8   14.00   35.40   1
   7 -15   8   74.70   40.70   1
  -7 -15   8   31.80   39.90   1
   7  15  -8   26.80   41.90   1
   7  15   9   -0.00   33.00   1
  -7 -15  -9   -0.00   39.90   1
  -7  15  -9   90.70   35.60   1
   7 -15   9    0.80   30.80   1
  -7 -15   9   -0.00   30.30   1
   7  15  -9   16.30   29.70   1
   7  15  10   17.20   34.50   1
  -7 -15 -10   16.90   37.50   1
  -7  15 -10   11.30   36.70   1
   7 -15  10   86.90   37.10   1
  -7 -15  10   -0.00   35.40   1
   7  15 -10    9.10   34.20   1
  -7 -15 -11   16.20   38.30   1
   7 -15  11   21.30   35.40   1
  -7 -15  11   29.30   43.40   1
   7  15 -11   43.80   43.50   1
   7  16   0   76.30   43.20   1
  -7 -16   0   -0.00   41.50   1
   7 -16   0   46.50   44.20   1
  -7  16   0   62.50   44.50   1
   7  16   1  196.30  108.60   1
  -7 -16  -1  174.90  107.80   1
   7 -16  -1  174.90  108.90   1
  -7  16   1  140.00  108.40   1
  -7  16  -1  190.60  109.30   1
   7 -16   1  239.80  109.50   1
  -7 -16   1  212.70  107.60   1
   7  16  -1  155.30  107.10   1
   7  16   2  101.70   46.00   1
  -7 -16  -2   37.70   43.40   1
   7 -16  -2   17.80   43.00   1
  -7  16   2    9.50   44.60   1
  -7  16  -2   27.10   42.80   1
   7 -16   2   63.90   43.90   1
  -7 -16   2   31.70   43.80   1
   7  16  -2   26.70   40.50   1
   7  16   3  112.20   77.90   1
  -7 -16  -3  104.70   78.10   1
   7 -16  -3  233.20   80.70   1
  -7  16   3  161.10   78.70   1
  -7  16  -3  163.40   76.40   1
   7 -16   3  207.10   76.30   1
  -7 -16   3   32.00   76.70   1
   7  16  -3   41.30   79.40   1
   7  16   4   98.60   80.00   1
  -7 -16  -4  106.80   79.90   1
   7 -16  -4  151.10   84.80   1
  -7  16   4  109.60   83.10   1
  -7  16  -4   89.30   77.80   1
   7 -16   4  193.80   78.60   1
  -7 -16   4  111.50   79.40   1
   7  16  -4  104.60   80.40   1
   7  16   5   34.00   39.80   1
  -7 -16  -5   89.40   43.40   1
   7 -16  -5   14.30   41.00   1
  -7  16   5   43.50   40.30   1
  -7  16  -5   28.00   36.50   1
   7 -16   5   38.00   37.00   1
  -7 -16   5   20.40   38.20   1
   7  16  -5   13.30   36.60   1
   7  16   6   76.30   57.00   1
  -7 -16  -6   75.00   55.80   1
   7 -16  -6   79.30   58.00   1
  -7  16  -6   32.70   55.90   1
   7 -16   6   42.50   59.60   1
  -7 -16   6   75.30   58.90   1
   7  16  -6   55.20   55.70   1
   7  16   7   54.00   55.80   1
  -7 -16  -7   21.50   54.30   1
  -7  16  -7   59.80   53.50   1
   7 -16   7   59.00   52.90   1
  -7 -16   7   84.00   60.00   1
   7  16  -7  105.50   58.90   1
   7  16   8   23.90   43.00   1
  -7 -16  -8   67.80   46.10   1
  -7  16  -8   12.70   37.10   1
   7 -16   8   43.60   38.70   1
  -7 -16   8   61.90   46.90   1
   7  16  -8   27.10   47.40   1
   7  16   9   97.20   46.70   1
  -7 -16  -9   28.80   45.00   1
  -7  16  -9   17.70   37.00   1
   7 -16   9   25.30   40.60   1
  -7 -16   9   54.00   40.60   1
   7  16  -9    5.90   40.10   1
   7  16  10   54.30   53.30   1
  -7 -16 -10   75.30   57.20   1
   7 -16  10   76.90   57.20   1
  -7 -16  10   38.90   52.40   1
   7  16 -10   42.00   51.90   1
   7  17   0   -0.00   20.40   1
  -7 -17   0    5.30   22.30   1
   7 -17   0   11.00   25.90   1
  -7  17   0    8.70   23.90   1
   7  17   1   65.40   50.30   1
  -7 -17  -1   41.30   48.80   1
   7 -17  -1  310.20   56.40   1
  -7  17   1   45.60   50.10   1
  -7  17  -1   21.70   50.00   1
   7 -17   1   43.90   50.00   1
  -7 -17   1   50.20   48.20   1
   7  17  -1   46.40   48.10   1
   7  17   2   38.50   43.00   1
  -7 -17  -2   52.80   42.60   1
   7 -17  -2   61.40   42.20   1
  -7  17   2   91.40   44.60   1
  -7  17  -2   35.90   41.90   1
   7 -17   2   29.30   40.20   1
  -7 -17   2    6.70   38.90   1
   7  17  -2   13.70   38.00   1
   7  17   3  119.50   72.40   1
  -7 -17  -3  118.60   72.60   1
   7 -17  -3   56.10   72.30   1
  -7  17   3   55.60   71.40   1
  -7  17  -3  122.80   70.00   1
   7 -17   3   54.70   68.60   1
  -7 -17   3  350.10   83.30   1
   7  17  -3  336.60   81.20   1
   7  17   4   12.50   38.70   1
  -7 -17  -4    9.20   39.00   1
   7 -17  -4   45.20   43.00   1
  -7  17   4  214.50   51.30   1
  -7  17  -4   26.60   35.90   1
   7 -17   4   26.60   35.10   1
  -7 -17   4   33.40   39.80   1
   7  17  -4   14.50   38.10   1
   7  17   5  144.90   80.40   1
  -7 -17  -5  105.00   80.60   1
   7 -17  -5  107.30   83.00   1
  -7  17   5   76.70   80.00   1
  -7  17  -5  102.10   77.70   1
   7 -17   5  245.60   78.90   1
  -7 -17   5  102.00   78.70   1
   7  17  -5   90.40   78.20   1
   7  17   6    1.70   32.70   1
  -7 -17  -6    8.10   33.30   1
   7 -17  -6   20.10   33.80   1
  -7  17   6   24.30   34.80   1
  -7  17  -6   31.50   31.30   1
   7 -17   6   51.90   38.40   1
  -7 -17   6   11.20   31.90   1
   7  17  -6    5.30   29.70   1
   7  17   7    0.20   39.20   1
  -7 -17  -7   33.60   40.20   1
  -7  17  -7   10.50   35.00   1
   7 -17   7   13.50   37.30   1
  -7 -17   7  118.20   49.60   1
   7  17  -7  129.60   44.80   1
   7  17   8   -0.00   33.20   1
  -7 -17  -8   10.30   33.60   1
  -7  17  -8   27.10   24.80   1
   7 -17   8   -0.00   23.50   1
  -7 -17   8   14.40   36.40   1
   7  17  -8    3.90   33.80   1
   7  17   9   10.50   40.60   1
  -7 -17  -9    6.20   41.50   1
   7 -17   9   94.00   39.90   1
  -7 -17   9    8.30   39.40   1
   7  17  -9   18.40   41.10   1
   7  17  10   78.70   50.20   1
  -7 -17 -10   25.40   52.90   1
   7 -17  10   27.70   46.00   1
  -7 -17  10   61.70   46.90   1
   7  17 -10   21.90   45.30   1
   7  18   0   16.10   37.90   1
  -7 -18   0   22.60   37.70   1
   7 -18   0   39.30   41.10   1
  -7  18   0   58.60   41.00   1
   7  18   1   30.70   42.00   1
  -7 -18  -1   61.40   41.40   1
   7 -18  -1   55.10   42.70   1
  -7  18   1   23.70   42.10   1
  -7  18  -1   21.90   42.70   1
   7 -18   1   47.80   44.00   1
  -7 -18   1   26.10   40.20   1
   7  18  -1   23.40   40.10   1
   7  18   2   46.20   58.40   1
  -7 -18  -2   53.90   59.40   1
   7 -18  -2   46.20   58.00   1
  -7  18   2   56.80   58.00   1
  -7  18  -2   54.90   58.50   1
   7 -18   2   28.00   57.80   1
  -7 -18   2  150.00   57.50   1
   7  18  -2  120.80   56.20   1
   7  18   3   94.30   68.80   1
  -7 -18  -3  102.50   68.80   1
   7 -18  -3   99.60   69.20   1
  -7  18   3  120.20   69.60   1
  -7  18  -3   88.30   66.80   1
   7 -18   3   73.00   65.80   1
  -7 -18   3   79.40   72.50   1
   7  18  -3   45.30   69.00   1
   7  18   4   93.30   70.90   1
  -7 -18  -4  161.20   72.30   1
   7 -18  -4  294.60   77.80   1
  -7  18   4  139.60   72.60   1
  -7  18  -4  214.40   69.60   1
   7 -18   4   91.50   68.20   1
  -7 -18   4  134.10   71.60   1
   7  18  -4   13.70   68.20   1
   7  18   5   19.00   47.50   1
  -7 -18  -5   30.30   48.10   1
   7 -18  -5   48.50   53.80   1
  -7  18   5   39.20   51.00   1
  -7  18  -5   41.00   45.40   1
   7 -18   5   54.50   45.40   1
  -7 -18   5   62.90   46.80   1
   7  18  -5   56.00   47.90   1
   7  18   6   43.90   44.00   1
  -7 -18  -6   90.40   45.20   1
   7 -18  -6   -0.00   42.70   1
  -7  18   6   46.10   42.90   1
  -7  18  -6   49.60   38.70   1
   7 -18   6   28.70   41.00   1
  -7 -18   6   24.80   39.00   1
   7  18  -6   14.50   38.40   1
   7  18   7   13.50   34.10   1
  -7 -18  -7   -0.00   33.40   1
   7 -18  -7    8.50   34.80   1
  -7  18  -7   18.50   36.00   1
   7 -18   7    6.50   30.60   1
  -7 -18   7   55.50   36.60   1
   7  18  -7   21.10   32.80   1
   7  18   8   81.40   54.90   1
  -7 -18  -8   52.70   55.00   1
   7 -18   8   45.10   48.00   1
  -7 -18   8   45.30   56.20   1
   7  18  -8   37.10   54.50   1
   7  18   9   -0.00   37.40   1
  -7 -18  -9   13.50   41.70   1
   7 -18   9   19.10   33.10   1
  -7 -18   9   43.20   42.80   1
   7  18  -9   57.90   43.90   1
   7  19   0    4.30   20.70   1
  -7 -19   0   -0.10   20.50   1
   7 -19   0    4.80   22.60   1
  -7  19   0   -0.00   24.00   1
   7  19   1   32.60   34.90   1
  -7 -19  -1   26.20   33.30   1
   7 -19  -1   24.00   34.70   1
  -7  19   1    4.00   34.70   1
  -7  19  -1   12.00   35.00   1
   7 -19   1   12.20   34.20   1
  -7 -19   1   21.60   31.70   1
   7  19  -1   16.80   31.90   1
   7  19   2   36.20   37.70   1
  -7 -19  -2   49.00   37.60   1
   7 -19  -2   -0.00   33.90   1
  -7  19   2    9.10   34.40   1
  -7  19  -2   61.90   36.90   1
   7 -19   2   37.50   36.60   1
  -7 -19   2    9.70   31.20   1
   7  19  -2    5.80   31.00   1
   7  19   3   -0.00   38.90   1
  -7 -19  -3   23.50   40.10   1
   7 -19  -3   16.40   38.60   1
  -7  19   3   22.20   39.00   1
  -7  19  -3   17.00   35.50   1
   7 -19   3    6.60   34.10   1
  -7 -19   3   78.10   45.20   1
   7  19  -3  116.70   41.10   1
   7  19   4   73.30   38.70   1
  -7 -19  -4   18.30   37.20   1
   7 -19  -4   12.10   38.90   1
  -7  19   4   18.10   36.40   1
  -7  19  -4    5.10   32.50   1
   7 -19   4   35.00   32.10   1
  -7 -19   4    8.60   34.30   1
   7  19  -4    9.00   40.30   1
   7  19   5   33.00   44.60   1
  -7 -19  -5   30.20   45.10   1
   7 -19  -5    5.80   47.90   1
  -7  19   5   19.50   48.50   1
  -7  19  -5   45.10   41.10   1
   7 -19   5   23.90   39.70   1
  -7 -19   5   65.70   44.20   1
   7  19  -5   61.20   44.80   1
   7  19   6   26.00   31.90   1
  -7 -19  -6   21.30   32.30   1
   7 -19  -6    9.30   36.80   1
  -7  19   6    8.90   31.40   1
  -7  19  -6   -0.00   24.30   1
   7 -19   6    4.60   27.50   1
  -7 -19   6   18.20   27.40   1
   7  19  -6   18.60   27.90   1
   7  19   7   -0.00   28.70   1
  -7 -19  -7    4.60   28.50   1
   7 -19  -7   -0.00   30.40   1
  -7  19   7    1.00   31.60   1
   7 -19   7   -0.00   27.70   1
  -7 -19   7   12.30   27.80   1
   7  19  -7   16.30   23.30   1
   7  19   8   -0.00   31.10   1
  -7 -19  -8    6.40   30.10   1
   7 -19   8    8.30   21.90   1
  -7 -19   8   -0.00   33.30   1
   7  19  -8   -0.00   32.40   1
   7  20   0   23.50   33.40   1
  -7 -20   0   18.80   33.20   1
   7 -20   0    7.40   34.50   1
  -7  20   0   33.20   36.10   1
   7  20   1   22.80   41.50   1
  -7 -20  -1   17.70   41.30   1
   7 -20  -1   -0.00   41.70   1
  -7  20   1   24.40   42.20   1
  -7  20  -1   35.20   43.40   1
   7 -20   1   84.30   44.50   1
  -7 -20   1   67.10   41.20   1
   7  20  -1   46.00   40.80   1
   7  20   2   66.90   52.90   1
  -7 -20  -2   45.80   51.80   1
   7 -20  -2   11.00   49.20   1
  -7  20   2   31.90   50.40   1
  -7  20  -2   77.40   52.20   1
   7 -20   2  187.50   56.00   1
  -7 -20   2   51.20   48.40   1
   7  20  -2   53.30   48.30   1
   7  20   3   98.70   66.40   1
  -7 -20  -3   80.00   66.50   1
   7 -20  -3  112.50   66.20   1
  -7  20   3  131.70   67.80   1
  -7  20  -3  133.40   65.20   1
   7 -20   3   75.60   63.20   1
  -7 -20   3   60.60   65.70   1
   7  20  -3   38.10   62.40   1
   7  20   4   14.70   41.20   1
  -7 -20  -4    8.70   41.90   1
   7 -20  -4   -0.00   43.10   1
  -7  20   4    3.10   41.40   1
  -7  20  -4   63.90   37.20   1
   7 -20   4  125.00   39.50   1
  -7 -20   4   10.30   42.40   1
   7  20  -4    5.40   47.00   1
   7  20   5   41.90   35.40   1
  -7 -20  -5   25.20   36.30   1
   7 -20  -5   -0.00   37.40   1
  -7  20   5  129.00   45.00   1
   7 -20   5   14.50   29.00   1
  -7 -20   5   10.90   33.30   1
   7  20  -5   -0.00   33.80   1
   7  20   6   -0.00   44.00   1
  -7 -20  -6   26.40   44.80   1
   7 -20  -6   27.90   51.60   1
  -7  20   6   16.30   47.80   1
   7 -20   6   50.20   42.50   1
  -7 -20   6   46.10   43.00   1
   7  20  -6   83.50   43.40   1
   7  20   7   51.20   44.70   1
  -7 -20  -7   55.70   45.00   1
   7 -20  -7   48.40   46.70   1
  -7  20   7   62.80   45.30   1
   7 -20   7   48.30   49.30   1
  -7 -20   7   15.20   41.70   1
   7  20  -7   13.30   39.70   1
   7  21   0    6.80   23.20   1
  -7 -21   0   -0.10   21.60   1
   7 -21   0    4.90   25.30   1
  -7  21   0    3.90   25.90   1
   7  21   1   47.50   55.20   1
  -7 -21  -1   70.40   55.00   1
   7 -21  -1   56.40   55.30   1
  -7  21   1  107.80   56.70   1
  -7  21  -1   58.50   56.80   1
   7 -21   1   61.40   56.30   1
  -7 -21   1   45.70   53.40   1
   7  21  -1   47.10   53.50   1
   7  21   2   70.90   54.90   1
  -7 -21  -2   32.80   53.00   1
   7 -21  -2  147.80   56.80   1
  -7  21   2   51.40   51.60   1
  -7  21  -2  134.10   56.20   1
   7 -21   2   55.10   53.10   1
  -7 -21   2   33.10   47.90   1
   7  21  -2   37.80   48.90   1
   7  21   3   77.90   54.60   1
  -7 -21  -3   69.10   56.10   1
   7 -21  -3   48.40   55.50   1
  -7  21   3   82.00   56.50   1
   7 -21   3   -0.00   51.50   1
  -7 -21   3  106.20   54.00   1
   7  21  -3   74.60   51.10   1
   7  21   4   30.50   39.20   1
  -7 -21  -4   39.90   40.90   1
   7 -21  -4   16.80   41.10   1
  -7  21   4   -0.00   41.80   1
   7 -21   4   33.00   35.30   1
  -7 -21   4   18.00   46.40   1
   7  21  -4   13.60   43.80   1
   7  21   5   51.80   47.30   1
  -7 -21  -5   58.50   48.40   1
   7 -21  -5  163.30   56.90   1
  -7  21   5  101.00   51.10   1
   7 -21   5   43.40   43.50   1
  -7 -21   5   29.50   45.90   1
   7  21  -5    3.20   44.00   1
   7  22   0    8.70   29.50   1
  -7 -22   0   19.10   30.70   1
   7 -22   0   17.40   32.80   1
   7  22   1    8.40   27.70   1
  -7 -22  -1   10.30   27.90   1
   7 -22  -1   -0.00   28.20   1
   7 -22   1   13.20   31.50   1
  -7 -22   1    2.70   25.50   1
   7  22  -1   11.80   26.40   1
   7  22   2   80.50   48.00   1
  -7 -22  -2   12.50   45.40   1
   7 -22  -2   36.10   43.40   1
   7 -22   2   16.80   43.60   1
  -7 -22   2   27.50   40.40   1
   7  22  -2   42.70   40.70   1
   7  22   3    6.00   30.00   1
  -7 -22  -3   13.40   30.50   1
   7 -22  -3   -0.00   28.00   1
   7 -22   3    8.10   23.00   1
  -7 -22   3   -0.00   22.30   1
   7  22  -3   -0.00   21.90   1
   8   0   0 5750.60 2283.10   1
  -8   0   0 5304.40 2277.50   1
   8   0   1   41.60   46.80   1
  -8   0  -1   57.80   46.60   1
   8   0  -1   68.00   46.80   1
  -8   0   1   49.10   46.70   1
   8   0   2 1566.60  636.20   1
  -8   0  -2 1379.40  636.30   1
   8   0   3   37.20   31.10   1
  -8   0  -3   15.20   30.80   1
   8   1   0   29.70   24.60   1
  -8  -1   0    6.10   23.70   1
   8   1   1  630.30  320.30   1
  -8  -1  -1  674.30  320.40   1
   8  -1   1  883.10  325.80   1
  -8  -1   1  905.70  323.20   1
   8   1  -1  757.70  321.40   1
   8   1   2  220.70   53.70   1
  -8  -1  -2  159.80   53.30   1
  -8  -1   2   37.80   53.30   1
   8   1  -2   34.00   53.40   1
   8   1   3  245.70  135.90   1
  -8  -1  -3  290.90  136.00   1
  -8  -1   3  212.30  136.80   1
   8   1  -3  187.90  136.40   1
   8   1  -4  190.80  114.90   1
   8   2   0 1651.60  704.30   1
  -8  -2   0 1624.60  704.60   1
   8   2   1   94.60   79.50   1
  -8  -2  -1  123.00   79.50   1
  -8  -2   1  174.30   80.00   1
   8   2  -1  146.70   80.10   1
   8   2   2  282.00   77.00   1
  -8  -2  -2  489.80   77.90   1
  -8  -2   2   76.30   76.50   1
   8   2  -2   77.10   76.70   1
   8   2   3  153.50   53.40   1
  -8  -2  -3   55.90   53.10   1
  -8   2  -3   65.00   52.10   1
  -8  -2   3   42.90   52.90   1
   8   2  -3   57.20   52.90   1
   8   2   4  804.60  258.60   1
  -8  -2  -4  866.30  258.80   1
  -8  -2   4  369.40  257.10   1
   8   2  -4  428.30  257.50   1
  -8  -2   5   11.90   19.50   1
   8   2  -5    5.10   20.00   1
  -8  -2   6  441.60  215.20   1
   8   2  -6  400.70  209.30   1
   8   3   0  190.40  125.80   1
  -8  -3   0  279.20  126.50   1
   8   3   1  338.50   98.60   1
  -8  -3  -1  208.60   96.90   1
  -8  -3   1  120.40   96.30   1
   8   3  -1  136.70   96.20   1
   8   3   2   41.40   39.90   1
  -8  -3  -2   31.00   39.80   1
  -8   3  -2   59.30   39.50   1
   8  -3   2   35.40   39.30   1
  -8  -3   2   32.90   40.40   1
   8   3  -2   33.40   40.70   1
   8   3   3  701.50  401.00   1
  -8  -3  -3 1105.80  402.20   1
  -8   3  -3 1033.40  401.40   1
   8  -3   3  805.40  401.30   1
  -8  -3   3 1413.10  406.10   1
   8   3  -3 1697.30  408.90   1
   8   3   4  135.70   63.70   1
  -8  -3  -4  371.60   65.90   1
  -8   3  -4  116.70   61.70   1
   8  -3   4   57.20   61.40   1
  -8  -3   4   63.30   62.10   1
   8   3  -4   70.50   62.40   1
  -8   3  -5  410.70  189.00   1
   8  -3   5  468.90  191.20   1
  -8  -3   5  404.10  189.40   1
   8   3  -5  314.00  188.60   1
  -8  -3   6  486.70  247.60   1
   8   3  -6  545.30  248.10   1
  -8  -3   7  417.00  226.30   1
   8   3  -7  505.20  227.00   1
  -8  -3   8    7.80   25.00   1
   8   3  -8  171.70   34.40   1
   8   3  -9   47.40   48.90   1
   8   4   0   55.80   58.70   1
  -8  -4   0  115.40   59.50   1
   8   4   1  453.40  298.80   1
  -8  -4  -1 1598.20  303.60   1
  -8  -4   1 1078.10  301.40   1
   8   4  -1 1157.70  302.20   1
   8   4   2  102.00   90.80   1
  -8  -4  -2  202.40   91.00   1
  -8   4  -2  243.30   90.80   1
   8  -4   2  148.90   90.50   1
  -8  -4   2  174.00   92.80   1
   8   4  -2  113.60   91.90   1
   8   4   3 1461.20  621.30   1
  -8  -4  -3 1593.60  621.90   1
  -8   4  -3 1342.70  620.20   1
   8   4   4  899.70  268.10   1
  -8  -4  -4  632.30  266.90   1
  -8   4  -4  528.20  266.20   1
   8  -4   4  457.20  266.00   1
  -8  -4   4  542.00  267.10   1
   8   4  -4  562.10  267.30   1
   8   4   5  296.90   50.80   1
  -8  -4  -5  371.10   52.00   1
  -8   4  -5   82.80   45.80   1
   8  -4   5   38.80   45.40   1
  -8  -4   5   34.20   46.10   1
   8   4  -5   38.30   46.30   1
  -8   4  -6   53.80   48.40   1
   8  -4   6  180.30   50.00   1
  -8  -4   6   51.60   49.10   1
   8   4  -6   45.60   49.30   1
  -8   4  -7  147.60   57.70   1
   8  -4   7   62.80   56.80   1
  -8  -4   7   50.70   57.10   1
   8   4  -7  105.80   58.10   1
  -8   4  -8  203.10  134.70   1
  -8  -4   8  231.80  134.10   1
   8   4  -8  280.20  134.70   1
  -8  -4   9   15.80   28.80   1
   8   4  -9   22.00   29.50   1
  -8  -4  10   41.90   51.60   1
   8   4 -10  102.80   53.80   1
   8   4 -11    8.10   24.00   1
   8   5   0   33.60   45.30   1
  -8  -5   0   60.60   45.50   1
   8   5   1  296.50  171.60   1
  -8  -5  -1  411.50  171.90   1
  -8   5  -1  364.60  172.40   1
   8  -5   1  248.80  172.00   1
  -8  -5   1  721.90  176.10   1
   8   5  -1  349.30  173.60   1
   8   5   2  146.20   90.70   1
  -8  -5  -2  152.90   90.50   1
  -8   5  -2  134.70   90.10   1
   8  -5   2  183.20   90.30   1
  -8  -5   2  129.90   90.90   1
   8   5  -2  124.10   91.00   1
   8   5   3 1826.20  762.70   1
  -8  -5  -3 2176.80  763.40   1
  -8   5  -3 2066.50  761.30   1
   8  -5   3 1331.20  760.20   1
  -8  -5   3 2800.90  768.50   1
   8   5  -3 2830.30  768.90   1
   8   5   4   44.60   49.00   1
  -8  -5  -4   55.00   49.80   1
  -8   5  -4  197.30   49.50   1
   8  -5   4  218.30   50.80   1
  -8  -5   4   24.70   48.70   1
   8   5  -4   33.80   48.90   1
   8   5   5 2437.20  876.20   1
  -8  -5  -5 1735.00  872.50   1
  -8   5  -5 2220.90  872.90   1
   8  -5   5 1907.60  872.70   1
  -8  -5   5 2189.10  876.60   1
   8   5  -5 2230.50  876.50   1
  -8  -5  -6  588.00  358.70   1
  -8   5  -6  849.20  357.30   1
   8  -5   6  880.10  358.40   1
  -8  -5   6  787.30  358.90   1
   8   5  -6  780.30  358.40   1
  -8   5  -7 5380.40 1924.50   1
   8  -5   7 4124.40 1910.30   1
  -8  -5   7 4100.90 1910.00   1
   8   5  -7 5423.70 1927.40   1
  -8   5  -8   64.80   58.80   1
   8  -5   8   99.60   59.20   1
  -8  -5   8   66.80   59.40   1
   8   5  -8   82.60   59.90   1
  -8   5  -9 1307.00  511.60   1
   8  -5   9 1278.10  518.60   1
  -8  -5   9  971.30  504.40   1
   8   5  -9 1166.70  507.40   1
  -8   5 -10  143.70   63.40   1
  -8  -5  10   64.10   60.60   1
   8   5 -10   74.60   60.80   1
  -8  -5  11   64.20   54.40   1
   8   5 -11   59.50   54.50   1
  -8  -5  12    4.60   19.10   1
   8   5 -12    1.90   18.60   1
   8   5 -13  412.80  221.20   1
   8   5 -14   32.60   43.40   1
   8   6   0  117.70  103.40   1
  -8  -6   0  397.10  104.90   1
   8  -6   0  570.70  110.20   1
   8   6   1    8.80   33.90   1
  -8  -6  -1   49.20   34.40   1
  -8   6  -1   30.20   35.60   1
   8  -6   1   26.40   35.40   1
  -8  -6   1   77.00   37.80   1
   8   6   2   35.00   47.90   1
  -8  -6  -2   34.10   47.50   1
  -8   6  -2   58.80   47.30   1
   8  -6   2   52.20   47.40   1
  -8  -6   2   97.10   51.80   1
   8   6  -2  140.50   53.20   1
   8   6   3  378.70  109.10   1
  -8  -6  -3  374.30  109.00   1
  -8   6  -3  250.80  106.70   1
   8  -6   3  260.10  106.70   1
  -8  -6   3   94.80  107.40   1
   8   6  -3  129.30  107.40   1
   8   6   4  151.10   84.60   1
  -8  -6  -4  135.60   84.40   1
  -8   6  -4  263.40   83.80   1
   8  -6   4  208.70   83.50   1
  -8  -6   4   71.90   84.80   1
   8   6  -4   52.70   85.00   1
   8   6   5   20.00   41.90   1
  -8  -6  -5   91.50   44.20   1
  -8   6  -5  231.30   43.30   1
   8  -6   5  127.10   40.80   1
  -8  -6   5    9.60   40.00   1
   8   6  -5   12.60   40.40   1
   8   6   6   48.40   46.20   1
  -8  -6  -6  112.20   48.10   1
  -8   6  -6   69.70   46.40   1
   8  -6   6   27.10   44.70   1
  -8  -6   6   43.70   45.00   1
   8   6  -6   44.90   45.30   1
  -8   6  -7   84.90   47.30   1
   8  -6   7   45.80   46.50   1
  -8  -6   7   32.60   47.10   1
   8   6  -7   60.10   47.80   1
  -8   6  -8  521.60  222.60   1
   8  -6   8  361.00  221.60   1
  -8  -6   8  498.70  223.70   1
   8   6  -8  492.40  223.60   1
  -8   6  -9   55.60   41.90   1
   8  -6   9   37.10   41.50   1
  -8  -6   9   32.40   42.20   1
   8   6  -9   48.10   42.80   1
  -8   6 -10  190.90  109.60   1
   8  -6  10  165.50  109.30   1
  -8  -6  10  173.40  109.70   1
   8   6 -10  211.80  110.60   1
  -8   6 -11   17.60   20.10   1
   8  -6  11   12.60   19.70   1
  -8  -6  11   -0.00   20.40   1
   8   6 -11    5.10   20.60   1
  -8   6 -12   95.30   60.70   1
   8  -6  12  104.30   63.90   1
  -8  -6  12   58.40   59.40   1
   8   6 -12   72.30   60.10   1
  -8   6 -13    6.10   20.70   1
  -8  -6  13    3.60   19.90   1
   8   6 -13    6.20   20.70   1
  -8  -6  14   22.30   39.60   1
   8   6 -14   63.40   42.20   1
   8   7   0  146.10   83.50   1
  -8  -7   0   83.10   83.80   1
   8  -7   0  140.50   81.60   1
  -8   7   0  116.70   80.90   1
   8   7   1  230.70  166.30   1
  -8  -7  -1  360.60  166.60   1
  -8   7  -1  395.30  167.10   1
   8  -7   1  351.10  166.90   1
  -8  -7   1  394.40  167.20   1
   8   7  -1  338.40  167.10   1
   8   7   2  109.30   87.50   1
  -8  -7  -2  110.60   87.00   1
  -8   7  -2  139.80   87.00   1
   8  -7   2  157.20   87.20   1
  -8  -7   2  417.30   93.40   1
   8   7  -2  145.50   89.90   1
   8   7   3  329.40  175.30   1
  -8  -7  -3  553.60  176.60   1
  -8   7  -3  318.80  174.20   1
   8  -7   3  294.60  174.20   1
  -8  -7   3  302.10  175.50   1
   8   7  -3  573.00  177.10   1
   8   7   4  345.90   74.70   1
  -8  -7  -4  344.40   74.80   1
  -8  -7   4   53.50   73.40   1
   8   7  -4   75.70   73.10   1
   8   7   5  503.60  194.40   1
  -8  -7  -5  675.80  195.00   1
  -8   7  -5  297.30  192.70   1
   8  -7   5  417.80  193.60   1
  -8  -7   5  338.60  193.70   1
   8   7  -5  417.40  194.50   1
   8   7   6   14.50   34.20   1
  -8  -7  -6   36.20   36.20   1
  -8   7  -6   22.50   29.60   1
   8  -7   6   17.20   29.00   1
  -8  -7   6   17.40   30.60   1
   8   7  -6   21.30   31.10   1
  -8  -7  -7  135.80  106.60   1
  -8   7  -7  282.20  107.50   1
   8  -7   7  141.70  105.60   1
  -8  -7   7  195.90  106.10   1
   8   7  -7  216.00  106.50   1
  -8   7  -8   22.50   24.30   1
   8  -7   8    6.70   22.90   1
  -8  -7   8    9.70   24.00   1
   8   7  -8   17.90   25.20   1
  -8   7  -9  128.50   82.80   1
   8  -7   9  121.70   82.60   1
  -8  -7   9  115.50   83.20   1
   8   7  -9  131.90   83.40   1
  -8   7 -10   36.60   37.60   1
   8  -7  10   25.60   37.00   1
  -8  -7  10   34.90   38.20   1
   8   7 -10   48.50   39.00   1
  -8   7 -11   75.20   58.10   1
   8  -7  11   76.90   58.10   1
  -8  -7  11   56.70   57.90   1
   8   7 -11   91.00   59.00   1
  -8   7 -12    0.90   14.80   1
   8  -7  12    8.50   14.40   1
  -8  -7  12    0.80   15.20   1
   8   7 -12    2.10   16.60   1
  -8   7 -13   40.30   35.10   1
   8  -7  13   13.40   34.00   1
  -8  -7  13   75.80   37.50   1
   8   7 -13   34.60   35.30   1
   8  -7  14   37.10   35.50   1
  -8  -7  14   17.00   32.70   1
   8   7 -14   25.50   34.00   1
   8   8   0 1796.20  651.20   1
  -8  -8   0 1236.90  650.40   1
   8  -8   0 1423.30  651.00   1
  -8   8   0 2223.50  655.20   1
   8   8   1  114.70   62.50   1
  -8  -8  -1   34.20   62.10   1
   8  -8  -1  101.10   63.50   1
  -8   8  -1   72.70   62.80   1
   8  -8   1  132.50   63.10   1
  -8  -8   1  203.10   64.50   1
   8   8  -1   80.50   63.70   1
   8   8   2   84.20   68.70   1
  -8  -8  -2   33.90   67.90   1
  -8   8  -2  154.50   68.60   1
   8  -8   2  104.60   68.30   1
  -8  -8   2  319.20   72.20   1
   8   8  -2  484.20   73.40   1
   8   8   3  610.80  268.90   1
  -8  -8  -3  438.00  268.30   1
  -8   8  -3  648.00  268.10   1
   8  -8   3  505.30  267.50   1
  -8  -8   3  958.20  272.50   1
   8   8  -3  672.10  270.50   1
   8   8   4  574.20  278.30   1
  -8  -8  -4  539.20  278.20   1
  -8   8  -4  621.10  277.90   1
   8  -8   4 1083.10  282.00   1
  -8  -8   4  598.70  278.90   1
   8   8  -4  519.50  278.50   1
   8   8   5  718.70  336.70   1
  -8  -8  -5  577.60  336.00   1
  -8   8  -5  762.90  335.70   1
   8  -8   5  871.90  336.30   1
  -8  -8   5  908.20  338.70   1
   8   8  -5  734.20  337.30   1
   8   8   6  467.00  200.00   1
  -8  -8  -6  333.20  198.40   1
  -8   8  -6  418.40  198.60   1
   8  -8   6  586.20  199.20   1
  -8  -8   6  446.40  198.90   1
   8   8  -6  305.00  198.50   1
   8   8   7  111.20   80.00   1
  -8  -8  -7   75.30   79.60   1
  -8   8  -7  105.40   78.40   1
   8  -8   7  101.70   78.80   1
  -8  -8   7  203.10   80.00   1
   8   8  -7  216.10   80.60   1
  -8   8  -8  431.90  218.00   1
   8  -8   8  419.70  217.40   1
  -8  -8   8  441.20  218.20   1
   8   8  -8  503.90  218.60   1
  -8   8  -9   19.90   24.80   1
   8  -8   9    4.30   23.10   1
  -8  -8   9   16.90   24.80   1
   8   8  -9   17.80   25.70   1
  -8   8 -10   40.00   43.20   1
   8  -8  10   33.00   42.40   1
  -8  -8  10   63.00   44.10   1
   8   8 -10   51.30   44.10   1
  -8   8 -11   45.30   49.00   1
   8  -8  11   42.00   48.70   1
  -8  -8  11  130.60   51.90   1
   8   8 -11  132.40   52.60   1
  -8   8 -12  100.30   76.40   1
   8  -8  12  139.40   77.40   1
  -8  -8  12   93.20   76.80   1
   8   8 -12  129.40   78.00   1
  -8   8 -13   12.60   17.70   1
   8  -8  13    3.50   16.60   1
  -8  -8  13    6.50   18.00   1
   8   8 -13   -0.00   19.40   1
   8   9   0   37.30   51.80   1
  -8  -9   0   58.50   52.30   1
   8  -9   0  106.80   54.30   1
  -8   9   0   96.30   54.10   1
   8   9   1  118.20   73.20   1
  -8  -9  -1  175.10   73.60   1
   8  -9  -1  263.20   76.90   1
  -8   9   1  127.00   74.50   1
  -8   9  -1  174.10   74.00   1
   8  -9   1  161.10   74.00   1
  -8  -9   1  117.30   74.90   1
   8   9  -1   18.10   73.30   1
   8   9   2   67.50   66.70   1
  -8  -9  -2   53.00   66.40   1
  -8   9  -2   87.60   66.40   1
   8  -9   2   87.60   66.70   1
  -8  -9   2  126.30   66.90   1
   8   9  -2  159.20   66.70   1
   8   9   3  182.30   94.00   1
  -8  -9  -3  188.30   94.00   1
  -8   9  -3  139.70   92.00   1
   8  -9   3  230.00   92.30   1
  -8  -9   3   82.00   95.50   1
   8   9  -3   98.60   94.80   1
   8   9   4 1301.60  590.40   1
  -8  -9  -4 1414.90  590.70   1
  -8   9  -4 1079.90  588.80   1
   8  -9   4 1555.80  590.10   1
  -8  -9   4 2308.80  595.90   1
   8   9  -4 1477.40  592.30   1
   8   9   5   32.50   58.00   1
  -8  -9  -5   33.60   58.20   1
  -8   9  -5  100.40   57.70   1
   8  -9   5   79.80   57.10   1
  -8  -9   5   83.20   59.00   1
   8   9  -5  202.90   60.10   1
   8   9   6   58.70   47.20   1
  -8  -9  -6  117.60   48.30   1
  -8   9  -6  337.60   50.20   1
  -8  -9   6    0.00   45.40   1
   8   9  -6    6.90   45.40   1
   8   9   7   48.70   46.20   1
  -8  -9  -7  119.80   49.40   1
  -8   9  -7   31.00   43.80   1
   8  -9   7   59.00   43.10   1
  -8  -9   7   22.80   44.50   1
   8   9  -7   24.10   45.20   1
  -8  -9  -8  111.10   47.20   1
  -8   9  -8   58.30   43.90   1
   8  -9   8   29.50   44.40   1
  -8  -9   8   30.30   43.40   1
   8   9  -8   32.40   44.00   1
  -8   9  -9    8.70   27.20   1
   8  -9   9   14.40   24.70   1
  -8  -9   9   13.50   25.10   1
   8   9  -9   10.30   24.80   1
  -8   9 -10   52.60   33.30   1
   8  -9  10   17.40   31.30   1
  -8  -9  10   13.60   31.70   1
   8   9 -10   28.80   33.20   1
  -8   9 -11  119.70   74.50   1
   8  -9  11   84.30   73.50   1
  -8  -9  11  106.50   74.60   1
   8   9 -11  127.10   75.20   1
  -8   9 -12   -0.00   10.90   1
   8  -9  12    0.00    9.40   1
  -8  -9  12    1.00   11.60   1
   8   9 -12    0.20   13.40   1
   8  -9  13   10.50   22.00   1
  -8  -9  13    8.70   23.00   1
   8   9 -13   17.30   24.80   1
   8  10   0  219.10   77.90   1
  -8 -10   0  306.10   78.50   1
   8 -10   0   50.10   78.10   1
  -8  10   0   84.50   78.90   1
   8  10   1  121.30   75.10   1
  -8 -10  -1  105.30   75.40   1
   8 -10  -1   98.80   78.10   1
  -8  10   1  131.70   77.30   1
  -8  10  -1  124.50   75.80   1
   8 -10   1  102.80   75.60   1
  -8 -10   1   76.30   77.10   1
   8  10  -1  101.80   79.70   1
   8  10   2  270.50  153.30   1
  -8 -10  -2  274.50  153.30   1
   8 -10  -2  372.00  154.90   1
  -8  10   2  483.20  158.60   1
  -8  10  -2  380.90  153.70   1
   8 -10   2  287.50  153.20   1
  -8 -10   2  211.40  153.00   1
   8  10  -2  448.90  154.00   1
   8  10   3   30.60   50.20   1
  -8 -10  -3   47.50   51.10   1
  -8  10  -3   58.70   48.30   1
   8 -10   3   41.10   48.20   1
  -8 -10   3   49.40   52.50   1
   8  10  -3  134.00   52.10   1
   8  10   4  982.70  311.30   1
  -8 -10  -4 1228.40  312.90   1
  -8  10  -4 1540.40  311.50   1
   8 -10   4  421.00  308.20   1
  -8 -10   4 1406.00  317.00   1
   8  10  -4  910.80  312.90   1
   8  10   5  322.40   78.00   1
  -8 -10  -5  294.70   77.40   1
  -8  10  -5   35.50   74.50   1
   8 -10   5  222.30   76.00   1
  -8 -10   5  222.50   77.60   1
   8  10  -5   77.80   75.70   1
   8  10   6 2085.40  432.60   1
  -8 -10  -6 2063.60  430.90   1
  -8  10  -6 1219.50  422.10   1
   8 -10   6  604.00  420.20   1
  -8 -10   6 1918.10  430.10   1
   8  10  -6 1738.10  428.50   1
   8  10   7   14.90   42.90   1
  -8 -10  -7   28.20   43.10   1
  -8  10  -7   47.70   41.00   1
   8 -10   7   33.30   39.80   1
  -8 -10   7   26.50   43.00   1
   8  10  -7   29.40   42.50   1
   8  10   8  824.10  327.90   1
  -8 -10  -8  851.10  326.80   1
  -8  10  -8  602.90  322.20   1
   8 -10   8  922.70  324.40   1
  -8 -10   8  833.00  325.00   1
   8  10  -8  577.40  323.30   1
  -8  10  -9   27.50   32.60   1
   8 -10   9   20.20   33.20   1
  -8 -10   9   17.40   31.00   1
   8  10  -9   10.90   32.10   1
  -8  10 -10   11.90   36.90   1
   8 -10  10   22.50   36.20   1
  -8 -10  10   64.10   37.50   1
   8  10 -10   50.60   37.60   1
  -8  10 -11   59.30   30.40   1
   8 -10  11    8.60   27.00   1
  -8 -10  11   14.80   27.00   1
   8  10 -11   13.60   28.90   1
  -8  10 -12  146.20   74.50   1
   8 -10  12  109.60   73.40   1
  -8 -10  12   76.70   73.30   1
   8  10 -12  107.40   74.30   1
   8 -10  13    1.60   11.30   1
  -8 -10  13    2.00   14.00   1
   8  10 -13   -0.00   15.60   1
   8  11   0   52.90   40.40   1
  -8 -11   0   26.60   40.50   1
   8 -11   0   41.80   42.50   1
  -8  11   0   29.40   41.30   1
   8  11   1   81.10   61.90   1
  -8 -11  -1   59.80   61.90   1
   8 -11  -1   68.10   64.20   1
  -8  11   1   50.40   63.00   1
  -8  11  -1  151.50   63.10   1
   8 -11   1  138.90   63.50   1
   8  11  -1   63.30   65.40   1
   8  11   2  156.40   73.50   1
  -8 -11  -2  105.20   72.80   1
   8 -11  -2   13.40   72.40   1
  -8  11   2   98.60   73.20   1
  -8  11  -2  118.00   73.00   1
   8 -11   2  123.60   72.70   1
  -8 -11   2  179.30   74.10   1
   8  11  -2  161.00   74.00   1
   8  11   3   25.10   40.00   1
  -8 -11  -3   15.20   38.80   1
  -8  11  -3   40.20   36.50   1
   8 -11   3   29.80   35.80   1
  -8 -11   3   28.40   38.30   1
   8  11  -3   30.60   36.90   1
   8  11   4   20.80   42.90   1
  -8 -11  -4   42.10   44.70   1
  -8  11  -4   41.80   40.20   1
   8 -11   4   21.40   39.90   1
  -8 -11   4  153.90   52.10   1
   8  11  -4   79.10   47.10   1
  -8 -11  -5  117.60   75.40   1
  -8  11  -5  140.90   77.20   1
   8 -11   5  150.20   76.90   1
  -8 -11   5   46.00   76.00   1
   8  11  -5  107.40   78.00   1
   8  11   6  270.90  111.40   1
  -8 -11  -6  130.20  110.00   1
  -8  11  -6  209.10  108.70   1
   8 -11   6  177.10  108.40   1
  -8 -11   6  159.40  109.90   1
   8  11  -6  212.90  110.30   1
   8  11   7   53.10   55.30   1
  -8 -11  -7   73.70   56.50   1
  -8  11  -7   72.70   54.90   1
   8 -11   7   99.20   56.20   1
  -8 -11   7   22.50   54.30   1
   8  11  -7   52.70   53.60   1
   8  11   8   57.00   51.60   1
  -8 -11  -8   26.80   53.00   1
  -8  11  -8  123.80   52.00   1
   8 -11   8   99.50   50.30   1
  -8 -11   8   15.10   51.80   1
   8  11  -8    8.70   51.90   1
  -8 -11  -9   67.20   57.80   1
  -8  11  -9   66.50   55.70   1
   8 -11   9   51.40   55.70   1
  -8 -11   9   77.70   57.50   1
   8  11  -9   64.40   57.90   1
  -8  11 -10   25.80   37.10   1
   8 -11  10   20.10   35.70   1
  -8 -11  10   18.20   34.80   1
   8  11 -10   40.50   36.90   1
  -8  11 -11   17.70   22.90   1
   8 -11  11    2.30   20.80   1
  -8 -11  11   -0.00   20.50   1
   8  11 -11   11.60   22.50   1
   8 -11  12   10.30   16.90   1
  -8 -11  12    1.50   16.40   1
   8  11 -12   -0.00   18.10   1
   8 -11  13   49.20   21.90   1
  -8 -11  13    1.80   20.70   1
   8  11 -13    4.00   22.00   1
   8  12   0  967.50  395.70   1
  -8 -12   0  936.90  395.50   1
   8 -12   0  742.50  395.70   1
  -8  12   0  890.30  396.40   1
   8  12   1  343.30  169.80   1
  -8 -12  -1  341.20  169.70   1
   8 -12  -1  312.00  171.30   1
  -8  12   1  207.50  170.60   1
  -8  12  -1  276.90  169.80   1
   8 -12   1  525.80  171.40   1
  -8 -12   1  851.20  176.40   1
   8  12  -1  382.70  170.70   1
   8  12   2  292.50  139.80   1
  -8 -12  -2  228.50  139.30   1
   8 -12  -2  177.70  140.70   1
  -8  12   2  244.70  140.50   1
  -8  12  -2  307.80  139.60   1
   8 -12   2  210.50  139.30   1
  -8 -12   2  529.00  142.20   1
   8  12  -2  265.10  140.00   1
   8  12   3  359.00  152.30   1
  -8 -12  -3  324.70  151.90   1
   8 -12  -3  136.10  150.40   1
  -8  12   3  208.50  151.50   1
  -8  12  -3  325.50  150.30   1
   8 -12   3  351.40  150.50   1
  -8 -12   3  358.70  151.00   1
   8  12  -3  269.10  150.50   1
   8  12   4  227.60  126.60   1
  -8 -12  -4  155.20  126.50   1
  -8  12  -4  247.00  125.10   1
   8 -12   4  255.90  125.00   1
  -8 -12   4  451.60  130.90   1
   8  12  -4  177.20  127.10   1
   8  12   5  480.90  204.50   1
  -8 -12  -5  265.50  203.40   1
  -8  12  -5  496.70  203.60   1
   8 -12   5 1200.60  213.10   1
  -8 -12   5  523.10  207.90   1
   8  12  -5  386.30  205.80   1
   8  12   6   66.50   64.00   1
  -8 -12  -6  141.20   65.50   1
  -8  12  -6   98.10   63.00   1
   8 -12   6   90.80   61.80   1
  -8 -12   6   47.50   64.00   1
   8  12  -6   45.50   64.30   1
   8  12   7   36.20   72.70   1
  -8 -12  -7   61.60   73.90   1
  -8  12  -7  130.50   70.70   1
   8 -12   7  207.90   73.90   1
  -8 -12   7   86.80   72.00   1
   8  12  -7  132.50   72.60   1
   8  12   8  101.20   69.00   1
  -8 -12  -8  129.20   70.10   1
  -8  12  -8  148.50   68.40   1
   8 -12   8  105.10   67.10   1
  -8 -12   8   40.00   65.90   1
   8  12  -8   48.70   65.10   1
   8  12   9  145.70   72.50   1
  -8 -12  -9  146.70   73.40   1
  -8  12  -9  348.40   75.10   1
   8 -12   9  218.20   71.50   1
  -8 -12   9   36.90   71.00   1
   8  12  -9   56.10   72.20   1
  -8 -12 -10   43.70   36.10   1
  -8  12 -10    8.40   31.60   1
   8 -12  10   28.20   34.60   1
  -8 -12  10   24.00   34.20   1
   8  12 -10   12.70   34.40   1
  -8  12 -11   31.40   35.90   1
   8 -12  11    7.60   31.20   1
  -8 -12  11   15.00   31.60   1
   8  12 -11   34.40   33.90   1
   8 -12  12   29.60   26.80   1
  -8 -12  12   -0.00   25.30   1
   8  12 -12   16.30   27.40   1
   8  13   0  356.60  168.10   1
  -8 -13   0  448.50  168.40   1
   8 -13   0  315.70  168.70   1
  -8  13   0  242.30  168.40   1
   8  13   1  261.40  136.50   1
  -8 -13  -1  279.60  136.50   1
   8 -13  -1  195.80  137.10   1
  -8  13   1  287.00  138.20   1
  -8  13  -1  162.40  136.30   1
   8 -13   1  310.40  137.40   1
  -8 -13   1  440.90  138.30   1
   8  13  -1  260.20  136.30   1
   8  13   2  135.80   77.10   1
  -8 -13  -2  138.30   76.10   1
   8 -13  -2   11.00   75.70   1
  -8  13   2   71.10   76.90   1
  -8  13  -2  159.00   76.20   1
   8 -13   2  154.20   76.80   1
  -8 -13   2  151.50   77.40   1
   8  13  -2  192.70   80.40   1
   8  13   3 1320.90  488.70   1
  -8 -13  -3 1205.10  488.00   1
   8 -13  -3 1232.80  490.20   1
  -8  13   3 1549.10  495.30   1
  -8  13  -3 1285.60  486.80   1
   8 -13   3 1240.70  486.60   1
  -8 -13   3 1065.00  486.10   1
   8  13  -3  845.90  485.50   1
   8  13   4  131.10  104.90   1
  -8 -13  -4  130.30  105.70   1
  -8  13  -4  170.40  103.70   1
   8 -13   4  178.00  103.80   1
  -8 -13   4  269.20  106.70   1
   8  13  -4  216.60  105.20   1
   8  13   5   62.30   66.30   1
  -8 -13  -5   43.70   66.60   1
  -8  13  -5  113.70   64.80   1
   8 -13   5   74.40   65.90   1
  -8 -13   5  133.60   73.00   1
   8  13  -5  176.20   72.40   1
   8  13   6  346.40   99.00   1
  -8 -13  -6  403.20   99.30   1
  -8  13  -6   62.50   94.60   1
   8 -13   6  355.90   98.00   1
  -8 -13   6  771.20  110.70   1
   8  13  -6  463.50  105.30   1
   8  13   7  286.30  117.50   1
  -8 -13  -7  259.40  116.10   1
  -8  13  -7  166.70  112.60   1
   8 -13   7  190.00  113.20   1
  -8 -13   7  243.40  116.00   1
   8  13  -7  151.70  115.00   1
   8  13   8   48.60   48.00   1
  -8 -13  -8   23.30   46.10   1
  -8  13  -8   50.20   43.80   1
   8 -13   8   40.30   44.10   1
  -8 -13   8   21.10   43.90   1
   8  13  -8   30.90   42.50   1
   8  13   9  313.30  118.90   1
  -8 -13  -9  252.00  118.50   1
  -8  13  -9  169.30  116.20   1
   8 -13   9  163.60  115.40   1
  -8 -13   9  212.10  118.20   1
   8  13  -9  208.70  117.30   1
   8  13  10   17.60   36.30   1
  -8 -13 -10   34.20   37.50   1
  -8  13 -10   35.30   34.70   1
   8 -13  10   29.90   33.50   1
  -8 -13  10   12.70   36.60   1
   8  13 -10   -0.00   38.00   1
  -8  13 -11   22.40   39.00   1
   8 -13  11   25.70   40.40   1
  -8 -13  11   60.70   40.80   1
   8  13 -11   21.90   40.40   1
   8 -13  12    4.90   25.20   1
  -8 -13  12    9.40   25.80   1
   8  13 -12   17.30   28.10   1
   8  14   0  152.60   57.50   1
  -8 -14   0   30.20   56.10   1
   8 -14   0   44.20   58.00   1
  -8  14   0  171.80   59.00   1
   8  14   1   22.70   39.60   1
  -8 -14  -1    8.70   38.90   1
   8 -14  -1    8.90   40.40   1
  -8  14   1   87.30   44.30   1
  -8  14  -1   34.00   40.80   1
   8 -14   1   33.80   42.80   1
  -8 -14   1   54.30   39.30   1
   8  14  -1   47.10   38.80   1
   8  14   2  656.40  215.20   1
  -8 -14  -2  696.40  215.10   1
   8 -14  -2  650.20  216.50   1
  -8  14   2  431.80  214.30   1
  -8  14  -2  576.90  214.50   1
   8 -14   2  654.20  215.00   1
  -8 -14   2  273.00  215.00   1
   8  14  -2  278.30  215.30   1
   8  14   3  772.20  237.80   1
  -8 -14  -3  554.30  235.90   1
   8 -14  -3  316.30  235.70   1
  -8  14   3  226.60  234.00   1
  -8  14  -3  662.60  235.10   1
   8 -14   3  682.70  235.00   1
  -8 -14   3  759.20  236.30   1
   8  14  -3  826.60  237.20   1
   8  14   4   13.30   31.70   1
  -8 -14  -4    7.10   32.20   1
   8 -14  -4   22.80   33.40   1
  -8  14   4   13.70   32.40   1
  -8  14  -4   26.50   28.60   1
   8 -14   4   18.60   28.10   1
  -8 -14   4   12.40   30.00   1
   8  14  -4    7.50   29.70   1
   8  14   5  177.30  155.90   1
  -8 -14  -5  215.30  156.30   1
  -8  14  -5  418.60  155.70   1
   8 -14   5  539.10  156.80   1
  -8 -14   5  550.40  162.20   1
   8  14  -5  346.40  157.90   1
   8  14   6  125.00   64.80   1
  -8 -14  -6   97.30   63.50   1
  -8  14  -6   92.80   66.40   1
   8 -14   6   51.20   62.30   1
  -8 -14   6   84.10   69.10   1
   8  14  -6   41.10   65.90   1
   8  14   7   15.50   48.70   1
  -8 -14  -7   34.50   49.80   1
  -8  14  -7   65.30   46.70   1
   8 -14   7  214.00   48.30   1
  -8 -14   7    9.80   49.90   1
   8  14  -7   25.20   50.70   1
   8  14   8   29.40   46.00   1
  -8 -14  -8   44.90   47.70   1
  -8  14  -8   17.20   40.20   1
   8 -14   8   68.20   45.30   1
  -8 -14   8   59.30   45.00   1
   8  14  -8   41.50   44.10   1
   8  14   9   16.70   46.40   1
  -8 -14  -9   18.90   46.50   1
  -8  14  -9  116.30   46.80   1
   8 -14   9  167.70   50.30   1
  -8 -14   9   -0.00   42.40   1
   8  14  -9   27.10   42.30   1
   8  14  10   36.20   42.00   1
  -8 -14 -10    8.50   42.50   1
  -8  14 -10   26.90   40.10   1
   8 -14  10   24.40   38.90   1
  -8 -14  10   59.10   45.40   1
   8  14 -10   42.30   42.60   1
  -8 -14 -11   14.00   27.00   1
   8 -14  11    0.90   21.50   1
  -8 -14  11   -0.00   23.30   1
   8  14 -11   -0.00   28.80   1
   8  15   0   26.20   27.70   1
  -8 -15   0    4.20   27.30   1
   8 -15   0    1.50   28.40   1
  -8  15   0   25.30   30.10   1
   8  15   1 1019.20  459.80   1
  -8 -15  -1  996.30  459.60   1
   8 -15  -1 1514.90  463.90   1
  -8  15   1 1045.90  461.00   1
  -8  15  -1 1192.10  461.90   1
   8 -15   1 1317.60  462.50   1
  -8 -15   1  958.30  459.00   1
   8  15  -1  904.00  458.70   1
   8  15   2   24.20   47.00   1
  -8 -15  -2   29.10   46.40   1
   8 -15  -2   67.70   49.70   1
  -8  15   2    8.30   47.80   1
  -8  15  -2   78.40   48.90   1
   8 -15   2   30.60   46.70   1
   8  15  -2  298.70   56.80   1
   8  15   3  408.10  136.10   1
  -8 -15  -3  278.90  134.70   1
   8 -15  -3  569.10  141.70   1
  -8  15   3  574.80  141.50   1
  -8  15  -3  336.20  133.50   1
   8 -15   3  392.30  133.60   1
  -8 -15   3  393.90  135.30   1
   8  15  -3  102.50  132.60   1
   8  15   4   48.50   70.90   1
  -8 -15  -4   62.80   71.60   1
   8 -15  -4   79.20   71.80   1
  -8  15   4  102.70   71.60   1
  -8  15  -4  102.90   69.30   1
   8 -15   4   92.20   69.40   1
  -8 -15   4  214.20   72.10   1
   8  15  -4  118.30   70.70   1
   8  15   5  125.00   74.20   1
  -8 -15  -5  207.60   75.70   1
   8 -15  -5  174.70   78.40   1
  -8  15  -5  396.10   74.20   1
   8 -15   5  114.30   71.80   1
  -8 -15   5   65.90   73.80   1
   8  15  -5   40.20   72.30   1
   8  15   6   28.00   57.70   1
  -8 -15  -6   19.80   56.70   1
  -8  15  -6  192.00   63.00   1
   8 -15   6   88.60   61.90   1
  -8 -15   6  174.30   65.30   1
   8  15  -6  146.40   62.80   1
   8  15   7  130.90   76.30   1
  -8 -15  -7  162.40   77.40   1
  -8  15  -7  110.20   74.20   1
   8 -15   7  103.20   73.30   1
  -8 -15   7   89.70   78.80   1
   8  15  -7   47.70   76.80   1
   8  15   8    2.50   29.50   1
  -8 -15  -8    8.00   31.30   1
  -8  15  -8   -0.00   21.50   1
   8 -15   8   18.80   23.30   1
  -8 -15   8   11.70   28.70   1
   8  15  -8    3.00   29.00   1
   8  15   9   15.90   53.20   1
  -8 -15  -9   41.10   51.40   1
  -8  15  -9   55.10   48.80   1
   8 -15   9   75.90   50.40   1
  -8 -15   9   46.30   49.10   1
   8  15  -9   34.40   48.50   1
   8  15  10    3.80   31.20   1
  -8 -15 -10   42.60   35.40   1
   8 -15  10   27.60   31.90   1
  -8 -15  10   -0.00   33.00   1
   8  15 -10   -0.00   31.30   1
   8  15  11   13.60   48.10   1
  -8 -15 -11   53.20   48.50   1
   8 -15  11   83.00   47.80   1
  -8 -15  11   30.00   51.20   1
   8  15 -11   53.20   52.50   1
   8  16   0  246.50  155.30   1
  -8 -16   0  286.70  155.40   1
   8 -16   0  303.90  156.40   1
  -8  16   0  472.50  157.70   1
   8  16   1  145.60   69.50   1
  -8 -16  -1  141.30   69.30   1
   8 -16  -1   76.80   69.30   1
  -8  16   1  105.10   70.70   1
  -8  16  -1  141.90   70.50   1
   8 -16   1  185.60   71.60   1
  -8 -16   1   65.50   67.30   1
   8  16  -1   54.90   67.00   1
   8  16   2  223.40  136.00   1
  -8 -16  -2  215.70  135.90   1
   8 -16  -2  313.00  137.00   1
  -8  16   2  234.80  137.10   1
  -8  16  -2  235.80  135.90   1
   8 -16   2  218.30  135.60   1
  -8 -16   2  274.30  138.90   1
   8  16  -2  264.80  135.90   1
   8  16   3   18.50   32.90   1
  -8 -16  -3   39.30   33.40   1
   8 -16  -3   -0.00   33.50   1
  -8  16   3    8.30   34.70   1
  -8  16  -3   12.60   28.90   1
   8 -16   3    6.50   29.00   1
  -8 -16   3   15.70   30.40   1
   8  16  -3   10.00   34.60   1
   8  16   4  405.40  147.60   1
  -8 -16  -4  299.80  146.40   1
   8 -16  -4  577.20  153.30   1
  -8  16   4  399.10  149.30   1
  -8  16  -4  188.20  143.70   1
   8 -16   4  313.00  144.20   1
  -8 -16   4  275.40  144.90   1
   8  16  -4  247.40  145.00   1
   8  16   5   41.50   49.40   1
  -8 -16  -5   43.20   50.80   1
   8 -16  -5   66.00   52.10   1
  -8  16   5   67.30   50.70   1
  -8  16  -5  118.20   47.60   1
   8 -16   5   36.00   46.20   1
  -8 -16   5   40.20   48.40   1
   8  16  -5   27.90   47.10   1
   8  16   6  426.90   78.20   1
  -8 -16  -6  128.90   72.10   1
  -8  16  -6  480.10   75.40   1
   8 -16   6   42.30   72.10   1
  -8 -16   6   83.30   74.40   1
   8  16  -6   51.70   71.40   1
   8  16   7   34.30   49.00   1
  -8 -16  -7   73.70   49.90   1
  -8  16  -7   18.90   45.20   1
   8 -16   7  142.40   49.50   1
  -8 -16   7   70.20   55.70   1
   8  16  -7   25.50   50.90   1
   8  16   8  105.40   62.40   1
  -8 -16  -8   23.00   60.40   1
  -8  16  -8   87.80   56.00   1
   8 -16   8   53.60   55.70   1
  -8 -16   8   71.90   61.60   1
   8  16  -8   68.30   61.10   1
   8  16   9   23.80   41.30   1
  -8 -16  -9   20.90   41.10   1
   8 -16   9   14.90   39.70   1
  -8 -16   9   50.30   39.20   1
   8  16  -9   20.00   39.50   1
   8  16  10   -0.00   44.30   1
  -8 -16 -10   37.80   49.10   1
   8 -16  10  103.20   50.10   1
  -8 -16  10   42.30   44.30   1
   8  16 -10   28.10   42.80   1
   8  17   0   48.80   37.10   1
  -8 -17   0   46.50   37.70   1
   8 -17   0    5.70   37.70   1
  -8  17   0   14.00   38.00   1
   8  17   1   10.40   31.50   1
  -8 -17  -1   53.70   31.90   1
   8 -17  -1   16.60   31.50   1
  -8  17   1   14.00   31.90   1
  -8  17  -1    3.30   32.20   1
   8 -17   1    4.80   32.60   1
  -8 -17   1   30.20   30.10   1
   8  17  -1    9.50   29.40   1
   8  17   2   84.80   66.20   1
  -8 -17  -2   83.70   66.20   1
   8 -17  -2   77.10   66.00   1
  -8  17   2   50.10   66.30   1
  -8  17  -2  117.80   66.60   1
   8 -17   2   75.60   65.50   1
  -8 -17   2  121.80   67.50   1
   8  17  -2   65.80   63.90   1
   8  17   3   95.20   69.30   1
  -8 -17  -3   79.40   68.90   1
   8 -17  -3   51.30   69.30   1
  -8  17   3   62.20   69.20   1
  -8  17  -3  149.10   68.50   1
   8 -17   3   92.70   67.10   1
  -8 -17   3   79.40   69.70   1
   8  17  -3  101.00   73.80   1
   8  17   4  228.50  122.60   1
  -8 -17  -4  174.10  122.10   1
   8 -17  -4   90.80  123.20   1
  -8  17   4  172.60  123.30   1
  -8  17  -4  218.70  120.40   1
   8 -17   4  243.60  120.70   1
  -8 -17   4  710.00  127.90   1
   8  17  -4  513.50  125.40   1
  -8 -17  -5   69.60   40.20   1
   8 -17  -5   37.30   39.30   1
  -8  17   5    9.50   37.00   1
  -8  17  -5   -0.00   32.60   1
   8 -17   5   24.10   32.50   1
  -8 -17   5   38.70   35.40   1
   8  17  -5   31.40   34.70   1
   8  17   6  134.00   59.90   1
  -8 -17  -6  182.60   61.30   1
   8 -17  -6   54.50   58.00   1
  -8  17  -6   25.70   53.40   1
   8 -17   6   46.70   56.40   1
  -8 -17   6  247.70   62.80   1
   8  17  -6  155.80   58.20   1
   8  17   7    3.50   39.20   1
  -8 -17  -7   15.10   40.30   1
  -8  17  -7   16.00   40.10   1
   8 -17   7  205.60   42.70   1
  -8 -17   7   44.20   45.50   1
   8  17  -7   16.90   43.20   1
   8  17   8   20.40   51.60   1
  -8 -17  -8   27.10   51.50   1
  -8  17  -8   37.10   47.00   1
   8 -17   8   55.80   46.80   1
  -8 -17   8   99.90   57.20   1
   8  17  -8   83.00   55.50   1
   8  17   9    9.00   39.20   1
  -8 -17  -9   13.20   41.60   1
   8 -17   9   31.30   36.50   1
  -8 -17   9   46.40   41.90   1
   8  17  -9   23.70   42.10   1
   8  18   0   57.90   73.60   1
  -8 -18   0  122.80   74.50   1
   8 -18   0  184.40   76.90   1
  -8  18   0  180.50   75.90   1
   8  18   1   64.90   42.60   1
  -8 -18  -1   19.20   41.10   1
   8 -18  -1  325.00   51.10   1
  -8  18   1   57.90   43.10   1
  -8  18  -1    7.10   41.90   1
   8 -18   1   18.30   42.40   1
  -8 -18   1   42.60   40.00   1
   8  18  -1   23.40   39.60   1
   8  18   2   87.70   62.50   1
  -8 -18  -2   48.10   61.20   1
   8 -18  -2  216.30   65.20   1
  -8  18   2   97.70   63.60   1
  -8  18  -2   51.20   61.10   1
   8 -18   2   40.70   60.50   1
  -8 -18   2   54.60   59.70   1
   8  18  -2  135.80   60.10   1
   8  18   3   54.60   55.30   1
  -8 -18  -3   35.50   55.60   1
   8 -18  -3  120.40   58.90   1
  -8  18   3   47.50   55.70   1
  -8  18  -3   45.50   53.60   1
   8 -18   3   92.50   54.60   1
  -8 -18   3   66.20   59.90   1
   8  18  -3   36.40   58.50   1
   8  18   4  151.80   83.10   1
  -8 -18  -4  180.40   84.40   1
   8 -18  -4  176.70   86.10   1
  -8  18   4  177.10   86.20   1
  -8  18  -4  167.60   80.50   1
   8 -18   4  155.60   80.60   1
  -8 -18   4  136.10   82.80   1
   8  18  -4   40.90   80.00   1
   8  18   5   39.60   62.40   1
  -8 -18  -5   64.60   62.90   1
   8 -18  -5  128.00   69.30   1
  -8  18   5  108.30   65.10   1
  -8  18  -5   99.60   60.40   1
   8 -18   5  109.20   60.50   1
  -8 -18   5   87.10   61.50   1
   8  18  -5   36.60   60.80   1
   8  18   6   28.40   42.40   1
  -8 -18  -6   24.40   41.20   1
   8 -18  -6  346.70   61.20   1
  -8  18   6   80.60   44.70   1
  -8  18  -6   60.90   38.30   1
   8 -18   6   45.20   39.60   1
  -8 -18   6    9.70   39.30   1
   8  18  -6    9.70   38.10   1
   8  18   7   16.40   35.70   1
  -8 -18  -7   18.60   36.40   1
  -8  18  -7   -0.00   37.80   1
   8 -18   7   61.70   36.30   1
  -8 -18   7   17.20   41.60   1
   8  18  -7    9.50   36.90   1
   8  18   8  117.70   60.00   1
  -8 -18  -8   53.20   57.90   1
   8 -18   8   66.30   55.00   1
  -8 -18   8   52.50   62.30   1
   8  18  -8   36.00   59.10   1
   8  19   0    0.00   27.20   1
  -8 -19   0   34.00   28.10   1
   8 -19   0    8.40   29.30   1
  -8  19   0    3.80   30.00   1
   8  19   1   53.40   49.90   1
  -8 -19  -1   45.40   49.10   1
   8 -19  -1   43.90   49.20   1
  -8  19   1   32.10   50.60   1
  -8  19  -1   58.60   50.70   1
   8 -19   1   40.90   49.70   1
  -8 -19   1   40.90   47.90   1
   8  19  -1   75.20   48.80   1
   8  19   2   77.70   54.60   1
  -8 -19  -2   52.80   53.10   1
   8 -19  -2   42.80   54.00   1
  -8  19   2   37.80   52.90   1
  -8  19  -2   58.90   53.60   1
   8 -19   2   60.90   53.60   1
  -8 -19   2   54.40   50.60   1
   8  19  -2   48.60   50.50   1
   8  19   3   22.40   45.20   1
  -8 -19  -3   27.70   45.90   1
   8 -19  -3   48.50   45.80   1
  -8  19   3   29.50   46.70   1
  -8  19  -3   34.40   43.40   1
   8 -19   3   32.70   42.90   1
  -8 -19   3   50.30   51.80   1
   8  19  -3   58.90   46.80   1
   8  19   4   74.90   53.60   1
  -8 -19  -4   40.20   53.20   1
   8 -19  -4    6.80   54.10   1
  -8  19   4   17.00   52.80   1
  -8  19  -4   58.70   51.30   1
   8 -19   4   91.60   51.20   1
  -8 -19   4   89.10   54.00   1
   8  19  -4   59.50   53.30   1
   8  19   5   18.60   31.70   1
  -8 -19  -5   35.50   33.70   1
   8 -19  -5   13.00   39.50   1
  -8  19   5   15.20   37.90   1
  -8  19  -5   11.00   26.30   1
   8 -19   5    6.80   26.80   1
  -8 -19   5    7.00   29.10   1
   8  19  -5    9.70   31.00   1
   8  19   6  111.80   46.70   1
  -8 -19  -6   68.80   47.20   1
   8 -19  -6   -0.20   46.70   1
  -8  19   6   10.20   45.10   1
   8 -19   6  113.70   44.80   1
  -8 -19   6   23.50   42.50   1
   8  19  -6   27.10   42.30   1
   8  19   7   55.30   44.30   1
  -8 -19  -7   24.30   43.20   1
   8 -19  -7   50.90   44.90   1
   8 -19   7  210.30   56.60   1
  -8 -19   7   18.50   45.10   1
   8  19  -7   11.90   41.00   1
   8  20   0  274.20  120.00   1
  -8 -20   0  223.90  119.70   1
   8 -20   0  128.40  120.30   1
  -8  20   0  275.50  121.10   1
   8  20   1   41.20   38.20   1
  -8 -20  -1   35.60   37.80   1
   8 -20  -1   15.20   37.80   1
  -8  20   1   27.20   38.80   1
  -8  20  -1    9.30   38.50   1
   8 -20   1   25.10   39.40   1
  -8 -20   1   30.70   36.30   1
   8  20  -1   23.90   36.10   1
   8  20   2  357.60  150.60   1
  -8 -20  -2  351.80  150.40   1
   8 -20  -2  503.90  152.70   1
  -8  20   2  444.90  151.90   1
  -8  20  -2  255.60  149.30   1
   8 -20   2  309.80  149.80   1
  -8 -20   2  245.70  147.60   1
   8  20  -2  196.20  146.90   1
   8  20   3   13.20   39.90   1
  -8 -20  -3   11.50   39.60   1
   8 -20  -3   14.80   38.60   1
  -8  20   3   42.50   43.50   1
  -8  20  -3   21.20   38.50   1
   8 -20   3   18.40   36.60   1
  -8 -20   3   86.70   48.70   1
   8  20  -3   46.00   39.20   1
   8  20   4   25.80   40.20   1
  -8 -20  -4   35.50   41.30   1
   8 -20  -4   28.50   43.80   1
  -8  20   4   12.80   40.00   1
   8 -20   4   17.00   36.60   1
  -8 -20   4   37.10   38.10   1
   8  20  -4   57.30   46.60   1
   8  20   5   78.10   38.40   1
  -8 -20  -5   -0.00   37.30   1
   8 -20  -5    6.60   45.20   1
  -8  20   5   -0.00   41.10   1
   8 -20   5   22.70   32.80   1
  -8 -20   5   20.10   36.20   1
   8  20  -5   28.80   36.80   1
   8  20   6   28.80   49.40   1
  -8 -20  -6   26.70   49.20   1
   8 -20  -6   73.70   54.50   1
  -8  20   6   50.40   50.50   1
   8 -20   6   84.10   47.10   1
  -8 -20   6   45.00   47.10   1
   8  20  -6   32.70   46.60   1
   8  21   0   81.40   54.20   1
  -8 -21   0   67.00   53.60   1
   8 -21   0   44.50   53.80   1
  -8  21   0   39.10   54.20   1
   8  21   1   58.60   64.10   1
  -8 -21  -1   86.50   64.10   1
   8 -21  -1   78.20   65.00   1
  -8  21   1   85.50   65.70   1
   8 -21   1  109.00   66.00   1
  -8 -21   1   62.60   63.00   1
   8  21  -1   84.10   63.50   1
   8  21   2   25.20   42.00   1
  -8 -21  -2   27.50   40.40   1
   8 -21  -2    2.10   40.50   1
  -8  21   2   20.60   41.30   1
   8 -21   2   22.20   40.40   1
  -8 -21   2   33.50   36.30   1
   8  21  -2   46.20   37.40   1
   8  21   3   -0.00   33.50   1
  -8 -21  -3    1.50   34.90   1
   8 -21  -3   10.50   35.60   1
  -8  21   3   -0.00   36.90   1
   8 -21   3   -0.00   30.90   1
  -8 -21   3   41.90   37.30   1
   8  21  -3   48.80   31.40   1
   8  21   4   45.40   39.40   1
  -8 -21  -4   12.40   40.60   1
   8 -21  -4   42.40   42.50   1
   8 -21   4   20.90   35.00   1
  -8 -21   4    6.20   39.80   1
   8  21  -4   24.50   46.40   1
   8  21   5    9.00   35.30   1
  -8 -21  -5    9.50   35.70   1
   8 -21  -5   10.20   40.40   1
   8 -21   5   47.00   32.10   1
  -8 -21   5   19.40   35.40   1
   8  21  -5    9.30   33.50   1
   8  22   0   34.10   44.00   1
  -8 -22   0   36.50   44.50   1
   8 -22   0   51.80   46.60   1
   8  22   1   47.60   57.00   1
  -8 -22  -1   61.40   56.60   1
   8 -22  -1   59.40   57.10   1
   8 -22   1   57.00   58.00   1
  -8 -22   1  131.70   57.00   1
   8  22  -1   45.60   55.30   1
   8  22   2    3.50   29.30   1
  -8 -22  -2    2.40   29.70   1
   8 -22  -2   -0.00   27.80   1
   8 -22   2   13.80   29.90   1
  -8 -22   2    8.20   22.60   1
   8  22  -2    3.80   21.00   1
   9   0   0  297.30  141.10   1
  -9   0   0  238.90  140.60   1
   9   0   1   80.20   63.60   1
  -9   0  -1   89.50   63.60   1
   9   0  -1   77.80   63.70   1
  -9   0   1  120.70   64.30   1
   9   0   2  339.00  163.90   1
  -9   0  -2  300.10  163.70   1
   9   0   3  146.40   72.70   1
  -9   0  -3   85.80   72.50   1
   9   1   0   -0.00   17.00   1
  -9  -1   0   14.80   17.30   1
   9   1   1  263.90   53.60   1
  -9  -1  -1  324.80   53.70   1
  -9   1  -1   45.40   50.90   1
   9  -1   1   49.10   50.80   1
  -9  -1   1   51.70   51.40   1
   9   1  -1   44.10   51.20   1
   9   1   2   59.60   25.70   1
  -9  -1  -2   86.10   28.30   1
  -9   1  -2   14.90   25.00   1
   9  -1   2   14.40   25.10   1
  -9  -1   2    4.00   25.60   1
   9   1  -2    3.50   25.70   1
   9   1   3  121.50   34.20   1
  -9  -1  -3   77.70   34.10   1
  -9  -1   3   10.50   33.60   1
   9   1  -3   10.20   33.70   1
   9   1   4   68.50   55.80   1
  -9  -1  -4   66.00   56.30   1
   9   1  -4   92.60   57.70   1
   9   2   0   22.50   29.70   1
  -9  -2   0   20.50   30.00   1
   9   2   1   88.40   37.60   1
  -9  -2  -1   60.70   37.80   1
  -9  -2   1   27.70   37.30   1
   9   2  -1    7.80   36.80   1
   9   2   2  250.00  163.90   1
  -9  -2  -2  385.50  164.10   1
  -9  -2   2  502.00  166.00   1
   9   2  -2  472.10  165.70   1
   9   2   3   13.80   41.90   1
  -9  -2  -3   97.50   42.70   1
   9   2  -3   90.70   42.50   1
   9   2   4 1023.30  489.00   1
  -9  -2  -4 1072.70  489.20   1
  -9  -2   4 1387.80  495.00   1
   9   2  -4 1473.40  496.10   1
  -9  -2   5   51.20   53.40   1
   9   2  -5   88.00   53.90   1
  -9  -2   6  384.60  201.80   1
   9   2  -6  393.40  199.30   1
   9   3   0   30.80   36.40   1
  -9  -3   0   25.50   37.20   1
   9   3   1  356.40  237.90   1
  -9  -3  -1 1326.60  241.00   1
  -9  -3   1  573.30  239.20   1
   9   3  -1  653.10  239.30   1
   9   3   2   54.50   44.40   1
  -9  -3  -2   66.80   44.50   1
  -9  -3   2   28.40   44.90   1
   9   3  -2   38.30   45.00   1
   9   3   3 1953.90  634.10   1
  -9  -3  -3 1769.10  633.80   1
  -9   3  -3 1166.70  631.20   1
   9  -3   3 1382.80  631.80   1
  -9  -3   3 1758.50  636.30   1
   9   3  -3 2448.40  642.00   1
   9   3   4   34.30   30.50   1
  -9  -3  -4   95.20   31.00   1
  -9   3  -4   22.50   27.50   1
   9  -3   4   10.70   27.40   1
  -9  -3   4   22.90   28.60   1
   9   3  -4   65.00   29.70   1
   9   3   5  923.60  402.00   1
  -9  -3  -5  948.30  401.40   1
  -9   3  -5 1012.20  404.10   1
   9  -3   5  938.60  409.00   1
  -9  -3   5  683.30  401.30   1
   9   3  -5 1007.70  403.70   1
  -9  -3   6    7.70   18.90   1
   9   3  -6    7.30   19.80   1
  -9  -3   7  621.70  322.20   1
   9   3  -7  764.20  323.30   1
  -9  -3   8    7.90   20.90   1
   9   3  -8    7.00   20.90   1
   9   3  -9  148.40   97.80   1
   9   4   0  204.20   71.90   1
  -9  -4   0   61.00   71.10   1
   9   4   1   15.90   37.30   1
  -9  -4  -1   20.90   35.40   1
  -9  -4   1   23.50   33.70   1
   9   4  -1   37.80   34.40   1
   9   4   2   59.30   40.40   1
  -9  -4  -2   11.60   40.00   1
  -9   4  -2   68.90   40.30   1
   9  -4   2   38.20   40.00   1
  -9  -4   2  113.30   44.90   1
   9   4  -2   37.00   43.00   1
   9   4   3   93.60   38.50   1
  -9  -4  -3   78.00   38.60   1
  -9   4  -3   30.40   35.50   1
   9  -4   3   27.80   35.40   1
  -9  -4   3   12.80   36.70   1
   9   4  -3   42.80   37.50   1
   9   4   4   71.90   65.40   1
  -9  -4  -4  174.20   65.90   1
  -9   4  -4  108.00   64.90   1
   9  -4   4  108.40   64.30   1
  -9  -4   4   52.40   65.00   1
   9   4  -4   65.30   65.30   1
   9   4   5   29.90   30.00   1
  -9  -4  -5   25.60   28.40   1
  -9   4  -5   16.90   24.30   1
   9  -4   5   16.50   24.00   1
  -9  -4   5    8.40   25.00   1
   9   4  -5   11.10   25.00   1
  -9   4  -6   21.70   29.00   1
   9  -4   6   24.00   29.00   1
  -9  -4   6   27.90   30.30   1
   9   4  -6   16.30   30.10   1
  -9   4  -7   80.00   30.50   1
   9  -4   7   66.10   30.40   1
  -9  -4   7   14.70   30.10   1
   9   4  -7   13.70   30.60   1
  -9   4  -8   63.30   62.10   1
  -9  -4   8   70.90   62.20   1
   9   4  -8  119.80   63.20   1
  -9  -4   9    9.50   20.30   1
   9   4  -9    4.90   20.10   1
  -9  -4  10   73.70   64.70   1
   9   4 -10   91.00   65.50   1
   9   4 -11   20.20   32.60   1
   9   5   0   25.10   31.80   1
  -9  -5   0   21.30   31.60   1
   9   5   1  182.50  101.10   1
  -9  -5  -1  845.70  107.50   1
   9  -5   1  444.80  103.20   1
  -9  -5   1  321.70  104.40   1
   9   5  -1   81.50  101.90   1
   9   5   2   98.50   59.40   1
  -9  -5  -2   81.70   59.20   1
  -9   5  -2   83.30   59.00   1
   9  -5   2  222.30   59.50   1
  -9  -5   2   43.00   59.70   1
   9   5  -2   43.10   59.60   1
   9   5   3  202.80   97.90   1
  -9  -5  -3  438.80   99.80   1
  -9   5  -3  127.90   96.30   1
   9  -5   3  144.00   96.30   1
  -9  -5   3  135.20   98.50   1
   9   5  -3  472.00  102.20   1
   9   5   4  196.60  136.50   1
  -9  -5  -4  322.40  136.90   1
  -9   5  -4  344.40  136.00   1
   9  -5   4  583.50  137.30   1
  -9  -5   4  193.00  136.40   1
   9   5  -4  204.20  136.50   1
   9   5   5  463.30  249.00   1
  -9  -5  -5  831.90  251.00   1
  -9   5  -5  585.60  248.70   1
   9  -5   5  458.90  248.30   1
  -9  -5   5  503.40  249.30   1
   9   5  -5  507.20  249.30   1
   9   5   6   23.10   31.20   1
  -9  -5  -6   49.40   32.00   1
  -9   5  -6   19.10   28.60   1
   9  -5   6   18.60   28.10   1
  -9  -5   6   15.90   29.20   1
   9   5  -6   20.00   29.60   1
  -9   5  -7  329.80  119.90   1
   9  -5   7  156.70  118.00   1
  -9  -5   7  220.60  119.20   1
   9   5  -7  236.90  119.70   1
  -9   5  -8   50.30   36.70   1
   9  -5   8   21.60   36.20   1
  -9  -5   8   43.10   37.60   1
   9   5  -8   38.40   37.80   1
  -9   5  -9  261.20  126.00   1
   9  -5   9  263.30  127.70   1
  -9  -5   9  193.70  125.00   1
   9   5  -9  208.80  125.30   1
  -9   5 -10  108.50   76.10   1
  -9  -5  10  104.20   75.70   1
   9   5 -10  107.60   76.00   1
  -9  -5  11   74.10   60.90   1
   9   5 -11   74.10   61.00   1
  -9  -5  12    3.90   21.30   1
   9   5 -12    7.90   21.50   1
   9   5 -13  122.90   87.70   1
   9   5 -14   10.50   29.90   1
   9   6   0   38.70   44.20   1
  -9  -6   0   45.70   44.30   1
   9   6   1   41.00   29.70   1
  -9  -6  -1    9.70   29.60   1
  -9   6  -1   27.40   31.20   1
   9  -6   1    7.00   30.40   1
  -9  -6   1   24.90   34.00   1
   9   6  -1   25.80   33.10   1
   9   6   2   19.60   37.10   1
  -9  -6  -2   25.20   37.00   1
  -9   6  -2   26.90   36.90   1
   9  -6   2   79.60   37.20   1
   9   6  -2   35.50   40.80   1
   9   6   3   16.60   31.40   1
  -9  -6  -3   55.30   32.80   1
  -9   6  -3   17.20   28.20   1
   9  -6   3   19.30   28.20   1
  -9  -6   3   12.40   30.40   1
   9   6  -3   21.40   30.20   1
   9   6   4   43.60   48.10   1
  -9  -6  -4   89.60   48.80   1
  -9   6  -4   11.60   47.00   1
   9  -6   4   99.10   47.50   1
  -9  -6   4   88.20   49.80   1
   9   6  -4   60.60   49.50   1
   9   6   5   31.40   46.00   1
  -9  -6  -5   43.90   46.00   1
  -9   6  -5   40.30   45.20   1
   9  -6   5   40.10   44.20   1
  -9  -6   5   57.60   44.50   1
   9   6  -5   50.00   44.50   1
   9   6   6    9.00   34.60   1
  -9  -6  -6   21.30   35.50   1
  -9   6  -6   18.80   32.60   1
   9  -6   6  107.70   33.80   1
  -9  -6   6   20.30   31.80   1
   9   6  -6   18.10   32.30   1
  -9  -6  -7   23.00   28.50   1
  -9   6  -7   18.40   25.70   1
   9  -6   7   12.50   24.80   1
  -9  -6   7    7.10   26.20   1
   9   6  -7   26.40   26.80   1
  -9   6  -8  218.10  101.40   1
   9  -6   8  148.40  100.80   1
  -9  -6   8  171.00  101.70   1
   9   6  -8  145.40  101.60   1
  -9   6  -9    8.90   19.20   1
   9  -6   9    9.10   19.00   1
  -9  -6   9    7.80   20.80   1
   9   6  -9    8.00   21.50   1
  -9   6 -10   11.10   24.70   1
   9  -6  10   15.70   24.60   1
  -9  -6  10   14.40   25.80   1
   9   6 -10   21.60   26.80   1
  -9   6 -11  130.70   27.30   1
   9  -6  11   23.20   19.90   1
  -9  -6  11   -0.00   19.50   1
   9   6 -11    4.50   21.00   1
  -9   6 -12   19.80   33.40   1
  -9  -6  12   26.60   33.60   1
   9   6 -12   28.00   34.00   1
  -9   6 -13    9.80   25.10   1
  -9  -6  13    8.30   23.80   1
   9   6 -13   15.70   25.90   1
  -9  -6  14   25.80   40.40   1
   9   6 -14   47.80   41.20   1
   9   7   0   13.50   30.20   1
  -9  -7   0   18.10   28.20   1
   9  -7   0    9.30   25.70   1
  -9   7   0   23.40   26.30   1
   9   7   1  240.60   99.90   1
  -9  -7  -1  155.80   99.70   1
  -9   7  -1  222.70  100.70   1
   9  -7   1  296.90  101.10   1
  -9  -7   1  151.60  100.50   1
   9   7  -1  106.60  100.00   1
   9   7   2   36.40   34.20   1
  -9  -7  -2   23.50   33.40   1
  -9   7  -2   39.60   33.50   1
   9  -7   2   23.00   33.10   1
  -9  -7   2   12.40   37.20   1
   9   7  -2   11.80   36.30   1
   9   7   3  759.70  184.40   1
  -9  -7  -3  621.70  183.30   1
  -9   7  -3  351.80  180.90   1
   9  -7   3  351.90  180.90   1
  -9  -7   3  404.00  182.40   1
   9   7  -3  247.90  181.80   1
   9   7   4   58.60   42.10   1
  -9  -7  -4    8.10   41.40   1
  -9   7  -4   47.40   40.30   1
   9  -7   4   24.70   43.00   1
  -9  -7   4   60.90   43.80   1
   9   7  -4   37.40   42.10   1
   9   7   5  729.30  239.80   1
  -9  -7  -5  507.30  238.70   1
  -9   7  -5  427.30  237.50   1
   9  -7   5  400.60  237.90   1
  -9  -7   5  566.90  239.50   1
   9   7  -5  817.10  241.60   1
   9   7   6    7.10   24.20   1
  -9  -7  -6   -0.00   23.40   1
  -9   7  -6    6.90   19.60   1
   9  -7   6    1.90   17.90   1
  -9  -7   6   18.50   20.60   1
   9   7  -6    9.30   20.60   1
   9   7   7  144.90   93.20   1
  -9  -7  -7  114.40   92.90   1
  -9   7  -7  175.30   93.40   1
   9  -7   7  136.20   91.90   1
  -9  -7   7  163.80   92.40   1
   9   7  -7  155.50   92.50   1
  -9   7  -8   24.00   23.70   1
   9  -7   8    6.80   21.80   1
  -9  -7   8    6.00   23.20   1
   9   7  -8   15.10   23.50   1
  -9   7  -9   10.60   15.00   1
   9  -7   9   -0.00   13.50   1
  -9  -7   9   -0.00   16.30   1
   9   7  -9    4.90   17.30   1
  -9   7 -10    7.30   22.10   1
   9  -7  10    9.70   21.90   1
  -9  -7  10   17.10   23.40   1
   9   7 -10   17.80   24.30   1
  -9   7 -11  114.70   73.10   1
   9  -7  11  134.50   73.70   1
  -9  -7  11   84.30   72.90   1
   9   7 -11   98.20   73.50   1
  -9   7 -12    9.80   22.40   1
   9  -7  12   15.20   22.20   1
  -9  -7  12    8.30   23.00   1
   9   7 -12   12.30   24.30   1
  -9   7 -13  382.20  217.50   1
   9  -7  13  350.70  220.20   1
  -9  -7  13  445.90  220.30   1
   9   7 -13  572.20  224.80   1
   9   8   0   56.20   45.30   1
  -9  -8   0   31.30   44.30   1
   9  -8   0   35.80   41.60   1
  -9   8   0   28.90   40.40   1
   9   8   1   66.20   66.90   1
  -9  -8  -1   58.70   66.80   1
  -9   8  -1  117.10   67.90   1
   9  -8   1   93.70   67.60   1
  -9  -8   1  156.20   68.30   1
   9   8  -1  191.50   68.30   1
   9   8   2  292.30   99.20   1
  -9  -8  -2  158.20   98.40   1
  -9   8  -2   97.70   98.10   1
   9  -8   2  142.70   98.40   1
  -9  -8   2  610.70  106.00   1
   9   8  -2  690.80  105.40   1
   9   8   3  205.00  101.90   1
  -9  -8  -3  129.60  101.40   1
  -9   8  -3  208.70  100.40   1
   9  -8   3  156.00   99.90   1
  -9  -8   3  134.00  102.80   1
   9   8  -3  195.30  103.40   1
   9   8   4 1932.80  992.80   1
  -9  -8  -4 2713.70  995.80   1
  -9   8  -4 2167.20  992.10   1
   9  -8   4 2268.20  992.60   1
  -9  -8   4 5175.60 1013.80   1
   9   8  -4 3326.00  999.90   1
   9   8   5   58.50   59.90   1
  -9  -8  -5   72.90   60.80   1
  -9   8  -5   61.00   58.90   1
   9  -8   5  153.00   59.00   1
  -9  -8   5   67.60   62.10   1
   9   8  -5   55.20   61.10   1
   9   8   6  543.00  201.10   1
  -9  -8  -6  442.60  200.60   1
  -9   8  -6  390.50  199.70   1
   9  -8   6  272.20  199.10   1
  -9  -8   6  701.70  202.60   1
   9   8  -6  597.80  202.00   1
   9   8   7   31.30   37.50   1
  -9  -8  -7   41.60   38.90   1
  -9   8  -7   46.90   34.10   1
   9  -8   7   11.30   33.00   1
  -9  -8   7   30.00   34.40   1
   9   8  -7   14.70   34.50   1
  -9  -8  -8  347.30  238.10   1
  -9   8  -8 1080.70  243.60   1
   9  -8   8  394.00  236.50   1
  -9  -8   8  577.90  239.00   1
   9   8  -8  654.50  239.50   1
  -9   8  -9   13.40   23.80   1
   9  -8   9   10.30   22.50   1
  -9  -8   9    9.90   23.90   1
   9   8  -9   13.80   24.50   1
  -9   8 -10  208.90  136.20   1
   9  -8  10  266.20  137.00   1
  -9  -8  10  240.80  137.50   1
   9   8 -10  359.40  139.80   1
  -9   8 -11  109.10   57.80   1
   9  -8  11   57.20   56.50   1
  -9  -8  11   59.60   56.90   1
   9   8 -11   79.90   58.30   1
  -9   8 -12   65.20   60.60   1
   9  -8  12   78.50   60.80   1
  -9  -8  12   74.60   61.20   1
   9   8 -12  103.90   62.50   1
   9  -8  13   16.10   21.50   1
  -9  -8  13    7.10   22.20   1
   9   8 -13    8.30   23.50   1
   9   9   0   41.50   49.00   1
  -9  -9   0  149.80   53.60   1
   9  -9   0   33.30   49.20   1
  -9   9   0   47.90   49.70   1
   9   9   1  256.50  112.40   1
  -9  -9  -1  176.70  111.80   1
   9  -9  -1  153.80  112.80   1
  -9   9   1  136.20  112.70   1
  -9   9  -1  150.60  112.40   1
   9  -9   1  223.20  112.60   1
  -9  -9   1  368.70  114.30   1
   9   9  -1  185.50  113.20   1
   9   9   2   18.70   32.20   1
  -9  -9  -2   25.00   31.60   1
  -9   9  -2   23.30   31.70   1
   9  -9   2   14.00   31.50   1
  -9  -9   2   35.00   33.50   1
   9   9  -2   22.80   31.70   1
   9   9   3   24.70   35.10   1
  -9  -9  -3   -0.00   33.90   1
  -9   9  -3   14.40   32.30   1
   9  -9   3   65.80   32.50   1
  -9  -9   3   17.70   38.10   1
   9   9  -3   23.00   37.00   1
   9   9   4   14.80   37.70   1
  -9  -9  -4   84.30   40.00   1
  -9   9  -4   38.30   35.50   1
   9  -9   4   21.70   35.50   1
  -9  -9   4   32.50   39.90   1
   9   9  -4   21.10   39.10   1
   9   9   5   17.80   31.00   1
  -9  -9  -5    3.80   29.90   1
  -9   9  -5    9.50   28.30   1
   9  -9   5   57.90   29.70   1
  -9  -9   5   16.70   31.60   1
   9   9  -5    9.20   30.70   1
   9   9   6   21.20   35.50   1
  -9  -9  -6   17.10   33.40   1
  -9   9  -6   18.90   28.90   1
   9  -9   6   44.90   32.20   1
  -9  -9   6   -0.00   34.50   1
   9   9  -6    1.70   34.00   1
   9   9   7   17.00   43.00   1
  -9  -9  -7   -0.70   41.90   1
  -9   9  -7  143.90   42.90   1
   9  -9   7   11.80   38.70   1
  -9  -9   7   72.40   41.40   1
   9   9  -7   57.60   41.90   1
   9   9   8    9.80   31.20   1
  -9  -9  -8    9.90   31.10   1
  -9   9  -8    9.10   28.30   1
   9  -9   8   18.90   30.10   1
  -9  -9   8   27.60   28.60   1
   9   9  -8   20.20   30.00   1
  -9   9  -9    8.30   20.00   1
   9  -9   9   -0.00   15.30   1
  -9  -9   9    0.00   15.10   1
   9   9  -9   -0.00   17.10   1
  -9   9 -10   38.60   30.50   1
   9  -9  10   13.10   28.10   1
  -9  -9  10   14.90   29.10   1
   9   9 -10   18.70   29.70   1
  -9   9 -11   13.90   21.60   1
   9  -9  11    5.20   19.90   1
  -9  -9  11    9.30   21.70   1
   9   9 -11   12.00   23.40   1
  -9   9 -12    2.20   14.50   1
   9  -9  12    6.40   12.70   1
  -9  -9  12   -0.00   13.10   1
   9   9 -12   -0.00   15.80   1
   9  -9  13   18.00   27.20   1
  -9  -9  13   20.70   28.50   1
   9   9 -13   15.70   29.60   1
   9  10   0   35.40   38.20   1
  -9 -10   0   36.00   38.60   1
   9 -10   0   33.50   40.20   1
  -9  10   0   24.20   39.10   1
   9  10   1   15.20   33.30   1
  -9 -10  -1   18.30   33.60   1
   9 -10  -1   -0.00   36.80   1
  -9  10   1   19.90   34.40   1
  -9  10  -1   46.80   35.00   1
   9 -10   1  102.60   35.90   1
  -9 -10   1   26.10   36.10   1
   9  10  -1   25.30   35.40   1
   9  10   2  129.90   51.30   1
  -9 -10  -2   66.40   49.80   1
  -9  10  -2   46.00   49.80   1
   9 -10   2   27.90   49.40   1
  -9 -10   2   63.80   50.60   1
   9  10  -2   44.70   49.80   1
   9  10   3   -0.00   38.10   1
  -9 -10  -3   30.90   38.80   1
  -9  10  -3   44.90   37.40   1
   9 -10   3   26.80   36.60   1
  -9 -10   3   35.90   43.40   1
   9  10  -3   70.70   41.80   1
   9  10   4  218.50  119.30   1
  -9 -10  -4  192.20  119.00   1
  -9  10  -4  218.20  117.60   1
   9 -10   4  256.70  117.60   1
  -9 -10   4  287.20  122.70   1
   9  10  -4  115.30  120.50   1
   9  10   5   96.90   46.60   1
  -9 -10  -5   64.10   45.50   1
  -9  10  -5   18.40   45.90   1
   9 -10   5  111.60   46.50   1
  -9 -10   5   14.20   45.00   1
   9  10  -5   11.30   44.90   1
   9  10   6   52.60   73.40   1
  -9 -10  -6   84.30   73.50   1
  -9  10  -6  175.80   71.80   1
   9 -10   6   90.90   71.40   1
  -9 -10   6   87.10   74.20   1
   9  10  -6  178.40   74.70   1
   9  10   7   23.10   46.70   1
  -9 -10  -7   21.80   46.80   1
  -9  10  -7   38.40   46.50   1
   9 -10   7   47.20   47.10   1
  -9 -10   7   71.60   49.80   1
   9  10  -7  132.40   51.40   1
   9  10   8  422.90  141.90   1
  -9 -10  -8  427.80  142.60   1
  -9  10  -8  162.60  137.40   1
   9 -10   8  286.80  138.00   1
  -9 -10   8  494.50  142.20   1
   9  10  -8  324.10  139.80   1
  -9 -10  -9   40.80   40.90   1
  -9  10  -9   64.30   40.30   1
   9 -10   9  105.20   43.10   1
  -9 -10   9    9.60   38.00   1
   9  10  -9   17.40   39.30   1
  -9  10 -10  101.70   61.30   1
   9 -10  10   67.30   59.20   1
  -9 -10  10   65.40   59.10   1
   9  10 -10   67.00   60.00   1
  -9  10 -11   44.30   36.20   1
   9 -10  11   22.00   33.80   1
  -9 -10  11   22.00   34.50   1
   9  10 -11   29.40   35.20   1
  -9  10 -12   36.00   26.90   1
   9 -10  12   12.40   25.70   1
  -9 -10  12   11.20   26.50   1
   9  10 -12   12.20   27.70   1
   9 -10  13    2.40   12.30   1
  -9 -10  13    1.10   14.50   1
   9  10 -13    2.00   16.30   1
   9  11   0   11.00   21.80   1
  -9 -11   0    9.20   22.20   1
   9 -11   0    3.90   24.30   1
  -9  11   0    8.00   25.10   1
   9  11   1  101.90   60.70   1
  -9 -11  -1  184.50   61.20   1
   9 -11  -1   59.80   63.50   1
  -9  11   1   76.90   64.10   1
  -9  11  -1   42.10   61.10   1
   9 -11   1  101.70   61.40   1
  -9 -11   1   49.70   63.90   1
   9  11  -1   35.80   64.80   1
   9  11   2   58.50   37.50   1
  -9 -11  -2   22.50   36.40   1
   9 -11  -2   19.40   37.80   1
  -9  11   2   17.70   37.00   1
  -9  11  -2   40.70   37.40   1
   9 -11   2   16.20   37.40   1
  -9 -11   2   50.40   38.10   1
   9  11  -2   18.60   37.50   1
   9  11   3   26.50   44.70   1
  -9 -11  -3   36.10   44.30   1
  -9  11  -3   46.70   43.10   1
   9 -11   3   33.50   42.30   1
  -9 -11   3   34.30   44.60   1
   9  11  -3   62.70   44.00   1
   9  11   4   31.60   41.30   1
  -9 -11  -4    9.30   39.90   1
  -9  11  -4   68.10   37.50   1
   9 -11   4   20.80   37.20   1
  -9 -11   4   34.20   44.60   1
   9  11  -4   32.30   44.00   1
   9  11   5  105.20   72.80   1
  -9 -11  -5   88.80   72.80   1
  -9  11  -5  124.30   72.30   1
   9 -11   5   92.60   75.30   1
  -9 -11   5   87.90   75.40   1
   9  11  -5   88.00   75.80   1
   9  11   6   -0.00   30.50   1
  -9 -11  -6    4.70   30.10   1
  -9  11  -6   29.30   27.90   1
   9 -11   6   31.00   26.60   1
  -9 -11   6   -0.00   30.90   1
   9  11  -6   -0.00   30.00   1
   9  11   7   18.00   37.90   1
  -9 -11  -7   26.60   39.90   1
  -9  11  -7   12.80   34.20   1
   9 -11   7   67.10   39.40   1
  -9 -11   7   23.20   40.80   1
   9  11  -7   26.40   37.40   1
   9  11   8    6.50   34.70   1
  -9 -11  -8   -0.00   37.60   1
  -9  11  -8   33.80   32.80   1
   9 -11   8   29.50   30.80   1
  -9 -11   8    5.90   33.20   1
   9  11  -8    5.00   35.50   1
   9  11   9  108.90   63.50   1
  -9 -11  -9   63.40   62.10   1
  -9  11  -9   65.50   60.50   1
   9 -11   9   76.40   60.30   1
  -9 -11   9   94.00   61.90   1
   9  11  -9   62.90   61.70   1
  -9  11 -10   20.30   31.80   1
   9 -11  10   20.40   31.80   1
  -9 -11  10   12.60   29.40   1
   9  11 -10   15.10   30.80   1
  -9  11 -11   61.00   51.40   1
   9 -11  11   48.50   50.10   1
  -9 -11  11   44.40   50.00   1
   9  11 -11   69.10   50.90   1
   9 -11  12    6.00   20.90   1
  -9 -11  12    8.60   21.50   1
   9  11 -12   10.80   23.00   1
   9  12   0    6.90   36.60   1
  -9 -12   0   39.60   37.30   1
   9 -12   0   48.00   40.00   1
  -9  12   0   72.00   40.70   1
   9  12   1    4.10   25.90   1
  -9 -12  -1    9.10   25.40   1
   9 -12  -1    2.10   30.50   1
  -9  12   1   12.90   28.20   1
  -9  12  -1   27.20   26.90   1
   9 -12   1   11.20   25.60   1
  -9 -12   1   60.80   38.50   1
   9  12  -1   -0.00   32.20   1
   9  12   2  229.50  167.20   1
  -9 -12  -2  383.60  167.50   1
   9 -12  -2  308.70  168.60   1
  -9  12   2  365.70  168.80   1
  -9  12  -2  391.00  167.80   1
   9 -12   2  389.40  168.00   1
  -9 -12   2  421.10  168.60   1
   9  12  -2  278.70  168.00   1
   9  12   3   74.60   48.20   1
  -9 -12  -3  107.40   48.10   1
  -9  12  -3   95.20   46.20   1
   9 -12   3  103.70   45.40   1
  -9 -12   3   14.50   44.00   1
   9  12  -3   -0.00   43.60   1
   9  12   4 1640.00  385.00   1
  -9 -12  -4 1368.70  382.30   1
  -9  12  -4 1593.80  380.70   1
   9 -12   4 1331.80  379.60   1
  -9 -12   4  645.50  379.30   1
   9  12  -4  567.70  378.00   1
   9  12   5   22.60   35.80   1
  -9 -12  -5   10.40   36.70   1
  -9  12  -5   25.30   33.00   1
   9 -12   5   24.90   34.50   1
  -9 -12   5   54.10   45.60   1
   9  12  -5   31.50   42.40   1
   9  12   6  364.80   81.50   1
  -9 -12  -6  316.30   81.10   1
  -9  12  -6   33.90   76.20   1
   9 -12   6  355.30   79.50   1
  -9 -12   6  454.50   84.80   1
   9  12  -6  129.30   78.90   1
   9  12   7   28.00   43.70   1
  -9 -12  -7   53.90   43.00   1
  -9  12  -7   21.70   37.20   1
   9 -12   7  122.60   40.80   1
  -9 -12   7   10.50   40.30   1
   9  12  -7   13.70   40.20   1
   9  12   8   98.80   65.50   1
  -9 -12  -8  100.10   66.10   1
  -9  12  -8  346.50   70.40   1
   9 -12   8   57.70   63.60   1
  -9 -12   8   64.00   65.80   1
   9  12  -8   41.60   64.10   1
   9  12   9    7.70   29.70   1
  -9 -12  -9   27.50   33.00   1
  -9  12  -9   16.60   28.30   1
   9 -12   9    2.40   24.90   1
  -9 -12   9   14.60   28.00   1
   9  12  -9   -0.00   32.20   1
  -9 -12 -10  217.50  148.90   1
  -9  12 -10  322.80  147.90   1
   9 -12  10  237.90  147.20   1
  -9 -12  10  292.50  148.40   1
   9  12 -10  286.20  148.90   1
  -9  12 -11   19.30   42.50   1
   9 -12  11   32.70   40.80   1
  -9 -12  11   36.20   39.50   1
   9  12 -11   41.40   41.10   1
   9 -12  12  110.30   77.70   1
  -9 -12  12  111.30   78.10   1
   9  12 -12  108.60   78.50   1
   9  13   0   21.80   25.80   1
  -9 -13   0    7.90   24.80   1
   9 -13   0   12.30   28.30   1
  -9  13   0    6.60   27.30   1
   9  13   1  568.30  169.80   1
  -9 -13  -1  409.40  169.00   1
   9 -13  -1  603.50  172.70   1
  -9  13   1  665.50  173.60   1
  -9  13  -1  724.20  171.70   1
   9 -13   1  564.80  170.60   1
  -9 -13   1  898.80  177.00   1
   9  13  -1  151.50  168.60   1
   9  13   2   67.80   52.60   1
  -9 -13  -2   53.40   51.60   1
   9 -13  -2   34.10   54.00   1
  -9  13   2  107.30   56.10   1
  -9  13  -2   81.90   52.50   1
   9 -13   2   64.40   52.10   1
  -9 -13   2   82.60   53.50   1
   9  13  -2    4.30   51.30   1
   9  13   3 2400.00  816.90   1
  -9 -13  -3 2202.80  815.40   1
   9 -13  -3 3067.00  837.80   1
  -9  13   3 3265.40  854.80   1
  -9  13  -3 2556.90  817.20   1
   9 -13   3 2774.60  816.60   1
  -9 -13   3 2146.90  813.70   1
   9  13  -3 1300.90  811.00   1
   9  13   4   71.20   71.50   1
  -9 -13  -4   58.20   71.40   1
  -9  13  -4  259.20   70.00   1
   9 -13   4   78.90   68.60   1
  -9 -13   4   82.90   72.30   1
   9  13  -4  116.90   71.10   1
   9  13   5  961.50  289.60   1
  -9 -13  -5 1431.90  293.80   1
  -9  13  -5  547.40  285.40   1
   9 -13   5 1421.30  290.00   1
  -9 -13   5  485.00  288.50   1
   9  13  -5  455.50  288.20   1
   9  13   6   72.50   58.10   1
  -9 -13  -6   28.60   56.60   1
  -9  13  -6  117.90   61.50   1
   9 -13   6   54.70   56.30   1
  -9 -13   6  102.40   61.50   1
   9  13  -6   86.30   61.90   1
   9  13   7  281.40  107.90   1
  -9 -13  -7  258.40  107.30   1
  -9  13  -7  121.00  103.40   1
   9 -13   7  231.20  104.10   1
  -9 -13   7  234.70  106.30   1
   9  13  -7  132.10  105.30   1
   9  13   8    8.80   31.70   1
  -9 -13  -8    5.60   32.10   1
  -9  13  -8   16.00   27.00   1
   9 -13   8   17.60   29.30   1
  -9 -13   8    9.90   30.20   1
   9  13  -8    8.40   29.60   1
   9  13   9  412.20  114.70   1
  -9 -13  -9  537.70  119.90   1
  -9  13  -9  117.80  107.60   1
   9 -13   9  136.70  107.40   1
  -9 -13   9  371.10  114.90   1
   9  13  -9  319.40  112.50   1
   9  13  10   26.40   35.10   1
  -9 -13 -10   25.80   35.40   1
  -9  13 -10   12.50   31.50   1
   9 -13  10   20.30   31.30   1
  -9 -13  10   17.80   32.90   1
   9  13 -10   14.70   36.60   1
  -9 -13 -11  126.20  122.10   1
   9 -13  11  199.60  121.80   1
  -9 -13  11  244.40  122.30   1
   9  13 -11  251.70  123.10   1
   9  14   0   64.30   50.90   1
  -9 -14   0   77.10   51.10   1
   9 -14   0   50.20   52.00   1
  -9  14   0   25.30   52.10   1
   9  14   1   51.70   44.00   1
  -9 -14  -1   62.80   43.90   1
   9 -14  -1   34.30   46.10   1
  -9  14   1   42.90   47.00   1
  -9  14  -1    0.00   43.40   1
   9 -14   1   40.60   44.80   1
  -9 -14   1   76.80   48.00   1
   9  14  -1   50.90   44.00   1
   9  14   2   37.30   43.20   1
  -9 -14  -2   25.10   43.00   1
   9 -14  -2   63.90   46.90   1
  -9  14   2   30.90   47.10   1
  -9  14  -2   50.70   43.70   1
   9 -14   2   56.20   44.80   1
  -9 -14   2   15.40   44.40   1
   9  14  -2   33.60   49.70   1
   9  14   3  122.20   50.70   1
  -9 -14  -3   86.10   50.10   1
   9 -14  -3   -0.00   48.00   1
  -9  14   3   13.30   46.70   1
  -9  14  -3  178.20   50.20   1
   9 -14   3   91.40   48.30   1
  -9 -14   3   22.10   47.00   1
   9  14  -3   23.20   47.20   1
   9  14   4   57.30   48.70   1
  -9 -14  -4   46.90   48.30   1
   9 -14  -4   60.70   48.40   1
  -9  14  -4   38.10   45.00   1
   9 -14   4   47.90   45.10   1
  -9 -14   4   55.60   46.40   1
   9  14  -4   25.60   45.30   1
   9  14   5    2.80   30.70   1
  -9 -14  -5   23.80   32.40   1
  -9  14  -5   21.70   26.50   1
   9 -14   5   -0.10   26.80   1
  -9 -14   5   35.00   39.00   1
   9  14  -5   30.70   36.10   1
   9  14   6  170.70   43.30   1
  -9 -14  -6    9.30   39.30   1
  -9  14  -6   40.70   40.90   1
   9 -14   6   22.30   40.90   1
  -9 -14   6   12.70   46.00   1
   9  14  -6   -0.00   42.90   1
   9  14   7    1.10   28.30   1
  -9 -14  -7   18.80   28.80   1
  -9  14  -7    9.60   23.50   1
   9 -14   7    9.80   22.70   1
  -9 -14   7    3.60   28.90   1
   9  14  -7   -0.10   30.60   1
   9  14   8   33.80   47.50   1
  -9 -14  -8   23.60   47.50   1
  -9  14  -8   16.60   41.30   1
   9 -14   8   95.80   46.30   1
  -9 -14   8   81.00   47.30   1
   9  14  -8   74.20   46.00   1
   9  14   9   -0.00   32.80   1
  -9 -14  -9   12.10   33.30   1
  -9  14  -9   -0.00   31.20   1
   9 -14   9   33.40   33.20   1
  -9 -14   9    2.50   27.90   1
   9  14  -9   10.40   28.20   1
   9  14  10   10.50   35.60   1
  -9 -14 -10   19.60   38.80   1
  -9  14 -10   29.60   38.10   1
   9 -14  10    6.90   33.70   1
  -9 -14  10   35.70   41.60   1
   9  14 -10   55.80   41.70   1
  -9 -14 -11    7.80   27.50   1
   9 -14  11   -0.00   22.50   1
  -9 -14  11    4.50   23.80   1
   9  14 -11    9.50   28.30   1
   9  15   0   -0.00   26.80   1
  -9 -15   0   -0.00   26.10   1
   9 -15   0   70.40   33.80   1
  -9  15   0   24.50   30.70   1
   9  15   1    1.80   30.80   1
  -9 -15  -1   18.40   30.90   1
   9 -15  -1   31.80   33.10   1
  -9  15   1   13.00   34.70   1
  -9  15  -1   35.70   32.70   1
   9 -15   1   18.60   33.20   1
  -9 -15   1    6.30   30.50   1
   9  15  -1   29.50   30.30   1
   9  15   2   47.90   46.80   1
  -9 -15  -2   56.00   46.40   1
   9 -15  -2   74.80   49.80   1
  -9  15   2   54.90   48.50   1
  -9  15  -2   -0.00   45.80   1
   9 -15   2  199.00   50.10   1
  -9 -15   2   -0.00   53.40   1
   9  15  -2   30.30   53.40   1
   9  15   3  447.20  201.10   1
  -9 -15  -3  366.20  200.60   1
   9 -15  -3  552.60  204.10   1
  -9  15   3  430.80  202.30   1
  -9  15  -3  475.00  200.50   1
   9 -15   3  380.60  199.60   1
  -9 -15   3  671.50  202.40   1
   9  15  -3  285.00  199.70   1
   9  15   4   44.10   46.30   1
  -9 -15  -4   25.00   47.50   1
   9 -15  -4   22.60   45.80   1
  -9  15   4   31.40   46.50   1
  -9  15  -4   34.60   43.10   1
   9 -15   4   30.50   43.20   1
  -9 -15   4   89.90   45.50   1
   9  15  -4   69.30   45.20   1
   9  15   5  112.90   61.90   1
  -9 -15  -5   71.90   61.00   1
  -9  15  -5   57.80   57.50   1
   9 -15   5   67.80   57.40   1
  -9 -15   5   73.80   62.10   1
   9  15  -5   61.70   59.80   1
   9  15   6   48.40   43.30   1
  -9 -15  -6   57.10   43.10   1
  -9  15  -6   26.10   38.10   1
   9 -15   6   31.00   43.80   1
  -9 -15   6   16.60   44.20   1
   9  15  -6   10.80   44.10   1
   9  15   7  107.20   40.90   1
  -9 -15  -7   31.90   37.60   1
  -9  15  -7    1.70   33.50   1
   9 -15   7   24.50   34.30   1
  -9 -15   7   47.70   42.60   1
   9  15  -7   12.80   40.40   1
   9  15   8  182.30   44.30   1
  -9 -15  -8    6.10   38.70   1
  -9  15  -8   13.00   30.30   1
   9 -15   8   45.20   31.50   1
  -9 -15   8   -0.00   35.50   1
   9  15  -8    6.00   34.70   1
   9  15   9   22.80   36.20   1
  -9 -15  -9    7.50   36.40   1
  -9  15  -9   13.70   32.10   1
   9 -15   9   30.40   35.30   1
  -9 -15   9   18.70   35.10   1
   9  15  -9   17.10   32.70   1
   9  15  10   -0.00   42.30   1
  -9 -15 -10   12.70   47.80   1
   9 -15  10   46.10   42.40   1
  -9 -15  10   50.00   44.60   1
   9  15 -10   37.70   40.70   1
   9  16   0    6.10   29.10   1
  -9 -16   0   31.60   29.80   1
   9 -16   0   11.60   30.00   1
  -9  16   0   18.80   31.10   1
   9  16   1   37.70   34.80   1
  -9 -16  -1   16.80   33.80   1
   9 -16  -1   25.50   37.30   1
  -9  16   1   18.50   37.60   1
  -9  16  -1   13.20   34.60   1
   9 -16   1   29.50   36.90   1
  -9 -16   1   25.40   33.70   1
   9  16  -1   19.70   33.30   1
   9  16   2  555.60  181.10   1
  -9 -16  -2  488.30  179.80   1
   9 -16  -2  482.60  181.90   1
  -9  16   2  417.70  181.30   1
  -9  16  -2  385.10  179.80   1
   9 -16   2  488.10  180.60   1
  -9 -16   2  246.50  182.20   1
   9  16  -2  227.50  179.60   1
   9  16   3   33.00   37.90   1
  -9 -16  -3   28.20   36.70   1
   9 -16  -3   -0.00   40.20   1
  -9  16   3   35.80   42.40   1
  -9  16  -3   13.90   34.70   1
   9 -16   3   22.30   34.50   1
  -9 -16   3   53.90   37.40   1
   9  16  -3   -0.00   33.80   1
   9  16   4   11.80   45.30   1
  -9 -16  -4   54.30   46.20   1
   9 -16  -4   27.50   46.00   1
  -9  16   4   67.00   45.40   1
  -9  16  -4   35.60   41.80   1
   9 -16   4   25.70   41.70   1
  -9 -16   4   38.20   44.10   1
   9  16  -4   74.50   44.50   1
   9  16   5   23.10   40.60   1
  -9 -16  -5   28.80   42.60   1
   9 -16  -5   19.50   40.70   1
  -9  16  -5   20.10   36.90   1
   9 -16   5   36.00   36.80   1
  -9 -16   5   43.40   41.00   1
   9  16  -5   40.60   38.70   1
   9  16   6   31.60   42.10   1
  -9 -16  -6   16.60   41.10   1
  -9  16  -6   38.50   38.90   1
   9 -16   6   46.70   42.60   1
  -9 -16   6   46.00   49.50   1
   9  16  -6   27.80   45.00   1
   9  16   7   -0.00   26.80   1
  -9 -16  -7   -0.00   26.50   1
  -9  16  -7    9.80   27.70   1
   9 -16   7   19.40   23.70   1
  -9 -16   7    1.20   36.60   1
   9  16  -7   -0.00   32.60   1
   9  16   8   16.40   51.50   1
  -9 -16  -8   41.70   50.00   1
  -9  16  -8   76.50   47.10   1
   9 -16   8   57.20   46.10   1
  -9 -16   8   30.20   51.30   1
   9  16  -8   26.30   52.10   1
   9  16   9    4.00   36.30   1
  -9 -16  -9    4.60   40.50   1
   9 -16   9   51.50   35.90   1
  -9 -16   9   22.50   34.80   1
   9  16  -9   11.80   35.10   1
   9  16  10   98.80   67.70   1
  -9 -16 -10   81.50   70.80   1
   9 -16  10   63.00   65.30   1
  -9 -16  10   82.00   65.60   1
   9  16 -10   71.90   63.90   1
   9  17   0   10.20   23.30   1
  -9 -17   0   10.20   21.60   1
   9 -17   0   -0.00   24.20   1
  -9  17   0    1.30   24.60   1
   9  17   1  169.00   40.70   1
  -9 -17  -1   15.60   36.40   1
   9 -17  -1   45.70   39.70   1
  -9  17   1   21.70   38.30   1
  -9  17  -1   13.30   37.60   1
   9 -17   1  198.80   44.40   1
  -9 -17   1   15.70   35.60   1
   9  17  -1   16.20   35.40   1
   9  17   2    8.60   31.60   1
  -9 -17  -2   14.80   30.80   1
   9 -17  -2   -0.20   33.20   1
  -9  17   2   -0.00   32.80   1
  -9  17  -2   13.70   31.60   1
   9 -17   2   -0.00   31.70   1
  -9 -17   2  100.10   41.60   1
   9  17  -2   19.40   30.40   1
   9  17   3   48.20   46.30   1
  -9 -17  -3   32.60   47.60   1
   9 -17  -3  189.00   53.10   1
  -9  17   3   35.70   47.40   1
  -9  17  -3   49.10   45.10   1
   9 -17   3   79.60   44.90   1
  -9 -17   3    1.70   44.00   1
   9  17  -3   17.90   48.80   1
   9  17   4   10.60   30.30   1
  -9 -17  -4   -0.00   33.70   1
   9 -17  -4   -0.00   35.30   1
  -9  17   4   -0.00   31.40   1
  -9  17  -4   17.90   25.50   1
   9 -17   4    6.90   26.40   1
  -9 -17   4   14.80   27.40   1
   9  17  -4   22.10   29.90   1
   9  17   5   78.80   60.10   1
  -9 -17  -5   70.60   60.70   1
   9 -17  -5   72.50   60.80   1
  -9  17   5  169.10   65.20   1
  -9  17  -5   95.20   58.10   1
   9 -17   5   83.00   58.10   1
  -9 -17   5   60.50   58.80   1
   9  17  -5   40.20   57.30   1
   9  17   6   10.80   26.40   1
  -9 -17  -6   11.20   26.70   1
  -9  17  -6    9.50   21.50   1
   9 -17   6    2.20   24.00   1
  -9 -17   6   -0.00   30.50   1
   9  17  -6    9.30   27.70   1
   9  17   7   81.20   40.70   1
  -9 -17  -7   52.40   36.70   1
  -9  17  -7   -0.00   39.60   1
   9 -17   7   10.30   34.20   1
  -9 -17   7   11.80   41.30   1
   9  17  -7   -0.00   40.40   1
   9  17   8    6.90   27.80   1
  -9 -17  -8   11.10   26.60   1
   9 -17   8   -0.00   19.80   1
  -9 -17   8   -0.00   33.70   1
   9  17  -8    0.70   31.70   1
   9  17   9    5.10   31.10   1
  -9 -17  -9   -0.10   36.60   1
   9 -17   9    6.60   25.70   1
  -9 -17   9   28.90   33.10   1
   9  17  -9   12.70   33.80   1
   9  18   0   12.30   36.60   1
  -9 -18   0   11.10   36.80   1
   9 -18   0  118.30   40.50   1
  -9  18   0   49.00   39.70   1
   9  18   1   16.00   24.60   1
  -9 -18  -1   12.20   23.90   1
   9 -18  -1    3.20   24.60   1
  -9  18   1   11.30   26.80   1
  -9  18  -1   15.50   25.30   1
   9 -18   1   -0.70   26.00   1
  -9 -18   1   -0.00   21.80   1
   9  18  -1   -0.00   21.80   1
   9  18   2  125.20   83.50   1
  -9 -18  -2  130.50   82.90   1
   9 -18  -2  143.10   84.20   1
  -9  18   2  101.70   84.10   1
  -9  18  -2  107.60   83.20   1
   9 -18   2  149.70   83.90   1
  -9 -18   2  130.00   84.60   1
   9  18  -2   94.50   81.60   1
   9  18   3   17.00   34.50   1
  -9 -18  -3    4.00   34.60   1
   9 -18  -3   45.80   37.30   1
  -9  18   3    8.40   32.90   1
  -9  18  -3    6.20   33.10   1
   9 -18   3   18.00   31.40   1
  -9 -18   3   33.30   35.40   1
   9  18  -3    8.70   42.20   1
   9  18   4  680.00  248.40   1
  -9 -18  -4  525.20  246.90   1
   9 -18  -4  661.00  252.20   1
  -9  18   4  940.90  257.70   1
  -9  18  -4  486.60  244.50   1
   9 -18   4  691.80  246.00   1
  -9 -18   4  851.90  248.90   1
   9  18  -4  327.20  244.90   1
   9  18   5   -0.00   27.20   1
  -9 -18  -5   -0.00   28.10   1
   9 -18  -5   15.20   32.20   1
  -9  18   5   15.10   27.50   1
  -9  18  -5   17.40   22.90   1
   9 -18   5    7.10   22.40   1
  -9 -18   5   -0.00   24.90   1
   9  18  -5    8.30   24.50   1
   9  18   6   66.30   57.20   1
  -9 -18  -6   71.40   57.30   1
   9 -18  -6   98.00   59.80   1
  -9  18  -6   27.80   53.80   1
   9 -18   6  387.50   60.60   1
  -9 -18   6   97.90   57.80   1
   9  18  -6   62.90   55.50   1
   9  18   7    1.70   30.90   1
  -9 -18  -7   -0.00   33.20   1
   9 -18   7   45.50   38.90   1
  -9 -18   7   17.80   40.00   1
   9  18  -7   25.40   35.40   1
   9  18   8   28.90   44.60   1
  -9 -18  -8   49.50   45.20   1
   9 -18   8   35.30   41.10   1
  -9 -18   8   45.90   50.50   1
   9  18  -8   13.20   45.10   1
   9  19   0   -0.00   18.90   1
  -9 -19   0   -0.00   17.80   1
   9 -19   0   -0.00   21.50   1
  -9  19   0   -0.00   21.60   1
   9  19   1   22.60   32.70   1
  -9 -19  -1   30.20   32.70   1
   9 -19  -1   15.60   33.60   1
  -9  19   1   10.60   33.70   1
  -9  19  -1    5.70   33.60   1
   9 -19   1   26.20   33.60   1
  -9 -19   1   12.40   29.40   1
   9  19  -1   23.70   30.80   1
   9  19   2   10.10   27.80   1
  -9 -19  -2   -0.00   26.80   1
   9 -19  -2   -0.00   27.40   1
  -9  19   2   21.00   29.10   1
  -9  19  -2   10.00   26.40   1
   9 -19   2   -1.40   27.40   1
  -9 -19   2   -0.00   25.00   1
   9  19  -2    9.20   22.50   1
   9  19   3   62.40   40.30   1
  -9 -19  -3   14.60   39.00   1
   9 -19  -3   19.50   42.10   1
  -9  19   3    4.50   38.60   1
  -9  19  -3   78.60   38.90   1
   9 -19   3   16.00   37.10   1
  -9 -19   3   -0.00   45.10   1
   9  19  -3   10.80   42.70   1
   9  19   4   36.20   36.30   1
  -9 -19  -4   13.50   35.80   1
   9 -19  -4   -0.00   38.40   1
  -9  19   4   -0.00   38.00   1
  -9  19  -4   39.50   32.30   1
   9 -19   4   21.20   30.50   1
  -9 -19   4   15.20   33.80   1
   9  19  -4    0.30   31.80   1
   9  19   5   52.40   46.50   1
  -9 -19  -5   13.60   45.40   1
   9 -19  -5   32.90   51.10   1
  -9  19   5   17.40   46.40   1
   9 -19   5   42.90   43.30   1
  -9 -19   5   87.10   45.60   1
   9  19  -5   40.60   45.00   1
   9  19   6    7.50   33.50   1
  -9 -19  -6    9.90   35.40   1
   9 -19  -6   27.70   36.30   1
  -9  19   6   17.40   35.20   1
   9 -19   6    3.30   29.60   1
  -9 -19   6   46.00   32.90   1
   9  19  -6   23.50   30.80   1
   9  19   7   47.30   42.00   1
  -9 -19  -7   50.20   41.60   1
   9 -19   7   25.70   44.40   1
  -9 -19   7   10.80   43.50   1
   9  19  -7   12.30   39.60   1
   9  20   0   13.00   28.50   1
  -9 -20   0    6.90   28.70   1
   9 -20   0   25.80   30.70   1
  -9  20   0   12.00   30.00   1
   9  20   1   -0.00   30.10   1
  -9 -20  -1   20.50   30.30   1
   9 -20  -1   27.80   34.00   1
  -9  20   1   43.20   34.30   1
  -9  20  -1   20.30   31.70   1
   9 -20   1   13.90   33.30   1
  -9 -20   1    9.50   28.80   1
   9  20  -1    6.00   29.10   1
   9  20   2   20.60   36.50   1
  -9 -20  -2   16.30   35.90   1
   9 -20  -2   31.40   35.40   1
  -9  20   2  142.20   44.10   1
  -9  20  -2   -0.00   34.70   1
   9 -20   2   16.90   35.90   1
  -9 -20   2   17.10   33.30   1
   9  20  -2   13.50   31.80   1
   9  20   3   24.10   34.00   1
  -9 -20  -3    1.30   34.50   1
   9 -20  -3   15.50   36.40   1
  -9  20   3    9.10   34.00   1
   9 -20   3   -0.10   29.70   1
  -9 -20   3   29.20   44.70   1
   9  20  -3   32.90   35.00   1
   9  20   4    6.60   32.10   1
  -9 -20  -4   12.00   32.90   1
   9 -20  -4   -0.00   32.70   1
  -9  20   4   40.00   36.20   1
   9 -20   4   19.30   26.20   1
  -9 -20   4   -0.00   28.80   1
   9  20  -4   -0.00   31.40   1
   9  20   5    7.50   30.80   1
  -9 -20  -5    8.10   32.30   1
   9 -20  -5   32.70   41.50   1
   9 -20   5   12.70   25.60   1
  -9 -20   5    5.00   28.50   1
   9  20  -5    8.70   29.10   1
   9  20   6   36.00   41.30   1
  -9 -20  -6  115.40   45.70   1
   9 -20  -6   56.50   45.30   1
   9 -20   6   23.90   36.60   1
  -9 -20   6   22.40   37.10   1
   9  20  -6   14.90   37.60   1
   9  21   0   17.20   27.80   1
  -9 -21   0   -0.00   27.10   1
   9 -21   0   16.60   30.30   1
   9  21   1   44.90   48.00   1
  -9 -21  -1   51.80   47.60   1
   9 -21  -1   50.50   48.10   1
   9 -21   1  220.50   55.40   1
  -9 -21   1   30.40   45.20   1
   9  21  -1   34.80   46.40   1
   9  21   2   -0.00   27.40   1
  -9 -21  -2   -0.00   25.80   1
   9 -21  -2    1.20   27.70   1
   9 -21   2    7.40   25.50   1
  -9 -21   2    7.30   21.90   1
   9  21  -2    1.60   20.60   1
   9  21   3    0.90   36.00   1
  -9 -21  -3   31.10   37.40   1
   9 -21  -3   -0.00   35.70   1
   9 -21   3   10.00   32.30   1
  -9 -21   3   39.70   44.00   1
   9  21  -3   35.30   33.80   1
   9  21   4   21.20   36.90   1
  -9 -21  -4    9.40   35.60   1
   9 -21  -4   17.00   38.10   1
   9 -21   4   10.00   29.60   1
  -9 -21   4   17.20   31.90   1
   9  21  -4   22.00   40.70   1
  10   0   0 4820.40 1976.90   1
 -10   0   0 4677.40 1973.40   1
  10   0   1   51.10   46.20   1
 -10   0  -1   62.60   46.10   1
  10   0  -1   41.90   46.30   1
 -10   0   1   40.30   46.30   1
  10   0   2 4246.70 1703.00   1
 -10   0  -2 3879.00 1704.10   1
  10   0  -2 5577.70 1867.50   1
  10   0   3  172.30   95.20   1
 -10   0  -3  142.20   95.10   1
 -10   0  -4  773.70  352.80   1
  10   1   0   99.20   69.60   1
 -10  -1   0   95.70   69.60   1
  10   1   1  425.10  204.30   1
 -10  -1  -1  623.50  205.10   1
 -10   1  -1  298.70  204.70   1
  10  -1   1  371.10  204.60   1
 -10  -1   1  402.10  205.00   1
  10   1  -1  355.10  204.50   1
  10   1   2   43.30   33.60   1
 -10  -1  -2   26.20   33.00   1
 -10   1  -2   37.30   31.50   1
  10  -1   2   28.00   31.90   1
 -10  -1   2   12.70   32.00   1
  10   1  -2   18.70   32.30   1
  10   1   3  118.10   36.90   1
 -10  -1  -3  133.30   36.80   1
 -10   1  -3  131.00   35.70   1
 -10  -1   3   16.20   36.10   1
  10   1  -3    3.40   35.80   1
  10   1   4   30.30   41.30   1
 -10  -1  -4   88.60   41.60   1
 -10  -1   4   85.80   43.70   1
  10   1  -4   20.10   41.20   1
  10   2   0  946.20  466.50   1
 -10  -2   0 1215.20  467.40   1
  10   2   1  422.90   69.30   1
 -10  -2   1  106.50   65.80   1
  10   2  -1   59.20   65.70   1
  10   2   2   76.80   38.10   1
 -10  -2   2   14.20   37.80   1
  10   2  -2   42.50   38.30   1
  10   2   3   97.80   47.40   1
 -10  -2  -3   49.90   47.10   1
 -10  -2   3   28.90   46.80   1
  10   2  -3   56.80   47.20   1
  10   2   4  286.00   95.60   1
 -10  -2  -4  129.90   94.90   1
 -10  -2   4  127.70   95.20   1
  10   2  -4  142.50   95.20   1
  10   2   5   50.30   39.50   1
 -10  -2  -5   43.80   39.60   1
 -10  -2   5   22.30   38.80   1
  10   2  -5   44.60   39.30   1
 -10  -2   6   66.40   36.70   1
  10   2  -6   22.60   35.00   1
  10   2  -7   27.40   35.80   1
  10   3   0  153.50   80.10   1
 -10  -3   0   96.00   79.50   1
  10   3   1  332.10  136.70   1
 -10  -3  -1  290.80  136.60   1
 -10  -3   1  337.80  138.40   1
  10   3  -1  156.50  137.10   1
  10   3   2   46.70   49.10   1
 -10  -3  -2   74.70   49.20   1
 -10  -3   2   37.00   49.70   1
  10   3  -2  102.10   50.70   1
 -10  -3   3   57.00   56.90   1
  10   3  -3  102.40   57.30   1
  10   3   4  141.70   48.40   1
 -10  -3  -4  109.00   48.00   1
 -10   3  -4   76.50   46.30   1
  10  -3   4   43.40   46.10   1
 -10  -3   4   17.30   46.80   1
  10   3  -4   52.00   47.60   1
  10   3   5  812.80  293.10   1
 -10  -3  -5  626.10  292.00   1
 -10   3  -5  553.30  292.70   1
 -10  -3   5  473.80  292.00   1
  10   3  -5  708.40  293.90   1
 -10  -3   6   63.90   57.70   1
  10   3  -6   83.10   58.00   1
 -10  -3   7   32.80   38.20   1
  10   3  -7   34.50   38.40   1
 -10  -3   8   -0.00   12.90   1
  10   3  -8   -0.00   13.60   1
  10   3  -9   80.40   65.20   1
  10   4   0  259.70  146.00   1
 -10  -4   0  284.00  146.80   1
  10   4   1   69.10   46.90   1
 -10  -4  -1   64.80   46.80   1
 -10  -4   1   64.70   46.60   1
  10   4  -1   20.50   45.70   1
  10   4   2   73.40   63.90   1
 -10  -4  -2  113.60   63.90   1
  10  -4   2  111.00   63.90   1
 -10  -4   2   60.20   66.00   1
  10   4  -2   65.90   66.40   1
  10   4   3  127.30   50.10   1
 -10  -4  -3   93.40   49.70   1
 -10   4  -3  144.50   48.30   1
  10  -4   3  133.50   48.00   1
 -10  -4   3   17.70   48.40   1
  10   4  -3   11.70   48.70   1
  10   4   4   12.10   34.70   1
 -10  -4  -4   48.00   35.80   1
 -10   4  -4  113.60   35.30   1
  10  -4   4   32.30   34.40   1
 -10  -4   4   11.10   34.20   1
  10   4  -4   37.10   35.10   1
  10   4   5   40.80   29.10   1
 -10  -4  -5  133.90   31.10   1
 -10   4  -5   23.60   24.90   1
  10  -4   5   15.50   24.40   1
 -10  -4   5   -0.00   25.70   1
  10   4  -5    5.40   25.50   1
  10   4   6    8.80   25.40   1
 -10  -4  -6    2.90   25.00   1
 -10   4  -6   23.10   22.90   1
  10  -4   6    8.60   22.50   1
 -10  -4   6   37.40   24.70   1
  10   4  -6   21.70   24.50   1
 -10   4  -7   16.00   19.00   1
  10  -4   7   10.50   19.30   1
 -10  -4   7    2.40   19.80   1
  10   4  -7    6.20   20.80   1
 -10  -4   8   16.00   32.50   1
  10   4  -8   81.20   34.80   1
 -10  -4   9   20.20   34.70   1
  10   4  -9   40.10   35.50   1
 -10  -4  10   67.70   60.10   1
  10   4 -10   75.30   60.30   1
  10   4 -11   23.70   34.30   1
  10   4 -12   13.20   30.90   1
  10   5   0   26.00   35.40   1
 -10  -5   0   33.50   36.30   1
  10   5   1 2623.80 1057.90   1
 -10  -5  -1 2984.90 1059.10   1
 -10  -5   1 2746.80 1057.20   1
  10   5  -1 2111.80 1054.90   1
  10   5   2   18.30   35.60   1
 -10  -5  -2  149.80   36.50   1
 -10   5  -2    8.10   35.40   1
  10  -5   2   31.00   35.80   1
 -10  -5   2   67.40   37.70   1
  10   5  -2   37.20   36.90   1
  10   5   3  312.70  125.70   1
 -10  -5  -3  364.20  126.00   1
 -10   5  -3  273.00  124.60   1
  10  -5   3  293.60  124.60   1
 -10  -5   3  160.50  125.70   1
  10   5  -3  139.10  125.80   1
  10   5   4   14.00   36.10   1
 -10  -5  -4   60.70   37.50   1
 -10   5  -4   46.70   35.20   1
  10  -5   4   32.60   34.70   1
 -10  -5   4   24.70   35.70   1
  10   5  -4   12.60   36.20   1
  10   5   5   39.20   35.60   1
 -10  -5  -5   34.20   35.40   1
 -10   5  -5   31.80   32.10   1
  10  -5   5   43.30   32.10   1
 -10  -5   5   12.10   32.60   1
  10   5  -5    8.20   32.60   1
  10   5   6   35.80   33.00   1
 -10  -5  -6   49.40   35.30   1
 -10   5  -6   21.90   29.20   1
  10  -5   6   20.90   28.80   1
 -10  -5   6   11.80   29.70   1
  10   5  -6   20.10   30.10   1
 -10   5  -7  257.00  173.70   1
  10  -5   7  606.60  178.40   1
 -10  -5   7  334.90  175.10   1
  10   5  -7 1015.50  190.30   1
 -10   5  -8   46.80   37.20   1
  10  -5   8   28.00   36.90   1
 -10  -5   8   23.20   37.60   1
  10   5  -8   60.00   38.60   1
 -10   5  -9 2551.30 1067.00   1
  10  -5   9 2859.30 1106.20   1
 -10  -5   9 2175.00 1053.50   1
  10   5  -9 2607.70 1060.80   1
 -10   5 -10   27.90   42.80   1
 -10  -5  10   47.20   43.40   1
  10   5 -10   61.70   44.30   1
 -10  -5  11   97.80   74.30   1
  10   5 -11  105.90   74.60   1
 -10  -5  12    9.60   26.10   1
  10   5 -12   14.50   26.90   1
 -10  -5  13   39.00   47.90   1
  10   5 -13   48.90   48.10   1
  10   5 -14   10.50   30.40   1
  10   6   0  413.60  223.40   1
 -10  -6   0  525.90  223.70   1
  10   6   1   52.80   35.90   1
 -10  -6  -1  256.30   41.70   1
 -10   6  -1   13.40   34.00   1
  10  -6   1    7.40   34.00   1
  10   6  -1  153.10   41.20   1
  10   6   2   13.80   32.00   1
 -10  -6  -2   16.90   32.20   1
 -10   6  -2   83.80   33.00   1
  10  -6   2   43.00   32.50   1
 -10  -6   2   12.70   34.10   1
  10   6  -2    7.30   34.50   1
  10   6   3   19.90   29.00   1
 -10  -6  -3   39.60   30.00   1
 -10   6  -3   21.60   27.20   1
  10  -6   3   15.90   26.90   1
 -10  -6   3    2.40   30.00   1
  10   6  -3   11.30   28.90   1
  10   6   4  106.90   64.20   1
 -10  -6  -4   53.50   64.10   1
 -10   6  -4  115.70   62.80   1
  10  -6   4  127.70   64.90   1
 -10  -6   4  135.60   64.80   1
  10   6  -4   29.60   64.00   1
  10   6   5   26.50   34.60   1
 -10  -6  -5   20.40   34.50   1
 -10   6  -5  105.20   35.60   1
  10  -6   5   32.90   34.30   1
 -10  -6   5   17.60   33.20   1
  10   6  -5    6.90   33.80   1
  10   6   6   48.90   46.80   1
 -10  -6  -6   31.00   46.80   1
 -10   6  -6   31.80   43.60   1
  10  -6   6   36.60   44.10   1
 -10  -6   6   77.90   44.40   1
  10   6  -6   89.40   44.80   1
  10   6   7   28.00   26.40   1
 -10  -6  -7   38.20   27.60   1
 -10   6  -7   21.20   22.90   1
  10  -6   7    8.40   22.10   1
 -10  -6   7   -0.00   23.20   1
  10   6  -7    8.40   24.20   1
 -10   6  -8  174.90   65.00   1
  10  -6   8   66.80   63.50   1
 -10  -6   8   75.40   64.50   1
  10   6  -8   90.60   64.90   1
 -10   6  -9   31.00   30.70   1
  10  -6   9   21.50   30.30   1
 -10  -6   9   15.50   31.40   1
  10   6  -9   28.70   32.00   1
 -10   6 -10  164.30   90.50   1
  10  -6  10  128.60   90.00   1
 -10  -6  10  119.10   90.00   1
  10   6 -10  162.80   90.90   1
 -10   6 -11   15.70   20.80   1
  10  -6  11    9.00   21.00   1
 -10  -6  11    4.60   21.40   1
  10   6 -11    8.10   22.10   1
 -10   6 -12   36.70   24.10   1
 -10  -6  12    4.70   22.40   1
  10   6 -12    7.80   23.50   1
 -10   6 -13    2.70   17.50   1
 -10  -6  13   -0.00   16.20   1
  10   6 -13    3.50   17.70   1
  10   7   0   38.90   48.80   1
 -10  -7   0   67.80   49.80   1
  10   7   1  108.40   61.10   1
 -10  -7  -1   54.30   61.10   1
 -10   7  -1   73.10   62.40   1
  10  -7   1   96.30   62.30   1
 -10  -7   1   61.30   62.50   1
  10   7  -1  101.60   62.40   1
  10   7   2   30.70   46.20   1
 -10  -7  -2   51.00   46.20   1
 -10   7  -2   81.50   46.30   1
  10  -7   2   53.00   46.00   1
 -10  -7   2   22.20   49.40   1
  10   7  -2   56.30   50.50   1
  10   7   3  145.00   95.60   1
 -10  -7  -3  438.20   97.80   1
 -10   7  -3  186.00   94.70   1
  10  -7   3  138.20   94.50   1
 -10  -7   3  129.70   95.80   1
  10   7  -3  127.30   95.40   1
  10   7   4  102.00   58.70   1
 -10  -7  -4   90.80   58.80   1
 -10   7  -4   95.20   55.70   1
  10  -7   4  244.60   56.70   1
 -10  -7   4   20.90   59.20   1
  10   7  -4   -0.00   57.40   1
  10   7   5   40.20   48.50   1
 -10  -7  -5   32.40   47.50   1
 -10   7  -5   48.70   46.00   1
  10  -7   5   94.60   46.50   1
 -10  -7   5   47.10   48.30   1
  10   7  -5   34.50   48.20   1
  10   7   6   18.10   45.90   1
 -10  -7  -6   73.70   48.30   1
 -10   7  -6  102.20   45.70   1
  10  -7   6   67.00   44.30   1
 -10  -7   6   33.80   44.40   1
  10   7  -6   20.80   44.60   1
  10   7   7  191.30   55.50   1
 -10  -7  -7   64.70   55.00   1
 -10   7  -7   92.90   52.50   1
  10  -7   7   28.10   50.70   1
 -10  -7   7   54.40   50.80   1
  10   7  -7   64.00   51.20   1
 -10  -7  -8   42.20   39.70   1
 -10   7  -8   52.90   36.80   1
  10  -7   8   39.40   36.00   1
 -10  -7   8   17.90   36.40   1
  10   7  -8   18.90   37.00   1
 -10   7  -9   40.80   41.90   1
  10  -7   9   42.90   41.60   1
 -10  -7   9   35.30   42.30   1
  10   7  -9   48.50   43.10   1
 -10   7 -10   13.70   28.20   1
  10  -7  10   22.80   27.70   1
 -10  -7  10   20.50   28.80   1
  10   7 -10   22.10   29.60   1
 -10   7 -11   31.90   29.40   1
  10  -7  11   11.80   28.10   1
 -10  -7  11   24.50   29.80   1
  10   7 -11   30.90   30.30   1
 -10   7 -12   12.50   21.80   1
  10  -7  12   10.50   21.80   1
 -10  -7  12    7.70   21.90   1
  10   7 -12   14.30   24.00   1
  10  -7  13   10.90   30.90   1
 -10  -7  13   35.40   32.30   1
  10   7 -13   53.20   34.10   1
  10   8   0  122.20   74.20   1
 -10  -8   0   97.90   72.20   1
  10  -8   0   71.30   70.90   1
 -10   8   0  185.20   71.90   1
  10   8   1   72.00   60.90   1
 -10  -8  -1   73.00   61.00   1
 -10   8  -1   69.10   62.10   1
  10  -8   1   82.20   62.20   1
 -10  -8   1  125.60   62.40   1
  10   8  -1   75.40   61.60   1
  10   8   2  172.90   79.60   1
 -10  -8  -2   83.00   79.00   1
 -10   8  -2  134.90   79.10   1
  10  -8   2  125.20   79.20   1
  10   8   3   12.30   35.80   1
 -10  -8  -3   55.70   36.80   1
 -10   8  -3   24.00   34.10   1
  10  -8   3   28.10   34.20   1
 -10  -8   3   60.90   39.60   1
  10   8  -3    3.70   37.80   1
  10   8   4 1003.00  396.20   1
 -10  -8  -4 1223.10  397.20   1
 -10   8  -4 1083.50  394.70   1
  10  -8   4  957.80  394.10   1
 -10  -8   4  744.00  395.30   1
  10   8  -4  621.20  394.70   1
  10   8   5  175.10   68.10   1
 -10  -8  -5  133.10   67.40   1
 -10   8  -5  236.20   66.80   1
  10  -8   5  221.90   66.30   1
 -10  -8   5   -0.00   67.60   1
  10   8  -5   18.20   67.40   1
  10   8   6 1290.00  267.50   1
 -10  -8  -6 1150.30  265.00   1
 -10   8  -6 2053.80  273.20   1
  10  -8   6 1784.90  270.40   1
 -10  -8   6  540.10  261.00   1
  10   8  -6  315.00  259.90   1
  10   8   7  171.40   46.50   1
 -10  -8  -7   43.70   42.20   1
 -10   8  -7   23.20   36.30   1
  10  -8   7   26.20   36.20   1
 -10  -8   7   20.40   36.40   1
  10   8  -7   42.20   38.30   1
  10   8   8  355.20   96.30   1
 -10  -8  -8  348.90   94.20   1
 -10   8  -8  193.80   91.30   1
  10  -8   8   84.10   88.80   1
 -10  -8   8  185.50   90.00   1
  10   8  -8  203.50   90.40   1
 -10   8  -9   19.60   26.50   1
  10  -8   9   22.80   25.90   1
 -10  -8   9    9.00   26.00   1
  10   8  -9    9.90   27.40   1
 -10   8 -10   18.50   23.50   1
  10  -8  10   -0.00   22.40   1
 -10  -8  10   36.10   25.50   1
  10   8 -10   67.30   27.40   1
 -10   8 -11   12.40   33.10   1
  10  -8  11   52.90   33.50   1
 -10  -8  11   37.70   34.00   1
  10   8 -11   67.20   36.10   1
 -10   8 -12   21.50   23.10   1
  10  -8  12    5.90   22.20   1
 -10  -8  12   18.30   24.30   1
  10   8 -12   15.70   24.80   1
  10  -8  13   -0.00   15.40   1
 -10  -8  13    5.00   16.30   1
  10   8 -13   10.20   17.10   1
  10   9   0  170.50   49.90   1
 -10  -9   0   34.60   48.10   1
  10  -9   0   22.00   43.80   1
 -10   9   0   28.00   43.00   1
  10   9   1   15.90   31.50   1
 -10  -9  -1   20.00   31.30   1
 -10   9  -1   17.60   33.70   1
  10  -9   1  188.70   35.50   1
 -10  -9   1    9.30   33.40   1
  10   9  -1   31.50   34.00   1
  10   9   2   24.30   34.40   1
 -10  -9  -2    8.50   33.30   1
 -10   9  -2   11.30   33.50   1
  10  -9   2   48.30   34.20   1
 -10  -9   2   61.50   37.80   1
  10   9  -2   56.60   36.20   1
  10   9   3   82.20   55.80   1
 -10  -9  -3  281.00   58.00   1
 -10   9  -3  137.30   54.80   1
  10  -9   3   40.30   53.70   1
 -10  -9   3   67.90   58.30   1
  10   9  -3    7.50   56.30   1
  10   9   4   85.80   77.80   1
 -10  -9  -4  109.80   78.20   1
 -10   9  -4  158.20   76.00   1
  10  -9   4   91.90   75.60   1
 -10  -9   4  125.80   78.50   1
  10   9  -4  125.50   78.80   1
  10   9   5   24.50   28.40   1
 -10  -9  -5   18.30   27.00   1
 -10   9  -5   13.90   29.20   1
  10  -9   5   -0.00   25.60   1
 -10  -9   5   13.60   28.90   1
  10   9  -5   16.30   28.00   1
  10   9   6   37.80   47.80   1
 -10  -9  -6   80.20   47.30   1
 -10   9  -6   39.00   44.00   1
  10  -9   6  249.20   47.80   1
 -10  -9   6   13.50   48.10   1
  10   9  -6    7.10   48.30   1
  10   9   7   66.90   41.30   1
 -10  -9  -7   22.20   39.20   1
 -10   9  -7   29.50   37.80   1
  10  -9   7   24.70   36.00   1
 -10  -9   7   16.20   37.50   1
  10   9  -7   25.80   38.00   1
  10   9   8   50.00   40.70   1
 -10  -9  -8   45.00   41.00   1
 -10   9  -8   96.10   37.50   1
  10  -9   8   18.50   36.30   1
 -10  -9   8    8.90   36.30   1
  10   9  -8   19.90   37.60   1
 -10  -9  -9   67.00   98.20   1
 -10   9  -9  294.20  100.50   1
  10  -9   9  179.80   97.40   1
 -10  -9   9  198.30   98.20   1
  10   9  -9  222.40   98.70   1
 -10   9 -10   17.00   22.40   1
  10  -9  10   -0.00   20.20   1
 -10  -9  10    7.80   21.30   1
  10   9 -10   24.60   23.40   1
 -10   9 -11   41.20   44.50   1
  10  -9  11   50.30   44.30   1
 -10  -9  11   37.00   44.90   1
  10   9 -11   61.70   46.20   1
 -10   9 -12   -0.00   10.50   1
  10  -9  12   -0.00    9.00   1
 -10  -9  12   -0.00   11.10   1
  10   9 -12   -0.00   13.20   1
  10  -9  13    4.00   17.50   1
 -10  -9  13    9.50   19.50   1
  10   9 -13   10.90   21.30   1
  10  10   0 2211.10 1071.90   1
 -10 -10   0 4069.40 1080.10   1
  10 -10   0 2412.30 1074.60   1
 -10  10   0 2610.00 1076.40   1
  10  10   1   12.80   27.60   1
 -10 -10  -1   -0.00   27.40   1
  10 -10  -1    8.70   29.40   1
 -10  10   1   16.70   29.20   1
 -10  10  -1   20.10   28.60   1
  10 -10   1   13.50   28.80   1
 -10 -10   1  181.70   35.90   1
  10  10  -1   40.70   32.20   1
  10  10   2   88.10   43.60   1
 -10 -10  -2   32.90   42.40   1
 -10  10  -2   45.40   43.00   1
  10 -10   2   18.40   42.40   1
 -10 -10   2   43.70   43.30   1
  10  10  -2   42.90   42.70   1
  10  10   3   16.50   47.70   1
 -10 -10  -3   93.80   49.60   1
 -10  10  -3   49.80   47.00   1
  10 -10   3   27.50   46.40   1
 -10 -10   3  357.90   60.90   1
  10  10  -3   96.20   51.80   1
  10  10   4  159.20   66.50   1
 -10 -10  -4   36.10   64.80   1
 -10  10  -4   72.20   62.40   1
  10 -10   4  121.60   62.60   1
 -10 -10   4   81.30   67.20   1
  10  10  -4   72.30   67.50   1
  10  10   5   24.70   33.80   1
 -10 -10  -5   -0.10   33.60   1
 -10  10  -5   26.10   32.00   1
  10 -10   5  100.90   39.60   1
 -10 -10   5   47.00   35.70   1
  10  10  -5   -0.00   33.80   1
  10  10   6  274.60  104.40   1
 -10 -10  -6  166.00  103.30   1
 -10  10  -6  440.50  103.40   1
  10 -10   6  118.60  101.20   1
 -10 -10   6  193.10  105.00   1
  10  10  -6  141.40  103.40   1
  10  10   7    1.30   33.20   1
 -10 -10  -7   -0.10   33.10   1
 -10  10  -7   74.00   33.40   1
  10 -10   7   20.50   31.70   1
 -10 -10   7    2.20   33.40   1
  10  10  -7    5.70   35.70   1
  10  10   8  768.40  240.70   1
 -10 -10  -8  711.40  240.20   1
 -10  10  -8  436.20  234.60   1
  10 -10   8  553.40  235.00   1
 -10 -10   8  485.80  235.80   1
  10  10  -8  380.10  235.30   1
  10  10   9   13.70   31.80   1
 -10 -10  -9   39.70   32.90   1
 -10  10  -9   10.50   30.40   1
  10 -10   9   22.50   31.30   1
 -10 -10   9   12.40   30.10   1
  10  10  -9   22.90   32.40   1
 -10  10 -10   37.20   37.40   1
  10 -10  10   20.60   34.60   1
 -10 -10  10   25.70   34.80   1
  10  10 -10   28.10   35.80   1
 -10  10 -11    8.90   25.80   1
  10 -10  11    7.20   24.50   1
 -10 -10  11   15.80   25.50   1
  10  10 -11   44.80   27.60   1
  10 -10  12   31.00   34.60   1
 -10 -10  12   22.10   35.30   1
  10  10 -12   35.80   36.50   1
  10  11   0  253.00   56.20   1
 -10 -11   0   39.30   55.20   1
  10 -11   0  108.30   57.80   1
 -10  11   0   29.60   55.50   1
  10  11   1  104.00   62.00   1
 -10 -11  -1   79.50   62.00   1
  10 -11  -1   34.60   64.60   1
 -10  11   1   70.50   63.30   1
 -10  11  -1   74.50   62.80   1
  10 -11   1  321.30   64.70   1
 -10 -11   1   77.10   63.80   1
  10  11  -1   50.70   64.70   1
  10  11   2   31.90   37.10   1
 -10 -11  -2   33.70   37.10   1
  10 -11  -2   17.10   36.90   1
 -10  11  -2    8.80   36.20   1
  10 -11   2   22.00   36.90   1
 -10 -11   2  197.50   39.90   1
  10  11  -2   24.50   37.30   1
  10  11   3  247.00   72.20   1
 -10 -11  -3  557.30   76.60   1
 -10  11  -3  170.20   70.00   1
  10 -11   3   87.60   68.90   1
 -10 -11   3   60.70   71.20   1
  10  11  -3   37.20   69.70   1
  10  11   4   30.60   53.40   1
 -10 -11  -4   48.80   53.80   1
 -10  11  -4   53.70   51.00   1
  10 -11   4   67.40   51.40   1
 -10 -11   4   63.20   58.00   1
  10  11  -4  140.80   58.80   1
  10  11   5  238.30   64.20   1
 -10 -11  -5   57.10   62.00   1
 -10  11  -5  122.20   59.70   1
  10 -11   5   87.80   60.70   1
 -10 -11   5   26.00   61.80   1
  10  11  -5   39.50   63.10   1
  10  11   6  109.80   96.70   1
 -10 -11  -6  118.00   96.40   1
 -10  11  -6  308.70   96.90   1
  10 -11   6  261.10   96.00   1
 -10 -11   6  112.00   97.00   1
  10  11  -6  153.10   96.90   1
  10  11   7   56.80   61.20   1
 -10 -11  -7   57.50   59.70   1
 -10  11  -7   62.70   56.50   1
  10 -11   7   63.90   58.20   1
 -10 -11   7   81.50   62.50   1
  10  11  -7   98.50   60.60   1
  10  11   8   23.00   43.00   1
 -10 -11  -8   31.40   42.10   1
 -10  11  -8  234.10   47.00   1
  10 -11   8   53.70   39.80   1
 -10 -11   8   -0.00   40.40   1
  10  11  -8   -0.00   42.00   1
  10  11   9   33.70   37.50   1
 -10 -11  -9   59.30   41.10   1
 -10  11  -9   18.20   34.30   1
  10 -11   9   19.50   33.90   1
 -10 -11   9   31.80   36.50   1
  10  11  -9   21.70   36.40   1
 -10 -11 -10   11.60   25.90   1
 -10  11 -10   16.10   25.20   1
  10 -11  10   -0.10   25.60   1
 -10 -11  10   -0.00   22.00   1
  10  11 -10    7.80   24.50   1
 -10  11 -11   14.10   36.80   1
  10 -11  11   24.40   35.20   1
 -10 -11  11   42.40   36.30   1
  10  11 -11   44.20   37.30   1
  10 -11  12    2.50   20.40   1
 -10 -11  12   12.60   21.50   1
  10  11 -12   15.30   23.10   1
  10  12   0   52.50   45.80   1
 -10 -12   0   73.60   45.80   1
  10 -12   0   11.80   47.10   1
 -10  12   0   39.70   47.90   1
  10  12   1   36.20   54.40   1
 -10 -12  -1   57.80   54.80   1
  10 -12  -1   60.10   58.90   1
 -10  12   1   70.30   58.70   1
 -10  12  -1  117.90   56.80   1
  10 -12   1   72.40   56.10   1
 -10 -12   1  188.60   63.50   1
  10  12  -1   46.80   60.70   1
  10  12   2  366.60  163.90   1
 -10 -12  -2  368.40  163.60   1
  10 -12  -2  258.00  164.30   1
 -10  12   2  172.80  163.60   1
 -10  12  -2  406.60  164.30   1
  10 -12   2  239.10  163.30   1
 -10 -12   2  397.90  164.20   1
  10  12  -2  356.10  164.30   1
  10  12   3  107.70   66.00   1
 -10 -12  -3   78.30   65.00   1
 -10  12  -3   80.00   64.10   1
  10 -12   3   67.00   63.60   1
 -10 -12   3   96.40   64.40   1
  10  12  -3   67.10   63.20   1
  10  12   4   81.30   80.00   1
 -10 -12  -4   71.20   80.50   1
 -10  12  -4  125.60   78.20   1
  10 -12   4  120.20   78.00   1
 -10 -12   4  280.30   88.00   1
  10  12  -4  162.50   83.20   1
  10  12   5  214.90  100.10   1
 -10 -12  -5  203.90   99.70   1
 -10  12  -5   97.20   96.80   1
  10 -12   5  191.40   97.60   1
 -10 -12   5  347.70  105.70   1
  10  12  -5  369.80  105.70   1
  10  12   6   73.70   67.30   1
 -10 -12  -6   27.80   66.10   1
 -10  12  -6   93.90   68.40   1
  10 -12   6  103.70   66.30   1
 -10 -12   6  223.80   70.70   1
  10  12  -6  247.10   71.40   1
  10  12   7  148.20   69.10   1
 -10 -12  -7   65.30   67.00   1
 -10  12  -7   65.00   63.70   1
  10 -12   7  137.90   64.80   1
 -10 -12   7   71.00   66.80   1
  10  12  -7   73.10   66.20   1
  10  12   8   13.70   33.80   1
 -10 -12  -8   11.80   35.70   1
  10 -12   8   79.20   36.90   1
 -10 -12   8   -0.00   37.60   1
  10  12  -8   -0.00   34.40   1
  10  12   9   16.30   34.70   1
 -10 -12  -9   15.00   37.60   1
 -10  12  -9   26.40   33.20   1
  10 -12   9   23.70   28.30   1
 -10 -12   9   -0.00   31.50   1
  10  12  -9   -0.00   34.70   1
  10  12  10   13.20   28.50   1
 -10 -12 -10    6.30   29.60   1
 -10  12 -10   31.00   26.10   1
  10 -12  10   11.20   25.70   1
 -10 -12  10   -0.00   27.90   1
  10  12 -10   -0.00   28.80   1
 -10  12 -11   -0.00   26.10   1
  10 -12  11   -0.00   24.70   1
 -10 -12  11   12.90   23.60   1
  10  12 -11   15.00   25.70   1
  10  13   0  174.70   90.50   1
 -10 -13   0  102.80   90.10   1
  10 -13   0  177.00   92.10   1
 -10  13   0  167.00   92.60   1
  10  13   1  184.90   64.00   1
 -10 -13  -1   79.10   63.50   1
  10 -13  -1   51.00   66.10   1
 -10  13   1   38.50   64.00   1
 -10  13  -1   41.70   63.00   1
  10 -13   1   99.90   63.80   1
 -10 -13   1  201.70   73.50   1
  10  13  -1  293.90   71.60   1
  10  13   2   69.80   75.30   1
 -10 -13  -2   94.30   75.10   1
  10 -13  -2  155.80   78.50   1
 -10  13   2  107.30   76.60   1
 -10  13  -2   96.20   75.20   1
  10 -13   2  128.60   75.70   1
 -10 -13   2  195.30   77.50   1
  10  13  -2   86.80   75.90   1
  10  13   3  812.20  272.50   1
 -10 -13  -3  503.50  270.70   1
  10 -13  -3  196.30  269.50   1
 -10  13  -3  852.60  272.00   1
  10 -13   3  657.00  270.90   1
 -10 -13   3 1417.10  276.20   1
  10  13  -3 1225.80  274.00   1
  10  13   4  324.90  111.00   1
 -10 -13  -4  148.00  109.20   1
 -10  13  -4  143.90  107.10   1
  10 -13   4  180.70  107.30   1
 -10 -13   4  244.10  112.20   1
  10  13  -4  194.10  110.10   1
  10  13   5  718.40  173.60   1
 -10 -13  -5  641.60  173.20   1
 -10  13  -5  358.70  168.20   1
  10 -13   5  212.60  167.60   1
 -10 -13   5  830.20  179.40   1
  10  13  -5  490.40  174.20   1
  10  13   6  224.20   85.00   1
 -10 -13  -6  143.80   83.70   1
 -10  13  -6  183.40   84.90   1
  10 -13   6   89.00   83.50   1
 -10 -13   6   81.60   84.20   1
  10  13  -6   92.10   85.30   1
  10  13   7  100.10   85.30   1
 -10 -13  -7  154.20   86.30   1
 -10  13  -7  141.30   83.40   1
  10 -13   7  207.10   83.40   1
 -10 -13   7   61.40   84.40   1
  10  13  -7  148.20   85.90   1
  10  13   8   16.90   37.50   1
 -10 -13  -8   15.80   39.50   1
 -10  13  -8   26.80   33.30   1
  10 -13   8   23.90   36.10   1
 -10 -13   8   22.60   38.40   1
  10  13  -8   30.90   37.10   1
  10  13   9   22.20   53.10   1
 -10 -13  -9  107.20   55.50   1
 -10  13  -9   73.60   51.30   1
  10 -13   9   36.40   49.60   1
 -10 -13   9   40.30   53.60   1
  10  13  -9   39.70   52.50   1
  10  13  10   20.90   34.10   1
 -10 -13 -10    8.30   36.30   1
 -10  13 -10   36.40   31.80   1
  10 -13  10   11.30   30.30   1
 -10 -13  10    8.60   32.60   1
  10  13 -10   19.30   37.20   1
 -10 -13 -11   67.60   36.10   1
  10 -13  11   41.90   32.20   1
 -10 -13  11   -0.00   31.80   1
  10  13 -11    1.90   33.10   1
  10  14   0   53.80   50.90   1
 -10 -14   0   60.40   50.80   1
  10 -14   0   59.60   53.00   1
 -10  14   0   46.30   52.70   1
  10  14   1   25.10   44.30   1
 -10 -14  -1   25.40   44.10   1
  10 -14  -1   45.30   49.70   1
 -10  14   1   19.00   48.00   1
 -10  14  -1   55.20   46.40   1
  10 -14   1   34.30   45.90   1
 -10 -14   1  140.90   54.70   1
  10  14  -1  230.20   50.00   1
  10  14   2   72.80   64.80   1
 -10 -14  -2   93.30   64.80   1
  10 -14  -2  133.90   70.80   1
 -10  14   2  255.60   71.60   1
 -10  14  -2   74.20   65.40   1
  10 -14   2  130.80   66.40   1
 -10 -14   2   96.40   66.90   1
  10  14  -2   28.80   65.40   1
  10  14   3   69.80   63.10   1
 -10 -14  -3   45.70   62.70   1
  10 -14  -3   56.20   62.10   1
 -10  14   3   37.10   61.20   1
 -10  14  -3   58.10   61.00   1
  10 -14   3   75.50   60.90   1
 -10 -14   3  169.90   63.00   1
  10  14  -3  141.80   62.40   1
  10  14   4   19.90   41.70   1
 -10 -14  -4   14.40   42.30   1
 -10  14  -4   35.60   38.90   1
  10 -14   4   30.10   38.40   1
 -10 -14   4   50.80   42.30   1
  10  14  -4   37.30   39.30   1
  10  14   5  165.60  107.80   1
 -10 -14  -5  210.40  108.70   1
 -10  14  -5  119.90  105.70   1
  10 -14   5  205.40  106.20   1
 -10 -14   5  406.10  116.10   1
  10  14  -5  307.40  112.50   1
  10  14   6  102.10   85.50   1
 -10 -14  -6  127.10   85.50   1
 -10  14  -6  102.30   84.00   1
  10 -14   6  168.60   89.00   1
 -10 -14   6  236.40   93.00   1
  10  14  -6  147.90   89.60   1
  10  14   7   59.60   34.50   1
 -10 -14  -7   -0.00   31.20   1
 -10  14  -7   24.50   27.80   1
  10 -14   7    8.50   27.30   1
 -10 -14   7    7.60   33.10   1
  10  14  -7    0.00   33.40   1
  10  14   8   20.40   49.20   1
 -10 -14  -8   -0.00   48.00   1
 -10  14  -8   35.00   43.90   1
  10 -14   8  115.80   47.20   1
 -10 -14   8   65.90   48.40   1
  10  14  -8   80.80   48.40   1
  10  14   9   -0.00   34.50   1
 -10 -14  -9   10.60   33.80   1
 -10  14  -9   46.40   33.60   1
  10 -14   9   32.80   33.30   1
 -10 -14   9   -0.00   34.70   1
  10  14  -9    6.40   31.60   1
  10  14  10   24.70   33.40   1
 -10 -14 -10   34.30   36.20   1
  10 -14  10   -0.00   28.40   1
 -10 -14  10    0.00   34.50   1
  10  14 -10   17.50   36.00   1
  10  15   0   77.60   57.60   1
 -10 -15   0   74.70   57.80   1
  10 -15   0   41.30   58.30   1
 -10  15   0   79.50   60.00   1
  10  15   1   39.50   56.50   1
 -10 -15  -1   74.60   57.00   1
  10 -15  -1   29.30   59.60   1
 -10  15   1   66.90   60.30   1
 -10  15  -1   65.70   57.30   1
  10 -15   1   50.70   57.60   1
 -10 -15   1  237.30   62.30   1
  10  15  -1  108.60   57.50   1
  10  15   2   14.40   30.40   1
 -10 -15  -2    8.60   29.30   1
  10 -15  -2    0.00   34.00   1
 -10  15   2   22.30   35.90   1
 -10  15  -2   33.70   31.50   1
  10 -15   2   35.90   32.60   1
 -10 -15   2   -0.00   31.90   1
  10  15  -2    7.60   39.50   1
  10  15   3  156.40   55.00   1
 -10 -15  -3   58.20   51.40   1
  10 -15  -3   11.80   51.90   1
 -10  15   3   18.90   49.80   1
 -10  15  -3  134.40   51.80   1
  10 -15   3  116.40   51.00   1
 -10 -15   3   24.90   49.90   1
  10  15  -3   29.50   50.10   1
  10  15   4    8.50   35.30   1
 -10 -15  -4   41.40   37.40   1
  10 -15  -4   22.80   36.60   1
 -10  15  -4   38.20   32.40   1
  10 -15   4   27.10   31.80   1
 -10 -15   4   10.30   33.60   1
  10  15  -4    6.20   32.20   1
  10  15   5   94.80   84.60   1
 -10 -15  -5   80.80   84.50   1
 -10  15  -5  169.70   82.60   1
  10 -15   5  111.80   81.80   1
 -10 -15   5  126.00   87.30   1
  10  15  -5  256.20   87.10   1
  10  15   6    0.10   32.80   1
 -10 -15  -6    9.80   32.80   1
 -10  15  -6   11.40   28.00   1
  10 -15   6   66.20   33.60   1
 -10 -15   6   31.50   41.00   1
  10  15  -6    7.70   37.00   1
  10  15   7   32.10   44.80   1
 -10 -15  -7   24.40   43.50   1
 -10  15  -7   30.40   42.50   1
  10 -15   7   88.10   43.50   1
 -10 -15   7   23.10   47.90   1
  10  15  -7   26.80   48.80   1
  10  15   8   13.50   37.00   1
 -10 -15  -8   40.90   37.50   1
 -10  15  -8   23.90   30.00   1
  10 -15   8   13.50   29.70   1
 -10 -15   8   15.70   35.20   1
  10  15  -8   10.10   33.70   1
  10  15   9   17.30   38.90   1
 -10 -15  -9   44.10   41.20   1
 -10  15  -9   17.20   32.50   1
  10 -15   9   22.30   36.20   1
 -10 -15   9   19.00   37.00   1
  10  15  -9   31.00   37.00   1
  10  15  10    5.50   37.10   1
 -10 -15 -10    0.70   36.50   1
  10 -15  10   43.30   35.20   1
 -10 -15  10    0.00   35.10   1
  10  15 -10   17.60   33.70   1
  10  16   0  867.20  368.50   1
 -10 -16   0 1074.70  369.20   1
  10 -16   0  722.80  368.70   1
 -10  16   0  672.90  368.30   1
  10  16   1   83.00   55.40   1
 -10 -16  -1   70.70   55.40   1
  10 -16  -1   23.80   56.10   1
 -10  16   1   63.50   58.70   1
 -10  16  -1   55.10   56.80   1
  10 -16   1   62.90   56.80   1
 -10 -16   1   90.30   55.60   1
  10  16  -1   56.70   54.30   1
  10  16   2  242.20  108.70   1
 -10 -16  -2  280.00  108.70   1
  10 -16  -2  102.50  109.40   1
 -10  16   2   90.40  108.60   1
 -10  16  -2  181.30  108.00   1
  10 -16   2  277.00  109.40   1
 -10 -16   2  590.20  121.30   1
  10  16  -2  226.90  113.30   1
  10  16   3   43.50   43.90   1
 -10 -16  -3   54.20   44.70   1
  10 -16  -3   14.60   47.10   1
 -10  16   3   22.10   44.30   1
 -10  16  -3   35.50   43.10   1
  10 -16   3   37.60   43.00   1
 -10 -16   3   51.20   45.10   1
  10  16  -3   22.60   43.20   1
  10  16   4  370.00  107.90   1
 -10 -16  -4  536.70  111.30   1
  10 -16  -4  248.50  107.00   1
 -10  16   4  185.30  106.20   1
 -10  16  -4  169.60  103.00   1
  10 -16   4  169.60  102.90   1
 -10 -16   4  161.80  103.50   1
  10  16  -4  113.30  103.10   1
  10  16   5   13.60   36.60   1
 -10 -16  -5   11.80   37.80   1
 -10  16  -5   36.30   33.10   1
  10 -16   5   36.20   33.60   1
 -10 -16   5   24.20   36.50   1
  10  16  -5    6.40   34.30   1
  10  16   6   21.80   54.30   1
 -10 -16  -6  107.90   56.30   1
 -10  16  -6   73.00   52.50   1
  10 -16   6   49.70   52.70   1
 -10 -16   6   99.40   62.80   1
  10  16  -6   59.30   58.70   1
  10  16   7   24.10   34.40   1
 -10 -16  -7    7.70   32.80   1
 -10  16  -7    3.30   35.70   1
  10 -16   7   14.80   30.50   1
 -10 -16   7   53.70   42.60   1
  10  16  -7   26.20   38.80   1
  10  16   8   19.00   42.60   1
 -10 -16  -8   24.60   42.20   1
 -10  16  -8   22.60   38.70   1
  10 -16   8   73.80   39.00   1
 -10 -16   8   25.60   43.70   1
  10  16  -8   21.80   44.80   1
  10  16   9   21.90   35.80   1
 -10 -16  -9    5.80   34.30   1
  10 -16   9   15.90   29.00   1
 -10 -16   9    7.00   31.30   1
  10  16  -9   17.80   33.00   1
  10  17   0   -0.00   31.80   1
 -10 -17   0    2.70   31.90   1
  10 -17   0   68.10   36.70   1
 -10  17   0   83.70   37.70   1
  10  17   1   14.30   32.10   1
 -10 -17  -1   10.40   31.70   1
  10 -17  -1   38.80   35.20   1
 -10  17   1    2.90   36.10   1
 -10  17  -1   20.10   33.80   1
  10 -17   1    7.70   34.40   1
 -10 -17   1   24.80   32.30   1
  10  17  -1   41.20   32.00   1
  10  17   2   -0.00   27.40   1
 -10 -17  -2   -0.00   26.90   1
  10 -17  -2   33.20   33.30   1
 -10  17   2    0.00   30.80   1
 -10  17  -2   -0.10   27.50   1
  10 -17   2   -0.00   26.70   1
 -10 -17   2   79.90   45.10   1
  10  17  -2   57.80   33.80   1
  10  17   3   62.50   45.50   1
 -10 -17  -3   37.20   45.40   1
  10 -17  -3    8.10   46.80   1
 -10  17   3   16.40   47.00   1
 -10  17  -3   53.80   43.50   1
  10 -17   3   74.60   45.00   1
 -10 -17   3   34.20   44.50   1
  10  17  -3   16.80   42.90   1
  10  17   4   52.10   48.60   1
 -10 -17  -4   39.90   48.60   1
  10 -17  -4   16.20   48.20   1
 -10  17   4   20.50   46.20   1
 -10  17  -4   40.90   45.00   1
  10 -17   4   33.00   44.90   1
 -10 -17   4   74.10   46.60   1
  10  17  -4   71.50   46.90   1
  10  17   5    7.60   34.90   1
 -10 -17  -5    2.20   34.00   1
  10 -17  -5    5.50   33.70   1
 -10  17  -5  173.30   34.40   1
 -10 -17   5   14.30   32.20   1
  10  17  -5   13.20   30.50   1
  10  17   6   26.70   44.60   1
 -10 -17  -6   40.60   44.00   1
 -10  17  -6   14.10   39.70   1
  10 -17   6  152.00   43.20   1
 -10 -17   6   54.80   46.80   1
  10  17  -6   37.50   44.90   1
  10  17   7    4.30   34.10   1
 -10 -17  -7   11.00   35.00   1
 -10  17  -7   23.80   34.30   1
  10 -17   7   41.60   37.80   1
 -10 -17   7   31.90   42.60   1
  10  17  -7    6.60   37.80   1
  10  17   8    3.50   41.50   1
 -10 -17  -8   46.30   42.40   1
  10 -17   8   36.40   37.50   1
 -10 -17   8   24.10   43.20   1
  10  17  -8   33.40   46.40   1
  10  18   0  141.10   70.90   1
 -10 -18   0  132.50   70.60   1
  10 -18   0   43.30   70.30   1
 -10  18   0  116.30   72.10   1
  10  18   1   33.50   35.80   1
 -10 -18  -1   13.20   35.50   1
  10 -18  -1   51.10   39.40   1
 -10  18   1   45.10   39.10   1
 -10  18  -1   20.30   36.60   1
  10 -18   1   59.90   37.80   1
 -10 -18   1    2.40   34.80   1
  10  18  -1   22.20   34.90   1
  10  18   2   52.20   44.30   1
 -10 -18  -2   27.10   42.70   1
  10 -18  -2   -0.00   44.10   1
 -10  18   2   14.90   46.00   1
 -10  18  -2   42.90   43.30   1
  10 -18   2   34.10   43.60   1
 -10 -18   2   96.50   52.30   1
  10  18  -2   70.40   44.80   1
  10  18   3   16.10   33.70   1
 -10 -18  -3    4.50   33.40   1
  10 -18  -3    7.40   35.40   1
 -10  18   3    3.30   33.60   1
 -10  18  -3   -0.20   29.60   1
  10 -18   3   44.50   30.10   1
 -10 -18   3    4.90   29.70   1
  10  18  -3   30.50   37.80   1
  10  18   4   14.50   45.70   1
 -10 -18  -4   36.90   47.50   1
  10 -18  -4   10.70   50.10   1
 -10  18   4    5.10   47.30   1
 -10  18  -4  105.00   45.60   1
  10 -18   4   32.90   43.50   1
 -10 -18   4   64.00   46.10   1
  10  18  -4   72.20   47.10   1
  10  18   5   -0.00   33.20   1
 -10 -18  -5   69.60   38.50   1
  10 -18  -5    7.70   34.10   1
 -10  18   5   -0.00   35.20   1
 -10  18  -5   14.90   28.80   1
  10 -18   5   28.80   30.40   1
 -10 -18   5   13.60   30.30   1
  10  18  -5   20.50   30.60   1
  10  18   6   41.00   49.90   1
 -10 -18  -6   21.20   51.10   1
  10 -18  -6   14.40   50.10   1
  10 -18   6  106.30   48.60   1
 -10 -18   6   71.00   53.20   1
  10  18  -6   54.60   49.30   1
  10  18   7   56.10   41.90   1
 -10 -18  -7   22.60   41.00   1
  10 -18   7   40.80   45.40   1
 -10 -18   7   10.70   44.90   1
  10  18  -7   14.50   43.10   1
  10  19   0    3.60   24.10   1
 -10 -19   0   -0.00   23.50   1
  10 -19   0   15.10   25.90   1
 -10  19   0   11.20   24.70   1
  10  19   1    2.20   23.30   1
 -10 -19  -1   -0.00   22.80   1
  10 -19  -1   -0.50   25.70   1
 -10  19   1   19.20   25.40   1
 -10  19  -1    5.40   24.10   1
  10 -19   1   -0.00   25.20   1
 -10 -19   1   12.40   21.40   1
  10  19  -1    3.40   21.30   1
  10  19   2   17.60   37.70   1
 -10 -19  -2    5.40   36.30   1
  10 -19  -2   17.40   37.60   1
 -10  19   2   18.80   40.60   1
 -10  19  -2   37.70   37.10   1
  10 -19   2   29.20   38.60   1
 -10 -19   2  106.80   43.00   1
  10  19  -2   16.20   35.30   1
  10  19   3   43.20   41.00   1
 -10 -19  -3    8.90   41.20   1
  10 -19  -3   24.60   42.00   1
 -10  19   3    1.00   38.90   1
 -10  19  -3   53.20   39.40   1
  10 -19   3  132.10   42.60   1
 -10 -19   3    5.70   40.80   1
  10  19  -3   -0.00   46.50   1
  10  19   4   11.90   38.70   1
 -10 -19  -4    9.00   39.10   1
  10 -19  -4   20.80   46.00   1
 -10  19   4   18.40   44.00   1
 -10  19  -4   40.30   36.30   1
  10 -19   4   25.20   35.00   1
 -10 -19   4   35.00   38.90   1
  10  19  -4   16.30   37.70   1
  10  19   5   13.50   35.60   1
 -10 -19  -5   16.00   36.60   1
  10 -19  -5   -0.00   39.30   1
 -10  19   5    5.50   34.40   1
  10 -19   5   57.20   32.10   1
 -10 -19   5   13.90   31.60   1
  10  19  -5   14.60   32.40   1
  10  19   6   16.60   30.20   1
 -10 -19  -6    4.60   31.20   1
  10 -19  -6    1.10   29.90   1
  10 -19   6    3.50   24.40   1
 -10 -19   6   16.60   28.90   1
  10  19  -6   18.40   25.30   1
  10  20   0   17.60   38.30   1
 -10 -20   0   39.10   38.00   1
  10 -20   0   33.90   40.10   1
  10  20   1   11.30   30.10   1
 -10 -20  -1   12.10   29.80   1
  10 -20  -1   17.90   33.60   1
  10 -20   1   -0.00   31.70   1
 -10 -20   1   37.00   29.40   1
  10  20  -1   11.80   29.00   1
  10  20   2    9.40   35.30   1
 -10 -20  -2    8.80   33.70   1
  10 -20  -2   13.10   36.50   1
  10 -20   2   33.00   35.40   1
 -10 -20   2   29.50   34.50   1
  10  20  -2   21.10   32.00   1
  10  20   3   -0.00   35.20   1
 -10 -20  -3   17.30   36.70   1
  10 -20  -3   -0.00   38.70   1
  10 -20   3   89.10   37.50   1
 -10 -20   3    7.70   41.50   1
  10  20  -3    7.90   39.30   1
  10  20   4   33.90   35.70   1
 -10 -20  -4   17.60   35.30   1
  10 -20  -4   19.10   37.50   1
  10 -20   4   15.80   30.30   1
 -10 -20   4   13.90   33.00   1
  10  20  -4    4.60   31.60   1
  10  20   5   13.30   31.20   1
 -10 -20  -5    7.90   32.80   1
  10 -20  -5   10.70   37.70   1
  10 -20   5   15.70   25.10   1
 -10 -20   5   -0.00   26.80   1
  10  20  -5   10.30   28.00   1
  10  21   0   -0.00   23.30   1
 -10 -21   0    7.80   23.30   1
  10 -21   0    6.90   25.60   1
  10  21   1   31.40   42.90   1
 -10 -21  -1   41.30   43.00   1
  10 -21  -1  158.30   50.10   1
  10 -21   1   99.90   47.30   1
 -10 -21   1    9.50   40.40   1
  10  21  -1   38.30   41.50   1
  10  21   2    9.10   27.60   1
 -10 -21  -2    6.80   24.90   1
  10 -21  -2    6.50   27.20   1
 -10 -21   2    1.80   22.60   1
  10  21  -2    1.30   21.70   1
  10  21   3   49.40   53.90   1
 -10 -21  -3    0.10   53.00   1
  10 -21  -3   41.10   54.30   1
  10 -21   3  379.30   62.50   1
 -10 -21   3   76.60   62.20   1
  10  21  -3   95.40   55.70   1
  11   0   0  139.10   81.20   1
 -11   0   0  112.30   81.10   1
  11   0   1  312.30  182.80   1
 -11   0  -1  511.00  183.80   1
  11   0  -1  370.60  184.00   1
 -11   0   1  381.50  184.80   1
  11   0   2  307.30  180.90   1
 -11   0  -2  441.70  181.20   1
  11   0  -2 1025.50  214.50   1
  11   0   3  502.70  223.00   1
 -11   0  -3  428.40  222.80   1
  11   0   4  221.60  143.70   1
 -11   0  -4  363.90  144.00   1
  11   1   0   23.00   23.10   1
 -11  -1   0    6.70   22.40   1
  11   1   1   76.50   72.20   1
 -11  -1  -1  167.50   72.70   1
 -11   1  -1  105.70   72.10   1
  11  -1   1  105.70   72.00   1
 -11  -1   1  119.20   72.60   1
  11   1  -1  112.70   72.40   1
  11   1   2   71.80   48.30   1
 -11  -1  -2   77.60   48.30   1
 -11   1  -2   60.60   47.60   1
  11  -1   2   42.90   47.60   1
 -11  -1   2   38.60   48.10   1
  11   1  -2   42.70   48.30   1
  11   1   3  185.80   84.60   1
 -11  -1  -3  222.20   84.60   1
 -11   1  -3  149.20   84.90   1
  11  -1   3  115.70   84.00   1
 -11  -1   3   91.40   84.90   1
  11   1  -3   73.50   84.80   1
  11   1   4   73.90   45.00   1
 -11  -1  -4   68.40   44.80   1
 -11  -1   4   14.50   45.00   1
  11   1  -4   31.60   45.40   1
 -11  -1  -5   48.20   45.50   1
  11   2   0   39.60   46.40   1
 -11  -2   0   66.10   47.60   1
  11   2   1   16.60   41.90   1
 -11  -2  -1   81.80   43.80   1
 -11  -2   1   45.90   41.00   1
  11   2  -1   38.70   41.00   1
  11   2   2   39.20   37.40   1
 -11  -2  -2   18.30   34.70   1
 -11  -2   2   33.80   34.30   1
  11   2  -2   31.50   34.40   1
  11   2   3   33.40   45.40   1
 -11  -2  -3   52.60   45.30   1
 -11  -2   3  313.50   50.40   1
  11   2  -3  104.70   46.40   1
  11   2   4   68.60   70.50   1
 -11  -2  -4  184.00   71.10   1
 -11  -2   4  117.10   71.00   1
  11   2  -4  187.30   72.00   1
  11   2   5   24.70   36.20   1
 -11  -2  -5  121.90   37.90   1
 -11  -2   5   14.40   34.70   1
  11   2  -5   38.40   35.40   1
 -11  -2   6   10.50   23.70   1
  11   2  -6   12.20   23.10   1
  11   2  -7   21.40   33.00   1
  11   3   0   67.30   46.00   1
 -11  -3   0   32.90   45.40   1
  11   3   1  645.00  399.90   1
 -11  -3  -1 1181.80  401.50   1
 -11  -3   1 2207.00  410.00   1
  11   3  -1 1376.30  404.20   1
  11   3   2   88.60   52.80   1
 -11  -3  -2  229.30   56.20   1
 -11  -3   2   31.40   52.80   1
  11   3  -2   56.40   53.30   1
  11   3   3  176.50  128.50   1
 -11  -3  -3  341.10  128.90   1
 -11  -3   3  320.40  129.60   1
  11   3  -3  257.20  129.20   1
  11   3   4   74.40   60.40   1
 -11  -3  -4  327.90   62.30   1
 -11   3  -4   89.10   59.40   1
 -11  -3   4   55.70   59.70   1
  11   3  -4   54.50   60.20   1
  11   3   5   -0.10   32.20   1
 -11  -3  -5   27.20   32.60   1
 -11   3  -5   28.80   29.70   1
 -11  -3   5   50.00   31.60   1
  11   3  -5   24.10   31.10   1
 -11  -3  -6   69.40   36.80   1
 -11  -3   6   15.20   35.00   1
  11   3  -6   41.40   35.70   1
 -11  -3   7    8.40   19.80   1
  11   3  -7    6.70   20.60   1
 -11  -3   8   50.20   52.20   1
  11   3  -8   67.60   52.50   1
  11   3  -9  132.10   90.10   1
  11   4   0   60.50   71.30   1
 -11  -4   0  247.30   73.90   1
  11   4   1   30.00   29.10   1
 -11  -4  -1   26.50   29.40   1
 -11  -4   1   11.40   29.00   1
  11   4  -1    9.90   28.50   1
  11   4   2   44.10   37.10   1
 -11  -4  -2   52.10   37.10   1
 -11  -4   2    9.10   39.00   1
  11   4  -2    2.70   39.40   1
  11   4   3   37.10   40.70   1
 -11  -4  -3   20.80   40.20   1
 -11   4  -3   63.10   39.20   1
  11  -4   3   33.10   39.20   1
 -11  -4   3   40.70   40.40   1
  11   4  -3   38.60   40.90   1
  11   4   4   32.00   45.90   1
 -11  -4  -4   49.50   46.40   1
 -11   4  -4   67.70   44.60   1
  11  -4   4  215.60   45.80   1
 -11  -4   4   26.20   45.20   1
  11   4  -4   29.70   45.50   1
  11   4   5   41.20   28.30   1
 -11  -4  -5   89.00   28.80   1
 -11   4  -5    7.90   23.70   1
  11  -4   5   20.30   23.40   1
 -11  -4   5    2.50   24.40   1
  11   4  -5    9.50   25.00   1
  11   4   6   60.40   32.70   1
 -11  -4  -6   28.30   33.00   1
 -11   4  -6   20.80   28.30   1
  11  -4   6   14.90   28.10   1
 -11  -4   6   22.80   30.10   1
  11   4  -6   23.00   29.90   1
 -11   4  -7   35.60   19.30   1
 -11  -4   7    5.00   20.10   1
  11   4  -7   -0.00   20.70   1
 -11  -4   8   11.40   25.20   1
  11   4  -8   17.90   25.90   1
 -11  -4   9   18.60   31.40   1
  11   4  -9   26.60   32.30   1
 -11  -4  10   96.50   71.50   1
  11   4 -10   92.80   70.90   1
 -11  -4  11   11.20   25.90   1
  11   4 -11   10.70   26.10   1
  11   4 -12    3.20   24.00   1
  11   5   0  382.30  224.80   1
 -11  -5   0 1538.90  231.60   1
  11   5   1   95.30  107.00   1
 -11  -5  -1  489.20  109.30   1
 -11  -5   1  549.40  111.00   1
  11   5  -1  495.20  111.00   1
  11   5   2   63.40   55.00   1
 -11  -5  -2   39.90   54.90   1
 -11   5  -2   74.30   54.90   1
  11  -5   2   95.50   55.70   1
 -11  -5   2  124.00   57.50   1
  11   5  -2  144.60   57.60   1
  11   5   3  570.50  258.50   1
 -11  -5  -3  547.30  258.20   1
 -11   5  -3  443.40  257.60   1
  11  -5   3  647.20  258.20   1
 -11  -5   3  504.00  258.90   1
  11   5  -3  706.10  260.20   1
  11   5   4   62.10   51.30   1
 -11  -5  -4   73.70   51.80   1
 -11   5  -4   52.30   49.40   1
  11  -5   4  290.90   52.50   1
 -11  -5   4   48.70   50.70   1
  11   5  -4   37.80   50.50   1
  11   5   5   54.40   57.50   1
 -11  -5  -5   94.70   58.00   1
 -11   5  -5   83.10   56.80   1
  11  -5   5   62.20   56.00   1
 -11  -5   5   65.70   56.80   1
  11   5  -5   71.30   57.00   1
  11   5   6   63.90   65.00   1
 -11  -5  -6   70.40   64.50   1
 -11   5  -6  160.80   62.90   1
  11  -5   6   67.30   62.10   1
 -11  -5   6   91.80   63.40   1
  11   5  -6  106.90   63.70   1
 -11  -5  -7  358.50  203.50   1
 -11   5  -7  651.80  206.40   1
  11  -5   7  397.70  203.40   1
 -11  -5   7  372.70  203.70   1
  11   5  -7  420.60  204.60   1
 -11   5  -8  195.20  117.20   1
  11  -5   8  303.20  119.70   1
 -11  -5   8  160.50  117.50   1
  11   5  -8  253.80  118.90   1
 -11   5  -9  111.80   57.10   1
  11  -5   9  190.00   63.80   1
 -11  -5   9   45.30   56.20   1
  11   5  -9  104.60   57.90   1
 -11   5 -10   30.90   27.90   1
 -11  -5  10   11.40   27.20   1
  11   5 -10   19.70   28.00   1
 -11  -5  11    6.20   21.90   1
  11   5 -11   11.10   23.20   1
 -11  -5  12  128.30   98.50   1
  11   5 -12  183.20  100.30   1
 -11  -5  13   41.40   46.40   1
  11   5 -13   36.70   44.80   1
  11   6   0   44.50   38.10   1
 -11  -6   0   23.00   38.00   1
  11   6   1   54.30   55.60   1
 -11  -6  -1   38.00   55.90   1
 -11  -6   1   41.50   54.70   1
  11   6  -1  166.20   56.80   1
  11   6   2  121.60   53.00   1
 -11  -6  -2   44.10   52.60   1
 -11   6  -2   39.20   52.60   1
  11  -6   2  100.30   53.00   1
 -11  -6   2   47.90   54.00   1
  11   6  -2   80.00   54.40   1
  11   6   3   47.70   40.80   1
 -11  -6  -3   27.90   40.20   1
 -11   6  -3   20.90   38.60   1
  11  -6   3   62.90   39.10   1
 -11  -6   3   40.30   42.10   1
  11   6  -3   39.00   40.70   1
  11   6   4   12.50   35.10   1
 -11  -6  -4   30.60   35.50   1
 -11   6  -4   66.20   32.80   1
  11  -6   4   26.80   32.80   1
 -11  -6   4    5.80   34.70   1
  11   6  -4   -0.00   35.20   1
  11   6   5   19.10   39.20   1
 -11  -6  -5   71.40   39.90   1
 -11   6  -5   46.20   37.40   1
  11  -6   5   78.90   39.50   1
 -11  -6   5    7.10   38.00   1
  11   6  -5   25.20   38.80   1
  11   6   6   20.80   33.10   1
 -11  -6  -6    9.90   33.40   1
 -11   6  -6   39.70   29.80   1
  11  -6   6   16.60   30.20   1
 -11  -6   6   15.90   30.10   1
  11   6  -6   18.90   30.60   1
  11   6   7   33.00   32.10   1
 -11  -6  -7   20.50   33.30   1
 -11   6  -7   22.50   27.80   1
  11  -6   7   14.10   26.70   1
 -11  -6   7    8.40   28.10   1
  11   6  -7   25.40   28.60   1
 -11   6  -8   25.20   29.40   1
  11  -6   8   22.30   29.10   1
 -11  -6   8   12.80   30.10   1
  11   6  -8   27.50   31.20   1
 -11   6  -9   13.60   23.00   1
  11  -6   9   10.40   22.80   1
 -11  -6   9   23.90   24.90   1
  11   6  -9   11.50   25.30   1
 -11   6 -10   30.40   30.70   1
  11  -6  10   18.20   30.20   1
 -11  -6  10   22.90   31.40   1
  11   6 -10   23.90   32.10   1
 -11   6 -11   45.70   42.00   1
  11  -6  11   34.50   42.00   1
 -11  -6  11   34.00   41.90   1
  11   6 -11   50.30   43.10   1
 -11   6 -12   53.00   32.10   1
 -11  -6  12   13.60   29.70   1
  11   6 -12   22.50   31.10   1
 -11  -6  13    5.10   20.20   1
  11   6 -13    7.80   22.00   1
  11   7   0   21.60   37.90   1
 -11  -7   0   44.00   38.30   1
  11   7   1   39.50   56.10   1
 -11  -7  -1  218.40   60.90   1
 -11   7  -1   39.00   55.80   1
  11  -7   1   86.60   56.50   1
 -11  -7   1   74.60   59.10   1
  11   7  -1  285.80   60.50   1
  11   7   2   67.20   55.00   1
 -11  -7  -2   75.30   54.90   1
 -11   7  -2   94.30   55.20   1
  11  -7   2   59.20   55.00   1
 -11  -7   2   24.70   57.80   1
  11   7  -2   63.80   58.10   1
  11   7   3   33.80   38.00   1
 -11  -7  -3   19.80   37.50   1
 -11   7  -3   18.00   36.10   1
  11  -7   3   32.60   36.30   1
 -11  -7   3   87.10   39.50   1
  11   7  -3   41.70   38.20   1
  11   7   4   57.50   46.80   1
 -11  -7  -4   37.00   46.80   1
 -11   7  -4  106.00   44.10   1
  11  -7   4   33.80   43.60   1
 -11  -7   4   10.10   48.40   1
  11   7  -4   55.10   48.00   1
  11   7   5   50.00   65.10   1
 -11  -7  -5   64.80   65.40   1
 -11   7  -5  104.20   63.80   1
  11  -7   5   86.40   63.30   1
 -11  -7   5  118.30   65.80   1
  11   7  -5  101.10   65.70   1
  11   7   6   17.80   38.50   1
 -11  -7  -6   33.90   37.40   1
 -11   7  -6   40.30   36.30   1
  11  -7   6   28.10   34.50   1
 -11  -7   6   18.00   34.70   1
  11   7  -6   26.10   35.70   1
  11   7   7   43.90   34.70   1
 -11  -7  -7   42.30   34.10   1
 -11   7  -7   11.50   27.70   1
  11  -7   7   22.80   28.80   1
 -11  -7   7    8.70   27.60   1
  11   7  -7   10.80   28.10   1
  11   7   8    7.70   28.10   1
 -11  -7  -8   28.80   29.50   1
 -11   7  -8    9.80   25.00   1
  11  -7   8   18.40   24.30   1
 -11  -7   8    8.10   25.10   1
  11   7  -8   15.10   25.80   1
 -11   7  -9   13.30   14.70   1
  11  -7   9   -0.00   13.80   1
 -11  -7   9    3.50   16.10   1
  11   7  -9   -0.00   17.20   1
 -11   7 -10   67.00   57.60   1
  11  -7  10   63.30   57.20   1
 -11  -7  10   76.00   58.40   1
  11   7 -10   85.60   59.50   1
 -11   7 -11  107.30   47.60   1
  11  -7  11   34.10   45.40   1
 -11  -7  11   71.40   47.40   1
  11   7 -11   46.10   46.90   1
 -11   7 -12    6.90   16.10   1
  11  -7  12   22.90   17.10   1
 -11  -7  12   -0.00   17.50   1
  11   7 -12   -0.00   18.90   1
  11  -7  13   33.40   19.30   1
 -11  -7  13   -0.00   14.50   1
  11   7 -13   -0.00   17.50   1
  11   8   0    3.00   34.50   1
 -11  -8   0   62.40   36.20   1
  11   8   1   85.60   60.70   1
 -11  -8  -1   64.50   61.30   1
 -11   8  -1   60.40   62.20   1
  11  -8   1   39.80   61.70   1
 -11  -8   1  102.60   61.60   1
  11   8  -1  169.50   61.90   1
  11   8   2  269.00  105.30   1
 -11  -8  -2  269.00  105.30   1
 -11   8  -2  241.60  105.30   1
  11  -8   2  280.50  105.30   1
 -11  -8   2  128.40  108.00   1
  11   8  -2   59.40  106.50   1
  11   8   3   57.20   46.60   1
 -11  -8  -3   25.50   45.70   1
 -11   8  -3   36.70   45.30   1
  11  -8   3   54.40   45.50   1
 -11  -8   3   60.20   48.80   1
  11   8  -3   84.50   49.80   1
  11   8   4   83.30   67.40   1
 -11  -8  -4   53.20   67.00   1
  11  -8   4  242.70   65.50   1
 -11  -8   4   64.70   67.40   1
  11   8  -4   92.70   67.60   1
  11   8   5  104.20   63.00   1
 -11  -8  -5   57.30   62.50   1
 -11   8  -5  177.70   64.60   1
  11  -8   5  128.00   62.00   1
 -11  -8   5   42.10   64.40   1
  11   8  -5   36.50   64.20   1
  11   8   6  500.70  152.90   1
 -11  -8  -6  305.60  151.40   1
 -11   8  -6  259.00  149.80   1
  11  -8   6  205.80  150.40   1
 -11  -8   6  369.50  152.20   1
  11   8  -6  324.10  151.90   1
  11   8   7   25.10   39.40   1
 -11  -8  -7   26.70   40.00   1
 -11   8  -7   59.90   37.90   1
  11  -8   7   24.00   35.40   1
 -11  -8   7   24.20   37.00   1
  11   8  -7   29.00   37.90   1
  11   8   8  151.50  104.00   1
 -11  -8  -8  266.20  106.40   1
 -11   8  -8  238.30  104.10   1
  11  -8   8  163.10  102.50   1
 -11  -8   8  129.30  102.10   1
  11   8  -8  149.80  102.60   1
 -11  -8  -9   95.80   35.40   1
 -11   8  -9   10.00   27.50   1
  11  -8   9   39.70   27.50   1
 -11  -8   9   11.50   27.80   1
  11   8  -9    7.80   28.30   1
 -11   8 -10  586.80  250.60   1
  11  -8  10  486.30  249.70   1
 -11  -8  10  460.40  250.90   1
  11   8 -10  535.90  251.80   1
 -11   8 -11   14.20   30.60   1
  11  -8  11   28.30   30.50   1
 -11  -8  11   23.90   31.10   1
  11   8 -11   59.30   34.20   1
 -11   8 -12   24.10   34.80   1
  11  -8  12   37.00   35.10   1
 -11  -8  12   27.70   36.00   1
  11   8 -12   35.80   36.80   1
  11  -8  13   12.40   20.30   1
 -11  -8  13    6.70   21.50   1
  11   8 -13    7.90   22.50   1
  11   9   0   28.30   35.10   1
 -11  -9   0    6.90   29.20   1
  11  -9   0   47.40   28.10   1
 -11   9   0   -0.00   25.80   1
  11   9   1   42.20   48.00   1
 -11  -9  -1   23.90   47.50   1
 -11   9  -1   42.70   49.30   1
  11  -9   1  116.90   50.40   1
 -11  -9   1  104.40   49.80   1
  11   9  -1   89.10   49.80   1
  11   9   2    7.80   33.70   1
 -11  -9  -2   28.60   34.10   1
 -11   9  -2  121.80   35.40   1
  11  -9   2   11.80   33.90   1
 -11  -9   2   46.90   39.40   1
  11   9  -2   30.10   37.30   1
  11   9   3   31.20   43.00   1
 -11  -9  -3   32.60   42.80   1
 -11   9  -3   58.40   42.60   1
  11  -9   3   33.60   42.10   1
 -11  -9   3   54.50   47.80   1
  11   9  -3   41.80   46.80   1
  11   9   4   22.50   30.00   1
 -11  -9  -4   23.00   30.40   1
 -11   9  -4    5.70   26.10   1
  11  -9   4   10.50   25.80   1
 -11  -9   4   48.50   31.60   1
  11   9  -4   35.40   32.10   1
  11   9   5   81.40   45.50   1
 -11  -9  -5   31.80   44.40   1
 -11   9  -5   46.30   42.50   1
  11  -9   5  223.30   50.40   1
 -11  -9   5   -0.00   45.30   1
  11   9  -5   27.00   44.80   1
  11   9   6    8.70   34.80   1
 -11  -9  -6   34.80   35.50   1
 -11   9  -6   20.80   31.60   1
  11  -9   6   38.00   32.20   1
 -11  -9   6   15.60   37.80   1
  11   9  -6   11.10   39.10   1
  11   9   7    7.80   31.80   1
 -11  -9  -7    7.80   33.20   1
 -11   9  -7    7.50   30.50   1
  11  -9   7   26.10   29.80   1
 -11  -9   7   24.30   31.10   1
  11   9  -7   19.60   30.70   1
  11   9   8   58.10   47.10   1
 -11  -9  -8   63.40   47.70   1
 -11   9  -8   61.40   41.70   1
  11  -9   8   35.30   41.00   1
 -11  -9   8   24.40   41.50   1
  11   9  -8   21.90   42.20   1
  11   9   9    3.20   34.30   1
 -11  -9  -9   15.30   35.00   1
 -11   9  -9   45.60   35.90   1
  11  -9   9   23.90   31.90   1
 -11  -9   9   23.30   32.10   1
  11   9  -9   30.40   32.90   1
 -11   9 -10   12.90   26.20   1
  11  -9  10   21.20   25.40   1
 -11  -9  10   13.10   25.50   1
  11   9 -10    8.00   26.90   1
 -11   9 -11    9.90   23.00   1
  11  -9  11   10.70   22.30   1
 -11  -9  11   14.50   24.10   1
  11   9 -11   15.10   24.60   1
 -11   9 -12    7.90   17.30   1
  11  -9  12    8.90   16.20   1
 -11  -9  12    1.90   17.60   1
  11   9 -12    1.80   18.70   1
  11  10   0   54.40   41.30   1
 -11 -10   0   46.60   42.20   1
  11 -10   0   16.80   37.50   1
 -11  10   0   13.60   35.20   1
  11  10   1   79.20   67.20   1
 -11 -10  -1   71.00   66.90   1
  11 -10  -1   73.10   68.50   1
 -11  10  -1  147.20   69.00   1
  11 -10   1   83.20   67.90   1
 -11 -10   1  162.50   69.80   1
  11  10  -1  105.40   69.20   1
  11  10   2   90.60   58.20   1
 -11 -10  -2   38.70   57.40   1
 -11  10  -2   77.00   58.00   1
  11 -10   2  155.40   58.60   1
 -11 -10   2  127.40   60.00   1
  11  10  -2   41.80   58.30   1
  11  10   3   46.40   44.50   1
 -11 -10  -3   28.80   43.80   1
 -11  10  -3   37.80   43.50   1
  11 -10   3   41.10   43.40   1
 -11 -10   3   39.90   48.70   1
  11  10  -3   72.20   48.60   1
  11  10   4   65.10   50.00   1
 -11 -10  -4   20.10   49.60   1
 -11  10  -4   83.90   46.80   1
  11 -10   4   39.30   46.60   1
 -11 -10   4  100.10   53.00   1
  11  10  -4   13.40   51.80   1
  11  10   5   48.30   53.40   1
 -11 -10  -5   33.60   53.80   1
 -11  10  -5   49.30   50.50   1
  11 -10   5   92.70   51.90   1
 -11 -10   5   50.60   54.10   1
  11  10  -5   92.70   54.60   1
  11  10   6  269.60  151.00   1
 -11 -10  -6  309.80  151.40   1
 -11  10  -6  222.80  149.90   1
  11 -10   6  265.10  149.70   1
 -11 -10   6  703.10  159.00   1
  11  10  -6  578.10  155.80   1
  11  10   7   49.70   57.60   1
 -11 -10  -7   48.30   56.80   1
 -11  10  -7   87.00   54.60   1
  11 -10   7   78.10   56.20   1
 -11 -10   7   94.20   57.70   1
  11  10  -7   16.60   57.70   1
  11  10   8   59.30   48.60   1
 -11 -10  -8   36.80   48.00   1
 -11  10  -8   36.90   45.70   1
  11 -10   8   50.80   44.30   1
 -11 -10   8   31.70   46.20   1
  11  10  -8   43.50   46.60   1
  11  10   9   66.00   39.20   1
 -11 -10  -9    0.00   39.40   1
 -11  10  -9   40.10   35.70   1
  11 -10   9   24.40   36.00   1
 -11 -10   9   23.70   35.70   1
  11  10  -9   24.90   36.70   1
 -11 -10 -10   57.70   65.40   1
 -11  10 -10  182.90   67.60   1
  11 -10  10   70.10   62.70   1
 -11 -10  10   66.90   62.80   1
  11  10 -10   95.80   63.90   1
 -11  10 -11   51.10   54.10   1
  11 -10  11   60.80   53.30   1
 -11 -10  11   65.70   54.00   1
  11  10 -11   86.80   55.20   1
  11 -10  12   74.30   61.40   1
 -11 -10  12   67.50   61.80   1
  11  10 -12  108.30   63.60   1
  11  11   0   46.50   51.00   1
 -11 -11   0  367.00   62.20   1
  11 -11   0   32.50   52.00   1
 -11  11   0   51.40   52.90   1
  11  11   1   24.80   31.00   1
 -11 -11  -1    9.50   30.70   1
  11 -11  -1    8.80   33.00   1
 -11  11   1   23.30   32.20   1
 -11  11  -1   31.10   33.70   1
  11 -11   1   34.60   33.00   1
 -11 -11   1    3.80   35.20   1
  11  11  -1   35.80   33.50   1
  11  11   2   11.30   25.00   1
 -11 -11  -2    5.00   25.10   1
 -11  11  -2   -0.00   25.10   1
  11 -11   2   17.40   25.80   1
 -11 -11   2   32.40   26.70   1
  11  11  -2   14.60   26.90   1
  11  11   3   62.80   38.60   1
 -11 -11  -3   12.50   36.30   1
 -11  11  -3   14.40   35.70   1
  11 -11   3   21.90   35.60   1
 -11 -11   3   37.30   42.20   1
  11  11  -3   47.90   39.40   1
  11  11   4   64.10   62.20   1
 -11 -11  -4  113.40   62.60   1
 -11  11  -4   91.40   58.80   1
  11 -11   4   72.00   58.60   1
 -11 -11   4   41.90   64.10   1
  11  11  -4   43.00   63.60   1
  11  11   5  154.20   47.70   1
 -11 -11  -5   44.40   45.50   1
 -11  11  -5   36.50   41.70   1
  11 -11   5   52.20   42.20   1
 -11 -11   5   13.20   45.80   1
  11  11  -5   11.70   45.50   1
  11  11   6   86.10   42.80   1
 -11 -11  -6   83.60   43.00   1
 -11  11  -6    9.10   39.50   1
  11 -11   6   44.10   39.60   1
 -11 -11   6    8.00   42.00   1
  11  11  -6   19.20   41.20   1
  11  11   7   22.60   38.00   1
 -11 -11  -7   14.30   38.20   1
 -11  11  -7   19.20   33.20   1
  11 -11   7   44.20   35.70   1
 -11 -11   7   27.40   42.50   1
  11  11  -7   31.00   40.10   1
  11  11   8   12.00   31.80   1
 -11 -11  -8   21.10   34.00   1
 -11  11  -8   13.00   31.90   1
  11 -11   8   24.10   31.60   1
 -11 -11   8   16.10   32.90   1
  11  11  -8   10.90   33.00   1
  11  11   9   10.00   27.00   1
 -11 -11  -9   22.60   33.30   1
 -11  11  -9    2.70   21.20   1
  11 -11   9    6.90   19.40   1
 -11 -11   9   -0.00   23.70   1
  11  11  -9   -0.00   24.70   1
  11  11  10   -0.00   23.40   1
 -11 -11 -10   -0.00   22.10   1
 -11  11 -10    9.60   20.40   1
  11 -11  10   -0.00   22.60   1
 -11 -11  10    6.90   20.00   1
  11  11 -10    3.40   22.50   1
 -11  11 -11   -0.00   26.80   1
  11 -11  11    0.50   23.30   1
 -11 -11  11   21.70   23.80   1
  11  11 -11   27.60   25.80   1
  11 -11  12   37.20   33.70   1
 -11 -11  12   22.00   33.60   1
  11  11 -12   18.50   34.40   1
  11  12   0   38.10   51.20   1
 -11 -12   0  160.60   54.60   1
  11 -12   0   63.20   55.40   1
 -11  12   0   36.90   53.30   1
  11  12   1   51.00   53.30   1
 -11 -12  -1   97.50   53.60   1
  11 -12  -1  113.00   59.00   1
 -11  12   1  106.10   56.50   1
 -11  12  -1   77.90   54.70   1
  11 -12   1   49.50   54.40   1
 -11 -12   1    8.40   54.90   1
  11  12  -1   45.00   57.40   1
  11  12   2  116.40   57.30   1
 -11 -12  -2   25.90   56.20   1
  11 -12  -2   44.50   58.00   1
 -11  12  -2   61.30   57.20   1
  11 -12   2  170.10   58.50   1
 -11 -12   2  100.70   58.40   1
  11  12  -2   69.50   57.60   1
  11  12   3   11.90   37.50   1
 -11 -12  -3   21.80   37.60   1
 -11  12  -3   68.00   37.40   1
  11 -12   3    9.90   35.30   1
 -11 -12   3   47.90   39.20   1
  11  12  -3   26.40   36.60   1
  11  12   4  173.00   86.40   1
 -11 -12  -4  175.40   86.20   1
 -11  12  -4  175.90   83.40   1
  11 -12   4  211.80   83.50   1
 -11 -12   4   52.30   87.00   1
  11  12  -4   48.90   86.60   1
  11  12   5    6.50   29.00   1
 -11 -12  -5   -0.00   29.20   1
 -11  12  -5    7.30   23.70   1
  11 -12   5   20.90   23.80   1
 -11 -12   5   12.90   35.00   1
  11  12  -5   18.10   35.70   1
  11  12   6   62.30   53.10   1
 -11 -12  -6   42.60   52.50   1
 -11  12  -6  127.50   55.50   1
  11 -12   6   37.20   52.00   1
 -11 -12   6   82.30   54.80   1
  11  12  -6   37.60   53.30   1
  11  12   7   26.70   38.60   1
 -11 -12  -7   24.40   37.40   1
 -11  12  -7   53.80   35.10   1
  11 -12   7   22.80   33.50   1
 -11 -12   7   -0.00   38.80   1
  11  12  -7   15.20   37.60   1
  11  12   8   17.80   51.10   1
 -11 -12  -8   37.00   52.90   1
 -11  12  -8   66.80   50.00   1
  11 -12   8   75.10   52.20   1
 -11 -12   8   66.00   54.80   1
  11  12  -8   64.70   54.20   1
  11  12   9   19.70   44.90   1
 -11 -12  -9   57.50   45.60   1
 -11  12  -9   69.50   43.30   1
  11 -12   9   15.80   39.90   1
 -11 -12   9   23.00   40.50   1
  11  12  -9   37.10   43.40   1
  11  12  10   44.20   55.80   1
 -11 -12 -10  102.40   59.40   1
 -11  12 -10   49.20   54.30   1
  11 -12  10   52.50   53.90   1
 -11 -12  10   80.40   56.30   1
  11  12 -10   84.00   56.90   1
 -11 -12 -11   35.00   27.90   1
  11 -12  11    9.20   25.60   1
 -11 -12  11   -0.00   20.20   1
  11  12 -11   -0.00   23.60   1
  11  13   0   31.80   37.80   1
 -11 -13   0   41.00   38.60   1
  11 -13   0   32.60   41.50   1
 -11  13   0   14.40   41.20   1
  11  13   1  417.30  215.80   1
 -11 -13  -1  910.00  218.50   1
  11 -13  -1 1059.30  225.60   1
 -11  13   1 1162.80  228.60   1
 -11  13  -1  644.00  217.60   1
  11 -13   1  360.10  215.90   1
 -11 -13   1  279.40  218.30   1
  11  13  -1  457.80  220.50   1
  11  13   2   92.00   67.20   1
 -11 -13  -2  248.90   68.50   1
  11 -13  -2   22.60   67.90   1
 -11  13   2   56.90   68.30   1
 -11  13  -2   60.80   67.10   1
  11 -13   2  105.70   68.00   1
 -11 -13   2  205.60   71.00   1
  11  13  -2  128.90   69.00   1
  11  13   3   48.90   48.60   1
 -11 -13  -3   43.00   49.20   1
 -11  13  -3   43.50   48.00   1
  11 -13   3   87.30   48.60   1
 -11 -13   3   46.20   47.90   1
  11  13  -3   32.60   46.40   1
  11  13   4   95.30   79.30   1
 -11 -13  -4  141.20   79.50   1
 -11  13  -4  106.50   76.80   1
  11 -13   4   99.40   76.40   1
 -11 -13   4  112.80   82.80   1
  11  13  -4  124.30   80.70   1
  11  13   5   23.40   55.90   1
 -11 -13  -5  104.40   57.70   1
 -11  13  -5   51.80   54.00   1
  11 -13   5  185.70   54.90   1
 -11 -13   5  157.20   64.90   1
  11  13  -5    7.10   58.80   1
  11  13   6   47.30   60.70   1
 -11 -13  -6   44.10   60.40   1
 -11  13  -6  208.60   60.50   1
  11 -13   6  109.30   65.10   1
 -11 -13   6   68.90   63.40   1
  11  13  -6   53.40   63.40   1
  11  13   7   20.00   33.70   1
 -11 -13  -7   -0.00   33.70   1
 -11  13  -7   19.20   31.20   1
  11 -13   7    5.20   29.80   1
 -11 -13   7  203.80   42.70   1
  11  13  -7   83.40   37.30   1
  11  13   8   57.50   61.80   1
 -11 -13  -8   38.40   61.20   1
 -11  13  -8   63.00   57.50   1
  11 -13   8  204.60   61.60   1
 -11 -13   8   95.90   63.00   1
  11  13  -8   57.00   60.80   1
  11  13   9  181.00   78.40   1
 -11 -13  -9  111.00   75.40   1
 -11  13  -9   43.90   73.00   1
  11 -13   9  121.00   75.00   1
 -11 -13   9  157.00   77.60   1
  11  13  -9  190.80   79.30   1
  11  13  10   24.40   36.50   1
 -11 -13 -10   19.50   40.70   1
 -11  13 -10   18.20   35.50   1
  11 -13  10   30.10   32.00   1
 -11 -13  10   11.00   34.00   1
  11  13 -10   12.50   36.20   1
  11  13  11   74.90   46.10   1
 -11 -13 -11   16.10   43.60   1
  11 -13  11   19.80   41.10   1
 -11 -13  11   64.50   43.40   1
  11  13 -11   59.10   43.60   1
  11  14   0   31.70   38.40   1
 -11 -14   0   33.10   38.30   1
  11 -14   0   38.90   41.00   1
 -11  14   0   19.90   40.30   1
  11  14   1   13.80   32.90   1
 -11 -14  -1   20.70   31.90   1
  11 -14  -1   15.20   36.30   1
 -11  14   1   -0.00   34.60   1
 -11  14  -1   30.80   34.10   1
  11 -14   1   13.60   33.40   1
 -11 -14   1   98.10   48.00   1
  11  14  -1   41.90   37.30   1
  11  14   2   16.10   33.50   1
 -11 -14  -2   60.10   36.20   1
  11 -14  -2   26.40   38.00   1
 -11  14   2   19.50   35.60   1
 -11  14  -2   22.00   35.40   1
  11 -14   2   32.00   35.40   1
 -11 -14   2    7.50   37.00   1
  11  14  -2   10.90   34.70   1
  11  14   3   12.80   37.00   1
 -11 -14  -3   31.80   35.20   1
  11 -14  -3    4.40   35.60   1
 -11  14  -3   29.70   35.10   1
  11 -14   3   12.70   34.60   1
 -11 -14   3   35.70   36.20   1
  11  14  -3   37.40   35.50   1
  11  14   4   -0.00   33.60   1
 -11 -14  -4   27.60   34.20   1
 -11  14  -4   -0.10   29.70   1
  11 -14   4   13.10   28.20   1
 -11 -14   4   29.80   34.60   1
  11  14  -4   46.20   32.10   1
  11  14   5   -0.00   32.20   1
 -11 -14  -5   -0.00   33.20   1
 -11  14  -5   36.10   28.40   1
  11 -14   5   10.10   27.00   1
 -11 -14   5   14.30   39.20   1
  11  14  -5   39.00   37.70   1
  11  14   6    9.30   37.60   1
 -11 -14  -6   31.10   38.60   1
 -11  14  -6   23.00   34.20   1
  11 -14   6   73.00   39.00   1
 -11 -14   6   21.40   44.50   1
  11  14  -6   14.50   43.90   1
  11  14   7   44.00   38.20   1
 -11 -14  -7    7.90   35.70   1
 -11  14  -7   31.60   34.60   1
  11 -14   7   17.10   34.10   1
 -11 -14   7   32.40   39.10   1
  11  14  -7   20.70   39.00   1
  11  14   8   10.90   33.90   1
 -11 -14  -8   -0.00   31.20   1
 -11  14  -8    7.70   24.90   1
  11 -14   8   34.60   26.10   1
 -11 -14   8    7.70   31.30   1
  11  14  -8    4.70   30.30   1
  11  14   9   20.70   36.20   1
 -11 -14  -9   14.20   37.60   1
 -11  14  -9   23.70   32.50   1
  11 -14   9   17.10   34.90   1
 -11 -14   9   26.40   39.80   1
  11  14  -9   12.30   36.30   1
  11  14  10   -0.00   33.30   1
 -11 -14 -10   26.80   38.70   1
  11 -14  10   -0.00   29.10   1
 -11 -14  10   29.10   35.10   1
  11  14 -10   20.80   34.00   1
  11  15   0   -0.00   27.50   1
 -11 -15   0   14.10   27.30   1
  11 -15   0   22.80   30.80   1
 -11  15   0   42.30   32.50   1
  11  15   1   40.00   39.40   1
 -11 -15  -1   16.30   38.40   1
  11 -15  -1  131.50   46.20   1
 -11  15   1   26.20   42.70   1
 -11  15  -1    1.30   39.30   1
  11 -15   1   39.70   40.00   1
  11  15  -1  100.10   42.70   1
  11  15   2  152.90   45.70   1
 -11 -15  -2    9.20   41.50   1
  11 -15  -2   31.00   46.70   1
 -11  15   2   55.70   47.90   1
 -11  15  -2   34.30   42.30   1
  11 -15   2   61.20   43.50   1
 -11 -15   2   37.20   44.30   1
  11  15  -2    8.90   45.70   1
  11  15   3    5.10   31.90   1
 -11 -15  -3   38.70   32.60   1
  11 -15  -3   43.10   34.20   1
 -11  15   3   45.70   33.00   1
 -11  15  -3    9.20   31.40   1
  11 -15   3    5.10   30.90   1
 -11 -15   3   12.10   31.60   1
  11  15  -3    7.30   31.20   1
  11  15   4   36.40   48.50   1
 -11 -15  -4   58.30   49.30   1
 -11  15  -4   40.60   46.10   1
  11 -15   4   43.50   45.50   1
 -11 -15   4   54.50   47.90   1
  11  15  -4   40.00   46.00   1
  11  15   5   16.90   40.80   1
 -11 -15  -5   25.30   41.00   1
 -11  15  -5   14.30   36.20   1
  11 -15   5   46.20   37.30   1
 -11 -15   5   34.60   44.80   1
  11  15  -5   79.30   44.70   1
  11  15   6   99.10   60.00   1
 -11 -15  -6   21.30   57.50   1
 -11  15  -6   79.80   55.80   1
  11 -15   6  133.60   56.90   1
 -11 -15   6   50.40   63.20   1
  11  15  -6   40.10   60.50   1
  11  15   7    5.60   32.50   1
 -11 -15  -7   28.10   31.80   1
 -11  15  -7    6.30   34.20   1
  11 -15   7    5.60   28.80   1
 -11 -15   7   70.50   39.80   1
  11  15  -7   22.80   39.50   1
  11  15   8    9.10   39.70   1
 -11 -15  -8   15.30   39.80   1
 -11  15  -8   25.80   34.80   1
  11 -15   8   18.90   33.90   1
 -11 -15   8   44.20   39.30   1
  11  15  -8   55.10   40.30   1
  11  15   9   -0.00   43.60   1
 -11 -15  -9   18.60   46.40   1
  11 -15   9   70.00   43.30   1
 -11 -15   9   86.40   46.30   1
  11  15  -9   31.10   43.00   1
  11  16   0   14.30   32.60   1
 -11 -16   0   25.40   32.70   1
  11 -16   0   28.80   35.70   1
 -11  16   0   24.00   36.00   1
  11  16   1   38.10   48.50   1
 -11 -16  -1   66.80   50.00   1
  11 -16  -1   33.50   50.80   1
 -11  16   1   28.30   50.70   1
 -11  16  -1   48.60   50.20   1
  11 -16   1   36.20   49.20   1
 -11 -16   1   66.10   52.10   1
  11  16  -1  315.30   53.70   1
  11  16   2   67.80   44.00   1
 -11 -16  -2   22.70   43.00   1
  11 -16  -2   10.70   45.60   1
 -11  16   2   57.30   47.60   1
 -11  16  -2   82.70   45.10   1
  11 -16   2   41.50   44.20   1
 -11 -16   2   11.70   45.10   1
  11  16  -2   33.50   50.60   1
  11  16   3   14.50   37.60   1
 -11 -16  -3   26.50   39.60   1
  11 -16  -3   67.80   43.90   1
 -11  16   3   30.20   38.80   1
 -11  16  -3   16.70   36.90   1
  11 -16   3   15.30   36.70   1
 -11 -16   3   61.90   40.30   1
  11  16  -3   23.80   38.80   1
  11  16   4  182.80   62.80   1
 -11 -16  -4   55.40   59.60   1
  11 -16  -4  108.80   61.90   1
 -11  16  -4   99.70   58.70   1
  11 -16   4   61.10   57.70   1
 -11 -16   4   55.70   58.10   1
  11  16  -4   47.30   57.50   1
  11  16   5   19.70   45.30   1
 -11 -16  -5   28.10   45.80   1
 -11  16  -5   48.00   41.90   1
  11 -16   5   66.30   42.40   1
 -11 -16   5   39.30   47.10   1
  11  16  -5   18.20   43.40   1
  11  16   6   99.90   52.90   1
 -11 -16  -6   40.60   51.30   1
 -11  16  -6   39.80   48.10   1
  11 -16   6   65.90   48.80   1
 -11 -16   6   52.20   56.50   1
  11  16  -6   30.20   55.30   1
  11  16   7  143.00   43.20   1
 -11 -16  -7   45.00   39.50   1
 -11  16  -7   18.00   38.20   1
  11 -16   7    7.40   39.00   1
 -11 -16   7   20.20   46.10   1
  11  16  -7    2.60   41.70   1
  11  16   8   27.00   34.20   1
 -11 -16  -8   20.60   35.00   1
  11 -16   8    6.70   27.50   1
 -11 -16   8   35.00   35.40   1
  11  16  -8   -0.00   34.20   1
  11  16   9   16.30   32.50   1
 -11 -16  -9    2.90   34.00   1
  11 -16   9   14.90   24.90   1
 -11 -16   9    8.70   30.40   1
  11  16  -9   -0.00   30.50   1
  11  17   0    0.60   19.00   1
 -11 -17   0   -0.00   19.40   1
  11 -17   0    1.80   24.20   1
 -11  17   0   10.80   22.20   1
  11  17   1   60.40   48.90   1
 -11 -17  -1   67.70   49.30   1
  11 -17  -1   44.80   50.60   1
 -11  17   1   87.80   52.50   1
 -11  17  -1   19.00   48.20   1
  11 -17   1   64.70   50.80   1
 -11 -17   1   51.60   49.50   1
  11  17  -1   40.80   47.80   1
  11  17   2    3.20   26.30   1
 -11 -17  -2    8.20   27.20   1
  11 -17  -2    1.70   31.10   1
 -11  17   2   -0.00   29.50   1
 -11  17  -2    9.50   26.20   1
  11 -17   2   23.10   27.70   1
 -11 -17   2   13.30   38.30   1
  11  17  -2   23.80   36.40   1
  11  17   3   20.70   37.00   1
 -11 -17  -3    5.60   35.30   1
  11 -17  -3    7.00   39.20   1
 -11  17   3   14.50   37.70   1
 -11  17  -3   50.60   34.90   1
  11 -17   3   19.70   34.10   1
 -11 -17   3   20.10   35.60   1
  11  17  -3   14.80   33.10   1
  11  17   4   -0.00   31.50   1
 -11 -17  -4   46.30   33.10   1
  11 -17  -4    8.20   31.80   1
 -11  17   4   10.90   29.00   1
 -11  17  -4   39.20   28.40   1
  11 -17   4    5.00   25.10   1
 -11 -17   4    0.00   26.80   1
  11  17  -4   -0.00   26.90   1
  11  17   5   24.60   40.00   1
 -11 -17  -5   15.90   41.60   1
  11 -17  -5   26.00   41.40   1
 -11  17  -5   13.30   36.50   1
  11 -17   5   36.30   36.60   1
 -11 -17   5   29.40   40.00   1
  11  17  -5   74.30   39.10   1
  11  17   6   21.70   41.90   1
 -11 -17  -6    4.30   42.10   1
 -11  17  -6   47.30   37.40   1
  11 -17   6   44.00   37.40   1
 -11 -17   6   10.40   46.10   1
  11  17  -6   18.30   42.30   1
  11  17   7   11.00   31.20   1
 -11 -17  -7    7.90   29.80   1
  11 -17   7   28.60   36.10   1
 -11 -17   7   18.70   37.90   1
  11  17  -7    2.10   33.90   1
  11  17   8   11.60   29.50   1
 -11 -17  -8   -0.00   28.80   1
  11 -17   8    9.10   24.40   1
 -11 -17   8   12.30   34.80   1
  11  17  -8   -0.00   33.50   1
  11  18   0   -0.00   32.80   1
 -11 -18   0   10.90   33.10   1
  11 -18   0  128.70   40.10   1
 -11  18   0   43.10   36.90   1
  11  18   1   30.50   42.00   1
 -11 -18  -1   17.70   41.70   1
  11 -18  -1  123.10   47.70   1
 -11  18   1   47.70   46.10   1
 -11  18  -1    8.90   42.00   1
  11 -18   1   34.70   42.80   1
 -11 -18   1   36.80   41.90   1
  11  18  -1   79.80   42.30   1
  11  18   2   26.20   43.70   1
 -11 -18  -2   80.20   45.30   1
  11 -18  -2   24.60   47.00   1
 -11  18   2   33.10   46.10   1
 -11  18  -2   18.50   42.70   1
  11 -18   2   52.70   44.70   1
 -11 -18   2   21.70   54.50   1
  11  18  -2   67.90   47.60   1
  11  18   3    7.50   32.70   1
 -11 -18  -3    1.40   32.10   1
  11 -18  -3   67.60   39.90   1
 -11  18   3   34.40   38.40   1
 -11  18  -3   24.50   31.50   1
  11 -18   3   15.70   31.50   1
 -11 -18   3   14.40   32.70   1
  11  18  -3   -0.00   32.30   1
  11  18   4   57.00   49.90   1
 -11 -18  -4   67.30   51.30   1
  11 -18  -4   26.80   51.80   1
 -11  18   4   88.30   50.40   1
 -11  18  -4   52.10   46.70   1
  11 -18   4   44.10   46.30   1
 -11 -18   4   37.20   46.50   1
  11  18  -4   22.00   47.50   1
  11  18   5   21.20   34.90   1
 -11 -18  -5   69.80   36.70   1
  11 -18  -5   18.10   33.80   1
 -11  18  -5   28.50   29.80   1
  11 -18   5   11.80   29.20   1
 -11 -18   5    1.50   29.00   1
  11  18  -5    9.60   28.90   1
  11  18   6   13.50   40.50   1
 -11 -18  -6   20.00   42.30   1
  11 -18   6   94.30   38.90   1
 -11 -18   6   13.90   44.80   1
  11  18  -6   20.60   40.90   1
  11  18   7    8.80   35.50   1
 -11 -18  -7   17.10   36.00   1
  11 -18   7  104.20   40.60   1
 -11 -18   7   19.10   44.00   1
  11  18  -7   -0.00   40.60   1
  11  19   0    2.50   17.80   1
 -11 -19   0   -0.10   18.40   1
  11 -19   0   -0.00   20.60   1
 -11  19   0   -0.30   21.90   1
  11  19   1   19.30   37.20   1
 -11 -19  -1   41.50   37.80   1
  11 -19  -1   33.20   39.60   1
 -11  19   1   50.00   41.80   1
 -11  19  -1    9.30   37.00   1
  11 -19   1    5.80   37.40   1
 -11 -19   1   26.40   36.50   1
  11  19  -1   55.00   37.40   1
  11  19   2   12.10   31.60   1
 -11 -19  -2   17.30   32.20   1
  11 -19  -2   20.00   34.20   1
 -11  19   2    3.90   35.60   1
 -11  19  -2   -0.00   31.80   1
  11 -19   2   18.70   33.30   1
 -11 -19   2   37.90   41.80   1
  11  19  -2   26.10   32.30   1
  11  19   3   30.10   37.30   1
 -11 -19  -3   12.40   36.90   1
  11 -19  -3   17.50   39.90   1
 -11  19   3   35.50   41.60   1
  11 -19   3   17.00   35.80   1
 -11 -19   3   18.40   35.50   1
  11  19  -3   32.50   43.70   1
  11  19   4   -0.00   30.90   1
 -11 -19  -4   -0.00   28.60   1
  11 -19  -4    4.90   35.40   1
  11 -19   4    4.40   24.90   1
 -11 -19   4   19.50   27.80   1
  11  19  -4   11.20   28.30   1
  11  19   5   21.10   30.70   1
 -11 -19  -5   -0.00   30.20   1
  11 -19  -5   -0.00   32.50   1
  11 -19   5   11.80   24.10   1
 -11 -19   5    5.90   24.90   1
  11  19  -5    6.90   24.90   1
  11  20   0    8.50   33.00   1
 -11 -20   0   69.90   34.30   1
  11 -20   0    0.20   33.50   1
  11  20   1   16.30   31.60   1
 -11 -20  -1   11.30   31.10   1
  11 -20  -1   34.40   34.80   1
  11 -20   1   16.20   33.50   1
 -11 -20   1   20.00   30.10   1
  11  20  -1   14.70   30.40   1
  11  20   2   -0.00   25.40   1
 -11 -20  -2   -0.00   24.00   1
  11 -20  -2   -0.00   28.00   1
  11 -20   2    7.00   25.20   1
 -11 -20   2   10.80   30.10   1
  11  20  -2    8.70   23.00   1
  11  20   3   23.20   43.20   1
 -11 -20  -3    6.90   40.70   1
  11 -20  -3   65.20   44.60   1
  11 -20   3   28.70   40.50   1
 -11 -20   3   44.90   44.30   1
  11  20  -3   14.70   48.10   1
  11  20   4    7.50   26.10   1
 -11 -20  -4    4.90   28.40   1
  11 -20  -4    8.50   32.80   1
  11 -20   4   -0.00   21.30   1
 -11 -20   4    2.60   25.90   1
  11  20  -4   -0.00   22.80   1
  12   0   0  516.50  257.60   1
 -12   0   0  563.90  257.70   1
  12   0   1  406.80  165.90   1
 -12   0  -1  314.70  165.80   1
  12   0  -1  245.70  165.90   1
 -12   0   1  303.90  166.70   1
  12   0   2 2088.40 1007.40   1
 -12   0  -2 3332.70 1013.00   1
  12   0  -2 2423.90 1034.90   1
  12   0   3  162.00  105.20   1
 -12   0  -3  242.10  106.50   1
  12   0   4 1504.60  615.10   1
 -12   0  -4 1347.80  614.70   1
  12   1   0  176.80   78.30   1
 -12  -1   0   90.40   77.70   1
  12   1   1   95.90   80.30   1
 -12  -1  -1  175.70   81.10   1
 -12   1  -1  137.70   80.30   1
  12  -1   1  138.90   80.20   1
 -12  -1   1  138.80   80.50   1
  12   1  -1  104.30   80.10   1
  12   1   2  633.80  129.20   1
 -12  -1  -2  723.90  130.80   1
 -12   1  -2  211.40  127.10   1
  12  -1   2  185.50  126.90   1
 -12  -1   2  169.90  127.50   1
  12   1  -2  175.20  127.50   1
  12   1   3  157.50   77.80   1
 -12  -1  -3  133.70   77.60   1
 -12   1  -3  214.60   77.90   1
  12  -1   3  173.10   77.70   1
 -12  -1   3   67.20   78.10   1
  12   1  -3   41.60   78.00   1
  12   1   4  455.30  133.90   1
 -12  -1  -4  325.40  133.60   1
 -12   1  -4  335.10  133.20   1
  12  -1   4  193.50  132.90   1
 -12  -1   4  112.30  133.80   1
  12   1  -4  134.80  133.90   1
  12   1   5   52.10   49.50   1
 -12  -1  -5   57.60   50.20   1
  12   2   0   72.70   69.50   1
 -12  -2   0  152.80   70.50   1
  12   2   1  143.20  125.30   1
 -12  -2  -1  310.50  125.70   1
 -12  -2   1  762.10  129.80   1
  12   2  -1  502.20  126.60   1
  12   2   2  139.80   80.20   1
 -12  -2  -2  151.90   80.30   1
 -12  -2   2  118.20   80.10   1
  12   2  -2   77.60   79.80   1
  12   2   3  175.50   72.60   1
 -12  -2  -3   86.90   72.30   1
 -12  -2   3   69.10   72.80   1
  12   2  -3  182.60   74.00   1
  12   2   4  105.00   60.50   1
 -12  -2  -4   62.90   60.40   1
 -12  -2   4   96.20   60.50   1
  12   2  -4   63.70   60.30   1
  12   2   5  106.10   80.90   1
 -12  -2  -5  149.40   81.00   1
 -12  -2   5  131.80   81.20   1
  12   2  -5  100.10   80.70   1
 -12  -2  -6   24.60   29.00   1
 -12  -2   6    9.30   28.60   1
  12   2  -6   28.20   29.40   1
  12   2  -7  109.00   78.40   1
  12   3   0 1551.00  759.60   1
 -12  -3   0 2481.40  763.80   1
  12   3   1  201.10  108.60   1
 -12  -3  -1  129.10  108.90   1
 -12  -3   1  252.00  109.20   1
  12   3  -1  206.00  109.20   1
  12   3   2   49.10   64.50   1
 -12  -3  -2   74.90   63.30   1
 -12  -3   2   78.40   62.40   1
  12   3  -2  192.40   63.40   1
  12   3   3  446.70  234.60   1
 -12  -3  -3  565.80  234.80   1
 -12  -3   3  470.70  235.70   1
  12   3  -3  452.00  235.60   1
  12   3   4  149.50   47.70   1
 -12  -3  -4  149.50   48.10   1
 -12  -3   4   23.70   45.90   1
  12   3  -4   37.90   46.50   1
  12   3   5  141.40   74.20   1
 -12  -3  -5   88.90   73.90   1
 -12  -3   5   84.40   73.40   1
  12   3  -5  122.60   74.00   1
  12   3   6  320.60  189.00   1
 -12  -3  -6  393.40  189.70   1
 -12  -3   6  374.20  190.50   1
  12   3  -6  633.30  195.20   1
 -12  -3   7  395.40  205.30   1
  12   3  -7  412.20  204.60   1
 -12  -3   8   83.50   66.40   1
  12   3  -8   87.00   66.30   1
  12   3  -9  360.90  191.90   1
  12   3 -10   32.20   40.80   1
  12   4   0   75.50   62.10   1
 -12  -4   0   77.30   63.20   1
  12   4   1 1130.70  155.80   1
 -12  -4  -1 1362.70  159.00   1
 -12  -4   1  177.80  151.70   1
  12   4  -1  369.10  152.40   1
  12   4   2   26.60   39.20   1
 -12  -4  -2  108.60   43.40   1
 -12  -4   2   54.60   41.10   1
  12   4  -2   15.50   40.50   1
  12   4   3  169.30   61.80   1
 -12  -4  -3  185.60   61.80   1
 -12   4  -3  140.80   61.10   1
  12  -4   3  153.90   60.90   1
 -12  -4   3   17.10   61.10   1
  12   4  -3   96.30   62.20   1
  12   4   4   32.30   47.30   1
 -12  -4  -4   52.90   47.80   1
 -12   4  -4   41.40   45.30   1
  12  -4   4   70.10   45.60   1
 -12  -4   4   61.10   46.80   1
  12   4  -4   65.80   47.00   1
  12   4   5  120.80   50.40   1
 -12  -4  -5  246.10   51.30   1
 -12   4  -5  122.80   49.00   1
  12  -4   5  140.10   48.30   1
 -12  -4   5   27.10   48.80   1
  12   4  -5   14.30   48.70   1
  12   4   6   25.40   35.80   1
 -12  -4  -6   23.40   35.80   1
 -12   4  -6   20.80   31.70   1
  12  -4   6   31.40   31.80   1
 -12  -4   6   30.50   33.60   1
  12   4  -6   35.00   34.00   1
 -12  -4  -7  478.20  101.80   1
 -12   4  -7  145.10   94.20   1
 -12  -4   7  120.70   94.20   1
  12   4  -7  152.30   94.90   1
 -12  -4   8   39.10   35.30   1
  12   4  -8   21.90   35.30   1
 -12  -4   9   30.90   39.70   1
  12   4  -9   41.50   40.10   1
 -12  -4  10   -0.00   19.60   1
  12   4 -10   17.10   21.00   1
 -12  -4  11    7.70   26.10   1
  12   4 -11   10.70   24.60   1
  12   4 -12    1.40   22.80   1
  12   5   0  138.10   89.70   1
 -12  -5   0  135.80   91.10   1
  12   5   1  252.00  170.70   1
 -12  -5  -1  993.60  174.20   1
 -12  -5   1  304.80  171.30   1
  12   5  -1  434.40  172.10   1
  12   5   2  136.10  109.60   1
 -12  -5  -2  225.40  110.00   1
 -12  -5   2  570.10  114.80   1
  12   5  -2  390.50  112.60   1
  12   5   3  462.50  134.60   1
 -12  -5  -3  491.50  134.70   1
 -12   5  -3  533.70  134.60   1
  12  -5   3  413.00  133.80   1
 -12  -5   3  211.30  134.30   1
  12   5  -3  119.90  134.10   1
  12   5   4  338.60  164.60   1
 -12  -5  -4  270.30  164.60   1
 -12   5  -4  300.20  163.40   1
  12  -5   4  332.60  163.40   1
 -12  -5   4  336.50  164.90   1
  12   5  -4  339.20  165.00   1
  12   5   5  159.50   62.80   1
 -12  -5  -5   59.90   62.10   1
 -12   5  -5   99.20   61.80   1
  12  -5   5  244.90   62.00   1
 -12  -5   5   46.80   61.40   1
  12   5  -5   52.80   61.90   1
  12   5   6  193.60  146.00   1
 -12  -5  -6  266.00  146.50   1
 -12   5  -6  318.20  145.30   1
  12  -5   6  366.00  145.50   1
 -12  -5   6  403.30  148.40   1
  12   5  -6  299.80  146.70   1
  12   5   7 1500.10  652.60   1
 -12  -5  -7 1778.70  653.00   1
 -12   5  -7 2063.20  660.20   1
  12  -5   7 1395.90  653.50   1
 -12  -5   7 1376.10  653.80   1
  12   5  -7 1163.20  651.50   1
 -12   5  -8   57.80   54.80   1
  12  -5   8  115.00   56.10   1
 -12  -5   8   69.80   56.10   1
  12   5  -8   62.50   56.10   1
 -12   5  -9   88.20   70.10   1
 -12  -5   9  104.50   71.00   1
  12   5  -9   97.70   71.20   1
 -12   5 -10   78.20   58.10   1
 -12  -5  10   57.10   56.90   1
  12   5 -10   80.40   57.90   1
 -12  -5  11   65.60   62.90   1
  12   5 -11  103.90   64.50   1
 -12  -5  12   12.50   28.30   1
  12   5 -12   17.30   28.80   1
 -12  -5  13  137.00  113.70   1
  12   5 -13  371.10  133.40   1
  12   6   0   53.90   55.90   1
 -12  -6   0   87.60   56.60   1
  12   6   1  116.00   86.10   1
 -12  -6  -1  138.80   84.70   1
 -12  -6   1  114.00   86.20   1
  12   6  -1  134.70   86.00   1
  12   6   2   24.40   35.70   1
 -12  -6  -2   25.60   35.60   1
 -12   6  -2   37.20   35.80   1
  12  -6   2   32.80   36.80   1
 -12  -6   2   41.30   37.80   1
  12   6  -2   33.50   38.00   1
  12   6   3   34.50   38.90   1
 -12  -6  -3   29.40   38.90   1
 -12   6  -3   28.80   37.30   1
  12  -6   3   73.70   37.70   1
 -12  -6   3   13.90   41.10   1
  12   6  -3   18.10   41.10   1
  12   6   4   40.30   40.10   1
 -12  -6  -4   20.10   39.80   1
 -12   6  -4   29.70   36.90   1
  12  -6   4   59.00   36.90   1
 -12  -6   4   15.60   39.20   1
  12   6  -4   26.40   39.20   1
  12   6   5   44.00   53.10   1
 -12  -6  -5   30.90   52.90   1
 -12   6  -5  107.50   51.90   1
  12  -6   5  102.90   52.00   1
 -12  -6   5   35.20   52.60   1
  12   6  -5   66.60   53.70   1
  12   6   6   65.70   30.80   1
 -12  -6  -6   48.50   27.90   1
 -12   6  -6   14.90   22.20   1
  12  -6   6    5.80   21.20   1
 -12  -6   6   -0.00   22.10   1
  12   6  -6    0.60   23.20   1
  12   6   7  311.20   94.70   1
 -12  -6  -7  171.00   93.30   1
 -12   6  -7  154.60   89.70   1
  12  -6   7  146.70   89.40   1
 -12  -6   7  132.40   90.30   1
  12   6  -7   89.30   90.00   1
 -12  -6  -8   71.10   63.40   1
 -12   6  -8  154.70   62.10   1
  12  -6   8   71.20   61.00   1
 -12  -6   8   63.30   61.90   1
  12   6  -8   90.00   62.80   1
 -12   6  -9   30.10   31.90   1
  12  -6   9   19.70   31.50   1
 -12  -6   9   23.30   33.10   1
  12   6  -9   40.70   34.10   1
 -12   6 -10   10.50   21.90   1
  12  -6  10   15.00   22.20   1
 -12  -6  10   11.10   23.30   1
  12   6 -10   12.10   24.20   1
 -12   6 -11   22.00   31.30   1
  12  -6  11   26.50   32.30   1
 -12  -6  11   22.50   31.90   1
  12   6 -11   23.90   32.90   1
 -12   6 -12   15.10   32.60   1
 -12  -6  12   40.90   33.80   1
  12   6 -12   30.00   33.50   1
 -12  -6  13   10.30   24.70   1
  12   6 -13   11.10   25.50   1
  12   7   0  525.40  279.10   1
 -12  -7   0  729.50  279.70   1
  12   7   1  149.80   82.70   1
 -12  -7  -1  154.20   84.60   1
 -12  -7   1  239.20   85.20   1
  12   7  -1   63.00   80.80   1
  12   7   2  185.30  106.10   1
 -12  -7  -2  144.50  105.90   1
 -12   7  -2  187.50  106.50   1
  12  -7   2  190.90  106.40   1
 -12  -7   2  292.00  109.40   1
  12   7  -2  181.60  108.90   1
  12   7   3   27.60   48.70   1
 -12  -7  -3   68.60   48.40   1
 -12   7  -3  128.00   48.00   1
  12  -7   3   66.40   47.60   1
 -12  -7   3   28.30   48.70   1
  12   7  -3   30.00   48.70   1
  12   7   4  369.20  109.50   1
 -12  -7  -4  313.20  109.00   1
 -12   7  -4  395.40  107.00   1
  12  -7   4  269.00  106.30   1
 -12  -7   4   85.40  108.40   1
  12   7  -4   97.20  108.50   1
  12   7   5   59.70   44.50   1
 -12  -7  -5   51.50   45.40   1
 -12   7  -5   39.50   43.60   1
  12  -7   5   57.30   42.30   1
 -12  -7   5   16.40   43.80   1
  12   7  -5   27.00   44.40   1
  12   7   6  230.70  128.20   1
 -12  -7  -6  238.70  128.00   1
 -12   7  -6  258.60  127.80   1
  12  -7   6  181.10  127.10   1
 -12  -7   6  220.50  127.50   1
  12   7  -6  285.90  128.40   1
  12   7   7   56.30   36.20   1
 -12  -7  -7   11.80   34.90   1
 -12   7  -7   14.80   30.10   1
  12  -7   7   55.30   32.20   1
 -12  -7   7   12.50   30.00   1
  12   7  -7   12.80   30.50   1
  12   7   8  245.10  112.40   1
 -12  -7  -8  158.00  111.70   1
 -12   7  -8  229.90  110.10   1
  12  -7   8  432.10  112.30   1
 -12  -7   8  139.30  109.90   1
  12   7  -8  150.30  110.10   1
 -12   7  -9    5.80   15.30   1
  12  -7   9    1.80   14.40   1
 -12  -7   9    5.40   17.20   1
  12   7  -9   10.10   17.90   1
 -12   7 -10  196.00  104.00   1
  12  -7  10  129.00  102.60   1
 -12  -7  10  197.20  104.90   1
  12   7 -10  211.60  105.70   1
 -12   7 -11   29.60   26.40   1
  12  -7  11    7.70   25.40   1
 -12  -7  11   34.40   27.90   1
  12   7 -11   27.20   27.90   1
 -12   7 -12   18.60   15.60   1
  12  -7  12    3.40   15.20   1
 -12  -7  12   -0.00   16.20   1
  12   7 -12    0.00   18.20   1
  12   8   0  742.70  369.70   1
 -12  -8   0  913.30  370.20   1
  12   8   1  265.40  165.10   1
 -12  -8  -1  556.40  168.40   1
 -12   8  -1  698.50  169.80   1
  12  -8   1  922.20  171.70   1
 -12  -8   1  473.30  166.60   1
  12   8  -1  227.10  165.10   1
  12   8   2  420.10  152.60   1
 -12  -8  -2  510.00  152.90   1
 -12   8  -2  749.60  155.60   1
  12  -8   2  576.60  153.80   1
 -12  -8   2  387.60  155.70   1
  12   8  -2  128.20  153.00   1
  12   8   3  582.30  211.80   1
 -12  -8  -3  342.90  210.70   1
 -12   8  -3  504.80  211.10   1
  12  -8   3  530.30  211.20   1
 -12  -8   3  550.20  212.90   1
  12   8  -3  331.80  211.50   1
  12   8   4  508.00  233.10   1
 -12  -8  -4  522.20  233.30   1
 -12   8  -4  394.00  231.30   1
  12  -8   4  479.70  231.50   1
 -12  -8   4  584.90  234.40   1
  12   8  -4  538.50  233.60   1
  12   8   5  482.20  221.50   1
 -12  -8  -5  386.80  221.20   1
 -12   8  -5  506.50  220.30   1
  12  -8   5  325.50  221.10   1
 -12  -8   5  720.90  225.50   1
  12   8  -5 1067.40  230.30   1
  12   8   6   35.80   44.40   1
 -12  -8  -6   63.70   45.20   1
 -12   8  -6  141.50   42.60   1
 -12  -8   6   20.60   44.20   1
  12   8  -6   -0.00   44.70   1
  12   8   7  188.30  100.00   1
 -12  -8  -7  168.20  100.10   1
 -12   8  -7  143.10   98.10   1
  12  -8   7  154.90   97.20   1
 -12  -8   7  140.60   97.90   1
  12   8  -7  169.50   98.80   1
  12   8   8  134.60   80.40   1
 -12  -8  -8  125.30   81.00   1
 -12   8  -8  124.10   77.50   1
  12  -8   8   80.80   76.70   1
 -12  -8   8  121.60   77.10   1
  12   8  -8  121.40   77.40   1
 -12  -8  -9  521.10  299.80   1
 -12   8  -9  596.70  297.60   1
  12  -8   9 1196.60  305.80   1
 -12  -8   9  623.20  300.40   1
  12   8  -9  616.80  299.80   1
 -12   8 -10   10.20   23.30   1
  12  -8  10   10.00   22.60   1
 -12  -8  10   54.50   26.30   1
  12   8 -10   12.60   25.50   1
 -12   8 -11  491.10  134.40   1
  12  -8  11  330.90  129.70   1
 -12  -8  11  145.00  125.20   1
  12   8 -11  316.50  130.40   1
 -12   8 -12   87.40   66.40   1
  12  -8  12  102.20   67.00   1
 -12  -8  12   73.20   66.90   1
  12   8 -12  102.30   68.20   1
  12   9   0   13.50   28.60   1
 -12  -9   0   16.10   29.70   1
  12  -9   0   15.30   27.60   1
  12   9   1   19.70   24.90   1
 -12  -9  -1   10.50   25.50   1
 -12   9  -1   22.10   28.60   1
  12  -9   1   14.30   27.40   1
 -12  -9   1   11.30   26.20   1
  12   9  -1    5.50   25.50   1
  12   9   2  163.80  110.80   1
 -12  -9  -2  185.40  111.00   1
 -12   9  -2  136.40  110.80   1
  12  -9   2  272.90  111.50   1
 -12  -9   2  241.90  115.80   1
  12   9  -2  339.20  115.10   1
  12   9   3   33.50   42.60   1
 -12  -9  -3   19.20   41.40   1
 -12   9  -3   71.20   41.40   1
  12  -9   3   42.30   41.50   1
 -12  -9   3   37.20   46.40   1
  12   9  -3   30.50   47.30   1
  12   9   4  871.90  393.60   1
 -12  -9  -4  909.60  393.70   1
 -12   9  -4  977.50  392.50   1
  12  -9   4  950.30  392.40   1
 -12  -9   4  651.40  392.80   1
  12   9  -4 1000.80  394.40   1
  12   9   5   38.80   40.30   1
 -12  -9  -5   42.50   41.40   1
 -12   9  -5   27.70   36.40   1
  12  -9   5   32.70   37.60   1
 -12  -9   5   36.40   42.20   1
  12   9  -5   27.40   40.90   1
  12   9   6  171.70   68.90   1
 -12  -9  -6  106.20   67.80   1
 -12   9  -6  266.50   67.20   1
  12  -9   6  219.80   66.40   1
 -12  -9   6   -0.00   67.40   1
  12   9  -6   46.40   69.80   1
  12   9   7   25.50   44.20   1
 -12  -9  -7   74.20   45.90   1
 -12   9  -7   42.30   43.30   1
  12  -9   7   33.80   42.80   1
 -12  -9   7   32.40   42.80   1
  12   9  -7   32.70   43.10   1
  12   9   8   32.10   39.40   1
 -12  -9  -8   35.70   38.60   1
 -12   9  -8   31.70   33.20   1
  12  -9   8   14.90   32.40   1
 -12  -9   8   18.40   33.60   1
  12   9  -8   32.90   35.50   1
  12   9   9   15.80   30.80   1
 -12  -9  -9   11.70   32.20   1
 -12   9  -9   22.70   31.10   1
  12  -9   9    4.00   27.20   1
 -12  -9   9   29.10   28.30   1
  12   9  -9   28.90   29.20   1
 -12   9 -10   32.40   33.10   1
  12  -9  10   93.30   33.40   1
 -12  -9  10    3.10   31.90   1
  12   9 -10   39.00   33.00   1
 -12   9 -11    8.40   15.20   1
  12  -9  11    3.10   13.40   1
 -12  -9  11   -0.00   16.30   1
  12   9 -11   -0.00   17.60   1
  12  -9  12    4.50   13.80   1
 -12  -9  12   -0.00   15.80   1
  12   9 -12    7.60   18.50   1
  12  10   0    5.80   35.50   1
 -12 -10   0   53.00   34.30   1
  12 -10   0   18.80   30.10   1
 -12  10   0    5.50   27.60   1
  12  10   1  137.20   59.10   1
 -12 -10  -1   52.50   58.50   1
 -12  10  -1   40.20   59.60   1
  12 -10   1  159.10   61.50   1
 -12 -10   1  151.60   60.50   1
  12  10  -1   32.20   59.80   1
  12  10   2  520.30  160.20   1
 -12 -10  -2  327.80  159.30   1
 -12  10  -2  552.20  160.80   1
  12 -10   2  314.90  159.30   1
 -12 -10   2  329.60  161.00   1
  12  10  -2  188.40  159.40   1
  12  10   3  160.00   68.90   1
 -12 -10  -3  119.30   67.50   1
 -12  10  -3   84.00   67.00   1
  12 -10   3   74.00   66.90   1
 -12 -10   3   76.30   71.60   1
  12  10  -3   47.20   70.50   1
  12  10   4  317.90  123.50   1
 -12 -10  -4  259.70  122.80   1
 -12  10  -4  305.10  121.20   1
  12 -10   4  221.10  120.60   1
 -12 -10   4  185.30  123.00   1
  12  10  -4  126.30  122.80   1
  12  10   5  304.80  193.40   1
 -12 -10  -5  301.30  193.70   1
 -12  10  -5  444.30  192.40   1
  12 -10   5  515.50  192.70   1
 -12 -10   5  598.40  196.50   1
  12  10  -5  328.60  194.00   1
  12  10   6  110.80   64.80   1
 -12 -10  -6  113.00   64.30   1
 -12  10  -6   21.20   61.90   1
  12 -10   6  184.20   63.10   1
 -12 -10   6  262.50   72.10   1
  12  10  -6  293.80   70.30   1
  12  10   7  156.70   85.20   1
 -12  10  -7  113.50   81.80   1
  12 -10   7   89.00   83.20   1
 -12 -10   7  240.40   87.30   1
  12  10  -7  147.90   86.90   1
  12  10   8   58.10   57.90   1
 -12 -10  -8   73.90   59.10   1
 -12  10  -8   88.30   57.60   1
  12 -10   8   50.30   55.50   1
 -12 -10   8   57.20   56.10   1
  12  10  -8   69.80   56.80   1
  12  10   9    8.40   30.10   1
 -12 -10  -9    7.10   33.60   1
 -12  10  -9   21.70   26.60   1
  12 -10   9   -0.00   26.40   1
 -12 -10   9   25.70   27.00   1
  12  10  -9   21.70   29.50   1
  12  10  10   34.00   33.30   1
 -12 -10 -10  109.10   37.70   1
 -12  10 -10   29.50   33.30   1
  12 -10  10   17.20   28.80   1
 -12 -10  10   11.40   29.30   1
  12  10 -10    9.60   30.00   1
 -12  10 -11   47.10   42.30   1
  12 -10  11   42.50   41.00   1
 -12 -10  11   31.40   40.90   1
  12  10 -11   32.80   41.90   1
  12  11   0   41.40   55.40   1
 -12 -11   0   57.50   59.10   1
  12 -11   0   75.10   55.30   1
 -12  11   0   55.00   53.90   1
  12  11   1   29.70   41.10   1
 -12 -11  -1   36.60   41.50   1
  12 -11  -1   34.60   43.10   1
 -12  11  -1   38.70   44.40   1
  12 -11   1   39.20   43.50   1
 -12 -11   1   73.00   45.50   1
  12  11  -1   46.90   44.90   1
  12  11   2   83.80   51.00   1
 -12 -11  -2   64.20   50.60   1
 -12  11  -2   34.70   50.30   1
  12 -11   2   81.70   51.10   1
 -12 -11   2   42.80   51.40   1
  12  11  -2   40.60   50.10   1
  12  11   3   20.60   36.90   1
 -12 -11  -3   27.70   36.50   1
 -12  11  -3   62.20   36.00   1
  12 -11   3   12.00   34.90   1
 -12 -11   3    7.60   43.70   1
  12  11  -3   23.10   39.40   1
  12  11   4  103.40   77.70   1
 -12 -11  -4   53.20   76.90   1
 -12  11  -4  100.40   75.90   1
  12 -11   4  135.10   75.60   1
 -12 -11   4  257.60   84.20   1
  12  11  -4  195.20   82.30   1
  12  11   5    4.60   28.00   1
 -12 -11  -5   -1.30   28.00   1
 -12  11  -5   16.30   22.80   1
  12 -11   5    5.90   22.60   1
 -12 -11   5   34.90   30.70   1
  12  11  -5   17.70   31.90   1
  12  11   6   35.00   41.10   1
 -12 -11  -6    0.00   40.50   1
 -12  11  -6   44.70   42.30   1
  12 -11   6   41.60   40.40   1
 -12 -11   6   94.80   44.80   1
  12  11  -6   33.20   42.10   1
  12  11   7   25.40   30.50   1
 -12 -11  -7   -0.60   29.20   1
 -12  11  -7    3.20   24.50   1
  12 -11   7   30.30   25.80   1
 -12 -11   7    0.00   34.70   1
  12  11  -7   23.60   33.10   1
  12  11   8   26.40   41.90   1
 -12 -11  -8   24.10   43.20   1
 -12  11  -8  126.10   44.90   1
  12 -11   8   41.90   41.50   1
 -12 -11   8   17.10   41.50   1
  12  11  -8   17.30   43.70   1
  12  11   9   53.80   52.40   1
 -12 -11  -9   62.50   53.20   1
 -12  11  -9   57.40   48.70   1
  12 -11   9   28.30   46.60   1
 -12 -11   9   60.10   49.20   1
  12  11  -9   65.30   49.80   1
  12  11  10   43.60   36.40   1
 -12 -11 -10   10.10   36.80   1
 -12  11 -10   18.90   32.40   1
  12 -11  10   22.90   33.90   1
 -12 -11  10   30.60   32.80   1
  12  11 -10   15.70   33.30   1
 -12 -11 -11   20.00   31.50   1
 -12  11 -11   28.00   30.50   1
  12 -11  11   10.40   25.90   1
 -12 -11  11   10.30   25.80   1
  12  11 -11   13.70   27.50   1
  12  12   0  238.10  165.00   1
 -12 -12   0  530.70  169.50   1
  12 -12   0  335.40  166.20   1
 -12  12   0  477.50  168.10   1
  12  12   1  728.20  241.80   1
 -12 -12  -1  728.90  241.70   1
  12 -12  -1  926.70  248.60   1
 -12  12   1  772.80  247.60   1
 -12  12  -1  879.10  244.50   1
  12 -12   1  591.60  242.20   1
 -12 -12   1  924.40  245.10   1
  12  12  -1  260.30  241.10   1
  12  12   2   44.30   45.00   1
 -12 -12  -2   39.90   44.20   1
 -12  12  -2   25.50   44.30   1
  12 -12   2   68.90   44.90   1
 -12 -12   2   43.70   46.10   1
  12  12  -2   42.60   45.50   1
  12  12   3  478.40  183.20   1
 -12 -12  -3  404.40  182.30   1
 -12  12  -3  387.60  182.00   1
  12 -12   3  464.10  182.70   1
 -12 -12   3  364.60  183.40   1
  12  12  -3  247.70  181.80   1
  12  12   4   63.80   57.20   1
 -12 -12  -4   30.90   56.50   1
 -12  12  -4   98.10   55.20   1
  12 -12   4   78.10   54.30   1
 -12 -12   4   66.20   61.30   1
  12  12  -4   29.00   59.40   1
  12  12   5  404.50  217.50   1
 -12 -12  -5  517.30  218.30   1
 -12  12  -5  347.30  215.50   1
  12 -12   5  465.20  215.70   1
 -12 -12   5  630.30  220.70   1
  12  12  -5  496.00  219.90   1
  12  12   6   19.80   40.10   1
 -12 -12  -6   40.00   41.10   1
 -12  12  -6   27.00   37.60   1
  12 -12   6   73.80   44.90   1
 -12 -12   6   45.20   42.50   1
  12  12  -6   16.60   41.10   1
  12  12   7  142.00   97.80   1
 -12 -12  -7  198.90   97.80   1
 -12  12  -7  256.00   96.80   1
  12 -12   7  116.30   95.00   1
 -12 -12   7  169.20   99.20   1
  12  12  -7  140.60   97.70   1
  12  12   8   11.20   32.90   1
 -12 -12  -8   24.70   30.10   1
 -12  12  -8    6.40   23.80   1
  12 -12   8   16.60   28.30   1
 -12 -12   8   13.00   34.70   1
  12  12  -8    1.20   33.40   1
  12  12   9  357.00  128.50   1
 -12 -12  -9  184.60  124.50   1
 -12  12  -9  161.00  123.20   1
  12 -12   9  262.40  124.10   1
 -12 -12   9  260.00  124.90   1
  12  12  -9  232.00  125.70   1
  12  12  10   -0.10   22.60   1
 -12 -12 -10   -0.10   27.40   1
 -12  12 -10   -0.00   17.20   1
  12 -12  10   -0.00   14.70   1
 -12 -12  10    0.80   19.10   1
  12  12 -10   -0.00   21.20   1
  12  12  11   25.40   37.80   1
 -12 -12 -11   96.10   40.50   1
  12 -12  11   13.70   35.10   1
 -12 -12  11   18.50   32.50   1
  12  12 -11   25.10   35.50   1
  12  13   0 2482.50 1123.90   1
 -12 -13   0 2410.50 1124.20   1
  12 -13   0 3999.00 1140.00   1
 -12  13   0 3711.70 1137.80   1
  12  13   1  241.40  136.80   1
 -12 -13  -1  202.70  136.30   1
  12 -13  -1  229.10  140.00   1
 -12  13   1  234.10  138.70   1
 -12  13  -1  286.00  137.80   1
  12 -13   1  243.60  137.30   1
 -12 -13   1  362.60  140.20   1
  12  13  -1  344.40  142.90   1
  12  13   2  136.60  101.40   1
 -12 -13  -2  123.90  101.10   1
  12 -13  -2  286.30  106.00   1
 -12  13  -2  183.10  101.80   1
  12 -13   2  209.70  102.20   1
 -12 -13   2  252.00  103.10   1
  12  13  -2  166.40  102.40   1
  12  13   3  381.20  136.70   1
 -12 -13  -3  365.40  135.80   1
 -12  13  -3  515.20  137.40   1
  12 -13   3  464.60  137.00   1
 -12 -13   3  324.10  135.80   1
  12  13  -3  131.30  133.70   1
  12  13   4    6.40   35.60   1
 -12 -13  -4    4.90   35.80   1
 -12  13  -4   18.40   33.50   1
  12 -13   4   18.90   32.60   1
 -12 -13   4  216.10   51.90   1
  12  13  -4   79.30   41.50   1
  12  13   5  170.50  107.20   1
 -12 -13  -5  146.90  107.20   1
 -12  13  -5  209.70  104.70   1
  12 -13   5  150.70  104.40   1
 -12 -13   5  227.80  111.20   1
  12  13  -5  176.90  109.70   1
  12  13   6  474.50  174.20   1
 -12 -13  -6  349.10  173.10   1
 -12  13  -6  440.60  171.70   1
  12 -13   6  307.20  172.20   1
 -12 -13   6  623.20  177.70   1
  12  13  -6  208.90  173.10   1
  12  13   7  150.70   58.00   1
 -12 -13  -7  261.70   60.50   1
 -12  13  -7    3.50   53.40   1
  12 -13   7  227.20   56.40   1
 -12 -13   7  360.20   66.10   1
  12  13  -7  154.10   59.20   1
  12  13   8  538.80  217.10   1
 -12 -13  -8  393.20  214.90   1
 -12  13  -8  364.80  212.70   1
  12 -13   8  398.10  213.30   1
 -12 -13   8  735.40  222.00   1
  12  13  -8  609.10  218.60   1
  12  13   9   99.50   63.80   1
 -12 -13  -9   56.60   63.30   1
 -12  13  -9   65.50   61.50   1
  12 -13   9   75.40   62.30   1
 -12 -13   9   62.30   64.80   1
  12  13  -9   95.80   66.60   1
  12  13  10   29.10   35.80   1
 -12 -13 -10   -0.00   35.60   1
  12 -13  10   18.60   28.80   1
 -12 -13  10    7.00   30.80   1
  12  13 -10   13.70   33.00   1
  12  14   0   38.90   41.70   1
 -12 -14   0   34.50   42.10   1
  12 -14   0   42.00   45.00   1
 -12  14   0   32.70   45.60   1
  12  14   1   28.40   46.90   1
 -12 -14  -1   39.90   47.80   1
  12 -14  -1   34.10   51.10   1
 -12  14   1   41.60   51.00   1
 -12  14  -1   62.80   49.70   1
  12 -14   1   63.70   48.90   1
 -12 -14   1   86.90   56.00   1
  12  14  -1  110.20   59.00   1
  12  14   2   36.50   37.50   1
 -12 -14  -2   11.50   37.70   1
  12 -14  -2   31.50   41.40   1
 -12  14   2   20.40   38.20   1
 -12  14  -2   37.10   39.20   1
  12 -14   2   25.60   38.20   1
 -12 -14   2   59.40   42.40   1
  12  14  -2   34.80   41.10   1
  12  14   3  128.60   83.20   1
 -12 -14  -3  112.40   82.20   1
 -12  14  -3  118.30   81.90   1
  12 -14   3  101.70   81.90   1
 -12 -14   3  149.90   82.60   1
  12  14  -3  112.40   81.50   1
  12  14   4   -0.00   26.40   1
 -12 -14  -4    0.00   25.70   1
 -12  14  -4    2.40   21.80   1
  12 -14   4    3.80   20.20   1
 -12 -14   4   -0.00   29.90   1
  12  14  -4   23.50   25.10   1
  12  14   5   84.90   73.30   1
 -12 -14  -5   94.40   73.00   1
 -12  14  -5  105.70   70.40   1
  12 -14   5   71.20   69.60   1
 -12 -14   5  150.00   78.60   1
  12  14  -5  166.00   77.10   1
  12  14   6   25.00   38.20   1
 -12 -14  -6   51.40   39.80   1
 -12  14  -6   17.70   32.80   1
  12 -14   6   36.80   34.10   1
 -12 -14   6   10.80   42.10   1
  12  14  -6    7.60   42.70   1
  12  14   7   11.40   46.70   1
 -12 -14  -7   67.60   47.80   1
 -12  14  -7   35.40   47.80   1
  12 -14   7   43.00   44.10   1
 -12 -14   7   48.80   48.30   1
  12  14  -7   63.50   48.90   1
  12  14   8    8.30   34.70   1
 -12 -14  -8   27.60   36.30   1
 -12  14  -8   16.90   29.30   1
  12 -14   8   34.40   29.50   1
 -12 -14   8    9.40   34.80   1
  12  14  -8   -0.00   33.50   1
  12  14   9   21.30   47.80   1
 -12 -14  -9   46.30   49.80   1
 -12  14  -9   74.30   43.80   1
  12 -14   9   84.90   46.90   1
 -12 -14   9   -0.00   48.40   1
  12  14  -9   23.80   46.30   1
  12  14  10   -0.00   32.30   1
 -12 -14 -10   -0.00   30.00   1
  12 -14  10   14.50   26.30   1
 -12 -14  10    6.60   30.10   1
  12  14 -10    1.60   33.80   1
  12  15   0   70.40   46.30   1
 -12 -15   0   34.20   44.90   1
  12 -15   0   25.40   46.70   1
 -12  15   0   57.60   48.30   1
  12  15   1   83.30   41.60   1
 -12 -15  -1   15.40   40.20   1
  12 -15  -1   26.50   43.60   1
 -12  15   1   -0.70   43.20   1
 -12  15  -1   29.50   41.20   1
  12 -15   1  205.10   46.60   1
 -12 -15   1   42.50   52.20   1
  12  15  -1   39.90   44.60   1
  12  15   2   53.30   43.90   1
 -12 -15  -2   49.00   43.50   1
  12 -15  -2  100.00   50.80   1
 -12  15   2   84.10   48.50   1
  12 -15   2   47.50   44.20   1
 -12 -15   2   28.90   45.90   1
  12  15  -2   -0.00   43.50   1
  12  15   3   35.90   38.10   1
 -12 -15  -3   33.10   37.90   1
  12 -15  -3   -1.20   38.00   1
 -12  15   3    7.70   36.60   1
 -12  15  -3   33.90   37.50   1
  12 -15   3   27.20   37.50   1
 -12 -15   3   48.80   37.60   1
  12  15  -3   31.30   36.90   1
  12  15   4   16.10   34.20   1
 -12 -15  -4   33.30   36.20   1
 -12  15  -4   13.60   32.30   1
  12 -15   4    6.60   30.40   1
 -12 -15   4   15.40   33.80   1
  12  15  -4   35.00   31.90   1
  12  15   5    0.00   35.60   1
 -12 -15  -5   -0.00   35.50   1
 -12  15  -5   30.40   31.00   1
  12 -15   5   13.70   30.70   1
 -12 -15   5   94.70   46.30   1
  12  15  -5   45.30   39.80   1
  12  15   6   92.60   59.20   1
 -12 -15  -6   87.40   60.00   1
 -12  15  -6   74.80   55.10   1
  12 -15   6   58.30   55.00   1
 -12 -15   6   78.40   63.30   1
  12  15  -6   13.20   60.10   1
  12  15   7   70.10   51.30   1
 -12 -15  -7   92.30   52.00   1
 -12  15  -7   26.40   49.80   1
  12 -15   7   41.50   50.40   1
 -12 -15   7   83.90   54.30   1
  12  15  -7   18.70   53.20   1
  12  15   8   34.60   36.90   1
 -12 -15  -8   20.50   35.80   1
 -12  15  -8   43.60   32.90   1
  12 -15   8   10.90   30.10   1
 -12 -15   8   -0.00   36.20   1
  12  15  -8   18.70   36.10   1
  12  15   9   -0.00   31.10   1
 -12 -15  -9   10.30   33.20   1
  12 -15   9   29.30   28.30   1
 -12 -15   9    7.00   31.30   1
  12  15  -9   -0.00   30.90   1
  12  16   0   36.90   40.50   1
 -12 -16   0   19.80   39.80   1
  12 -16   0   65.50   43.80   1
 -12  16   0   42.00   43.30   1
  12  16   1   92.30   60.60   1
 -12 -16  -1  123.70   60.70   1
  12 -16  -1   71.70   64.10   1
 -12  16   1  133.60   65.20   1
 -12  16  -1   30.30   60.50   1
  12 -16   1   51.80   60.70   1
 -12 -16   1  134.30   67.80   1
  12  16  -1   65.90   60.90   1
  12  16   2   60.00   56.10   1
 -12 -16  -2   65.40   56.10   1
  12 -16  -2  121.80   63.30   1
 -12  16   2  116.50   62.10   1
 -12  16  -2  109.70   58.00   1
  12 -16   2   51.90   56.70   1
 -12 -16   2   39.40   57.60   1
  12  16  -2   39.70   59.50   1
  12  16   3   -0.00   29.20   1
 -12 -16  -3    9.60   30.30   1
  12 -16  -3   18.50   29.60   1
 -12  16   3    9.60   29.30   1
 -12  16  -3   10.80   27.70   1
  12 -16   3   10.50   28.30   1
 -12 -16   3   19.10   28.70   1
  12  16  -3   16.50   30.80   1
  12  16   4   50.40   56.40   1
 -12 -16  -4   41.00   56.20   1
  12 -16  -4  100.30   57.70   1
 -12  16  -4   58.20   53.90   1
  12 -16   4  152.60   55.30   1
 -12 -16   4   47.30   53.30   1
  12  16  -4   46.30   52.60   1
  12  16   5   70.50   58.50   1
 -12 -16  -5   77.40   60.30   1
 -12  16  -5  104.70   56.50   1
  12 -16   5   54.00   55.70   1
 -12 -16   5   95.60   62.30   1
  12  16  -5   29.80   57.60   1
  12  16   6   23.80   40.60   1
 -12 -16  -6   11.50   41.10   1
 -12  16  -6   29.00   35.90   1
  12 -16   6   44.00   36.60   1
 -12 -16   6   20.90   46.00   1
  12  16  -6   22.80   44.10   1
  12  16   7   23.00   46.00   1
 -12 -16  -7   12.60   45.80   1
 -12  16  -7  106.70   45.20   1
  12 -16   7   51.90   49.20   1
 -12 -16   7   29.60   51.50   1
  12  16  -7   46.50   51.60   1
  12  16   8    3.60   37.80   1
 -12 -16  -8   14.60   37.50   1
  12 -16   8   44.40   34.50   1
 -12 -16   8   20.90   39.10   1
  12  16  -8   22.30   40.20   1
  12  17   0  150.90  100.40   1
 -12 -17   0  202.10  100.70   1
  12 -17   0  163.70  102.10   1
 -12  17   0  137.80  101.60   1
  12  17   1   -0.00   25.60   1
 -12 -17  -1   -0.00   25.60   1
  12 -17  -1    3.90   28.60   1
 -12  17   1    4.90   28.70   1
 -12  17  -1    0.90   25.70   1
  12 -17   1   38.80   27.70   1
 -12 -17   1   21.50   30.70   1
  12  17  -1   10.40   25.60   1
  12  17   2   74.30   51.10   1
 -12 -17  -2  308.00   55.30   1
  12 -17  -2    6.40   51.70   1
 -12  17   2   56.20   53.40   1
 -12  17  -2    4.80   49.20   1
  12 -17   2  100.90   52.80   1
 -12 -17   2  147.40   56.40   1
  12  17  -2  114.20   59.70   1
  12  17   3   56.00   44.50   1
 -12 -17  -3   19.00   41.20   1
  12 -17  -3   39.30   45.50   1
 -12  17   3   37.40   42.30   1
 -12  17  -3   24.20   41.20   1
  12 -17   3   30.70   41.60   1
 -12 -17   3   49.40   43.40   1
  12  17  -3   28.50   42.60   1
  12  17   4  146.40  102.40   1
 -12 -17  -4  178.90  102.00   1
  12 -17  -4   89.90  101.30   1
 -12  17   4   58.10  100.60   1
 -12  17  -4  267.10  102.70   1
  12 -17   4  189.90  100.70   1
 -12 -17   4  243.00  101.20   1
  12  17  -4  207.40  100.80   1
  12  17   5   -0.00   28.20   1
 -12 -17  -5   26.10   29.70   1
 -12  17  -5   -0.00   23.10   1
  12 -17   5   17.00   22.90   1
 -12 -17   5   17.50   30.00   1
  12  17  -5   -0.00   26.10   1
  12  17   6   31.90   48.40   1
 -12 -17  -6   39.70   49.20   1
  12 -17   6   58.60   45.60   1
 -12 -17   6   46.80   55.10   1
  12  17  -6   40.50   51.00   1
  12  17   7   -0.00   32.30   1
 -12 -17  -7   11.20   33.50   1
  12 -17   7   47.20   33.90   1
 -12 -17   7   16.70   40.90   1
  12  17  -7   13.10   37.90   1
  12  18   0   44.50   42.20   1
 -12 -18   0   46.00   42.40   1
  12 -18   0   51.60   45.70   1
 -12  18   0   10.80   44.10   1
  12  18   1  199.50  132.50   1
 -12 -18  -1  376.90  134.00   1
  12 -18  -1  338.20  135.90   1
 -12  18   1  335.30  136.70   1
 -12  18  -1  262.30  133.90   1
  12 -18   1  174.50  133.20   1
 -12 -18   1  212.20  133.30   1
  12  18  -1  249.30  132.60   1
  12  18   2   40.30   49.50   1
 -12 -18  -2   57.70   50.30   1
  12 -18  -2   55.70   53.40   1
 -12  18   2   80.10   51.90   1
 -12  18  -2   44.90   49.70   1
  12 -18   2   38.70   49.90   1
 -12 -18   2   22.80   55.70   1
  12  18  -2   73.10   56.40   1
  12  18   3  136.10   61.60   1
 -12 -18  -3   62.60   60.50   1
  12 -18  -3  177.30   70.00   1
 -12  18   3  135.60   64.80   1
 -12  18  -3   78.60   60.40   1
  12 -18   3   73.00   60.00   1
 -12 -18   3  181.60   63.30   1
  12  18  -3   10.90   58.10   1
  12  18   4  117.80   68.50   1
 -12 -18  -4   61.00   67.10   1
  12 -18  -4  101.10   68.60   1
  12 -18   4   90.70   65.80   1
 -12 -18   4   91.50   65.30   1
  12  18  -4   64.80   65.70   1
  12  18   5  126.90   63.80   1
 -12 -18  -5  101.10   64.50   1
  12 -18  -5  222.00   73.40   1
  12 -18   5  136.30   61.40   1
 -12 -18   5   66.00   61.00   1
  12  18  -5   35.70   59.70   1
  12  18   6   79.20   40.50   1
 -12 -18  -6    4.30   38.50   1
  12 -18   6   29.00   35.10   1
 -12 -18   6   13.20   43.20   1
  12  18  -6   27.10   39.90   1
  12  19   0   44.90   44.90   1
 -12 -19   0   30.20   44.50   1
  12 -19   0   60.50   47.70   1
  12  19   1   14.20   22.60   1
 -12 -19  -1   -0.00   22.80   1
  12 -19  -1   -0.20   24.90   1
  12 -19   1    3.70   24.70   1
 -12 -19   1   -0.00   21.60   1
  12  19  -1    6.40   20.50   1
  12  19   2   19.80   37.40   1
 -12 -19  -2   34.60   38.00   1
  12 -19  -2   27.50   42.50   1
  12 -19   2   20.20   38.20   1
 -12 -19   2   43.40   51.50   1
  12  19  -2   24.70   41.50   1
  12  19   3    6.10   28.60   1
 -12 -19  -3   -0.00   25.40   1
  12 -19  -3   29.70   33.20   1
  12 -19   3   -0.00   23.60   1
 -12 -19   3   -0.00   24.60   1
  12  19  -3    0.00   28.60   1
  12  19   4   34.10   46.60   1
 -12 -19  -4   48.80   47.50   1
  12 -19  -4   19.30   48.50   1
  12 -19   4   60.00   44.80   1
 -12 -19   4   34.70   43.50   1
  12  19  -4   32.10   45.40   1
  12  19   5  118.40   38.20   1
 -12 -19  -5   -0.00   35.90   1
  12 -19  -5   -0.00   34.20   1
  12 -19   5   11.20   28.00   1
 -12 -19   5    9.70   28.50   1
  12  19  -5   13.00   28.30   1
  12  20   0   65.30   50.90   1
 -12 -20   0   49.90   50.00   1
  12 -20   0   39.70   51.90   1
  12  20   1   32.60   44.00   1
 -12 -20  -1   26.20   43.70   1
  12 -20  -1   50.50   46.90   1
  12 -20   1   35.40   46.40   1
 -12 -20   1   48.50   44.20   1
  12  20  -1   49.30   44.20   1
  12  20   2   26.10   39.70   1
 -12 -20  -2   30.00   38.30   1
  12 -20  -2   20.40   40.90   1
  12 -20   2   52.20   41.00   1
 -12 -20   2   32.70   47.70   1
  12  20  -2   11.50   38.60   1
  13   0   0   20.00   27.60   1
 -13   0   0   18.70   27.60   1
  13   0   1  613.10  304.70   1
 -13   0  -1  873.10  307.10   1
  13   0  -1  534.50  305.80   1
 -13   0   1  904.90  311.60   1
  13   0   2   20.30   37.80   1
 -13   0  -2   68.00   38.70   1
  13   0  -2   85.20   39.80   1
 -13   0   2   81.00   41.00   1
  13   0   3 2820.70 1552.40   1
 -13   0  -3 6639.00 1560.80   1
  13   0   4  815.80  397.10   1
 -13   0  -4  970.20  397.50   1
  13   0   5 1739.90  686.00   1
 -13   0  -5 1502.70  682.20   1
  13   1   0   73.00   36.40   1
 -13  -1   0   17.30   35.90   1
  13  -1   0  143.80   39.40   1
  13   1   1   24.60   34.20   1
 -13  -1  -1   19.00   34.90   1
 -13   1  -1   50.80   33.20   1
  13  -1   1   27.80   33.00   1
 -13  -1   1   30.50   33.60   1
  13   1  -1   27.60   33.70   1
  13   1   2  353.80  241.70   1
 -13  -1  -2  623.50  242.80   1
 -13   1  -2 1069.80  247.80   1
  13  -1   2  957.60  244.90   1
 -13  -1   2  911.90  249.60   1
  13   1  -2  884.10  248.10   1
 -13  -1  -3 5119.70 1717.10   1
 -13   1  -3 3597.70 1711.90   1
  13   1   4  178.50  106.70   1
 -13  -1  -4  232.30  106.90   1
 -13   1  -4  192.80  106.30   1
  13  -1   4  151.50  106.10   1
 -13  -1   4  203.60  109.90   1
  13   1  -4  190.10  108.60   1
  13   1   5  211.90  124.50   1
 -13  -1  -5  374.10  125.00   1
  13   1  -5   91.20  125.60   1
  13   2   0   16.10   26.40   1
 -13  -2   0   13.10   25.80   1
  13   2   1   99.50  101.20   1
 -13  -2  -1  277.90  101.60   1
 -13  -2   1  357.20  102.40   1
  13   2  -1  274.20  101.60   1
  13   2   2  179.20   36.00   1
 -13  -2  -2  212.70   36.80   1
 -13  -2   2   10.60   34.40   1
  13   2  -2   14.70   34.60   1
  13   2   3  651.20  213.00   1
 -13  -2  -3  379.60  212.20   1
 -13  -2   3  310.20  213.20   1
  13   2  -3  917.00  221.30   1
  13   2   4  151.10   58.90   1
 -13  -2  -4  161.60   59.00   1
 -13  -2   4   33.00   57.90   1
  13   2  -4   63.60   58.30   1
  13   2   5  257.40  134.90   1
 -13  -2  -5  238.00  134.70   1
 -13  -2   5  278.20  137.20   1
  13   2  -5  222.20  135.90   1
  13   2   6   39.90   32.80   1
 -13  -2  -6   33.30   34.10   1
 -13  -2   6   17.60   32.40   1
  13   2  -6   13.40   31.70   1
  13   2  -7  420.50  216.90   1
  13   3   0    1.80   29.30   1
 -13  -3   0   85.20   31.40   1
  13   3   1  163.80  111.50   1
 -13  -3  -1  322.50  113.40   1
 -13  -3   1  162.40  111.10   1
  13   3  -1  196.70  111.60   1
  13   3   2  292.80  205.60   1
 -13  -3  -2 1073.50  208.90   1
 -13  -3   2 1334.60  216.40   1
  13   3  -2  900.30  209.50   1
  13   3   3  327.00   83.40   1
 -13  -3  -3  324.10   83.20   1
 -13  -3   3   67.40   82.60   1
  13   3  -3   92.00   82.80   1
  13   3   4   25.30   33.10   1
 -13  -3  -4   40.30   33.30   1
 -13  -3   4   12.00   31.20   1
  13   3  -4   65.70   32.90   1
  13   3   5  221.20  106.70   1
 -13  -3  -5  212.10  106.50   1
 -13  -3   5  138.40  106.60   1
  13   3  -5  123.90  106.30   1
  13   3   6  368.60  169.80   1
 -13  -3  -6  341.80  169.10   1
 -13  -3   6  273.30  169.50   1
  13   3  -6  280.20  169.60   1
 -13  -3  -7   88.50   63.40   1
 -13  -3   7   79.70   63.10   1
  13   3  -7   73.50   62.90   1
 -13  -3   8  172.50  103.60   1
  13   3  -8  158.70  102.30   1
 -13  -3   9   17.00   35.70   1
  13   3  -9   68.80   38.10   1
  13   3 -10   35.00   43.10   1
  13   4   0 2932.90 1095.50   1
 -13  -4   0 2382.10 1093.10   1
  13   4   1   98.10   54.40   1
 -13  -4  -1   96.50   55.00   1
 -13  -4   1   15.40   54.50   1
  13   4  -1   83.10   54.70   1
  13   4   2 3450.20 1623.20   1
 -13  -4  -2 4667.10 1627.60   1
  13   4   3  164.50  109.70   1
 -13  -4  -3  191.20  109.80   1
 -13  -4   3  256.50  110.90   1
  13   4  -3  206.90  110.80   1
  13   4   4  404.30   64.00   1
 -13  -4  -4  375.50   63.30   1
 -13   4  -4  412.50   60.70   1
 -13  -4   4   31.70   59.40   1
  13   4  -4   81.50   60.00   1
  13   4   5   41.80   40.60   1
 -13  -4  -5   31.70   40.50   1
 -13   4  -5   40.10   38.60   1
  13  -4   5  228.30   39.90   1
 -13  -4   5   22.40   39.30   1
  13   4  -5   30.50   39.70   1
 -13   4  -6   58.50   35.40   1
  13  -4   6   69.30   35.60   1
 -13  -4   6   12.60   36.30   1
  13   4  -6   38.30   36.90   1
  13   4   7  164.90  125.00   1
 -13  -4  -7  285.70  126.30   1
 -13   4  -7  312.80  128.80   1
 -13  -4   7  216.90  125.80   1
  13   4  -7  250.60  126.20   1
 -13  -4   8   38.40   30.60   1
  13   4  -8   14.00   30.20   1
 -13  -4   9    5.40   20.20   1
  13   4  -9   11.00   21.20   1
 -13  -4  10   14.00   24.50   1
  13   4 -10    8.40   24.30   1
 -13  -4  11   -0.00   22.40   1
  13   4 -11   13.90   22.80   1
  13   4 -12   10.10   29.10   1
  13   5   0   73.90   79.20   1
 -13  -5   0  384.70   83.40   1
  13   5   1  205.90  136.70   1
 -13  -5  -1  342.40  137.10   1
 -13  -5   1  450.40  138.70   1
  13   5  -1  207.70  137.30   1
  13   5   2 1404.50  674.40   1
 -13  -5  -2 1351.60  675.20   1
 -13  -5   2 4978.40  707.60   1
  13   5  -2 2946.40  684.50   1
  13   5   3  168.70   61.70   1
 -13  -5  -3  136.00   61.70   1
 -13   5  -3  141.40   61.50   1
  13  -5   3  172.90   61.50   1
 -13  -5   3   45.70   61.90   1
  13   5  -3   18.60   61.90   1
  13   5   4  618.90  373.10   1
 -13  -5  -4  748.70  373.50   1
 -13   5  -4  948.90  373.70   1
  13  -5   4  991.00  373.10   1
 -13  -5   4 1022.00  376.20   1
  13   5  -4 1073.00  376.00   1
  13   5   5  316.10  190.60   1
 -13  -5  -5  642.20  192.40   1
 -13   5  -5  364.50  189.80   1
  13  -5   5  329.10  190.20   1
 -13  -5   5 1035.90  201.60   1
  13   5  -5  980.90  200.40   1
  13   5   6 5114.60 1805.00   1
 -13  -5  -6 3633.40 1797.30   1
 -13   5  -6 5346.30 1807.90   1
  13  -5   6 4223.50 1802.20   1
 -13  -5   6 4185.90 1820.10   1
  13   5  -6 4395.00 1817.30   1
  13   5   7   42.70   47.80   1
 -13  -5  -7   34.10   47.90   1
 -13   5  -7   40.60   43.70   1
  13  -5   7   68.40   43.80   1
 -13  -5   7   67.10   45.20   1
  13   5  -7   39.10   45.90   1
 -13  -5  -8  300.50  119.60   1
 -13   5  -8  321.30  118.80   1
  13  -5   8  164.90  116.20   1
 -13  -5   8  251.10  118.20   1
  13   5  -8  150.00  116.20   1
 -13   5  -9   29.70   35.70   1
 -13  -5   9   34.20   36.80   1
  13   5  -9   29.40   37.10   1
 -13  -5  10   52.90   56.50   1
  13   5 -10  130.60   59.30   1
 -13  -5  11    0.70   13.80   1
  13   5 -11   -0.00   15.00   1
 -13  -5  12  210.00  135.40   1
  13   5 -12  245.00  135.20   1
  13   6   0  352.80  187.00   1
 -13  -6   0  388.10  187.60   1
  13   6   1   36.70   55.70   1
 -13  -6  -1  112.40   56.90   1
 -13  -6   1  106.80   59.90   1
  13   6  -1   52.60   58.30   1
  13   6   2  454.60  263.70   1
 -13  -6  -2  844.80  265.10   1
  13  -6   2  507.40  265.60   1
 -13  -6   2  550.60  265.20   1
  13   6  -2  679.60  265.80   1
  13   6   3  410.70  181.80   1
 -13  -6  -3  272.10  181.30   1
 -13   6  -3  369.50  181.50   1
  13  -6   3  363.90  181.30   1
 -13  -6   3  826.00  188.30   1
  13   6  -3  486.20  184.50   1
  13   6   4  153.20   63.60   1
 -13  -6  -4  158.60   63.60   1
 -13   6  -4  251.40   61.70   1
  13  -6   4  158.70   60.60   1
 -13  -6   4   30.40   61.80   1
  13   6  -4   25.80   61.90   1
  13   6   5  324.90   86.00   1
 -13  -6  -5   85.50   84.50   1
 -13   6  -5  109.30   83.20   1
  13  -6   5  347.40   83.50   1
 -13  -6   5   81.00   83.60   1
  13   6  -5  161.80   84.80   1
  13   6   6   97.10   65.90   1
 -13  -6  -6  222.60   67.20   1
  13  -6   6   99.30   63.60   1
 -13  -6   6   45.10   64.30   1
  13   6  -6   78.20   64.80   1
  13   6   7  278.80  188.70   1
 -13  -6  -7  450.60  189.90   1
 -13   6  -7  360.50  187.70   1
  13  -6   7  403.00  187.80   1
 -13  -6   7  458.20  191.00   1
  13   6  -7  520.30  191.40   1
  13   6   8   10.40   22.70   1
 -13  -6  -8   -0.00   24.00   1
 -13   6  -8    8.20   17.10   1
  13  -6   8   10.90   16.80   1
 -13  -6   8    3.10   18.50   1
  13   6  -8   -0.00   20.20   1
 -13   6  -9    7.30   12.30   1
  13  -6   9   -0.00   12.00   1
 -13  -6   9   -0.00   15.00   1
  13   6  -9    6.50   16.10   1
 -13   6 -10    7.30   18.20   1
  13  -6  10    6.80   18.20   1
 -13  -6  10   10.60   19.90   1
  13   6 -10    7.50   21.00   1
 -13   6 -11  166.50   86.70   1
 -13  -6  11  104.40   84.40   1
  13   6 -11  136.40   85.60   1
 -13   6 -12   43.10   34.30   1
 -13  -6  12   14.50   32.80   1
  13   6 -12   50.60   34.90   1
  13   7   0   17.20   31.40   1
 -13  -7   0   31.70   32.40   1
  13   7   1 1047.20  309.90   1
 -13  -7  -1  620.30  305.60   1
 -13  -7   1  584.20  306.60   1
  13   7  -1  658.00  306.50   1
  13   7   2  137.30   99.10   1
 -13  -7  -2  345.70  100.10   1
 -13   7  -2  144.30   99.50   1
  13  -7   2  204.50  100.40   1
 -13  -7   2  154.30  101.20   1
  13   7  -2  135.80  101.40   1
  13   7   3   90.60   64.00   1
 -13  -7  -3   89.80   63.30   1
 -13   7  -3  104.60   63.00   1
  13  -7   3   73.70   62.60   1
 -13  -7   3   57.10   65.00   1
  13   7  -3   75.50   64.70   1
  13   7   4  658.80  285.80   1
 -13  -7  -4  497.40  285.00   1
 -13   7  -4  587.00  284.60   1
  13  -7   4  613.10  284.30   1
 -13  -7   4  794.20  288.50   1
  13   7  -4  692.70  287.70   1
  13   7   5  471.40   61.80   1
 -13  -7  -5  314.80   59.50   1
 -13   7  -5  134.70   53.60   1
  13  -7   5  283.60   57.80   1
 -13  -7   5   16.20   55.30   1
  13   7  -5   12.40   54.90   1
  13   7   6   69.00   65.60   1
 -13  -7  -6   86.50   65.30   1
 -13   7  -6  104.20   63.90   1
  13  -7   6  139.50   65.20   1
 -13  -7   6   48.90   64.60   1
  13   7  -6   82.00   65.40   1
  13   7   7  121.60   39.00   1
 -13  -7  -7   35.60   35.60   1
 -13   7  -7   35.20   31.20   1
  13  -7   7   14.60   31.60   1
 -13  -7   7   12.20   31.30   1
  13   7  -7   12.60   31.80   1
  13   7   8   41.80   38.80   1
 -13  -7  -8   84.90   42.10   1
 -13   7  -8   29.70   33.50   1
  13  -7   8  106.70   34.00   1
 -13  -7   8   -0.00   32.90   1
  13   7  -8   28.10   33.90   1
 -13  -7  -9   49.70   28.40   1
 -13   7  -9   16.30   21.90   1
  13  -7   9    6.80   21.00   1
 -13  -7   9   13.00   23.00   1
  13   7  -9    7.80   23.50   1
 -13   7 -10  538.10  103.80   1
  13  -7  10  159.20   88.10   1
 -13  -7  10  156.60   89.00   1
  13   7 -10   97.60   88.20   1
 -13   7 -11   34.10   22.70   1
  13  -7  11    4.80   21.30   1
 -13  -7  11   19.40   23.70   1
  13   7 -11   15.20   24.00   1
 -13   7 -12   46.00   23.40   1
  13  -7  12    7.90   21.60   1
 -13  -7  12    4.10   22.30   1
  13   7 -12   26.40   25.00   1
  13   8   0  284.90  156.80   1
 -13  -8   0  307.60  156.80   1
  13   8   1  267.50  179.10   1
 -13  -8  -1  359.90  181.40   1
  13  -8   1  597.10  182.10   1
 -13  -8   1  364.80  179.20   1
  13   8  -1  420.40  179.00   1
  13   8   2  234.60  127.30   1
 -13  -8  -2  279.10  127.40   1
 -13   8  -2  205.60  127.70   1
  13  -8   2  451.40  129.40   1
 -13  -8   2  225.20  130.60   1
  13   8  -2  152.80  129.30   1
  13   8   3 1041.50  508.10   1
 -13  -8  -3 1170.20  508.30   1
 -13   8  -3 1147.10  508.30   1
  13  -8   3 1143.20  508.30   1
 -13  -8   3 1267.10  510.30   1
  13   8  -3 1243.90  509.90   1
  13   8   4  283.00  144.00   1
 -13  -8  -4  231.30  143.80   1
 -13   8  -4  221.10  142.20   1
  13  -8   4  258.10  142.10   1
 -13  -8   4  413.30  146.40   1
  13   8  -4  324.30  144.80   1
  13   8   5  130.00   77.20   1
 -13  -8  -5  150.30   77.60   1
 -13   8  -5  170.90   74.40   1
  13  -8   5  556.80   78.00   1
 -13  -8   5   26.50   78.00   1
  13   8  -5   41.30   78.30   1
  13   8   6  224.10  110.40   1
 -13  -8  -6  141.60  109.80   1
 -13   8  -6  307.20  108.80   1
  13  -8   6  309.70  108.90   1
 -13  -8   6  165.20  109.70   1
  13   8  -6  110.00  109.60   1
  13   8   7  208.50   69.40   1
 -13  -8  -7  199.50   68.40   1
 -13   8  -7  431.00   70.30   1
  13  -8   7  118.30   64.90   1
 -13  -8   7   24.40   64.20   1
  13   8  -7  286.20   69.30   1
  13   8   8   35.60   32.60   1
 -13  -8  -8   48.10   31.90   1
 -13   8  -8   27.70   25.70   1
  13  -8   8    3.00   26.10   1
 -13  -8   8    9.10   25.20   1
  13   8  -8   -0.00   25.50   1
  13   8   9  157.90   70.00   1
 -13  -8  -9   63.10   68.40   1
 -13   8  -9   93.00   66.00   1
  13  -8   9  223.00   67.30   1
 -13  -8   9   68.00   65.80   1
  13   8  -9   75.00   66.20   1
 -13   8 -10   37.40   41.20   1
  13  -8  10   54.60   41.10   1
 -13  -8  10   30.80   41.80   1
  13   8 -10   44.00   42.70   1
 -13   8 -11   92.20   78.90   1
  13  -8  11  124.40   79.70   1
 -13  -8  11  142.60   81.20   1
  13   8 -11  153.40   82.20   1
 -13   8 -12   48.60   32.60   1
  13  -8  12   44.50   32.40   1
 -13  -8  12   20.00   32.70   1
  13   8 -12   15.10   33.20   1
  13   9   0   16.40   29.20   1
 -13  -9   0   13.20   29.00   1
  13   9   1  502.00  142.00   1
 -13  -9  -1  922.70  148.80   1
 -13   9  -1  175.70  140.00   1
  13  -9   1  177.20  140.80   1
 -13  -9   1  398.00  141.60   1
  13   9  -1  211.00  140.20   1
  13   9   2   37.30   47.60   1
 -13  -9  -2   46.40   47.60   1
 -13   9  -2   45.50   49.00   1
  13  -9   2   52.20   48.00   1
 -13  -9   2   50.30   53.90   1
  13   9  -2  195.40   56.30   1
  13   9   3 1518.00  673.10   1
 -13  -9  -3 1440.80  672.80   1
 -13   9  -3 1305.60  672.30   1
  13  -9   3 1402.30  673.10   1
 -13  -9   3 2868.00  683.00   1
  13   9  -3 2566.10  681.70   1
  13   9   4   48.90   53.70   1
 -13  -9  -4  158.00   55.90   1
 -13   9  -4  134.80   52.70   1
  13  -9   4   29.70   51.10   1
 -13  -9   4  199.30   57.10   1
  13   9  -4   32.50   53.40   1
  13   9   5  677.90  276.90   1
 -13  -9  -5  893.50  278.40   1
 -13   9  -5  654.30  274.70   1
  13  -9   5  474.90  274.00   1
  13   9   6   48.20   47.50   1
 -13  -9  -6   78.20   48.10   1
 -13   9  -6   16.10   45.10   1
  13  -9   6   72.80   45.10   1
 -13  -9   6   65.60   49.50   1
  13   9  -6   43.50   50.10   1
  13   9   7   72.00   48.80   1
 -13  -9  -7  139.80   49.90   1
 -13   9  -7   83.70   46.00   1
  13  -9   7  104.50   47.40   1
 -13  -9   7   -0.00   45.70   1
  13   9  -7   10.00   46.40   1
  13   9   8   -0.00   37.50   1
 -13  -9  -8   27.40   37.20   1
 -13   9  -8   82.10   35.60   1
  13  -9   8   13.80   32.50   1
 -13  -9   8   16.30   33.90   1
  13   9  -8   78.10   37.30   1
  13   9   9   46.70   35.10   1
 -13  -9  -9   80.90   40.20   1
 -13   9  -9   16.60   30.40   1
  13  -9   9    8.20   29.20   1
 -13  -9   9   15.70   28.60   1
  13   9  -9   18.20   30.00   1
 -13  -9 -10   16.30   32.20   1
 -13   9 -10   25.90   29.30   1
  13  -9  10   74.20   29.90   1
 -13  -9  10    9.20   28.60   1
  13   9 -10    8.30   29.60   1
 -13   9 -11   15.30   18.80   1
  13  -9  11    4.00   17.30   1
 -13  -9  11    2.70   19.30   1
  13   9 -11    9.00   20.90   1
  13  10   0  177.00   77.10   1
 -13 -10   0  242.70   76.00   1
  13 -10   0   47.80   72.30   1
  13  10   1   70.10   60.50   1
 -13 -10  -1  191.90   62.50   1
 -13  10  -1   92.80   62.90   1
  13 -10   1   42.50   62.00   1
 -13 -10   1   62.50   61.50   1
  13  10   2   76.60   60.50   1
 -13 -10  -2   56.10   59.90   1
 -13  10  -2  137.40   61.50   1
  13 -10   2   54.20   60.50   1
 -13 -10   2   85.80   64.20   1
  13  10  -2  100.40   62.50   1
  13  10   3 2291.60  304.50   1
 -13 -10  -3 1670.80  298.40   1
 -13  10  -3 1468.50  297.10   1
  13 -10   3 2229.50  308.50   1
 -13 -10   3 1412.90  300.70   1
  13  10  -3  341.70  291.80   1
  13  10   4  299.80  115.30   1
 -13 -10  -4  214.60  115.00   1
 -13  10  -4  242.00  113.50   1
  13 -10   4  278.70  113.20   1
 -13 -10   4  384.10  117.30   1
  13  10  -4   88.80  114.00   1
  13  10   5 1424.40  261.60   1
 -13 -10  -5  630.00  252.70   1
 -13  10  -5  439.60  249.90   1
  13 -10   5  507.00  249.90   1
 -13 -10   5  987.80  257.50   1
  13  10  -5  434.90  251.70   1
  13  10   6   50.90   55.40   1
 -13 -10  -6   67.60   56.30   1
 -13  10  -6  121.70   57.80   1
  13 -10   6   80.20   54.20   1
 -13 -10   6   15.80   58.70   1
  13  10  -6   48.60   57.70   1
  13  10   7  110.00   77.50   1
 -13 -10  -7  239.10   79.40   1
 -13  10  -7  106.60   74.90   1
 -13 -10   7   96.60   78.00   1
  13  10  -7   76.90   78.70   1
  13  10   8   71.00   45.20   1
 -13 -10  -8   41.30   43.90   1
 -13  10  -8    6.90   41.00   1
  13 -10   8   47.30   41.50   1
 -13 -10   8   47.80   42.00   1
  13  10  -8   31.60   42.50   1
  13  10   9   92.10   49.20   1
 -13 -10  -9   94.50   48.90   1
 -13  10  -9   33.40   41.10   1
  13 -10   9   21.10   40.60   1
 -13 -10   9   32.80   41.50   1
  13  10  -9  280.40   51.10   1
  13  10  10   11.50   26.60   1
 -13 -10 -10    5.70   26.40   1
 -13  10 -10   15.40   24.90   1
  13 -10  10    3.20   20.80   1
 -13 -10  10    8.60   20.80   1
  13  10 -10    6.50   22.30   1
 -13  10 -11  136.90   47.60   1
  13 -10  11   85.00   45.40   1
 -13 -10  11   21.00   44.40   1
  13  10 -11   49.10   45.60   1
  13  11   0   16.40   42.30   1
 -13 -11   0   39.40   39.50   1
  13 -11   0    8.40   34.80   1
 -13  11   0   29.90   34.20   1
  13  11   1  355.10  123.90   1
 -13 -11  -1  468.50  124.90   1
 -13  11  -1   75.90  123.60   1
  13 -11   1  413.60  126.50   1
 -13 -11   1  678.60  127.90   1
  13  11  -1  917.70  131.70   1
  13  11   2  170.20   89.40   1
 -13 -11  -2  187.80   89.40   1
 -13  11  -2  210.10   90.20   1
  13 -11   2  205.20   89.80   1
 -13 -11   2  150.40   90.60   1
  13  11  -2   66.20   89.10   1
  13  11   3  110.00   71.00   1
 -13 -11  -3   60.10   69.90   1
 -13  11  -3   92.70   70.00   1
  13 -11   3  125.60   70.50   1
 -13 -11   3  137.70   75.60   1
  13  11  -3   91.40   73.60   1
  13  11   4  101.40   90.70   1
 -13 -11  -4  133.30   90.50   1
 -13  11  -4  180.80   89.20   1
  13 -11   4  102.10   88.50   1
 -13 -11   4  266.30   95.40   1
  13  11  -4  218.50   94.20   1
  13  11   5   80.60   49.00   1
 -13 -11  -5   32.00   46.10   1
 -13  11  -5   31.60   42.90   1
  13 -11   5  110.60   43.30   1
 -13 -11   5   20.30   45.70   1
  13  11  -5   20.80   46.10   1
  13  11   6   39.10   71.90   1
 -13 -11  -6  119.30   73.10   1
 -13  11  -6  281.00   72.10   1
  13 -11   6  136.90   75.00   1
 -13 -11   6  114.70   74.20   1
  13  11  -6   82.70   73.00   1
  13  11   7    8.70   36.70   1
 -13 -11  -7   40.80   37.00   1
 -13  11  -7   22.40   33.60   1
  13 -11   7   43.90   33.40   1
 -13 -11   7   16.40   41.30   1
  13  11  -7   -0.00   39.30   1
  13  11   8   20.90   40.70   1
 -13 -11  -8   19.80   38.30   1
 -13  11  -8   40.40   35.70   1
  13 -11   8   28.20   36.60   1
 -13 -11   8    6.60   37.00   1
  13  11  -8   38.50   40.00   1
  13  11   9   41.00   47.00   1
 -13 -11  -9    0.50   44.20   1
 -13  11  -9  149.90   47.10   1
  13 -11   9   55.90   42.00   1
 -13 -11   9   41.70   42.80   1
  13  11  -9   23.10   44.00   1
  13  11  10   39.60   34.90   1
 -13 -11 -10   15.70   38.10   1
 -13  11 -10   16.80   29.60   1
  13 -11  10    0.00   29.90   1
 -13 -11  10   19.50   30.10   1
  13  11 -10   64.20   34.10   1
 -13 -11 -11   -0.00   22.30   1
  13 -11  11    7.10   16.10   1
 -13 -11  11    0.00   16.50   1
  13  11 -11   -0.00   17.60   1
  13  12   0 2519.70  557.90   1
 -13 -12   0 4348.50  589.70   1
  13 -12   0  772.10  549.10   1
 -13  12   0 1424.70  554.10   1
  13  12   1  369.40  155.90   1
 -13 -12  -1  238.90  155.30   1
  13 -12  -1  597.50  163.50   1
 -13  12  -1  423.80  158.20   1
  13 -12   1  522.30  158.40   1
 -13 -12   1  510.80  158.80   1
  13  12  -1  191.80  156.60   1
  13  12   2   91.00   73.00   1
 -13 -12  -2  126.00   73.30   1
 -13  12  -2  124.50   73.60   1
  13 -12   2  136.50   73.70   1
 -13 -12   2  100.80   73.50   1
  13  12  -2   67.80   73.00   1
  13  12   3  195.40  109.10   1
 -13 -12  -3  222.00  108.50   1
 -13  12  -3  182.70  108.00   1
  13 -12   3  192.40  108.30   1
 -13 -12   3  321.70  114.20   1
  13  12  -3  109.90  109.00   1
  13  12   4   20.60   50.70   1
 -13 -12  -4  102.40   52.50   1
 -13  12  -4  130.80   50.90   1
  13 -12   4   35.70   48.60   1
 -13 -12   4  231.20   62.20   1
  13  12  -4    5.90   52.90   1
  13  12   5  199.70  110.80   1
 -13 -12  -5  168.40  110.70   1
 -13  12  -5  223.60  108.90   1
  13 -12   5  272.00  109.10   1
 -13 -12   5  195.70  112.50   1
  13  12  -5  101.70  111.90   1
  13  12   6  358.20  166.60   1
 -13 -12  -6  321.60  166.50   1
 -13  12  -6  583.80  165.60   1
  13 -12   6  420.00  165.80   1
 -13 -12   6  174.20  165.50   1
  13  12  -6  355.70  167.20   1
  13  12   7   70.30   59.10   1
 -13 -12  -7   68.30   59.00   1
 -13  12  -7  165.40   58.50   1
  13 -12   7  170.20   57.60   1
 -13 -12   7   20.30   59.70   1
  13  12  -7   22.50   58.80   1
  13  12   8  170.40   60.70   1
 -13 -12  -8  119.30   58.30   1
 -13  12  -8  307.60   56.70   1
  13 -12   8  344.10   60.40   1
 -13 -12   8    4.40   57.50   1
  13  12  -8    2.30   57.00   1
  13  12   9   30.70   44.70   1
 -13 -12  -9   22.30   46.40   1
 -13  12  -9   91.70   45.60   1
  13 -12   9   48.00   43.80   1
 -13 -12   9   22.90   43.80   1
  13  12  -9   22.60   45.00   1
  13  12  10   10.40   32.90   1
 -13 -12 -10    6.00   36.80   1
 -13  12 -10   16.60   27.10   1
  13 -12  10    4.90   25.00   1
 -13 -12  10   16.10   28.60   1
  13  12 -10   21.60   30.00   1
  13  13   0  190.60   60.90   1
 -13 -13   0  246.80   67.80   1
  13 -13   0   14.40   59.30   1
 -13  13   0   37.30   59.80   1
  13  13   1  146.20   82.60   1
 -13 -13  -1  114.40   82.50   1
  13 -13  -1  138.60   85.70   1
 -13  13   1  135.70   84.20   1
 -13  13  -1  171.60   84.80   1
  13 -13   1   88.90   83.20   1
 -13 -13   1  131.20   85.10   1
  13  13  -1  104.10   84.70   1
  13  13   2  639.40  271.00   1
 -13 -13  -2  624.20  270.90   1
 -13  13  -2  624.60  271.30   1
  13 -13   2  584.10  271.10   1
 -13 -13   2  849.90  272.90   1
  13  13  -2  420.90  270.40   1
  13  13   3   65.90   61.90   1
 -13 -13  -3   60.20   60.70   1
 -13  13  -3   99.70   61.00   1
  13 -13   3   69.50   61.30   1
 -13 -13   3   57.00   63.00   1
  13  13  -3  108.10   61.60   1
  13  13   4  239.00  128.10   1
 -13 -13  -4  202.10  127.90   1
 -13  13  -4  318.80  127.50   1
  13 -13   4  179.80  126.40   1
 -13 -13   4  353.90  132.90   1
  13  13  -4  196.40  129.70   1
  13  13   5   45.90   60.70   1
 -13 -13  -5   55.20   61.10   1
 -13  13  -5   65.80   58.20   1
  13 -13   5  129.10   58.60   1
 -13 -13   5   72.20   65.40   1
  13  13  -5   70.80   65.10   1
  13  13   6  554.10  124.20   1
 -13 -13  -6  273.80  120.50   1
 -13  13  -6  179.90  116.90   1
  13 -13   6  191.10  117.40   1
 -13 -13   6  273.20  121.90   1
  13  13  -6  156.30  120.40   1
 -13 -13  -7   99.60   57.60   1
 -13  13  -7   36.90   56.50   1
  13 -13   7   71.70   54.70   1
 -13 -13   7   66.40   57.70   1
  13  13  -7   52.00   56.40   1
  13  13   8  300.50  139.90   1
 -13 -13  -8  222.70  139.20   1
 -13  13  -8  287.50  137.30   1
  13 -13   8  191.20  136.80   1
 -13 -13   8  291.60  142.60   1
  13  13  -8  384.10  142.70   1
  13  13   9    9.30   31.10   1
 -13 -13  -9   31.10   35.80   1
 -13  13  -9   14.10   27.10   1
  13 -13   9    6.90   29.00   1
 -13 -13   9   12.20   31.90   1
  13  13  -9   -0.00   34.20   1
  13  13  10  219.00  128.60   1
 -13 -13 -10  213.80  127.40   1
  13 -13  10  206.30  124.30   1
 -13 -13  10  295.10  127.90   1
  13  13 -10  189.80  126.80   1
  13  14   0  627.40  138.60   1
 -13 -14   0  779.10  142.10   1
  13 -14   0  633.80  143.10   1
 -13  14   0  120.40  135.80   1
  13  14   1   39.40   44.90   1
 -13 -14  -1   47.50   44.30   1
  13 -14  -1   31.60   49.00   1
 -13  14   1   37.60   47.50   1
 -13  14  -1   36.80   45.90   1
  13 -14   1   35.50   45.90   1
 -13 -14   1   43.40   48.10   1
  13  14  -1  116.90   55.30   1
  13  14   2   11.90   29.40   1
 -13 -14  -2   42.30   31.00   1
  13 -14  -2   12.80   31.50   1
 -13  14   2   -1.90   30.90   1
 -13  14  -2    0.00   28.70   1
  13 -14   2   13.80   29.30   1
 -13 -14   2   59.70   32.80   1
  13  14  -2   15.30   32.80   1
  13  14   3  235.90   61.70   1
 -13 -14  -3   73.30   58.30   1
 -13  14  -3   96.40   59.10   1
  13 -14   3  116.30   59.00   1
 -13 -14   3   60.30   57.70   1
  13  14  -3   27.70   56.70   1
  13  14   4   -0.00   49.80   1
 -13 -14  -4  115.90   53.00   1
 -13  14  -4  172.90   51.50   1
  13 -14   4   16.90   47.70   1
 -13 -14   4  281.70   62.40   1
  13  14  -4  269.60   57.40   1
  13  14   5  136.00   74.10   1
 -13 -14  -5   99.10   73.80   1
 -13  14  -5  115.60   70.60   1
  13 -14   5  134.20   70.50   1
 -13 -14   5  123.50   78.90   1
  13  14  -5   19.90   73.40   1
  13  14   6  340.80  123.10   1
 -13 -14  -6  252.80  122.20   1
 -13  14  -6  400.80  120.30   1
  13 -14   6  128.20  118.50   1
 -13 -14   6  529.80  129.30   1
  13  14  -6 1054.10  143.30   1
  13  14   7   52.30   46.90   1
 -13 -14  -7   38.00   45.20   1
 -13  14  -7   42.00   46.00   1
  13 -14   7   38.10   44.40   1
 -13 -14   7   48.80   47.60   1
  13  14  -7   28.90   47.20   1
  13  14   8   45.50   41.60   1
 -13 -14  -8   10.90   40.50   1
 -13  14  -8   33.90   37.70   1
  13 -14   8  143.60   39.00   1
 -13 -14   8    3.40   41.10   1
  13  14  -8   12.10   40.20   1
  13  14   9   16.20   41.90   1
 -13 -14  -9   20.20   42.00   1
  13 -14   9   32.70   38.40   1
 -13 -14   9   28.40   45.10   1
  13  14  -9   45.50   42.30   1
  13  15   0   24.60   34.90   1
 -13 -15   0   74.60   37.70   1
  13 -15   0    9.30   38.00   1
 -13  15   0    9.80   38.50   1
  13  15   1    4.10   30.70   1
 -13 -15  -1   28.00   31.00   1
  13 -15  -1   17.00   36.10   1
 -13  15   1   53.90   38.30   1
 -13  15  -1   15.30   32.70   1
  13 -15   1   30.20   33.70   1
 -13 -15   1   -0.00   41.20   1
  13  15  -1   37.70   44.00   1
  13  15   2   22.40   45.00   1
 -13 -15  -2   41.20   45.40   1
  13 -15  -2   73.40   49.20   1
 -13  15   2   20.50   45.50   1
 -13  15  -2  113.00   47.00   1
  13 -15   2   24.40   45.50   1
 -13 -15   2  199.60   51.50   1
  13  15  -2   43.40   47.10   1
  13  15   3   18.40   29.90   1
 -13 -15  -3   -0.20   27.90   1
  13 -15  -3   15.50   27.90   1
 -13  15  -3   19.70   26.50   1
  13 -15   3    5.70   27.10   1
 -13 -15   3    4.80   26.40   1
  13  15  -3   11.60   25.90   1
  13  15   4   24.30   48.20   1
 -13 -15  -4  251.80   55.20   1
  13 -15   4   30.90   45.40   1
 -13 -15   4   74.00   49.80   1
  13  15  -4   38.80   46.90   1
  13  15   5   15.30   36.50   1
 -13 -15  -5   -0.00   35.80   1
 -13  15  -5   13.70   31.60   1
  13 -15   5   21.30   32.10   1
 -13 -15   5  220.20   53.70   1
  13  15  -5   98.00   43.70   1
  13  15   6   65.30   57.30   1
 -13 -15  -6   50.20   57.70   1
 -13  15  -6   43.80   54.10   1
  13 -15   6   77.60   54.20   1
 -13 -15   6   95.90   64.00   1
  13  15  -6   80.30   61.70   1
  13  15   7    7.90   35.70   1
 -13 -15  -7    1.50   36.00   1
 -13  15  -7   30.90   33.50   1
  13 -15   7  113.80   44.30   1
 -13 -15   7   20.80   39.90   1
  13  15  -7   30.90   39.90   1
  13  15   8   78.40   66.90   1
 -13 -15  -8   57.00   65.90   1
  13 -15   8   91.40   64.00   1
 -13 -15   8  132.60   68.90   1
  13  15  -8   76.00   67.00   1
  13  16   0  128.90   92.60   1
 -13 -16   0  167.00   93.00   1
  13 -16   0  145.10   94.50   1
 -13  16   0  143.40   95.10   1
  13  16   1   30.50   48.00   1
 -13 -16  -1   46.30   48.00   1
  13 -16  -1   37.40   51.40   1
 -13  16   1   16.60   50.70   1
 -13  16  -1   46.10   50.10   1
  13 -16   1  116.60   51.90   1
 -13 -16   1  389.70   70.90   1
  13  16  -1  179.20   55.70   1
  13  16   2   24.00   43.60   1
 -13 -16  -2   34.40   44.20   1
  13 -16  -2   13.90   49.60   1
 -13  16   2   29.70   46.30   1
 -13  16  -2   49.50   45.00   1
  13 -16   2   52.90   45.40   1
 -13 -16   2   94.60   48.40   1
  13  16  -2   50.80   45.60   1
  13  16   3  207.50  131.40   1
 -13 -16  -3  326.90  131.30   1
  13 -16  -3  917.10  161.90   1
 -13  16   3  372.50  140.30   1
 -13  16  -3  240.90  130.90   1
  13 -16   3  271.80  131.60   1
 -13 -16   3  325.00  131.40   1
  13  16  -3  155.70  130.10   1
  13  16   4   25.60   48.60   1
 -13 -16  -4  137.40   52.30   1
 -13  16  -4  112.00   48.90   1
  13 -16   4   65.60   47.10   1
 -13 -16   4   34.60   46.80   1
  13  16  -4   16.00   45.10   1
  13  16   5   23.80   59.70   1
 -13 -16  -5   70.80   61.30   1
 -13  16  -5  144.80   58.80   1
  13 -16   5   82.20   57.40   1
 -13 -16   5   52.90   63.40   1
  13  16  -5   64.80   60.40   1
  13  16   6   38.10   44.80   1
 -13 -16  -6   33.50   44.60   1
 -13  16  -6   24.40   40.60   1
  13 -16   6   60.00   41.10   1
 -13 -16   6   73.40   53.70   1
  13  16  -6   15.30   47.30   1
  13  16   7   31.30   48.10   1
 -13 -16  -7   21.70   47.60   1
  13 -16   7   85.50   50.00   1
 -13 -16   7   43.10   52.60   1
  13  16  -7   92.60   55.70   1
  13  17   0  166.20   64.10   1
 -13 -17   0   39.10   62.60   1
  13 -17   0  193.20   67.00   1
 -13  17   0   75.00   66.00   1
  13  17   1  199.50   72.70   1
 -13 -17  -1  160.90   72.20   1
  13 -17  -1  210.90   77.60   1
 -13  17   1    8.20   71.50   1
 -13  17  -1  178.90   73.90   1
  13 -17   1  131.40   73.40   1
 -13 -17   1  309.30   83.60   1
  13  17  -1   79.60   71.90   1
  13  17   2   48.00   52.50   1
 -13 -17  -2   58.60   52.20   1
  13 -17  -2   52.10   57.30   1
 -13  17   2   39.70   56.20   1
 -13  17  -2  123.70   54.90   1
  13 -17   2   54.50   53.50   1
 -13 -17   2   34.70   53.50   1
  13  17  -2   91.80   59.40   1
  13  17   3  344.10  152.10   1
 -13 -17  -3  340.40  150.90   1
  13 -17  -3  141.40  150.70   1
 -13  17   3  136.40  150.30   1
 -13  17  -3  290.20  151.10   1
  13 -17   3  343.60  151.50   1
 -13 -17   3  535.60  153.30   1
  13  17  -3  372.90  152.00   1
  13  17   4   45.60   50.70   1
 -13 -17  -4  225.30   58.00   1
  13 -17  -4   75.80   52.80   1
 -13  17  -4  104.70   51.70   1
  13 -17   4   54.70   49.30   1
 -13 -17   4   39.60   48.00   1
  13  17  -4   20.00   47.30   1
  13  17   5   97.30   96.20   1
 -13 -17  -5  164.80   98.10   1
 -13  17  -5  153.10   94.20   1
  13 -17   5  169.10   94.30   1
 -13 -17   5  228.70   99.00   1
  13  17  -5  132.10   95.40   1
  13  17   6    7.90   37.70   1
 -13 -17  -6    3.00   40.20   1
  13 -17   6   94.60   36.50   1
 -13 -17   6   25.60   45.70   1
  13  17  -6   15.30   43.10   1
  13  18   0   -0.00   25.20   1
 -13 -18   0   14.00   26.40   1
  13 -18   0   14.30   29.00   1
 -13  18   0   26.80   30.20   1
  13  18   1   43.50   57.40   1
 -13 -18  -1   57.60   56.60   1
  13 -18  -1   79.40   59.80   1
 -13  18   1   38.80   59.80   1
 -13  18  -1  330.40   64.60   1
  13 -18   1   39.30   57.10   1
 -13 -18   1  236.60   64.20   1
  13  18  -1   98.50   58.10   1
  13  18   2   34.90   38.80   1
 -13 -18  -2   16.90   37.80   1
  13 -18  -2    2.30   42.80   1
  13 -18   2   39.90   39.40   1
 -13 -18   2   42.50   43.90   1
  13  18  -2   54.80   48.30   1
  13  18   3  262.70  111.30   1
 -13 -18  -3  193.90  110.40   1
  13 -18  -3  200.90  114.00   1
  13 -18   3  138.10  109.70   1
 -13 -18   3  240.20  110.80   1
  13  18  -3  139.70  109.70   1
  13  18   4   52.00   47.20   1
 -13 -18  -4  178.80   53.10   1
  13 -18  -4   20.30   46.60   1
  13 -18   4   43.60   44.30   1
 -13 -18   4   42.50   43.90   1
  13  18  -4   17.50   43.60   1
  13  18   5   23.70   40.70   1
 -13 -18  -5   24.10   42.30   1
  13 -18   5   35.90   37.10   1
 -13 -18   5   28.60   38.60   1
  13  18  -5   21.90   36.60   1
  13  19   0   -0.00   19.30   1
 -13 -19   0    7.20   19.50   1
  13 -19   0   -0.00   22.30   1
  13  19   1   47.30   58.90   1
 -13 -19  -1   67.30   59.10   1
  13 -19  -1   38.70   60.50   1
  13 -19   1   57.70   60.40   1
 -13 -19   1  198.40   63.40   1
  13  19  -1  127.50   60.00   1
  13  19   2   35.70   35.30   1
 -13 -19  -2    9.90   34.90   1
  13 -19  -2   10.60   40.30   1
  13 -19   2   80.60   39.60   1
 -13 -19   2    6.80   43.90   1
  13  19  -2   15.70   42.40   1
  13  19   3   21.90   41.10   1
 -13 -19  -3   18.50   39.20   1
  13 -19  -3   34.50   47.20   1
  13 -19   3   44.70   41.50   1
 -13 -19   3   35.50   40.10   1
  13  19  -3   22.60   38.70   1
  14   0   0  262.30  135.40   1
 -14   0   0  233.40  135.10   1
  14   0   1   45.10   41.10   1
 -14   0  -1   30.10   40.80   1
  14   0  -1   51.30   41.40   1
 -14   0   1   90.10   42.10   1
  14   0   2   41.70   32.00   1
 -14   0  -2   48.50   33.20   1
  14   0  -2   11.50   32.10   1
 -14   0   2    8.80   32.80   1
  14   0   3   90.70   69.70   1
 -14   0  -3  110.70   70.00   1
  14   0   4   22.60   33.30   1
 -14   0  -4   31.00   32.80   1
  14   0   5 1743.00  704.30   1
 -14   0  -5 1561.10  702.60   1
  14   1   0  135.60   90.80   1
 -14  -1   0  153.10   90.80   1
  14  -1   0  156.50   91.70   1
  14   1   1   34.10   33.00   1
 -14  -1  -1   21.90   32.50   1
 -14   1  -1   21.30   30.80   1
  14  -1   1   21.20   30.70   1
 -14  -1   1   29.30   31.30   1
  14   1  -1   27.80   31.40   1
  14   1   2   27.80   59.00   1
 -14  -1  -2  184.00   60.40   1
 -14   1  -2  116.60   58.10   1
  14  -1   2  156.20   58.40   1
 -14  -1   2   72.50   58.40   1
  14   1  -2   97.50   58.70   1
  14   1   3   46.90   44.30   1
 -14  -1  -3  141.30   42.20   1
 -14   1  -3   40.40   40.30   1
  14  -1   3   29.50   41.10   1
 -14  -1   3   49.40   41.50   1
  14   1  -3   21.10   40.90   1
  14   1   4  110.80   71.60   1
 -14  -1  -4   74.00   71.20   1
 -14   1  -4  113.80   70.90   1
  14  -1   4  146.90   71.20   1
 -14  -1   4  134.30   74.20   1
  14   1  -4   89.20   72.50   1
  14   1   5   78.00   46.40   1
 -14  -1  -5   39.30   45.80   1
 -14   1  -5   48.80   45.90   1
  14   1  -5   32.50   47.40   1
 -14  -1  -6   90.70   67.70   1
  14   2   0   40.20   47.60   1
 -14  -2   0   64.20   47.70   1
  14   2   1   53.00   66.70   1
 -14  -2  -1  195.60   67.80   1
 -14  -2   1  122.40   66.80   1
  14   2  -1  375.60   69.60   1
  14   2   2   55.60   35.50   1
 -14  -2  -2   95.20   37.40   1
 -14  -2   2   27.00   34.50   1
  14   2  -2    8.50   34.20   1
  14   2   3   91.20   51.80   1
 -14  -2  -3  194.70   55.80   1
 -14  -2   3   21.70   51.90   1
  14   2  -3   97.20   53.00   1
  14   2   4   14.20   23.70   1
 -14  -2  -4   12.50   22.80   1
 -14  -2   4   10.60   22.40   1
  14   2  -4   11.80   22.90   1
  14   2   5  146.00   40.60   1
 -14  -2  -5   75.70   40.10   1
 -14  -2   5   17.20   39.40   1
  14   2  -5   12.60   39.30   1
  14   2   6  115.50   78.60   1
 -14  -2  -6  102.40   78.10   1
 -14  -2   6  144.10   80.00   1
  14   2  -6  145.60   79.40   1
  14   2  -7  352.10  186.90   1
  14   3   0  987.90  470.70   1
 -14  -3   0 1156.90  471.40   1
  14   3   1   14.10   37.20   1
 -14  -3  -1   61.70   40.40   1
 -14  -3   1   53.70   36.60   1
  14   3  -1   18.50   36.20   1
  14   3   2   84.80   53.70   1
 -14  -3  -2   44.20   53.20   1
 -14  -3   2   51.10   53.10   1
  14   3  -2  254.10   55.80   1
  14   3   3   27.10   22.30   1
 -14  -3  -3   13.20   22.00   1
 -14  -3   3    3.60   22.20   1
  14   3  -3    4.90   22.20   1
  14   3   4   30.40   32.00   1
 -14  -3  -4   23.30   31.10   1
 -14  -3   4   12.70   30.10   1
  14   3  -4   77.10   32.80   1
  14   3   5  183.40   83.80   1
 -14  -3  -5  169.00   84.00   1
 -14  -3   5  113.70   83.70   1
  14   3  -5   71.40   83.30   1
  14   3   6  634.90  287.20   1
 -14  -3  -6  705.80  287.10   1
 -14  -3   6  608.20  290.70   1
  14   3  -6  431.70  287.70   1
  14   3   7   16.40   21.90   1
 -14  -3  -7    6.60   22.70   1
 -14  -3   7    6.00   20.40   1
  14   3  -7    6.70   20.90   1
 -14  -3   8   -0.00   18.60   1
  14   3  -8   13.30   19.30   1
 -14  -3   9   31.00   28.20   1
  14   3  -9    7.20   25.70   1
  14   3 -10    9.80   28.40   1
  14   4   0    3.00   31.30   1
 -14  -4   0   33.90   30.80   1
  14   4   1   45.60   37.30   1
 -14  -4  -1   46.80   39.10   1
 -14  -4   1   26.40   38.20   1
  14   4  -1   13.10   36.20   1
  14   4   2    0.00   24.00   1
 -14  -4  -2   37.80   24.80   1
 -14  -4   2    8.90   22.90   1
  14   4  -2    3.50   23.60   1
  14   4   3   68.20   42.30   1
 -14  -4  -3   22.70   42.00   1
 -14  -4   3   80.60   43.50   1
  14   4  -3   40.70   43.20   1
  14   4   4   31.80   24.30   1
 -14  -4  -4   14.70   23.10   1
 -14  -4   4    3.00   21.60   1
  14   4  -4    6.30   22.20   1
  14   4   5   70.40   67.90   1
 -14  -4  -5   96.60   68.60   1
 -14   4  -5  234.60   67.40   1
 -14  -4   5   79.80   67.80   1
  14   4  -5   75.00   67.80   1
  14   4   6  108.70   39.70   1
 -14  -4  -6   63.20   38.40   1
 -14   4  -6   28.50   34.00   1
  14  -4   6   28.80   34.00   1
 -14  -4   6   20.10   35.50   1
  14   4  -6   14.50   35.60   1
  14   4   7  104.20   53.20   1
 -14  -4  -7   57.90   53.70   1
 -14   4  -7   53.10   49.70   1
 -14  -4   7   40.00   50.40   1
  14   4  -7   55.50   51.10   1
 -14  -4  -8   21.40   22.30   1
 -14  -4   8    8.60   19.90   1
  14   4  -8   -0.00   21.20   1
 -14  -4   9    6.40   24.90   1
  14   4  -9   39.00   26.40   1
 -14  -4  10   16.20   27.40   1
  14   4 -10   14.50   27.80   1
 -14  -4  11    8.90   28.40   1
  14   4 -11   23.40   29.00   1
  14   4 -12    9.00   28.50   1
  14   5   0   90.40   86.00   1
 -14  -5   0  260.40   88.90   1
  14   5   1   26.60   30.20   1
 -14  -5  -1   17.30   30.10   1
 -14  -5   1   68.10   33.00   1
  14   5  -1   -0.30   30.80   1
  14   5   2  353.10  171.50   1
 -14  -5  -2  220.10  171.20   1
 -14  -5   2  582.10  174.40   1
  14   5  -2  641.80  173.80   1
  14   5   3   95.70   64.10   1
 -14  -5  -3   92.80   63.90   1
  14  -5   3  203.90   64.70   1
 -14  -5   3   66.10   65.00   1
  14   5  -3   61.90   64.80   1
  14   5   4  296.10  217.00   1
 -14  -5  -4  534.90  217.80   1
 -14   5  -4  567.80  217.20   1
  14  -5   4  519.20  217.00   1
 -14  -5   4  463.60  218.50   1
  14   5  -4  777.80  221.00   1
  14   5   5  605.80  309.90   1
 -14  -5  -5  701.40  310.50   1
 -14   5  -5  993.40  310.20   1
  14  -5   5  650.90  309.00   1
 -14  -5   5  528.60  310.50   1
  14   5  -5  585.90  311.00   1
  14   5   6  543.70  297.80   1
 -14  -5  -6  508.10  297.40   1
 -14   5  -6 1328.90  303.20   1
  14  -5   6 1110.60  301.70   1
 -14  -5   6  927.40  306.90   1
  14   5  -6 1005.50  306.60   1
  14   5   7  114.00   91.30   1
 -14  -5  -7  148.00   91.60   1
 -14   5  -7  117.80   89.00   1
  14  -5   7  193.70   90.30   1
 -14  -5   7  405.80   97.80   1
  14   5  -7  345.80   96.10   1
  14   5   8   25.60   39.40   1
 -14  -5  -8   30.80   39.80   1
 -14   5  -8   36.20   36.90   1
  14  -5   8   39.20   37.20   1
 -14  -5   8   36.10   38.60   1
  14   5  -8   37.70   38.30   1
 -14   5  -9   41.80   50.20   1
 -14  -5   9   82.40   51.80   1
  14   5  -9   64.70   51.80   1
 -14  -5  10   28.30   37.10   1
  14   5 -10   35.00   37.90   1
 -14  -5  11   28.00   36.50   1
  14   5 -11   30.70   36.80   1
 -14  -5  12   75.70   62.60   1
  14   5 -12   72.10   62.00   1
  14   6   0   48.80   48.00   1
 -14  -6   0   45.50   49.70   1
  14   6   1   17.20   36.10   1
 -14  -6  -1   30.50   36.10   1
 -14  -6   1   48.70   39.90   1
  14   6  -1   32.50   39.70   1
  14   6   2   62.30   62.70   1
 -14  -6  -2  116.20   66.70   1
 -14  -6   2   81.10   63.90   1
  14   6  -2  103.50   64.50   1
  14   6   3   30.00   40.40   1
 -14  -6  -3   75.00   40.70   1
 -14   6  -3   21.20   40.40   1
  14  -6   3   30.30   40.10   1
 -14  -6   3   37.20   45.00   1
  14   6  -3   96.60   46.80   1
  14   6   4   18.40   33.60   1
 -14  -6  -4   26.90   33.80   1
 -14   6  -4   27.40   31.30   1
  14  -6   4   26.40   31.50   1
 -14  -6   4   33.30   34.70   1
  14   6  -4    8.30   33.90   1
  14   6   5   82.80   55.20   1
 -14  -6  -5   52.70   55.20   1
 -14   6  -5   45.30   52.10   1
  14  -6   5   74.40   53.10   1
 -14  -6   5  121.60   55.00   1
  14   6  -5  225.50   57.10   1
  14   6   6   48.20   41.80   1
 -14  -6  -6   45.50   41.40   1
 -14   6  -6   40.50   40.40   1
  14  -6   6   43.10   38.80   1
 -14  -6   6   17.80   39.30   1
  14   6  -6   34.30   40.40   1
  14   6   7  106.50   78.70   1
 -14  -6  -7  153.70   79.60   1
 -14   6  -7  488.00   82.80   1
  14  -6   7  113.60   76.30   1
 -14  -6   7   75.20   76.80   1
  14   6  -7   92.10   77.30   1
  14   6   8   34.30   38.40   1
 -14  -6  -8   40.20   41.50   1
 -14   6  -8   31.30   34.80   1
  14  -6   8   39.70   34.70   1
 -14  -6   8   16.60   35.40   1
  14   6  -8   45.90   37.30   1
 -14  -6  -9   66.60   42.40   1
 -14   6  -9   61.40   38.00   1
  14  -6   9   46.20   37.60   1
 -14  -6   9   15.40   38.30   1
  14   6  -9   68.90   40.00   1
 -14   6 -10    7.10   18.20   1
  14  -6  10    9.90   18.50   1
 -14  -6  10    8.10   19.80   1
  14   6 -10    6.90   20.50   1
 -14   6 -11    8.90   26.30   1
 -14  -6  11   35.10   28.30   1
  14   6 -11   36.10   29.30   1
 -14   6 -12   -0.00   18.80   1
 -14  -6  12   17.30   20.60   1
  14   6 -12    8.10   21.20   1
  14   7   0  128.30   96.60   1
 -14  -7   0  212.70   97.40   1
  14   7   1   -0.00   29.20   1
 -14  -7  -1   30.40   29.30   1
 -14  -7   1   17.90   34.50   1
  14   7  -1   15.40   32.10   1
  14   7   2   26.40   45.40   1
 -14  -7  -2  127.20   47.40   1
  14  -7   2   57.10   45.70   1
 -14  -7   2   59.70   49.10   1
  14   7  -2   29.50   47.40   1
  14   7   3  106.90   62.50   1
 -14  -7  -3  116.40   62.30   1
 -14   7  -3   89.20   62.10   1
  14  -7   3   60.30   61.50   1
 -14  -7   3   90.10   64.70   1
  14   7  -3   44.20   63.10   1
  14   7   4   66.80   59.20   1
 -14  -7  -4   65.00   59.00   1
 -14   7  -4   92.40   57.50   1
  14  -7   4   49.20   57.10   1
 -14  -7   4  232.20   64.80   1
  14   7  -4   94.70   62.20   1
  14   7   5   30.80   45.50   1
 -14  -7  -5   23.50   45.60   1
 -14   7  -5   58.10   42.50   1
  14  -7   5   45.10   42.90   1
 -14  -7   5   39.40   45.80   1
  14   7  -5   39.30   46.10   1
  14   7   6   75.80   60.30   1
 -14  -7  -6   57.90   60.10   1
 -14   7  -6   63.60   57.70   1
  14  -7   6  139.10   59.60   1
 -14  -7   6   65.00   59.30   1
  14   7  -6   74.70   60.30   1
  14   7   7   49.80   37.00   1
 -14  -7  -7   28.70   34.20   1
 -14   7  -7   17.10   30.30   1
  14  -7   7   15.60   30.20   1
 -14  -7   7   22.60   31.30   1
  14   7  -7   27.30   31.70   1
  14   7   8   24.30   37.30   1
 -14  -7  -8  102.30   39.60   1
 -14   7  -8   26.80   32.70   1
  14  -7   8   53.70   31.70   1
 -14  -7   8    9.60   31.70   1
  14   7  -8   10.90   32.20   1
  14   7   9   17.60   28.30   1
 -14  -7  -9    8.50   29.50   1
 -14   7  -9   14.30   23.50   1
  14  -7   9   13.40   22.90   1
 -14  -7   9   12.50   24.60   1
  14   7  -9   14.80   25.10   1
 -14   7 -10   37.00   33.30   1
  14  -7  10   16.70   32.40   1
 -14  -7  10   44.60   34.70   1
  14   7 -10   93.70   37.90   1
 -14   7 -11   15.60   25.30   1
  14  -7  11   13.90   24.90   1
 -14  -7  11   17.50   27.00   1
  14   7 -11   17.30   26.90   1
  14   8   0   43.10   39.20   1
 -14  -8   0   24.20   39.50   1
  14   8   1    4.60   43.00   1
 -14  -8  -1    9.70   37.40   1
 -14  -8   1   49.40   40.90   1
  14   8  -1   71.40   41.20   1
  14   8   2  318.70  145.90   1
 -14  -8  -2  193.80  145.60   1
 -14   8  -2  330.50  147.00   1
  14  -8   2  256.50  146.60   1
 -14  -8   2  522.20  151.20   1
  14   8  -2  405.70  150.00   1
  14   8   3 1038.30  361.00   1
 -14  -8  -3 1121.00  361.20   1
 -14   8  -3 1004.40  361.40   1
  14  -8   3  507.80  359.00   1
 -14  -8   3 1469.00  367.00   1
  14   8  -3  837.30  361.60   1
  14   8   4   12.10   26.10   1
 -14  -8  -4    0.00   25.70   1
 -14   8  -4   13.60   23.50   1
  14  -8   4   12.40   23.10   1
 -14  -8   4   -0.00   30.40   1
  14   8  -4   31.60   28.30   1
  14   8   5  324.00  243.90   1
 -14  -8  -5  683.00  246.20   1
 -14   8  -5  454.20  243.00   1
  14  -8   5  682.40  243.50   1
 -14  -8   5  960.20  250.90   1
  14   8  -5  864.30  250.60   1
  14   8   6  101.30   58.00   1
 -14  -8  -6   54.50   58.00   1
 -14   8  -6   67.80   56.10   1
  14  -8   6   65.00   55.50   1
 -14  -8   6   46.80   57.90   1
  14   8  -6  104.80   59.10   1
  14   8   7   42.40   45.80   1
 -14  -8  -7   64.70   46.10   1
 -14   8  -7   62.20   44.40   1
  14  -8   7   20.90   42.70   1
 -14  -8   7   30.00   43.50   1
  14   8  -7   67.40   44.90   1
  14   8   8   -0.00   26.30   1
 -14  -8  -8   16.00   27.80   1
 -14   8  -8   29.80   22.20   1
  14  -8   8    8.70   22.80   1
 -14  -8   8    0.40   21.30   1
  14   8  -8    7.30   22.60   1
  14   8   9  258.00  129.70   1
 -14  -8  -9  249.50  130.30   1
 -14   8  -9  229.90  126.90   1
  14  -8   9  430.30  129.30   1
 -14  -8   9  141.20  126.50   1
  14   8  -9  238.90  128.20   1
 -14  -8 -10   33.30   33.90   1
 -14   8 -10   19.70   28.90   1
  14  -8  10   25.20   28.50   1
 -14  -8  10   13.80   30.10   1
  14   8 -10   18.50   30.10   1
 -14   8 -11  110.60   77.30   1
  14  -8  11  143.50   78.30   1
 -14  -8  11   82.70   77.50   1
  14   8 -11  226.10   83.60   1
  14   9   0   15.30   34.80   1
 -14  -9   0   27.40   33.80   1
  14   9   1   45.80   47.40   1
 -14  -9  -1   91.10   52.40   1
  14  -9   1   30.20   43.90   1
 -14  -9   1   63.50   46.10   1
  14   9  -1   28.30   44.10   1
  14   9   2   20.60   34.60   1
 -14  -9  -2   25.50   34.40   1
 -14   9  -2   38.80   36.50   1
  14  -9   2   31.50   35.80   1
 -14  -9   2   38.70   43.40   1
  14   9  -2   21.50   39.90   1
  14   9   3   32.50   40.60   1
 -14  -9  -3   41.70   40.30   1
 -14   9  -3   33.10   39.30   1
  14  -9   3   80.20   39.70   1
 -14  -9   3    4.10   43.60   1
  14   9  -3    5.50   43.40   1
  14   9   4   40.10   46.50   1
 -14  -9  -4   57.40   47.10   1
 -14   9  -4   46.80   45.00   1
  14  -9   4   47.70   45.20   1
 -14  -9   4   57.90   48.20   1
  14   9  -4   28.30   46.40   1
  14   9   5   11.10   32.80   1
 -14  -9  -5   39.60   33.90   1
 -14   9  -5   22.60   28.50   1
  14  -9   5   16.50   28.20   1
 -14  -9   5   12.60   37.00   1
  14   9  -5    9.20   35.40   1
  14   9   6   38.60   33.30   1
 -14  -9  -6    8.60   32.60   1
 -14   9  -6    0.10   32.90   1
  14  -9   6   29.50   29.60   1
 -14  -9   6   14.70   33.60   1
  14   9  -6   21.30   36.90   1
  14   9   7    9.00   29.50   1
 -14  -9  -7   11.20   29.40   1
 -14   9  -7   30.10   25.80   1
  14  -9   7    7.10   27.70   1
 -14  -9   7   15.90   28.80   1
  14   9  -7    5.40   29.00   1
  14   9   8  102.50   40.70   1
 -14  -9  -8   33.40   37.90   1
 -14   9  -8   34.90   34.10   1
  14  -9   8   10.50   30.90   1
 -14  -9   8   11.90   32.20   1
  14   9  -8   45.70   34.50   1
  14   9   9    9.90   26.80   1
 -14  -9  -9   11.40   28.20   1
 -14   9  -9    7.10   20.00   1
  14  -9   9   -0.00   19.10   1
 -14  -9   9    6.10   18.90   1
  14   9  -9    6.70   20.00   1
  14   9  10    6.50   27.40   1
 -14  -9 -10   30.10   28.40   1
 -14   9 -10   -0.00   23.50   1
  14  -9  10   71.30   24.60   1
 -14  -9  10    8.00   22.80   1
  14   9 -10    5.40   24.20   1
 -14   9 -11    6.40   17.80   1
  14  -9  11    4.80   16.50   1
 -14  -9  11    8.90   19.40   1
  14   9 -11    6.90   20.30   1
  14  10   0   26.30   48.10   1
 -14 -10   0   98.20   50.60   1
  14  10   1   63.40   44.70   1
 -14 -10  -1  360.10   57.40   1
 -14  10  -1   46.80   43.80   1
  14 -10   1   34.30   45.00   1
 -14 -10   1   38.40   43.50   1
  14  10  -1   14.80   42.50   1
  14  10   2   38.50   49.50   1
 -14 -10  -2   52.90   50.00   1
 -14  10  -2   69.40   51.50   1
  14 -10   2   50.60   50.30   1
 -14 -10   2   77.10   56.20   1
  14  10  -2   71.50   53.40   1
  14  10   3  191.50  107.10   1
 -14 -10  -3  167.20  106.80   1
 -14  10  -3  310.80  107.40   1
  14 -10   3  241.70  106.90   1
 -14 -10   3  161.80  111.30   1
  14  10  -3  102.80  110.10   1
  14  10   4   30.50   38.70   1
 -14 -10  -4   13.40   37.90   1
 -14  10  -4   46.00   37.40   1
  14 -10   4   22.60   36.10   1
 -14 -10   4   44.40   40.30   1
  14  10  -4   33.20   39.90   1
  14  10   5  423.20  222.80   1
 -14 -10  -5  415.10  223.00   1
 -14  10  -5  452.50  221.20   1
  14 -10   5  399.30  221.00   1
 -14 -10   5  761.20  227.20   1
  14  10  -5  601.00  225.00   1
  14  10   6  159.20   89.50   1
 -14 -10  -6  126.10   89.80   1
 -14  10  -6   96.90   86.80   1
  14 -10   6  220.20   90.60   1
 -14 -10   6  269.40   94.50   1
  14  10  -6  201.10   93.10   1
  14  10   7   52.00   36.40   1
 -14 -10  -7   23.90   35.70   1
 -14  10  -7   17.70   31.70   1
  14 -10   7   38.20   32.60   1
 -14 -10   7    3.50   36.40   1
  14  10  -7   11.60   37.10   1
  14  10   8   37.20   46.40   1
 -14 -10  -8   42.00   44.90   1
 -14  10  -8   32.90   43.00   1
  14 -10   8  112.80   44.50   1
 -14 -10   8   22.90   42.40   1
  14  10  -8   29.90   43.10   1
  14  10   9   23.60   38.80   1
 -14 -10  -9    2.60   38.90   1
 -14  10  -9   21.30   34.70   1
  14 -10   9   27.80   34.20   1
 -14 -10   9   43.40   35.80   1
  14  10  -9   46.20   37.00   1
  14  10  10   12.90   28.60   1
 -14 -10 -10   -0.00   32.90   1
 -14  10 -10   51.10   29.00   1
  14 -10  10    3.60   25.00   1
 -14 -10  10   12.60   25.10   1
  14  10 -10   15.10   26.50   1
  14  11   0    6.20   37.70   1
 -14 -11   0   11.50   33.80   1
  14 -11   0   20.20   32.00   1
 -14  11   0   54.40   33.20   1
  14  11   1   16.90   42.80   1
 -14 -11  -1   35.30   44.90   1
 -14  11  -1   49.60   46.70   1
  14 -11   1   40.60   45.60   1
 -14 -11   1   65.80   44.70   1
  14  11  -1   69.80   45.20   1
  14  11   2   14.80   31.90   1
 -14 -11  -2    6.10   31.10   1
 -14  11  -2   86.30   35.60   1
  14 -11   2   18.20   32.70   1
 -14 -11   2   45.60   37.50   1
  14  11  -2   31.50   33.80   1
  14  11   3    9.30   34.20   1
 -14 -11  -3   23.10   34.80   1
 -14  11  -3   27.20   33.80   1
  14 -11   3   41.50   35.00   1
 -14 -11   3   37.40   41.80   1
  14  11  -3   20.20   41.00   1
  14  11   4   31.90   40.10   1
 -14 -11  -4   15.10   39.20   1
 -14  11  -4   30.40   37.70   1
  14 -11   4   36.90   38.10   1
 -14 -11   4   71.60   45.20   1
  14  11  -4   21.20   44.40   1
  14  11   5   33.10   28.70   1
 -14 -11  -5   -0.00   27.80   1
 -14  11  -5    7.50   21.90   1
  14 -11   5   14.90   21.90   1
 -14 -11   5   -0.00   28.60   1
  14  11  -5   -0.10   27.40   1
  14  11   6  206.50   50.90   1
 -14 -11  -6   19.40   47.00   1
 -14  11  -6  109.50   43.80   1
  14 -11   6   40.10   45.30   1
 -14 -11   6    8.80   47.60   1
  14  11  -6   18.60   46.50   1
  14  11   7   64.60   40.20   1
 -14 -11  -7   50.00   38.80   1
 -14  11  -7   26.20   34.80   1
  14 -11   7   12.10   33.60   1
 -14 -11   7   47.90   42.80   1
  14  11  -7   33.40   42.00   1
  14  11   8   16.70   38.60   1
 -14 -11  -8   20.10   37.50   1
 -14  11  -8   21.40   33.20   1
  14 -11   8   18.20   35.50   1
 -14 -11   8   44.20   37.60   1
  14  11  -8   52.50   39.60   1
  14  11   9    3.30   32.10   1
 -14 -11  -9    8.50   33.70   1
 -14  11  -9   33.30   32.60   1
  14 -11   9   14.20   28.40   1
 -14 -11   9   23.40   30.50   1
  14  11  -9   16.20   31.60   1
  14  11  10   46.50   31.20   1
 -14 -11 -10    5.10   34.80   1
 -14  11 -10   10.00   24.20   1
  14 -11  10   -0.10   24.70   1
 -14 -11  10   -0.00   24.30   1
  14  11 -10   71.60   29.90   1
  14  12   0   65.90   56.40   1
 -14 -12   0   33.20   55.30   1
  14 -12   0   61.00   53.80   1
 -14  12   0   50.20   50.60   1
  14  12   1   15.40   48.90   1
 -14 -12  -1   54.00   50.20   1
 -14  12  -1   43.40   51.70   1
  14 -12   1  119.30   53.90   1
 -14 -12   1  184.30   54.80   1
  14  12  -1  103.70   52.50   1
  14  12   2   22.70   38.20   1
 -14 -12  -2   64.80   39.00   1
 -14  12  -2   38.10   39.50   1
  14 -12   2   51.30   39.50   1
 -14 -12   2   25.40   38.90   1
  14  12  -2   10.00   38.30   1
  14  12   3  177.50  113.80   1
 -14 -12  -3  225.90  114.10   1
 -14  12  -3  124.80  113.00   1
  14 -12   3  201.80  113.80   1
 -14 -12   3  501.90  122.70   1
  14  12  -3  446.70  119.00   1
  14  12   4   -0.00   23.80   1
 -14 -12  -4   -0.00   21.70   1
 -14  12  -4   -0.10   19.40   1
  14 -12   4   13.10   20.00   1
 -14 -12   4   11.30   31.00   1
  14  12  -4    4.80   30.60   1
  14  12   5  185.40   94.60   1
 -14 -12  -5  102.90   93.90   1
 -14  12  -5  171.50   91.30   1
  14 -12   5  183.60   91.50   1
 -14 -12   5  150.30   94.90   1
  14  12  -5   97.50   94.10   1
  14  12   6   14.70   36.30   1
 -14 -12  -6    6.20   36.00   1
 -14  12  -6   40.70   31.90   1
  14 -12   6   20.00   31.90   1
 -14 -12   6   21.70   38.10   1
  14  12  -6   22.90   37.10   1
  14  12   7   13.20   35.00   1
 -14 -12  -7   12.10   34.10   1
 -14  12  -7    3.20   34.40   1
  14 -12   7   54.40   33.70   1
 -14 -12   7   29.50   40.50   1
  14  12  -7   46.90   38.10   1
  14  12   8   13.10   37.50   1
 -14 -12  -8   26.00   36.50   1
 -14  12  -8   27.20   32.40   1
  14 -12   8   26.60   33.60   1
 -14 -12   8   12.30   39.50   1
  14  12  -8   30.40   41.40   1
  14  12   9   82.80   71.60   1
 -14 -12  -9   88.10   72.30   1
 -14  12  -9   87.10   70.30   1
  14 -12   9   67.60   69.80   1
 -14 -12   9  157.10   72.50   1
  14  12  -9  164.10   73.70   1
  14  12  10   15.50   35.50   1
 -14 -12 -10   -0.10   33.70   1
 -14  12 -10    9.20   28.60   1
  14 -12  10   24.90   27.20   1
 -14 -12  10   11.60   29.00   1
  14  12 -10   16.60   31.10   1
  14  13   0  606.50  343.50   1
 -14 -13   0  855.50  347.90   1
  14 -13   0 1815.00  362.30   1
 -14  13   0 2022.70  369.00   1
  14  13   1   87.40   55.70   1
 -14 -13  -1  123.30   55.90   1
  14 -13  -1   53.10   57.10   1
 -14  13   1   59.60   57.20   1
 -14  13  -1   74.00   58.80   1
  14 -13   1   82.50   57.70   1
 -14 -13   1   77.00   58.10   1
  14  13  -1   15.50   55.30   1
  14  13   2    4.00   28.40   1
 -14 -13  -2   26.90   28.70   1
 -14  13  -2   23.10   29.50   1
 -14 -13   2    6.10   29.00   1
  14  13  -2   22.10   29.30   1
  14  13   3   73.80   60.10   1
 -14 -13  -3   41.60   59.10   1
 -14  13  -3   96.50   60.30   1
  14 -13   3   71.00   60.10   1
 -14 -13   3  101.90   63.10   1
  14  13  -3   86.20   61.20   1
  14  13   4   58.00   51.00   1
 -14 -13  -4   26.40   49.30   1
 -14  13  -4   34.60   48.90   1
  14 -13   4  108.50   49.70   1
 -14 -13   4  276.10   64.10   1
  14  13  -4   28.60   53.00   1
  14  13   5  106.10   73.80   1
 -14 -13  -5   81.10   73.90   1
 -14  13  -5   81.50   70.40   1
  14 -13   5  100.40   70.20   1
 -14 -13   5  136.20   77.60   1
  14  13  -5  110.50   76.20   1
  14  13   6  553.60  191.00   1
 -14 -13  -6  483.90  190.30   1
 -14  13  -6  873.20  190.80   1
  14 -13   6  683.10  188.70   1
 -14 -13   6 1028.20  200.20   1
  14  13  -6  188.60  188.30   1
  14  13   7   18.80   35.10   1
 -14 -13  -7   30.70   36.10   1
 -14  13  -7   21.10   36.00   1
  14 -13   7   11.50   33.40   1
 -14 -13   7   56.90   39.60   1
  14  13  -7   29.10   37.50   1
  14  13   8   66.10   60.80   1
 -14 -13  -8   47.00   59.40   1
 -14  13  -8  169.00   58.40   1
  14 -13   8  103.00   57.40   1
 -14 -13   8   38.40   63.50   1
  14  13  -8   34.40   60.50   1
  14  13   9    4.00   33.80   1
 -14 -13  -9   16.90   33.10   1
 -14  13  -9   16.60   27.80   1
  14 -13   9  166.60   37.60   1
 -14 -13   9    0.00   33.70   1
  14  13  -9    2.40   37.70   1
  14  14   0   30.80   46.30   1
 -14 -14   0  118.70   55.00   1
  14 -14   0   34.90   48.00   1
 -14  14   0   49.60   48.70   1
  14  14   1    4.80   22.80   1
 -14 -14  -1    2.80   22.60   1
  14 -14  -1   -0.00   28.60   1
 -14  14   1   20.10   25.20   1
 -14  14  -1   12.60   27.70   1
  14 -14   1    8.50   24.80   1
 -14 -14   1   14.50   26.30   1
  14  14  -1    6.90   28.40   1
  14  14   2    4.50   21.40   1
 -14 -14  -2   -0.00   21.90   1
  14 -14  -2   14.80   24.20   1
 -14  14  -2   24.80   23.20   1
  14 -14   2    3.70   22.30   1
 -14 -14   2   -0.00   23.30   1
  14  14  -2    1.60   24.30   1
  14  14   3   53.60   37.00   1
 -14 -14  -3   23.00   35.40   1
 -14  14  -3   15.50   34.50   1
  14 -14   3   38.20   35.90   1
 -14 -14   3   17.90   35.80   1
  14  14  -3   16.10   34.60   1
  14  14   4   17.60   36.80   1
 -14 -14  -4   38.30   36.60   1
 -14  14  -4   16.40   33.80   1
  14 -14   4   27.40   34.40   1
 -14 -14   4   48.30   44.30   1
  14  14  -4    7.60   38.40   1
  14  14   5   -0.00   31.40   1
 -14 -14  -5   18.00   33.40   1
 -14  14  -5    7.30   26.90   1
  14 -14   5   31.70   27.10   1
 -14 -14   5   33.30   40.90   1
  14  14  -5   -0.00   34.20   1
  14  14   6    1.80   28.10   1
 -14 -14  -6    2.60   28.80   1
 -14  14  -6   20.60   23.30   1
  14 -14   6    9.60   22.10   1
 -14 -14   6    3.00   33.40   1
  14  14  -6    5.20   36.30   1
  14  14   7    3.10   30.10   1
 -14 -14  -7   16.00   30.60   1
 -14  14  -7   14.30   27.30   1
  14 -14   7   22.30   34.50   1
 -14 -14   7    4.80   32.70   1
  14  14  -7   57.30   34.30   1
  14  14   8    7.70   27.20   1
 -14 -14  -8    3.70   26.10   1
 -14  14  -8   16.20   21.30   1
  14 -14   8   -0.00   19.80   1
 -14 -14   8    9.10   28.80   1
  14  14  -8    6.60   27.40   1
  14  15   0   66.90   53.30   1
 -14 -15   0   38.00   54.90   1
  14 -15   0   85.50   57.30   1
 -14  15   0   49.60   54.20   1
  14  15   1   42.80   38.80   1
 -14 -15  -1   36.20   37.70   1
  14 -15  -1   21.70   43.90   1
 -14  15   1   38.70   43.10   1
 -14  15  -1   25.40   39.80   1
  14 -15   1   26.50   39.40   1
 -14 -15   1   23.30   40.80   1
  14  15  -1   22.10   46.00   1
  14  15   2   23.50   37.00   1
 -14 -15  -2   28.10   36.60   1
  14 -15  -2   74.90   42.10   1
 -14  15   2   15.40   38.30   1
 -14  15  -2   35.00   37.90   1
  14 -15   2   21.70   36.90   1
 -14 -15   2   27.10   38.80   1
  14  15  -2   37.70   39.70   1
  14  15   3   15.00   29.60   1
 -14 -15  -3   27.40   29.10   1
 -14  15  -3    4.70   27.80   1
  14 -15   3    9.40   28.80   1
 -14 -15   3    3.80   28.50   1
  14  15  -3   22.90   28.40   1
  14  15   4   55.30   47.70   1
 -14 -15  -4   13.50   46.20   1
 -14  15  -4   40.30   45.10   1
  14 -15   4  265.00   50.30   1
 -14 -15   4   20.90   48.40   1
  14  15  -4   60.40   46.90   1
  14  15   5   31.30   37.50   1
 -14 -15  -5   11.00   37.00   1
 -14  15  -5   21.60   31.40   1
  14 -15   5   20.90   31.10   1
 -14 -15   5   18.60   41.10   1
  14  15  -5   15.70   39.60   1
  14  15   6   43.30   50.80   1
 -14 -15  -6   24.30   50.50   1
 -14  15  -6   90.80   48.40   1
  14 -15   6   57.00   47.50   1
 -14 -15   6   38.50   55.60   1
  14  15  -6   30.00   55.80   1
  14  15   7    5.10   29.30   1
 -14 -15  -7   13.90   30.20   1
 -14  15  -7    8.50   23.40   1
  14 -15   7   31.40   29.50   1
 -14 -15   7   -0.00   30.80   1
  14  15  -7   22.70   33.90   1
  14  15   8    2.30   31.90   1
 -14 -15  -8   33.30   30.30   1
  14 -15   8   10.60   25.00   1
 -14 -15   8    4.10   31.00   1
  14  15  -8    5.90   30.00   1
  14  16   0   10.50   20.60   1
 -14 -16   0   -0.00   22.20   1
  14 -16   0    5.40   26.20   1
 -14  16   0   -0.00   25.50   1
  14  16   1   88.20   60.20   1
 -14 -16  -1   61.20   59.20   1
  14 -16  -1   80.30   63.30   1
 -14  16   1  103.70   64.40   1
 -14  16  -1  107.10   61.70   1
  14 -16   1  114.80   62.00   1
 -14 -16   1   12.30   63.70   1
  14  16  -1   60.70   65.10   1
  14  16   2   -0.00   22.30   1
 -14 -16  -2   12.70   22.50   1
  14 -16  -2    7.60   27.60   1
 -14  16   2   17.00   24.80   1
 -14  16  -2    4.00   22.90   1
  14 -16   2    0.70   22.50   1
 -14 -16   2    8.30   27.70   1
  14  16  -2   -0.00   24.00   1
  14  16   3    4.70   34.60   1
 -14 -16  -3   35.80   34.10   1
  14 -16  -3   29.80   35.90   1
 -14  16  -3   33.70   33.70   1
  14 -16   3   26.90   33.80   1
 -14 -16   3   15.60   33.00   1
  14  16  -3    9.40   32.60   1
  14  16   4   13.50   33.80   1
 -14 -16  -4    6.90   33.00   1
 -14  16  -4   15.30   31.70   1
  14 -16   4   31.70   32.30   1
 -14 -16   4   19.90   33.50   1
  14  16  -4   17.10   31.10   1
  14  16   5  267.00   65.10   1
 -14 -16  -5   34.30   58.40   1
 -14  16  -5  106.40   57.30   1
  14 -16   5   68.20   56.10   1
 -14 -16   5   50.20   63.00   1
  14  16  -5   44.30   59.90   1
  14  16   6   21.00   37.80   1
 -14 -16  -6   19.80   38.50   1
 -14  16  -6   18.40   33.20   1
  14 -16   6   31.10   33.00   1
 -14 -16   6   33.90   46.00   1
  14  16  -6   18.60   40.00   1
  14  16   7   20.10   39.90   1
 -14 -16  -7   66.40   42.10   1
  14 -16   7   27.20   37.00   1
 -14 -16   7   25.50   45.20   1
  14  16  -7   17.10   45.40   1
  14  17   0   30.10   40.70   1
 -14 -17   0   25.00   40.50   1
  14 -17   0   34.80   43.60   1
 -14  17   0  105.80   47.20   1
  14  17   1   -0.00   23.90   1
 -14 -17  -1   -0.00   21.90   1
  14 -17  -1   -0.00   27.90   1
 -14  17   1   11.30   28.00   1
 -14  17  -1    6.10   24.80   1
  14 -17   1    5.70   26.40   1
 -14 -17   1    0.00   42.40   1
  14  17  -1   64.00   32.60   1
  14  17   2   12.70   30.60   1
 -14 -17  -2   41.80   31.80   1
  14 -17  -2   17.60   38.70   1
 -14  17   2   15.60   35.20   1
 -14  17  -2   31.50   32.00   1
  14 -17   2    6.40   32.20   1
 -14 -17   2   15.10   34.70   1
  14  17  -2    1.20   34.10   1
  14  17   3    4.20   27.50   1
 -14 -17  -3   10.30   26.30   1
  14 -17  -3    4.80   28.00   1
 -14  17  -3    0.00   24.60   1
  14 -17   3   -0.10   25.10   1
 -14 -17   3   16.50   24.70   1
  14  17  -3   12.30   27.50   1
  14  17   4   39.00   39.50   1
 -14 -17  -4   15.40   38.50   1
  14 -17   4   23.60   37.80   1
 -14 -17   4   51.30   36.90   1
  14  17  -4   14.70   34.80   1
  14  17   5   -0.00   31.90   1
 -14 -17  -5   17.10   31.60   1
  14 -17   5   13.80   25.80   1
 -14 -17   5    4.00   34.50   1
  14  17  -5   12.20   29.70   1
  14  18   0   51.60   37.70   1
 -14 -18   0   25.60   36.90   1
  14 -18   0    9.40   39.20   1
  14  18   1   22.10   39.10   1
 -14 -18  -1   -0.00   39.40   1
  14 -18  -1   33.60   45.10   1
  14 -18   1  169.90   45.70   1
 -14 -18   1   90.60   50.90   1
  14  18  -1   49.50   41.10   1
  14  18   2   72.60   57.80   1
 -14 -18  -2   60.20   57.10   1
  14 -18  -2   36.40   62.00   1
  14 -18   2   92.00   58.90   1
 -14 -18   2   58.40   58.60   1
  14  18  -2   91.70   66.60   1
  14  18   3   67.70   67.90   1
 -14 -18  -3   90.80   67.80   1
  14 -18  -3   70.90   69.20   1
  14 -18   3  101.60   67.80   1
 -14 -18   3  330.90   72.80   1
  14  18  -3   59.40   67.50   1
  14  18   4    6.30   28.00   1
 -14 -18  -4    4.30   25.40   1
  14 -18  -4   13.70   26.30   1
  14 -18   4   -0.10   22.80   1
 -14 -18   4   -0.00   20.40   1
  14  18  -4   -0.00   20.20   1
  14  19   0    5.10   21.00   1
 -14 -19   0    8.30   21.20   1
  14 -19   0   -0.00   26.70   1
  14  19   1   19.90   25.80   1
 -14 -19  -1   14.40   24.80   1
  14 -19  -1   -0.20   29.80   1
  14 -19   1   -0.00   26.30   1
 -14 -19   1   13.40   30.70   1
  14  19  -1   -0.10   24.70   1
  15   0   0  137.80   86.20   1
 -15   0   0  128.10   86.00   1
  15   0   1  165.80  111.10   1
 -15   0  -1  227.10  111.50   1
  15   0  -1  190.30  111.90   1
 -15   0   1  222.60  112.60   1
  15   0   2   66.80   60.50   1
 -15   0  -2  105.60   60.80   1
  15   0  -2   65.80   60.70   1
 -15   0   2   68.10   61.20   1
  15   0   3  364.50  164.20   1
 -15   0  -3  276.40  164.70   1
  15   0  -3  402.80  176.00   1
  15   0   4   78.10   33.20   1
 -15   0  -4   16.10   32.70   1
  15   0   5 2013.60  688.60   1
 -15   0  -5 1388.10  686.10   1
 -15   0  -6   21.20   29.80   1
  15   1   0   -2.40   19.00   1
 -15  -1   0   11.50   18.50   1
  15  -1   0   19.60   18.60   1
  15   1   1   23.00   28.50   1
 -15  -1  -1  107.30   28.80   1
 -15   1  -1   17.60   25.40   1
  15  -1   1   21.40   25.40   1
 -15  -1   1    8.10   25.60   1
  15   1  -1    9.90   25.70   1
  15   1   2   15.50   28.00   1
 -15  -1  -2   26.60   27.00   1
 -15   1  -2    9.80   24.70   1
  15  -1   2   13.90   25.00   1
 -15  -1   2   69.60   27.10   1
  15   1  -2   25.60   26.00   1
  15   1   3  214.20   40.60   1
 -15  -1  -3  271.60   40.70   1
 -15   1  -3   21.10   38.80   1
  15  -1   3  151.70   39.10   1
 -15  -1   3   13.80   38.60   1
  15   1  -3   17.10   38.70   1
  15   1   4  214.50   73.50   1
 -15  -1  -4   86.50   72.90   1
 -15   1  -4   65.50   73.90   1
  15  -1   4  152.70   72.80   1
 -15  -1   4  227.50   79.90   1
  15   1  -4  105.10   74.70   1
  15   1   5   82.60   64.40   1
 -15  -1  -5  165.50   65.00   1
 -15   1  -5   84.20   63.80   1
  15  -1   5   87.90   64.20   1
  15   1  -5   38.80   65.60   1
  15   1   6   30.50   36.90   1
 -15  -1  -6   28.80   36.40   1
  15   2   0   -0.00   16.00   1
 -15  -2   0    5.20   15.40   1
  15   2   1   11.80   30.30   1
 -15  -2  -1   65.90   31.80   1
 -15  -2   1    9.90   29.60   1
  15   2  -1   40.10   30.60   1
  15   2   2  150.20   34.70   1
 -15  -2  -2   96.70   36.20   1
  15  -2   2   17.40   29.50   1
 -15  -2   2   24.60   30.60   1
  15   2  -2    6.60   30.20   1
  15   2   3  182.10   33.80   1
 -15  -2  -3    3.50   27.50   1
 -15   2  -3   81.60   25.90   1
  15  -2   3   11.30   25.00   1
 -15  -2   3  289.90   36.80   1
  15   2  -3  116.30   29.50   1
  15   2   4   39.50   44.90   1
 -15  -2  -4   78.70   44.80   1
 -15  -2   4   43.80   45.00   1
  15   2  -4   29.20   45.00   1
  15   2   5   78.40   76.20   1
 -15  -2  -5  278.90   78.00   1
 -15   2  -5  219.00   76.50   1
 -15  -2   5   94.40   77.10   1
  15   2  -5  110.00   77.30   1
  15   2   6   25.10   28.40   1
 -15  -2  -6   24.00   28.00   1
 -15  -2   6    6.90   26.30   1
  15   2  -6   14.90   27.10   1
 -15  -2  -7   27.30   37.00   1
 -15  -2   7   41.50   39.30   1
  15   2  -7   36.70   38.60   1
  15   2  -8   29.30   39.40   1
  15   3   0   29.90   37.10   1
 -15  -3   0   33.80   38.80   1
  15   3   1  154.30   41.40   1
 -15  -3  -1   58.30   39.90   1
 -15  -3   1   16.30   37.20   1
  15   3  -1   15.70   37.00   1
  15   3   2  103.00   43.90   1
 -15  -3  -2   38.60   43.60   1
 -15  -3   2   35.10   43.80   1
  15   3  -2   26.70   43.50   1
  15   3   3   78.40   30.00   1
 -15  -3  -3  231.50   38.20   1
 -15  -3   3    1.20   29.00   1
  15   3  -3   12.10   29.20   1
  15   3   4  107.50   53.60   1
 -15  -3  -4   67.70   52.90   1
 -15  -3   4   31.80   52.70   1
  15   3  -4  242.30   57.80   1
  15   3   5   26.10   38.50   1
 -15  -3  -5   91.00   39.50   1
 -15  -3   5   56.80   38.10   1
  15   3  -5   17.50   37.30   1
  15   3   6   86.60   40.30   1
 -15  -3  -6   72.90   39.80   1
 -15  -3   6   13.90   38.20   1
  15   3  -6   22.20   38.70   1
  15   3   7    5.80   27.90   1
 -15  -3  -7   17.00   28.90   1
 -15  -3   7   25.90   26.80   1
  15   3  -7   17.70   26.60   1
 -15  -3   8   28.50   39.80   1
  15   3  -8   49.10   40.50   1
 -15  -3   9   -0.00   15.10   1
  15   3  -9   -0.00   15.10   1
  15   3 -10  111.20   82.40   1
  15   4   0  228.50  145.50   1
 -15  -4   0  362.00  146.00   1
  15   4   1   86.80   46.20   1
 -15  -4  -1  136.60   48.80   1
 -15  -4   1   19.90   45.30   1
  15   4  -1   19.70   43.60   1
  15   4   2  150.60   43.40   1
 -15  -4  -2  166.10   43.60   1
 -15  -4   2    9.00   41.50   1
  15   4  -2   14.20   41.70   1
  15   4   3   73.30   44.30   1
 -15  -4  -3   36.90   44.40   1
 -15  -4   3   33.30   44.90   1
  15   4  -3   40.90   45.10   1
  15   4   4   76.00   46.70   1
 -15  -4  -4   82.10   46.40   1
 -15  -4   4   25.70   45.60   1
  15   4  -4   35.80   46.10   1
  15   4   5  115.10   76.30   1
 -15  -4  -5  166.70   76.70   1
 -15  -4   5   78.90   75.40   1
  15   4  -5   87.10   75.80   1
  15   4   6  151.00   31.50   1
 -15  -4  -6   65.10   29.00   1
 -15   4  -6   14.00   24.50   1
 -15  -4   6   -0.00   25.90   1
  15   4  -6   15.40   27.20   1
  15   4   7   13.30   28.20   1
 -15  -4  -7   23.40   27.40   1
 -15  -4   7   13.40   24.40   1
  15   4  -7    9.30   24.40   1
 -15  -4  -8   13.10   22.50   1
 -15  -4   8    3.50   20.80   1
  15   4  -8   10.80   20.80   1
 -15  -4   9   10.40   21.40   1
  15   4  -9    7.10   22.00   1
 -15  -4  10    3.90   19.20   1
  15   4 -10    7.10   19.90   1
 -15  -4  11   -0.00   16.80   1
  15   4 -11   -0.00   16.50   1
  15   4 -12   10.00   29.30   1
  15   5   0   45.20   63.30   1
 -15  -5   0  273.50   68.20   1
  15   5   1   25.90   50.90   1
 -15  -5  -1   86.80   52.70   1
 -15  -5   1  132.80   55.00   1
  15   5  -1   89.80   53.00   1
  15   5   2   81.00   66.80   1
 -15  -5  -2   64.40   64.60   1
 -15  -5   2   87.10   67.70   1
  15   5  -2  156.00   68.20   1
  15   5   3   36.60   31.50   1
 -15  -5  -3   18.80   30.90   1
 -15  -5   3   25.60   33.90   1
  15   5  -3   10.10   33.50   1
  15   5   4 2127.10  721.30   1
 -15  -5  -4 1538.60  718.90   1
 -15   5  -4 2053.80  722.50   1
  15  -5   4 1632.00  719.30   1
 -15  -5   4 1634.70  723.60   1
  15   5  -4 1359.00  720.40   1
  15   5   5   50.90   37.30   1
 -15  -5  -5   38.70   37.70   1
 -15   5  -5   25.60   33.40   1
  15  -5   5   22.90   33.60   1
 -15  -5   5   48.60   35.70   1
  15   5  -5   61.40   36.50   1
  15   5   6  352.90  155.20   1
 -15  -5  -6  251.40  154.60   1
 -15   5  -6  369.30  154.40   1
  15  -5   6  241.80  153.80   1
 -15  -5   6  335.00  157.00   1
  15   5  -6  318.00  156.30   1
  15   5   7   77.80   33.40   1
 -15  -5  -7   18.50   30.80   1
 -15   5  -7   13.30   26.10   1
  15  -5   7   15.30   26.00   1
 -15  -5   7   48.90   28.90   1
  15   5  -7   15.70   29.10   1
  15   5   8   53.30   48.10   1
 -15  -5  -8   27.70   49.50   1
 -15   5  -8   92.90   46.10   1
  15  -5   8   50.80   45.70   1
 -15  -5   8   59.70   47.00   1
  15   5  -8   46.20   46.50   1
 -15  -5  -9   81.20   25.90   1
 -15   5  -9    9.50   15.60   1
 -15  -5   9   -0.00   17.20   1
  15   5  -9    0.00   19.20   1
 -15  -5  10   46.70   46.20   1
  15   5 -10   46.80   46.20   1
 -15  -5  11    8.10   21.10   1
  15   5 -11    6.80   22.10   1
  15   6   0   71.90   75.90   1
 -15  -6   0  323.80   81.50   1
  15   6   1   16.80   26.40   1
 -15  -6  -1   11.50   26.50   1
 -15  -6   1   19.20   30.20   1
  15   6  -1   12.90   31.60   1
  15   6   2   26.20   34.50   1
 -15  -6  -2   49.70   38.60   1
 -15  -6   2   12.60   33.80   1
  15   6  -2   14.50   32.50   1
  15   6   3   41.10   37.70   1
 -15  -6  -3   24.30   37.40   1
  15  -6   3   26.20   37.80   1
 -15  -6   3   76.70   43.30   1
  15   6  -3   29.90   42.50   1
  15   6   4  142.90   58.70   1
 -15  -6  -4   66.70   57.30   1
 -15   6  -4   60.30   56.10   1
  15  -6   4   69.90   56.20   1
 -15  -6   4   62.40   58.50   1
  15   6  -4   60.30   58.70   1
  15   6   5  149.80   77.30   1
 -15  -6  -5   79.50   76.70   1
 -15   6  -5  111.10   74.60   1
  15  -6   5  105.40   74.70   1
 -15  -6   5  100.10   76.50   1
  15   6  -5  161.20   77.30   1
  15   6   6   13.80   27.80   1
 -15  -6  -6   13.20   28.10   1
 -15   6  -6   29.10   26.20   1
  15  -6   6   26.70   26.60   1
 -15  -6   6   10.50   26.40   1
  15   6  -6   -0.00   27.30   1
  15   6   7   34.10   34.50   1
 -15  -6  -7   37.90   35.00   1
 -15   6  -7   28.60   32.30   1
  15  -6   7   44.20   30.90   1
 -15  -6   7    6.10   31.40   1
  15   6  -7   12.60   31.90   1
  15   6   8   35.00   27.80   1
 -15  -6  -8    8.00   25.70   1
 -15   6  -8    5.80   18.50   1
  15  -6   8   10.70   18.20   1
 -15  -6   8    2.10   19.90   1
  15   6  -8   20.70   23.00   1
  15   6   9   50.90   31.10   1
 -15  -6  -9   39.80   30.70   1
 -15   6  -9   12.10   25.50   1
  15  -6   9   42.70   26.10   1
 -15  -6   9    4.10   26.90   1
  15   6  -9   31.90   28.50   1
 -15   6 -10    0.90   14.30   1
  15  -6  10    8.60   15.00   1
 -15  -6  10    7.90   16.30   1
  15   6 -10    4.40   17.50   1
 -15   6 -11   33.20   19.50   1
 -15  -6  11    2.20   19.10   1
  15   6 -11    5.60   20.50   1
  15   7   0  130.80   64.20   1
 -15  -7   0   52.40   63.90   1
  15   7   1   44.20   60.70   1
 -15  -7  -1  122.80   62.00   1
 -15  -7   1   97.80   64.80   1
  15   7  -1   73.80   63.00   1
  15   7   2  190.10   91.80   1
 -15  -7  -2  206.40   95.20   1
 -15  -7   2  168.60   93.10   1
  15   7  -2   79.70   92.60   1
  15   7   3  114.10   65.40   1
 -15  -7  -3   78.00   65.30   1
 -15   7  -3  103.80   65.80   1
  15  -7   3   75.50   65.20   1
 -15  -7   3   67.50   68.00   1
  15   7  -3   87.20   66.90   1
  15   7   4   23.50   32.50   1
 -15  -7  -4   13.70   30.90   1
 -15   7  -4   22.60   29.80   1
  15  -7   4   19.00   29.80   1
 -15  -7   4   44.20   35.50   1
  15   7  -4   20.60   37.10   1
  15   7   5   13.30   33.10   1
 -15  -7  -5   44.50   34.30   1
 -15   7  -5   11.80   29.50   1
  15  -7   5   39.70   29.60   1
 -15  -7   5   35.60   33.40   1
  15   7  -5   -0.00   33.70   1
  15   7   6   79.90   49.60   1
 -15  -7  -6  102.40   51.00   1
 -15   7  -6  100.40   47.60   1
  15  -7   6   65.60   47.30   1
 -15  -7   6   15.80   47.80   1
  15   7  -6   23.20   49.10   1
  15   7   7   32.90   31.20   1
 -15  -7  -7   19.10   30.40   1
 -15   7  -7   59.50   29.60   1
  15  -7   7   19.60   26.90   1
 -15  -7   7    3.10   27.80   1
  15   7  -7    6.80   28.50   1
  15   7   8   15.90   36.40   1
 -15  -7  -8   51.80   37.50   1
 -15   7  -8   49.00   34.40   1
  15  -7   8   29.80   32.00   1
 -15  -7   8   11.90   32.30   1
  15   7  -8   20.60   33.10   1
  15   7   9   13.10   23.90   1
 -15  -7  -9   47.70   28.90   1
 -15   7  -9   17.10   17.90   1
  15  -7   9    5.00   16.90   1
 -15  -7   9   -0.00   18.90   1
  15   7  -9   -0.00   19.80   1
 -15  -7 -10   23.50   34.00   1
 -15   7 -10   41.70   30.70   1
  15  -7  10  105.40   33.10   1
 -15  -7  10   15.90   31.20   1
  15   7 -10   13.80   32.40   1
 -15   7 -11   94.20   37.40   1
  15  -7  11   18.80   34.50   1
 -15  -7  11   45.90   36.80   1
  15   7 -11   33.30   36.50   1
  15   8   0   36.80   34.00   1
 -15  -8   0   13.50   34.10   1
  15   8   1  611.10  376.60   1
 -15  -8  -1 1336.00  379.60   1
 -15  -8   1 1198.40  381.20   1
  15   8  -1  833.70  377.90   1
  15   8   2   33.80   39.80   1
 -15  -8  -2   28.20   40.60   1
  15  -8   2   67.70   40.80   1
 -15  -8   2   30.60   44.10   1
  15   8  -2   31.10   44.60   1
  15   8   3  171.80  112.00   1
 -15  -8  -3  219.40  112.20   1
 -15   8  -3  195.20  112.30   1
  15  -8   3  249.40  112.30   1
 -15  -8   3  141.50  113.30   1
  15   8  -3  222.70  114.00   1
  15   8   4   56.50   50.80   1
 -15  -8  -4   50.60   50.10   1
 -15   8  -4   50.00   48.60   1
  15  -8   4   40.70   48.60   1
 -15  -8   4  212.50   58.30   1
  15   8  -4   60.40   51.80   1
  15   8   5   36.80   45.60   1
 -15  -8  -5   57.10   47.20   1
 -15   8  -5   54.30   42.80   1
  15  -8   5   39.80   42.60   1
 -15  -8   5   47.20   47.60   1
  15   8  -5   20.00   47.70   1
  15   8   6   40.50   45.60   1
 -15  -8  -6   49.80   46.20   1
 -15   8  -6   34.00   45.30   1
  15  -8   6   40.70   43.10   1
 -15  -8   6  338.50   53.10   1
  15   8  -6   45.00   46.00   1
  15   8   7   43.60   51.10   1
 -15  -8  -7   30.70   50.60   1
 -15   8  -7  206.40   51.50   1
  15  -8   7  122.90   51.10   1
 -15  -8   7  206.70   53.70   1
  15   8  -7   23.30   50.30   1
  15   8   8   72.80   33.10   1
 -15  -8  -8   49.80   31.60   1
 -15   8  -8   12.30   23.60   1
  15  -8   8   13.20   24.20   1
 -15  -8   8    2.40   24.00   1
  15   8  -8    3.60   24.80   1
  15   8   9   26.10   35.00   1
 -15  -8  -9   53.30   36.10   1
 -15   8  -9    7.80   29.50   1
  15  -8   9  157.00   32.00   1
 -15  -8   9    7.70   28.60   1
  15   8  -9   28.50   30.00   1
  15   8  10    9.00   25.40   1
 -15  -8 -10    8.40   26.70   1
 -15   8 -10   10.60   20.10   1
  15  -8  10    6.30   18.90   1
 -15  -8  10    7.80   21.10   1
  15   8 -10   15.90   22.00   1
 -15   8 -11   32.10   36.30   1
  15  -8  11   26.10   35.80   1
 -15  -8  11   30.60   37.00   1
  15   8 -11   56.40   39.70   1
  15   9   0    9.70   23.50   1
 -15  -9   0    5.20   22.70   1
  15   9   1   26.70   46.80   1
 -15  -9  -1   86.00   44.30   1
 -15  -9   1   36.80   42.50   1
  15   9  -1   16.40   40.10   1
  15   9   2   30.90   35.70   1
 -15  -9  -2   30.90   35.80   1
 -15   9  -2   27.40   36.60   1
  15  -9   2   26.70   37.40   1
 -15  -9   2   45.80   44.50   1
  15   9  -2   10.80   40.40   1
  15   9   3  164.90  103.20   1
 -15  -9  -3  211.30  103.50   1
 -15   9  -3  128.10  103.00   1
  15  -9   3  188.60  102.90   1
 -15  -9   3  260.80  106.20   1
  15   9  -3  145.20  105.10   1
  15   9   4   54.70   51.50   1
 -15  -9  -4   53.50   51.20   1
 -15   9  -4   66.60   49.80   1
  15  -9   4   47.30   49.80   1
 -15  -9   4   58.30   53.00   1
  15   9  -4   47.10   51.60   1
  15   9   5   26.50   39.10   1
 -15  -9  -5   58.50   41.00   1
 -15   9  -5   45.10   35.80   1
  15  -9   5   28.60   35.40   1
 -15  -9   5    0.10   42.00   1
  15   9  -5    6.20   41.40   1
  15   9   6   86.40   33.90   1
 -15  -9  -6    5.20   31.60   1
 -15   9  -6   10.90   26.40   1
  15  -9   6   26.30   29.90   1
 -15  -9   6    9.30   32.00   1
  15   9  -6   17.10   32.40   1
  15   9   7    1.80   35.50   1
 -15  -9  -7   51.60   36.60   1
 -15   9  -7   22.80   31.90   1
  15  -9   7   77.20   34.70   1
 -15  -9   7   27.10   35.60   1
  15   9  -7   -0.00   35.20   1
  15   9   8   11.30   28.80   1
 -15  -9  -8    7.20   28.60   1
 -15   9  -8   16.50   27.30   1
  15  -9   8   10.80   23.70   1
 -15  -9   8   16.20   25.10   1
  15   9  -8    8.00   27.80   1
  15   9   9   12.70   27.80   1
 -15  -9  -9    6.80   24.70   1
 -15   9  -9   13.10   18.90   1
  15  -9   9   -0.20   20.20   1
 -15  -9   9    5.80   18.60   1
  15   9  -9   -0.00   18.90   1
  15   9  10   48.70   38.40   1
 -15  -9 -10   61.70   42.20   1
 -15   9 -10   27.60   34.30   1
  15  -9  10   32.70   33.20   1
 -15  -9  10   12.40   33.30   1
  15   9 -10   21.10   34.30   1
  15  10   0   53.40   50.00   1
 -15 -10   0   47.00   50.50   1
  15  10   1  104.50   63.00   1
 -15 -10  -1   68.50   65.90   1
 -15  10  -1   83.80   60.10   1
  15 -10   1  139.30   61.00   1
 -15 -10   1   97.10   61.00   1
  15  10  -1   40.50   59.60   1
  15  10   2   17.30   30.60   1
 -15 -10  -2   18.80   29.90   1
 -15  10  -2    0.00   31.60   1
  15 -10   2   37.50   33.50   1
 -15 -10   2   90.40   41.60   1
  15  10  -2   28.30   37.60   1
  15  10   3   13.80   37.60   1
 -15 -10  -3   12.50   37.20   1
 -15  10  -3   29.00   37.70   1
  15 -10   3   66.00   38.00   1
 -15 -10   3  125.70   46.90   1
  15  10  -3   82.10   46.20   1
  15  10   4   10.50   35.70   1
 -15 -10  -4   36.00   36.10   1
 -15  10  -4   17.90   33.60   1
  15 -10   4   43.30   34.80   1
 -15 -10   4   63.00   39.20   1
  15  10  -4    7.70   38.00   1
  15  10   5  157.90  113.80   1
 -15 -10  -5  222.50  114.20   1
 -15  10  -5  192.30  111.80   1
  15 -10   5  170.70  111.50   1
 -15 -10   5  209.00  115.30   1
  15  10  -5  324.80  116.60   1
  15  10   6   18.70   37.50   1
 -15 -10  -6   61.50   38.80   1
 -15  10  -6   19.20   32.70   1
  15 -10   6   27.20   35.00   1
 -15 -10   6   54.50   42.70   1
  15  10  -6   27.30   40.40   1
  15  10   7  337.20   56.00   1
 -15 -10  -7   43.50   49.80   1
 -15  10  -7   52.50   47.90   1
  15 -10   7   45.10   47.20   1
 -15 -10   7   41.60   49.70   1
  15  10  -7   56.60   51.70   1
  15  10   8    2.50   30.70   1
 -15 -10  -8   66.10   33.40   1
 -15  10  -8    9.60   28.00   1
  15 -10   8  134.10   33.20   1
 -15 -10   8   -0.00   28.60   1
  15  10  -8    5.50   30.10   1
  15  10   9    7.30   29.70   1
 -15 -10  -9   17.20   30.90   1
 -15  10  -9   48.70   28.20   1
  15 -10   9   12.30   24.90   1
 -15 -10   9   -0.00   25.90   1
  15  10  -9   11.80   27.70   1
  15  10  10   17.50   28.30   1
 -15 -10 -10   -0.00   29.30   1
 -15  10 -10   15.90   21.10   1
  15 -10  10    3.40   19.20   1
 -15 -10  10    1.20   18.60   1
  15  10 -10    0.40   19.50   1
  15  11   0   14.40   29.20   1
 -15 -11   0   26.00   30.10   1
  15 -11   0    6.10   26.90   1
 -15 -11  -1   81.20   43.00   1
 -15  11  -1   18.50   32.30   1
  15 -11   1   20.70   35.20   1
 -15 -11   1   -0.00   31.50   1
  15  11  -1   32.30   31.80   1
  15  11   2   19.90   36.20   1
 -15 -11  -2   19.90   36.00   1
 -15  11  -2   90.50   39.60   1
  15 -11   2   31.00   37.90   1
 -15 -11   2   53.80   43.50   1
  15  11  -2   31.00   39.30   1
  15  11   3   37.00   36.40   1
 -15 -11  -3   11.00   35.70   1
 -15  11  -3   29.00   35.70   1
  15 -11   3   73.90   37.00   1
 -15 -11   3   29.30   46.90   1
  15  11  -3    4.80   40.30   1
  15  11   4   37.50   39.60   1
 -15 -11  -4   24.00   38.60   1
 -15  11  -4   47.80   37.80   1
  15 -11   4   35.80   37.50   1
 -15 -11   4   10.40   41.50   1
  15  11  -4   11.10   44.00   1
  15  11   5   18.10   33.40   1
 -15 -11  -5   -0.00   33.10   1
 -15  11  -5   21.10   29.20   1
  15 -11   5   21.20   28.30   1
 -15 -11   5   30.00   34.20   1
  15  11  -5   12.70   33.10   1
  15  11   6   21.50   43.60   1
 -15 -11  -6   28.20   44.50   1
 -15  11  -6   39.90   40.40   1
  15 -11   6   78.20   40.80   1
 -15 -11   6   25.10   45.30   1
  15  11  -6   19.30   44.00   1
  15  11   7    1.50   36.20   1
 -15 -11  -7   23.30   36.00   1
 -15  11  -7   26.10   35.20   1
  15 -11   7   30.10   33.50   1
 -15 -11   7   49.90   42.10   1
  15  11  -7   54.90   42.30   1
  15  11   8    9.40   36.40   1
 -15 -11  -8    6.40   35.30   1
 -15  11  -8   30.60   31.60   1
  15 -11   8   44.40   35.00   1
 -15 -11   8   27.50   36.10   1
  15  11  -8   13.20   36.70   1
  15  11   9   17.10   35.50   1
 -15 -11  -9   18.30   35.60   1
 -15  11  -9   49.70   33.70   1
  15 -11   9   51.10   32.30   1
 -15 -11   9    0.00   31.70   1
  15  11  -9    0.00   32.60   1
  15  12   0   24.30   47.30   1
 -15 -12   0   47.00   42.10   1
  15 -12   0   34.30   40.50   1
 -15  12   0   25.60   39.60   1
  15  12   1   16.40   32.40   1
 -15 -12  -1   20.80   35.40   1
 -15  12  -1   46.70   37.50   1
  15 -12   1   15.30   35.60   1
 -15 -12   1   17.90   34.60   1
  15  12  -1   35.60   35.10   1
  15  12   2   27.20   47.70   1
 -15 -12  -2   51.00   47.70   1
 -15  12  -2   36.50   49.30   1
  15 -12   2  118.40   50.00   1
 -15 -12   2   51.60   49.80   1
  15  12  -2   82.60   49.80   1
  15  12   3   61.30   54.00   1
 -15 -12  -3   41.80   53.00   1
 -15  12  -3   92.80   53.70   1
  15 -12   3   52.90   53.10   1
 -15 -12   3   78.20   59.80   1
  15  12  -3   68.20   57.60   1
  15  12   4   10.00   28.90   1
 -15 -12  -4    8.20   28.70   1
 -15  12  -4   23.50   26.90   1
  15 -12   4    4.90   26.90   1
 -15 -12   4   38.90   37.20   1
  15  12  -4   10.40   35.70   1
  15  12   5    2.60   34.20   1
 -15 -12  -5   25.10   35.80   1
 -15  12  -5   21.20   31.10   1
  15 -12   5   37.60   31.20   1
 -15 -12   5    4.60   36.30   1
  15  12  -5   24.60   36.90   1
  15  12   6   46.80   46.10   1
 -15 -12  -6   59.10   46.90   1
 -15  12  -6   42.20   41.80   1
  15 -12   6   40.30   41.60   1
 -15 -12   6   22.90   47.00   1
  15  12  -6   31.40   44.90   1
  15  12   7   17.50   32.90   1
 -15 -12  -7   23.70   34.20   1
 -15  12  -7   22.70   33.30   1
  15 -12   7    5.30   30.30   1
 -15 -12   7  209.70   47.90   1
  15  12  -7   43.50   36.20   1
  15  12   8    1.30   32.60   1
 -15 -12  -8   11.60   31.70   1
 -15  12  -8   12.40   27.60   1
  15 -12   8   36.00   28.10   1
 -15 -12   8   18.20   35.50   1
  15  12  -8   13.30   38.00   1
  15  12   9    7.30   31.30   1
 -15 -12  -9    9.80   31.30   1
 -15  12  -9   20.00   27.10   1
  15 -12   9   19.10   28.60   1
 -15 -12   9    7.60   29.60   1
  15  12  -9   -0.00   30.30   1
  15  13   0  219.60   54.50   1
 -15 -13   0   46.40   47.80   1
  15 -13   0   25.40   44.20   1
 -15  13   0   18.60   41.40   1
  15  13   1   39.80   28.70   1
 -15 -13  -1   12.90   28.00   1
  15 -13  -1    2.40   29.90   1
 -15  13  -1    0.70   30.00   1
  15 -13   1   19.00   32.10   1
 -15 -13   1   27.80   32.90   1
  15  13  -1   13.00   31.30   1
  15  13   2   14.60   39.00   1
 -15 -13  -2   27.60   39.40   1
 -15  13  -2  138.80   43.80   1
  15 -13   2  140.60   42.40   1
 -15 -13   2   17.50   39.70   1
  15  13  -2   40.10   40.20   1
  15  13   3    7.60   34.30   1
 -15 -13  -3   -0.00   33.90   1
 -15  13  -3   25.40   34.40   1
  15 -13   3   77.50   36.80   1
 -15 -13   3   95.80   44.20   1
  15  13  -3   79.90   39.40   1
  15  13   4   48.90   53.30   1
 -15 -13  -4   42.00   52.40   1
 -15  13  -4   72.70   52.00   1
  15 -13   4   51.90   52.00   1
 -15 -13   4  255.90   66.60   1
  15  13  -4   39.90   55.60   1
  15  13   5    3.60   28.20   1
 -15 -13  -5   22.90   28.70   1
 -15  13  -5   -0.00   22.70   1
  15 -13   5    7.50   21.60   1
 -15 -13   5   37.70   35.90   1
  15  13  -5    8.20   33.40   1
  15  13   6  316.30   67.20   1
 -15 -13  -6   87.60   62.20   1
 -15  13  -6   66.50   57.60   1
  15 -13   6   65.70   57.10   1
 -15 -13   6  115.10   63.40   1
  15  13  -6   35.70   60.90   1
  15  13   7   14.60   42.60   1
 -15 -13  -7   19.00   43.10   1
 -15  13  -7   52.00   40.30   1
  15 -13   7   66.00   45.50   1
 -15 -13   7  161.70   50.80   1
  15  13  -7   19.20   43.60   1
  15  13   8  240.90   72.90   1
 -15 -13  -8   52.90   68.20   1
 -15  13  -8   86.00   66.80   1
  15 -13   8  166.10   67.30   1
 -15 -13   8   66.50   71.90   1
  15  13  -8   80.10   70.70   1
  15  14   0   50.70   49.30   1
 -15 -14   0   86.60   56.30   1
  15 -14   0   27.10   49.20   1
 -15  14   0   36.90   49.30   1
  15  14   1   14.40   31.50   1
 -15 -14  -1   18.90   31.80   1
  15 -14  -1   25.50   34.20   1
 -15  14   1   15.80   32.80   1
 -15  14  -1   44.90   35.20   1
  15 -14   1   44.70   35.30   1
 -15 -14   1   19.70   35.50   1
  15  14  -1    5.70   33.30   1
  15  14   2    7.80   27.80   1
 -15 -14  -2   21.20   26.70   1
 -15  14  -2    7.20   29.10   1
  15 -14   2   25.70   28.90   1
 -15 -14   2    9.30   28.20   1
  15  14  -2   12.80   28.40   1
  15  14   3   -0.00   25.40   1
 -15 -14  -3   11.10   25.50   1
 -15  14  -3   11.00   24.90   1
  15 -14   3    6.10   25.10   1
 -15 -14   3   12.00   29.60   1
  15  14  -3   27.20   27.60   1
  15  14   4   -0.00   31.10   1
 -15 -14  -4   11.40   30.80   1
 -15  14  -4   20.90   29.80   1
  15 -14   4   24.70   29.30   1
 -15 -14   4   54.00   40.90   1
  15  14  -4   -0.00   35.00   1
  15  14   5   69.90   43.90   1
 -15 -14  -5   28.50   42.20   1
 -15  14  -5   44.10   39.90   1
  15 -14   5   17.40   37.90   1
 -15 -14   5   37.50   48.90   1
  15  14  -5   38.10   45.50   1
  15  14   6   59.70   48.30   1
 -15 -14  -6   28.90   47.10   1
 -15  14  -6   24.40   42.50   1
  15 -14   6   52.70   42.80   1
 -15 -14   6   34.30   48.30   1
  15  14  -6   94.00   51.10   1
  15  14   7   10.40   29.20   1
 -15 -14  -7   18.50   32.20   1
 -15  14  -7   14.10   24.50   1
  15 -14   7   19.50   29.80   1
 -15 -14   7   16.70   32.90   1
  15  14  -7   -0.10   31.60   1
  15  14   8   -0.00   29.50   1
 -15 -14  -8   19.00   27.40   1
 -15  14  -8    6.40   22.80   1
  15 -14   8    7.70   21.80   1
 -15 -14   8    0.00   30.50   1
  15  14  -8   14.20   29.00   1
  15  15   0   61.10   37.70   1
 -15 -15   0   60.30   46.50   1
  15 -15   0   -0.10   38.50   1
 -15  15   0    9.80   39.10   1
  15  15   1   36.30   30.50   1
 -15 -15  -1   20.30   29.40   1
  15 -15  -1   33.00   36.00   1
 -15  15   1   11.00   31.90   1
 -15  15  -1   14.30   34.40   1
  15 -15   1   -0.00   31.30   1
 -15 -15   1   21.40   32.40   1
  15  15  -1   12.30   37.60   1
  15  15   2    0.00   32.40   1
 -15 -15  -2    4.50   32.90   1
  15 -15  -2   21.20   36.10   1
 -15  15  -2  118.60   37.80   1
  15 -15   2   36.80   34.10   1
 -15 -15   2   11.10   33.40   1
  15  15  -2  121.90   39.60   1
  15  15   3    4.00   27.70   1
 -15 -15  -3   26.70   28.30   1
 -15  15  -3   57.80   29.80   1
  15 -15   3   -0.00   26.80   1
 -15 -15   3   10.50   27.20   1
  15  15  -3    4.30   26.30   1
  15  15   4   53.30   49.00   1
 -15 -15  -4   35.70   48.60   1
 -15  15  -4   38.90   47.30   1
  15 -15   4   47.50   47.70   1
 -15 -15   4   90.60   54.30   1
  15  15  -4   39.10   49.30   1
  15  15   5   10.10   33.50   1
 -15 -15  -5    8.50   35.20   1
 -15  15  -5   13.90   30.50   1
  15 -15   5   27.40   30.10   1
 -15 -15   5   43.20   42.80   1
  15  15  -5   13.40   37.30   1
  15  15   6   11.30   33.10   1
 -15 -15  -6    0.70   34.10   1
  15 -15   6  159.00   31.90   1
 -15 -15   6   -0.00   39.30   1
  15  15  -6   -0.00   40.00   1
  15  15   7    6.80   31.60   1
 -15 -15  -7   30.00   33.10   1
  15 -15   7   17.20   27.20   1
 -15 -15   7   14.70   33.70   1
  15  15  -7   -0.00   34.30   1
  15  16   0   26.50   38.60   1
 -15 -16   0   83.20   43.40   1
  15 -16   0   51.90   44.30   1
 -15  16   0    2.80   39.20   1
  15  16   1   36.80   39.70   1
 -15 -16  -1   31.10   39.40   1
  15 -16  -1   32.00   46.50   1
 -15  16   1   31.70   44.00   1
 -15  16  -1   32.00   42.90   1
  15 -16   1   34.10   41.30   1
 -15 -16   1   38.30   43.50   1
  15  16  -1   35.70   50.00   1
  15  16   2   45.30   41.50   1
 -15 -16  -2   44.00   41.20   1
  15 -16  -2   13.40   44.20   1
 -15  16   2   24.30   42.90   1
 -15  16  -2   33.00   42.40   1
  15 -16   2   24.90   41.40   1
 -15 -16   2   61.30   44.60   1
  15  16  -2   42.20   43.40   1
  15  16   3   33.30   36.40   1
 -15 -16  -3   25.00   35.60   1
 -15  16  -3   20.60   35.20   1
  15 -16   3   40.50   36.40   1
 -15 -16   3   13.60   34.50   1
  15  16  -3   21.50   35.00   1
  15  16   4   11.10   32.70   1
 -15 -16  -4   24.60   32.10   1
 -15  16  -4    3.40   28.70   1
  15 -16   4   25.60   29.90   1
 -15 -16   4   21.70   34.50   1
  15  16  -4    8.40   29.30   1
  15  16   5   34.40   51.60   1
 -15 -16  -5   42.70   53.10   1
 -15  16  -5   57.50   50.60   1
  15 -16   5   56.10   49.70   1
 -15 -16   5   33.00   57.00   1
  15  16  -5  114.80   57.50   1
  15  16   6   33.70   32.00   1
 -15 -16  -6    0.00   32.10   1
  15 -16   6   13.90   25.70   1
 -15 -16   6    9.60   38.30   1
  15  16  -6   -0.00   35.10   1
  15  17   0   12.60   25.70   1
 -15 -17   0    8.10   27.90   1
  15 -17   0    7.60   29.50   1
  15  17   1    6.00   24.50   1
 -15 -17  -1   10.10   23.70   1
  15 -17  -1   -0.00   32.50   1
  15 -17   1   10.60   28.90   1
 -15 -17   1   23.70   35.90   1
  15  17  -1   17.30   34.70   1
  15  17   2   -0.00   28.80   1
 -15 -17  -2   25.80   29.80   1
  15 -17  -2   37.60   35.60   1
  15 -17   2   36.70   30.00   1
 -15 -17   2    5.50   30.80   1
  15  17  -2    3.60   29.60   1
  15  17   3   65.90   65.40   1
 -15 -17  -3  126.80   66.10   1
  15 -17  -3   29.80   64.80   1
  15 -17   3   85.00   65.70   1
 -15 -17   3   80.70   64.80   1
  15  17  -3  183.10   66.40   1
  15  17   4   25.50   28.20   1
 -15 -17  -4   -0.00   27.10   1
  15 -17   4    9.00   24.30   1
 -15 -17   4   -0.00   24.40   1
  15  17  -4    3.00   21.70   1
  15  18   0   62.90   34.70   1
 -15 -18   0    5.50   34.20   1
  15 -18   0   13.90   37.00   1
  15  18   1   43.20   61.00   1
 -15 -18  -1   72.30   61.40   1
  15 -18  -1   80.40   66.50   1
  15 -18   1   82.60   62.70   1
 -15 -18   1  175.10   75.70   1
  15  18  -1  318.90   71.40   1
  15  18   2   11.00   29.30   1
 -15 -18  -2   42.10   29.20   1
  15 -18  -2   10.80   36.90   1
  15 -18   2    4.80   28.50   1
 -15 -18   2   -0.00   30.20   1
  15  18  -2    9.80   33.90   1
  16   0   0 5655.50 2406.90   1
 -16   0   0 5859.30 2409.10   1
  16   0   1  670.50  312.80   1
 -16   0  -1  677.50  313.30   1
  16   0  -1  713.10  316.00   1
 -16   0   1  634.80  315.50   1
  16   0   2 2758.30 1244.70   1
 -16   0  -2 3281.20 1247.50   1
  16   0  -2 2899.30 1272.80   1
 -16   0   2 2910.80 1292.60   1
  16   0   3   96.20   73.10   1
 -16   0  -3  108.20   73.40   1
  16   0  -3  323.50   87.90   1
  16   0   4  470.20  249.80   1
 -16   0  -4  874.40  253.50   1
  16   0   5   57.00   54.90   1
 -16   0  -5   81.20   55.00   1
  16   0   6  284.10  142.40   1
 -16   0  -6  248.80  141.80   1
  16   1   0   50.90   41.10   1
 -16  -1   0   40.20   41.10   1
  16  -1   0   38.90   41.00   1
 -16   1   0   26.20   41.20   1
  16   1   1  327.40  169.40   1
 -16  -1  -1  504.10  170.30   1
 -16   1  -1  337.00  170.20   1
  16  -1   1  366.70  170.10   1
 -16  -1   1  252.00  169.00   1
  16   1  -1  261.10  169.00   1
  16   1   2  630.20   85.50   1
 -16  -1  -2  505.10   83.90   1
 -16   1  -2  102.20   79.30   1
  16  -1   2  117.00   79.30   1
 -16  -1   2   76.10   79.70   1
  16   1  -2   94.70   79.80   1
  16   1   3   49.90   61.40   1
 -16  -1  -3   87.90   61.70   1
 -16   1  -3  164.20   62.20   1
  16  -1   3  131.30   61.50   1
 -16  -1   3  109.00   62.80   1
  16   1  -3  223.90   65.40   1
  16   1   4  108.20   46.70   1
 -16  -1  -4   38.90   46.10   1
 -16   1  -4  113.50   46.40   1
  16  -1   4  258.20   49.90   1
 -16  -1   4   11.60   47.00   1
  16   1  -4   35.10   47.60   1
  16   1   5   21.80   27.40   1
 -16  -1  -5   -0.10   27.20   1
 -16   1  -5   13.80   26.10   1
  16  -1   5   35.90   26.10   1
  16   1  -5   14.40   28.40   1
  16   1   6   30.00   39.40   1
 -16  -1  -6   34.60   38.90   1
 -16   1  -6   40.20   38.00   1
 -16  -1  -7   34.20   38.40   1
  16   2   0  243.80  155.00   1
 -16  -2   0  522.50  157.00   1
  16   2   1   22.80   29.10   1
 -16  -2  -1   10.60   29.70   1
 -16  -2   1   22.20   28.10   1
  16   2  -1   19.70   28.40   1
  16   2   2  102.20   85.70   1
 -16  -2  -2  124.10   86.60   1
  16  -2   2  216.20   86.40   1
 -16  -2   2  212.60   86.30   1
  16   2  -2  192.80   85.60   1
  16   2   3    8.50   29.80   1
 -16  -2  -3  133.60   30.90   1
 -16   2  -3   31.10   27.10   1
  16  -2   3   12.10   27.00   1
 -16  -2   3   12.50   28.70   1
  16   2  -3   42.80   29.60   1
  16   2   4   34.90   46.70   1
 -16  -2  -4   80.30   46.80   1
  16  -2   4   85.10   46.60   1
 -16  -2   4   42.60   47.30   1
  16   2  -4   26.50   47.30   1
  16   2   5   83.50   54.70   1
 -16  -2  -5   48.60   54.40   1
 -16  -2   5   90.00   55.40   1
  16   2  -5   73.00   55.00   1
  16   2   6   37.00   31.30   1
 -16  -2  -6   20.80   30.20   1
 -16  -2   6   18.80   30.70   1
  16   2  -6   11.80   30.60   1
  16   2   7   24.00   29.60   1
 -16  -2  -7   49.80   32.40   1
 -16  -2   7   26.40   31.50   1
  16   2  -7    0.00   30.20   1
  16   2  -8   88.80   71.40   1
  16   3   0  423.00  218.70   1
 -16  -3   0  476.70  219.70   1
  16   3   1  309.60  153.20   1
 -16  -3  -1  329.70  152.50   1
 -16  -3   1  353.70  152.80   1
  16   3  -1  215.60  152.00   1
 -16  -3  -2  114.30   72.40   1
 -16  -3   2   92.20   71.50   1
  16   3  -2   90.80   71.70   1
  16   3   3  232.50   71.40   1
 -16  -3  -3  129.90   70.00   1
 -16  -3   3   73.30   68.60   1
  16   3  -3   56.60   68.50   1
  16   3   4   54.10   43.90   1
 -16  -3  -4   33.60   43.40   1
 -16  -3   4   43.80   43.80   1
  16   3  -4  104.10   45.80   1
  16   3   5   41.20   39.60   1
 -16  -3  -5   22.40   39.20   1
 -16  -3   5   42.40   38.70   1
  16   3  -5   43.40   38.70   1
  16   3   6   52.10   34.00   1
 -16  -3  -6   33.30   33.10   1
 -16  -3   6   14.20   31.50   1
  16   3  -6   16.40   32.40   1
  16   3   7   18.30   30.00   1
 -16  -3  -7   16.90   29.60   1
 -16  -3   7   13.90   27.50   1
  16   3  -7   21.80   27.80   1
 -16  -3  -8   12.60   26.30   1
 -16  -3   8   11.30   25.90   1
  16   3  -8   24.00   26.70   1
 -16  -3   9   15.40   32.20   1
  16   3  -9   29.60   32.20   1
  16   3 -10   18.50   33.30   1
  16   3 -11   51.80   53.90   1
  16   4   0  287.00  169.90   1
 -16  -4   0  434.30  170.90   1
  16   4   1  384.30   78.30   1
 -16  -4  -1  476.10   80.40   1
 -16  -4   1  116.80   75.60   1
  16   4  -1   51.70   73.50   1
  16   4   2   45.30   47.60   1
 -16  -4  -2   44.40   47.60   1
 -16  -4   2   70.40   48.90   1
  16   4  -2   55.40   48.90   1
  16   4   3  223.50   46.30   1
 -16  -4  -3  367.70   54.10   1
 -16  -4   3   16.90   45.00   1
  16   4  -3   36.80   45.30   1
  16   4   4  109.80   61.10   1
 -16  -4  -4   70.00   60.70   1
 -16  -4   4   70.20   61.10   1
  16   4  -4   66.00   61.30   1
  16   4   5   14.30   29.40   1
 -16  -4  -5   28.90   30.40   1
 -16  -4   5   12.70   27.70   1
  16   4  -5   25.50   28.50   1
  16   4   6    8.60   32.00   1
 -16  -4  -6   17.70   32.20   1
 -16   4  -6   28.50   29.50   1
 -16  -4   6   32.10   31.70   1
  16   4  -6   66.20   32.90   1
  16   4   7   25.00   27.80   1
 -16  -4  -7   41.60   28.90   1
 -16  -4   7   10.50   24.60   1
  16   4  -7    3.80   25.20   1
  16   4   8   33.60   39.30   1
 -16  -4  -8   24.20   41.20   1
 -16  -4   8   37.10   38.50   1
  16   4  -8   52.50   39.50   1
 -16  -4   9   19.50   20.70   1
  16   4  -9    1.90   20.20   1
 -16  -4  10    5.20   16.30   1
  16   4 -10   -0.00   17.10   1
 -16  -4  11   22.30   25.20   1
  16   4 -11    3.10   23.10   1
  16   5   0   59.60   68.40   1
 -16  -5   0  140.90   69.50   1
  16   5   1 2600.80 1122.80   1
 -16  -5  -1 2370.50 1122.30   1
 -16  -5   1 3400.20 1129.90   1
  16   5  -1 2900.90 1126.50   1
  16   5   2  232.30  173.50   1
 -16  -5  -2  784.40  176.50   1
 -16  -5   2 1163.80  186.30   1
  16   5  -2  898.10  182.50   1
  16   5   3  693.70  390.20   1
 -16  -5  -3  995.70  391.40   1
 -16  -5   3 1349.60  396.90   1
  16   5  -3 1464.50  398.20   1
  16   5   4   22.40   31.60   1
 -16  -5  -4   10.30   30.70   1
  16  -5   4   22.50   29.80   1
 -16  -5   4   42.90   31.80   1
  16   5  -4   30.50   32.10   1
  16   5   5   36.20   40.50   1
 -16  -5  -5   25.90   40.10   1
 -16   5  -5   48.40   37.50   1
  16  -5   5  147.00   37.90   1
 -16  -5   5   11.60   38.70   1
  16   5  -5   15.70   39.00   1
  16   5   6   25.60   31.90   1
 -16   5  -6   35.10   29.80   1
  16  -5   6   18.30   29.40   1
 -16  -5   6   10.50   30.20   1
  16   5  -6   24.90   31.10   1
  16   5   7  237.10  111.80   1
 -16  -5  -7  168.60  110.50   1
 -16   5  -7  176.70  109.30   1
  16  -5   7  148.60  109.50   1
 -16  -5   7  255.70  112.80   1
  16   5  -7  196.80  111.60   1
  16   5   8   36.30   31.70   1
 -16  -5  -8   11.00   30.40   1
 -16   5  -8   13.30   24.90   1
 -16  -5   8   19.10   27.40   1
  16   5  -8   19.70   27.50   1
 -16  -5  -9  111.50   74.70   1
 -16   5  -9  228.20   82.20   1
 -16  -5   9   76.50   73.40   1
  16   5  -9  130.10   75.20   1
 -16  -5  10   85.50   27.70   1
  16   5 -10    5.30   23.60   1
 -16  -5  11   77.30   70.00   1
  16   5 -11  115.30   71.50   1
  16   6   0  179.50  127.60   1
 -16  -6   0  324.20  129.50   1
  16   6   1  111.80   81.20   1
 -16  -6  -1  123.70   81.50   1
 -16  -6   1  141.20   83.30   1
  16   6  -1  114.20   83.00   1
  16   6   2  139.80   75.10   1
 -16  -6  -2   72.90   71.10   1
 -16  -6   2   94.40   71.80   1
  16   6  -2  112.00   71.60   1
  16   6   3  186.60   58.50   1
 -16  -6  -3   82.90   57.60   1
 -16  -6   3   34.80   60.40   1
  16   6  -3   22.30   61.10   1
  16   6   4   75.70   58.20   1
 -16  -6  -4   42.90   57.60   1
 -16   6  -4  100.70   57.60   1
  16  -6   4   72.30   57.00   1
 -16  -6   4  154.00   60.20   1
  16   6  -4   85.30   59.90   1
  16   6   5   58.40   58.00   1
 -16  -6  -5   81.00   58.50   1
 -16   6  -5   73.60   55.90   1
  16  -6   5   87.80   55.60   1
 -16  -6   5   97.20   58.00   1
  16   6  -5   36.10   57.20   1
  16   6   6   46.50   31.50   1
 -16  -6  -6   15.30   30.60   1
 -16   6  -6   48.60   27.20   1
  16  -6   6    1.60   28.30   1
 -16  -6   6    8.50   28.20   1
  16   6  -6   10.40   28.80   1
  16   6   7   40.90   38.70   1
 -16  -6  -7   63.90   39.60   1
 -16   6  -7   31.60   36.00   1
  16  -6   7   25.60   35.40   1
 -16  -6   7   25.10   36.90   1
  16   6  -7   28.00   37.30   1
  16   6   8   66.30   51.80   1
 -16  -6  -8   60.40   53.10   1
 -16   6  -8   64.20   48.50   1
  16  -6   8   92.80   49.10   1
 -16  -6   8   28.30   49.10   1
  16   6  -8  144.60   53.50   1
  16   6   9   -0.00   20.90   1
 -16  -6  -9   20.10   26.00   1
 -16   6  -9    6.00   14.90   1
  16  -6   9    5.30   14.80   1
 -16  -6   9    0.40   17.60   1
  16   6  -9   12.40   19.60   1
 -16  -6 -10   29.00   31.30   1
 -16   6 -10   12.70   26.00   1
  16  -6  10   61.70   30.10   1
 -16  -6  10   14.60   27.40   1
  16   6 -10   24.80   28.30   1
 -16   6 -11   17.20   23.50   1
 -16  -6  11   10.40   24.00   1
  16   6 -11   11.00   25.20   1
  16   7   0   74.10   47.30   1
 -16  -7   0   18.30   47.80   1
  16   7   1  168.30  119.60   1
 -16  -7  -1  250.90  119.90   1
 -16  -7   1  206.40  122.50   1
  16   7  -1  246.70  122.90   1
  16   7   2   50.10   37.10   1
 -16  -7  -2    8.60   38.50   1
 -16  -7   2   31.00   34.90   1
  16   7  -2    9.00   34.40   1
  16   7   3   69.10   53.70   1
 -16  -7  -3  105.50   53.90   1
  16  -7   3   74.90   54.40   1
 -16  -7   3   24.60   57.10   1
  16   7  -3   29.40   56.10   1
  16   7   4   96.40   48.10   1
 -16  -7  -4   91.00   48.20   1
 -16   7  -4   51.50   46.40   1
  16  -7   4   56.10   46.40   1
 -16  -7   4   22.10   49.00   1
  16   7  -4   -0.00   49.10   1
  16   7   5   41.70   33.90   1
 -16  -7  -5   26.20   33.40   1
 -16   7  -5   18.40   29.80   1
  16  -7   5   21.30   29.30   1
 -16  -7   5   16.20   32.70   1
  16   7  -5   20.90   33.50   1
  16   7   6   31.70   40.60   1
 -16  -7  -6   41.10   41.90   1
 -16   7  -6  131.30   41.80   1
  16  -7   6   47.50   38.50   1
 -16  -7   6   21.30   39.90   1
  16   7  -6   13.00   40.50   1
  16   7   7   71.30   59.40   1
 -16  -7  -7   66.00   59.40   1
 -16   7  -7   72.40   58.70   1
  16  -7   7   77.30   57.10   1
 -16  -7   7   61.50   57.80   1
  16   7  -7   74.00   58.50   1
  16   7   8   18.70   35.30   1
 -16  -7  -8   53.20   37.60   1
 -16   7  -8   50.30   34.40   1
  16  -7   8   27.30   31.90   1
 -16  -7   8   12.40   32.50   1
  16   7  -8   20.90   33.10   1
  16   7   9   23.00   33.70   1
 -16  -7  -9   52.40   35.90   1
 -16   7  -9   22.50   27.90   1
  16  -7   9   15.10   27.10   1
 -16  -7   9   13.10   28.70   1
  16   7  -9   21.90   29.40   1
 -16  -7 -10   32.30   44.10   1
 -16   7 -10   35.10   40.70   1
  16  -7  10   53.10   41.00   1
 -16  -7  10   41.30   42.20   1
  16   7 -10   50.30   43.30   1
  16   8   0  130.30   99.10   1
 -16  -8   0  238.60  100.50   1
  16   8   1  129.70   82.50   1
 -16  -8  -1  333.20   84.70   1
 -16  -8   1   59.60   84.20   1
  16   8  -1  116.90   83.60   1
  16   8   2   95.50   84.40   1
 -16  -8  -2  417.00   92.20   1
 -16  -8   2  118.80   87.10   1
  16   8  -2  163.40   88.20   1
  16   8   3   22.70   29.70   1
 -16  -8  -3   34.60   29.80   1
 -16   8  -3   16.50   30.70   1
  16  -8   3   15.60   29.50   1
 -16  -8   3   25.70   33.30   1
  16   8  -3    0.00   31.20   1
  16   8   4  255.20  117.90   1
 -16  -8  -4  250.70  117.50   1
 -16   8  -4  212.10  116.50   1
  16  -8   4  242.10  116.90   1
 -16  -8   4  125.60  119.70   1
  16   8  -4  165.80  118.90   1
  16   8   5   14.20   37.40   1
 -16  -8  -5   24.80   37.30   1
 -16   8  -5  130.20   35.90   1
  16  -8   5   41.50   34.20   1
 -16  -8   5    0.20   37.50   1
  16   8  -5    4.70   39.10   1
  16   8   6   32.80   45.80   1
 -16  -8  -6   44.10   46.50   1
 -16   8  -6   46.10   43.00   1
  16  -8   6   67.10   44.70   1
 -16  -8   6   50.60   46.60   1
  16   8  -6   24.90   45.80   1
  16   8   7   69.00   45.70   1
 -16  -8  -7   42.10   44.80   1
 -16   8  -7   44.10   41.80   1
  16  -8   7   12.80   42.90   1
 -16  -8   7  130.10   45.80   1
  16   8  -7  127.90   46.10   1
  16   8   8  150.10   34.70   1
 -16  -8  -8   31.30   28.30   1
 -16   8  -8   10.30   23.50   1
  16  -8   8    5.80   23.10   1
 -16  -8   8   -0.00   23.10   1
  16   8  -8   24.20   25.00   1
  16   8   9   18.00   37.20   1
 -16  -8  -9  144.80   41.50   1
 -16   8  -9   81.00   35.00   1
  16  -8   9   42.10   31.30   1
 -16  -8   9    6.50   31.20   1
  16   8  -9   14.00   31.90   1
  16   8  10   17.90   33.00   1
 -16  -8 -10   40.10   37.20   1
 -16   8 -10   34.60   29.70   1
  16  -8  10   20.10   28.40   1
 -16  -8  10   14.80   30.40   1
  16   8 -10   11.40   30.60   1
  16   9   0   20.70   26.60   1
 -16  -9   0    6.90   26.20   1
  16   9   1   25.10   40.20   1
 -16  -9  -1   39.20   38.70   1
 -16  -9   1   26.10   40.80   1
  16   9  -1   20.50   38.70   1
  16   9   2  127.00  107.20   1
 -16  -9  -2  269.70  109.00   1
 -16   9  -2  132.90  107.80   1
  16  -9   2  179.80  108.20   1
 -16  -9   2  365.00  114.40   1
  16   9  -2  390.60  114.30   1
  16   9   3   18.50   35.00   1
 -16  -9  -3   34.10   35.40   1
 -16   9  -3   46.30   36.40   1
  16  -9   3   19.70   34.70   1
 -16  -9   3   33.10   37.60   1
  16   9  -3   27.10   39.00   1
  16   9   4    2.90   31.50   1
 -16  -9  -4   17.90   30.40   1
 -16   9  -4   41.60   29.20   1
  16  -9   4   19.30   29.40   1
 -16  -9   4    0.00   33.40   1
  16   9  -4   21.20   32.10   1
  16   9   5   24.10   36.30   1
 -16  -9  -5   18.60   36.00   1
 -16   9  -5   45.50   33.50   1
  16  -9   5   25.10   32.50   1
 -16  -9   5   21.30   39.70   1
  16   9  -5    5.60   37.40   1
  16   9   6   47.60   37.30   1
 -16  -9  -6   55.50   37.70   1
 -16   9  -6   24.10   32.60   1
  16  -9   6   52.10   35.20   1
 -16  -9   6    5.20   36.10   1
  16   9  -6   -0.00   36.80   1
  16   9   7   19.30   30.80   1
 -16  -9  -7   38.50   31.30   1
 -16   9  -7   21.70   27.60   1
  16  -9   7   15.20   27.40   1
 -16  -9   7   17.90   30.30   1
  16   9  -7    1.90   30.40   1
  16   9   8   11.80   35.50   1
 -16  -9  -8   48.10   36.20   1
 -16   9  -8   11.10   33.30   1
  16  -9   8   20.20   32.10   1
 -16  -9   8   41.90   33.20   1
  16   9  -8   24.70   33.80   1
  16   9   9   13.80   29.60   1
 -16  -9  -9    7.90   32.10   1
 -16   9  -9   29.50   25.50   1
  16  -9   9   24.70   26.50   1
 -16  -9   9   -0.00   24.80   1
  16   9  -9   10.90   26.70   1
  16   9  10   27.60   30.60   1
 -16  -9 -10   14.60   33.50   1
 -16   9 -10   -0.00   25.30   1
  16  -9  10   18.70   23.20   1
 -16  -9  10    7.60   23.70   1
  16   9 -10   12.10   24.60   1
  16  10   0 1205.30  520.70   1
 -16 -10   0 1163.40  520.20   1
  16  10   1   64.60   58.20   1
 -16 -10  -1   18.40   53.20   1
  16 -10   1  149.20   54.50   1
 -16 -10   1   74.50   53.20   1
  16  10  -1   66.20   52.00   1
  16  10   2  484.70  134.30   1
 -16 -10  -2  392.50  134.00   1
 -16  10  -2  630.30  140.60   1
  16 -10   2  660.60  140.30   1
 -16 -10   2  135.10  135.40   1
  16  10  -2  168.40  135.30   1
  16  10   3   28.60   39.20   1
 -16 -10  -3   18.70   38.80   1
 -16  10  -3   41.90   39.80   1
  16 -10   3   34.00   38.90   1
 -16 -10   3  217.00   50.20   1
  16  10  -3   30.20   44.90   1
  16  10   4  282.30  129.20   1
 -16 -10  -4  256.70  128.80   1
 -16  10  -4  203.30  127.70   1
  16 -10   4  249.40  128.00   1
 -16 -10   4  225.00  130.00   1
  16  10  -4  180.50  129.60   1
  16  10   5   61.00   37.30   1
 -16 -10  -5   34.20   37.30   1
 -16  10  -5    8.90   32.50   1
  16 -10   5   21.60   32.00   1
 -16 -10   5   53.20   39.30   1
  16  10  -5   25.40   37.10   1
  16  10   6   60.60   43.40   1
 -16 -10  -6   24.20   43.00   1
 -16  10  -6   18.50   38.80   1
  16 -10   6   98.50   39.40   1
 -16 -10   6   38.80   46.00   1
  16  10  -6   34.30   46.50   1
  16  10   7    9.70   25.00   1
 -16 -10  -7    2.30   25.20   1
 -16  10  -7    0.20   23.00   1
  16 -10   7   21.40   21.60   1
 -16 -10   7   17.90   27.40   1
  16  10  -7   -0.00   28.50   1
  16  10   8  112.90   38.60   1
 -16 -10  -8   21.20   34.00   1
 -16  10  -8   14.70   30.10   1
  16 -10   8    3.00   32.30   1
 -16 -10   8   41.40   34.20   1
  16  10  -8   35.80   34.30   1
  16  10   9   72.00   46.80   1
 -16 -10  -9   52.80   46.70   1
 -16  10  -9   32.90   43.40   1
  16 -10   9   35.40   41.70   1
 -16 -10   9   43.70   42.90   1
  16  10  -9   31.30   43.70   1
  16  11   0    6.70   34.10   1
 -16 -11   0   40.80   34.80   1
  16  11   1   39.80   47.10   1
 -16 -11  -1  173.50   56.30   1
 -16  11  -1   48.60   44.20   1
  16 -11   1   76.20   45.70   1
 -16 -11   1   39.00   43.60   1
  16  11  -1   20.20   43.10   1
  16  11   2   29.60   37.60   1
 -16 -11  -2   65.70   38.80   1
 -16  11  -2   15.40   39.40   1
  16 -11   2   21.80   39.80   1
 -16 -11   2   31.70   45.90   1
  16  11  -2   33.80   42.20   1
  16  11   3   26.40   43.70   1
 -16 -11  -3   89.90   45.30   1
 -16  11  -3  106.80   45.40   1
  16 -11   3   46.80   44.20   1
 -16 -11   3   34.60   51.30   1
  16  11  -3   -0.00   47.60   1
  16  11   4   43.00   47.00   1
 -16 -11  -4   27.30   45.30   1
 -16  11  -4   44.40   45.30   1
  16 -11   4   46.50   45.50   1
 -16 -11   4  119.10   50.50   1
  16  11  -4   43.50   48.80   1
  16  11   5   19.50   35.70   1
 -16 -11  -5   22.00   34.40   1
 -16  11  -5   15.60   31.30   1
  16 -11   5   23.20   30.10   1
  16  11  -5   25.70   35.50   1
  16  11   6   39.30   51.30   1
 -16 -11  -6   37.10   50.60   1
 -16  11  -6   50.20   47.60   1
  16 -11   6   89.60   47.60   1
 -16 -11   6   48.70   52.90   1
  16  11  -6   31.00   51.10   1
  16  11   7   21.90   36.20   1
 -16 -11  -7   -0.00   36.40   1
 -16  11  -7   20.60   35.10   1
  16 -11   7   44.00   33.40   1
 -16 -11   7   27.10   39.10   1
  16  11  -7   31.10   41.60   1
  16  11   8    6.60   31.30   1
 -16 -11  -8    3.30   29.20   1
 -16  11  -8   18.80   25.20   1
  16 -11   8   37.30   27.30   1
 -16 -11   8    4.40   29.40   1
  16  11  -8    1.70   31.00   1
  16  11   9   13.90   37.50   1
 -16 -11  -9   41.30   37.30   1
 -16  11  -9   -0.00   34.10   1
  16 -11   9   22.70   34.30   1
 -16 -11   9   44.40   35.40   1
  16  11  -9   47.00   36.70   1
  16  12   0   34.30   51.30   1
 -16 -12   0   62.20   51.90   1
  16 -12   0  138.50   53.10   1
  16  12   1   60.10   54.70   1
 -16 -12  -1  144.20   61.70   1
 -16  12  -1   58.90   55.10   1
  16 -12   1  105.40   58.30   1
 -16 -12   1   61.70   54.70   1
  16  12  -1   35.30   54.00   1
  16  12   2  105.70   55.50   1
 -16 -12  -2   50.90   54.50   1
 -16  12  -2   59.80   56.80   1
  16 -12   2   78.10   56.00   1
 -16 -12   2   45.70   57.00   1
  16  12  -2   60.10   56.50   1
  16  12   3    5.80   34.70   1
 -16 -12  -3   22.20   34.00   1
 -16  12  -3   85.20   35.80   1
  16 -12   3    9.60   33.80   1
 -16 -12   3   13.90   41.60   1
  16  12  -3  127.40   44.00   1
  16  12   4  115.90   51.50   1
 -16 -12  -4   76.10   49.20   1
 -16  12  -4   23.20   47.20   1
  16 -12   4   41.90   48.10   1
 -16 -12   4   43.70   53.60   1
  16  12  -4   69.00   54.50   1
  16  12   5   70.30   57.70   1
 -16 -12  -5   53.80   57.00   1
 -16  12  -5   51.40   54.90   1
  16 -12   5   52.30   54.30   1
 -16 -12   5   83.00   59.40   1
  16  12  -5  147.10   59.90   1
  16  12   6   15.40   33.40   1
 -16 -12  -6   23.50   34.50   1
 -16  12  -6    9.20   29.30   1
  16 -12   6   24.20   29.10   1
 -16 -12   6   34.20   36.40   1
  16  12  -6   37.80   35.80   1
  16  12   7   44.50   42.80   1
 -16 -12  -7   35.00   43.00   1
 -16  12  -7   22.60   38.90   1
  16 -12   7  119.90   45.40   1
 -16 -12   7   50.80   48.30   1
  16  12  -7   30.80   45.80   1
  16  12   8   47.90   48.00   1
 -16 -12  -8   45.00   48.00   1
 -16  12  -8   56.50   45.00   1
  16 -12   8   26.30   43.90   1
 -16 -12   8   81.70   51.10   1
  16  12  -8  102.50   55.00   1
  16  13   0  133.50  108.50   1
  16 -13   0  402.70  111.00   1
 -16  13   0  416.00  113.90   1
  16  13   1   25.60   52.30   1
 -16 -13  -1  153.50   57.50   1
 -16  13  -1   71.40   56.40   1
  16 -13   1   80.30   55.90   1
 -16 -13   1   81.80   54.60   1
  16  13  -1   62.90   55.10   1
  16  13   2   82.40   55.60   1
 -16 -13  -2   66.10   55.40   1
 -16  13  -2  165.80   58.70   1
  16 -13   2  104.00   56.70   1
 -16 -13   2   75.80   56.60   1
  16  13  -2   21.80   55.00   1
  16  13   3  271.80  106.30   1
 -16 -13  -3  142.40  105.10   1
 -16  13  -3  195.10  105.40   1
  16 -13   3  122.50  104.80   1
 -16 -13   3  267.50  112.60   1
  16  13  -3  207.90  108.20   1
  16  13   4   81.60   52.30   1
 -16 -13  -4   45.20   49.10   1
 -16  13  -4   51.00   49.00   1
  16 -13   4   50.60   49.30   1
 -16 -13   4  113.40   60.00   1
  16  13  -4   14.00   52.50   1
  16  13   5   65.10   55.40   1
 -16 -13  -5   36.10   54.70   1
 -16  13  -5   31.20   52.50   1
  16 -13   5   94.60   53.10   1
 -16 -13   5  132.90   60.10   1
  16  13  -5  108.40   61.30   1
  16  13   6   22.30   44.20   1
 -16 -13  -6   54.10   45.80   1
 -16  13  -6   49.10   41.10   1
  16 -13   6   34.50   40.60   1
 -16 -13   6   63.50   46.80   1
  16  13  -6   17.90   44.20   1
  16  13   7   29.10   50.40   1
 -16 -13  -7   30.10   50.60   1
 -16  13  -7   64.70   47.10   1
  16 -13   7  100.70   50.90   1
 -16 -13   7   59.00   53.20   1
  16  13  -7   31.20   50.70   1
  16  14   0    9.80   35.00   1
 -16 -14   0   27.30   36.80   1
  16 -14   0    4.00   31.50   1
 -16  14   0   10.80   27.90   1
  16  14   1   24.10   36.60   1
 -16 -14  -1   41.80   37.70   1
  16 -14  -1   26.00   38.70   1
 -16  14  -1    6.90   39.40   1
  16 -14   1   17.00   41.00   1
 -16 -14   1   64.30   40.90   1
  16  14  -1   42.60   39.60   1
  16  14   2   16.20   26.90   1
 -16 -14  -2   11.80   26.00   1
 -16  14  -2   18.20   28.80   1
  16 -14   2    8.40   27.70   1
 -16 -14   2   12.00   27.10   1
  16  14  -2   11.20   27.50   1
  16  14   3    8.30   31.20   1
 -16 -14  -3   -0.00   29.90   1
 -16  14  -3   96.50   33.30   1
  16 -14   3   12.60   30.30   1
 -16 -14   3   38.40   35.10   1
  16  14  -3   23.60   32.80   1
  16  14   4   -0.00   33.10   1
 -16 -14  -4    8.40   30.70   1
 -16  14  -4   16.90   29.90   1
  16 -14   4   39.70   31.50   1
 -16 -14   4    1.90   37.90   1
  16  14  -4   72.70   41.00   1
  16  14   5   37.80   47.70   1
 -16 -14  -5   29.20   47.80   1
 -16  14  -5   39.80   46.20   1
  16 -14   5   46.50   45.60   1
 -16 -14   5   78.10   53.90   1
  16  14  -5   64.00   53.60   1
  16  14   6   27.00   41.50   1
 -16 -14  -6   42.40   42.40   1
 -16  14  -6   35.30   38.40   1
  16 -14   6   37.50   38.40   1
 -16 -14   6   39.00   44.80   1
  16  14  -6    9.60   44.00   1
  16  14   7   11.20   32.90   1
 -16 -14  -7    8.50   34.50   1
 -16  14  -7   25.40   28.60   1
  16 -14   7   25.10   29.30   1
 -16 -14   7    6.10   35.40   1
  16  14  -7   12.20   34.30   1
  16  15   0   47.30   49.70   1
 -16 -15   0   22.80   54.50   1
  16 -15   0   82.90   51.40   1
 -16  15   0   40.20   50.00   1
  16  15   1   56.90   45.90   1
 -16 -15  -1   70.60   46.40   1
  16 -15  -1   47.80   49.50   1
 -16  15   1   15.80   46.80   1
 -16  15  -1   31.40   47.80   1
  16 -15   1   62.50   48.60   1
 -16 -15   1   62.70   49.00   1
  16  15  -1   27.30   47.80   1
  16  15   2  136.90   58.70   1
 -16 -15  -2   57.40   57.40   1
 -16  15  -2   81.80   59.00   1
  16 -15   2   55.60   57.70   1
 -16 -15   2   92.20   58.50   1
  16  15  -2   41.40   57.60   1
  16  15   3   33.40   47.10   1
 -16 -15  -3   46.20   47.10   1
 -16  15  -3  166.40   49.60   1
  16 -15   3  141.50   49.60   1
 -16 -15   3   41.70   48.50   1
  16  15  -3   24.40   46.30   1
  16  15   4   17.50   31.80   1
 -16 -15  -4   -0.00   28.50   1
 -16  15  -4   11.80   27.30   1
  16 -15   4    9.20   27.70   1
 -16 -15   4    8.40   36.90   1
  16  15  -4   51.10   35.60   1
  16  15   5   61.30   56.70   1
 -16 -15  -5   78.70   57.60   1
 -16  15  -5   90.90   55.00   1
  16 -15   5   73.70   53.70   1
 -16 -15   5   41.70   61.10   1
  16  15  -5   11.80   57.10   1
  16  15   6   12.00   27.80   1
 -16 -15  -6   -0.00   27.10   1
 -16  15  -6   -0.10   19.70   1
  16 -15   6    3.90   18.80   1
 -16 -15   6   41.10   34.20   1
  16  15  -6   11.30   32.60   1
  16  16   0   33.80   37.50   1
 -16 -16   0   61.40   47.30   1
  16 -16   0    5.40   39.00   1
  16  16   1   -0.00   21.50   1
 -16 -16  -1   13.70   21.70   1
  16 -16  -1   13.20   29.40   1
 -16  16  -1    9.60   26.60   1
  16 -16   1   -0.00   24.40   1
 -16 -16   1    1.00   22.90   1
  16  16  -1    8.70   33.90   1
  16  16   2   16.80   38.00   1
 -16 -16  -2   45.00   38.00   1
  16 -16  -2   16.00   40.00   1
 -16  16  -2   13.90   38.80   1
  16 -16   2   63.60   40.00   1
 -16 -16   2   23.40   38.80   1
  16  16  -2   50.60   40.10   1
  16  16   3   12.70   23.90   1
 -16 -16  -3    4.60   23.90   1
 -16  16  -3   -0.10   24.60   1
  16 -16   3   11.80   24.20   1
 -16 -16   3    2.90   23.70   1
  16  16  -3   12.70   23.70   1
  16  16   4   27.20   39.90   1
 -16 -16  -4   20.70   38.10   1
  16 -16   4   24.30   37.30   1
 -16 -16   4   22.70   43.00   1
  16  16  -4   39.40   38.20   1
  16  17   0   71.70   40.30   1
 -16 -17   0   23.90   42.40   1
  16 -17   0    5.20   40.80   1
  16  17   1   18.90   32.70   1
 -16 -17  -1   17.90   32.90   1
  16 -17  -1   31.00   40.00   1
  16 -17   1   91.60   38.30   1
 -16 -17   1   -0.00   38.50   1
  16  17  -1   16.10   44.50   1
  16  17   2   19.80   36.20   1
 -16 -17  -2   19.20   36.20   1
  16 -17  -2    7.30   39.20   1
  16 -17   2   31.00   37.40   1
 -16 -17   2   50.90   39.50   1
  16  17  -2   45.50   38.50   1
  17   0   0  139.30   81.20   1
 -17   0   0  108.50   80.70   1
  17   0   1   73.20   59.30   1
 -17   0  -1   85.30   59.30   1
  17   0  -1   65.70   59.60   1
 -17   0   1   81.50   59.90   1
  17   0   2   35.00   45.30   1
 -17   0  -2   56.90   44.30   1
  17   0  -2   45.80   44.60   1
 -17   0   2   42.00   45.00   1
  17   0   3   42.80   52.10   1
 -17   0  -3   86.60   51.70   1
  17   0   4   59.30   61.30   1
 -17   0  -4   97.90   60.40   1
  17   0   5   64.50   41.80   1
 -17   0  -5   32.70   41.30   1
  17   0   6  399.20  184.20   1
 -17   0  -6  342.50  183.30   1
 -17   0  -7   62.90   53.60   1
  17   1   0   30.60   24.30   1
 -17  -1   0    3.60   23.20   1
  17  -1   0   21.70   23.50   1
 -17   1   0   15.40   24.00   1
  17   1   1   13.40   26.80   1
 -17  -1  -1   28.10   26.70   1
  17  -1  -1   26.10   27.30   1
 -17   1  -1   17.90   24.70   1
  17  -1   1   10.30   24.60   1
 -17  -1   1   16.30   25.00   1
  17   1  -1   14.70   25.40   1
  17   1   2    0.10   19.10   1
 -17  -1  -2   18.80   20.80   1
 -17   1  -2    8.70   17.00   1
  17  -1   2    7.40   17.20   1
 -17  -1   2   10.60   18.20   1
  17   1  -2    3.70   18.60   1
  17   1   3   57.60   31.40   1
 -17   1  -3   35.40   30.50   1
  17  -1   3    8.30   30.80   1
 -17  -1   3   26.50   31.20   1
  17   1  -3   10.70   30.70   1
  17   1   4   16.70   25.20   1
 -17  -1  -4   14.30   29.40   1
 -17   1  -4   87.50   27.70   1
  17  -1   4    6.10   24.80   1
 -17  -1   4   20.70   26.70   1
  17   1  -4   23.70   27.00   1
  17   1   5   18.60   28.00   1
 -17  -1  -5   25.60   27.50   1
 -17   1  -5   14.80   26.40   1
  17  -1   5   21.50   27.10   1
 -17  -1   5   10.70   29.20   1
  17   1  -5   19.80   29.10   1
  17   1   6    9.20   29.00   1
 -17  -1  -6   22.50   29.00   1
 -17   1  -6   20.60   28.30   1
  17  -1   6   29.10   28.30   1
  17   1  -6   19.30   34.00   1
  17   1   7   19.00   26.60   1
 -17  -1  -7   12.20   27.80   1
  17   2   0   29.60   41.50   1
 -17  -2   0  384.10   48.00   1
  17   2   1   37.00   30.60   1
 -17  -2  -1   40.20   32.70   1
 -17  -2   1   13.00   28.90   1
  17   2  -1   16.30   29.10   1
  17   2   2   30.40   49.10   1
 -17  -2  -2  102.20   51.00   1
  17  -2   2   60.10   47.20   1
 -17  -2   2   58.40   48.00   1
  17   2  -2   48.30   47.90   1
  17   2   3   23.70   25.10   1
 -17  -2  -3   24.60   25.00   1
 -17   2  -3   43.30   23.30   1
  17  -2   3    4.80   22.80   1
 -17  -2   3  142.90   29.20   1
  17   2  -3   37.80   25.80   1
  17   2   4  227.10  105.90   1
 -17  -2  -4  205.50  105.80   1
  17  -2   4  129.10  105.50   1
 -17  -2   4  226.90  108.40   1
  17   2  -4  269.30  109.20   1
  17   2   5   22.10   29.30   1
 -17  -2  -5   27.70   28.70   1
 -17   2  -5   21.00   26.60   1
 -17  -2   5   18.10   28.40   1
  17   2  -5    5.60   28.50   1
  17   2   6   32.50   41.60   1
 -17  -2  -6   46.70   41.60   1
 -17  -2   6   35.20   41.90   1
  17   2  -6  183.70   49.30   1
  17   2   7   23.70   27.70   1
 -17  -2  -7   20.60   26.60   1
 -17  -2   7    5.10   26.70   1
  17   2  -7    8.10   26.40   1
 -17  -2  -8   41.00   32.10   1
  17   2  -8    8.60   33.90   1
  17   3   0   12.50   22.20   1
 -17  -3   0   -0.00   24.80   1
  17   3   1  127.50  112.50   1
 -17  -3  -1  335.30  113.70   1
 -17  -3   1  476.80  115.40   1
  17   3  -1  223.40  112.90   1
  17   3   2   62.60   55.50   1
 -17  -3  -2   60.50   57.20   1
 -17  -3   2   67.60   54.70   1
  17   3  -2   70.80   55.20   1
  17   3   3  200.30  135.30   1
 -17  -3  -3  273.70  134.70   1
 -17  -3   3  280.10  135.90   1
  17   3  -3  308.60  135.90   1
  17   3   4  107.80   41.40   1
 -17  -3  -4   29.30   40.50   1
 -17  -3   4   24.70   40.60   1
  17   3  -4   65.70   42.40   1
  17   3   5   47.70   40.60   1
 -17  -3  -5   34.00   40.10   1
 -17  -3   5   93.40   41.30   1
  17   3  -5   24.90   39.30   1
  17   3   6   29.40   30.80   1
 -17  -3  -6   41.50   31.80   1
 -17  -3   6    9.90   29.40   1
  17   3  -6   18.20   29.70   1
  17   3   7   71.50   40.00   1
 -17  -3  -7   28.00   38.40   1
 -17  -3   7   16.80   37.40   1
  17   3  -7   61.90   39.10   1
  17   3   8   31.90   36.60   1
 -17  -3  -8   27.50   37.80   1
 -17  -3   8   22.70   36.40   1
  17   3  -8   42.70   36.90   1
 -17  -3   9  203.30   92.60   1
  17   3  -9  101.20   81.80   1
  17   3 -10  107.10   80.50   1
  17   4   0    0.30   22.40   1
 -17  -4   0   20.60   23.90   1
  17   4   1    0.00   31.60   1
 -17  -4  -1   91.00   37.80   1
 -17  -4   1   30.70   33.00   1
  17   4  -1    5.40   32.00   1
  17   4   2  291.30   45.40   1
 -17  -4  -2   61.30   43.50   1
 -17  -4   2   32.40   43.10   1
  17   4  -2   14.90   42.90   1
  17   4   3   23.30   28.30   1
 -17  -4  -3    9.00   27.90   1
 -17  -4   3   17.60   25.10   1
  17   4  -3    9.00   25.30   1
  17   4   4    7.70   24.80   1
 -17  -4  -4   39.50   25.10   1
 -17  -4   4   14.10   24.80   1
  17   4  -4    5.20   24.90   1
  17   4   5    7.50   19.90   1
 -17  -4  -5    0.00   18.90   1
 -17  -4   5    8.80   17.50   1
  17   4  -5    8.10   18.40   1
  17   4   6  102.20   33.70   1
 -17  -4  -6   80.50   34.00   1
 -17  -4   6   -0.00   30.80   1
  17   4  -6   29.60   31.90   1
  17   4   7   13.60   20.00   1
 -17  -4  -7   11.80   19.20   1
 -17  -4   7    1.70   16.10   1
  17   4  -7   -0.00   16.00   1
  17   4   8   12.00   29.50   1
 -17  -4  -8   19.40   28.80   1
 -17  -4   8    9.30   25.50   1
  17   4  -8   65.60   29.10   1
 -17  -4  -9    8.80   26.10   1
 -17  -4   9   13.10   25.50   1
  17   4  -9   20.00   25.80   1
 -17  -4  10    9.70   23.90   1
  17   4 -10    9.90   23.40   1
  17   5   0   94.00   40.60   1
 -17  -5   0    5.20   35.20   1
  17   5   1  121.40   88.00   1
 -17  -5  -1  203.20   91.20   1
 -17  -5   1  228.10   90.30   1
  17   5  -1   95.70   87.80   1
  17   5   2   -0.20   29.80   1
 -17  -5  -2  127.90   32.50   1
 -17  -5   2   14.70   33.10   1
  17   5  -2   10.30   34.60   1
  17   5   3   40.60   43.80   1
 -17  -5  -3   43.20   47.40   1
 -17  -5   3   68.10   45.70   1
  17   5  -3   36.00   45.30   1
  17   5   4   14.30   21.50   1
 -17  -5  -4   13.60   21.30   1
 -17  -5   4    1.10   22.20   1
  17   5  -4    7.90   22.30   1
  17   5   5   25.60   34.30   1
 -17  -5  -5   26.90   34.30   1
 -17  -5   5   24.00   33.00   1
  17   5  -5   27.50   33.40   1
  17   5   6   30.40   33.20   1
 -17  -5  -6   99.70   35.60   1
 -17   5  -6   35.50   30.90   1
  17  -5   6   24.10   30.50   1
 -17  -5   6    5.60   31.40   1
  17   5  -6   13.60   31.80   1
  17   5   7   37.10   59.50   1
 -17  -5  -7  116.40   60.00   1
 -17   5  -7  123.20   58.10   1
  17  -5   7  115.20   58.60   1
 -17  -5   7  205.90   63.70   1
  17   5  -7   64.90   59.50   1
  17   5   8   25.50   42.20   1
 -17  -5  -8   61.70   43.40   1
 -17   5  -8   47.70   38.80   1
 -17  -5   8   65.20   41.30   1
  17   5  -8   24.90   39.80   1
  17   5   9   34.30   38.40   1
 -17  -5  -9   54.90   40.90   1
 -17   5  -9   70.50   38.40   1
 -17  -5   9   27.10   36.70   1
  17   5  -9   21.00   37.60   1
 -17  -5  10    7.50   24.30   1
  17   5 -10   20.80   24.80   1
  17   6   0   50.70   62.60   1
 -17  -6   0  162.40   67.20   1
  17   6   1   20.30   39.60   1
 -17  -6  -1  139.70   43.10   1
 -17  -6   1   45.50   42.10   1
  17   6  -1   23.30   41.40   1
  17   6   2    5.70   29.50   1
 -17  -6  -2   66.30   32.10   1
 -17  -6   2    7.50   33.30   1
  17   6  -2   11.80   30.40   1
  17   6   3   17.10   28.00   1
 -17  -6  -3   26.10   29.50   1
 -17  -6   3    9.30   30.90   1
  17   6  -3   21.90   33.00   1
  17   6   4   19.70   37.00   1
 -17  -6  -4   40.70   37.20   1
 -17   6  -4   51.20   36.20   1
  17  -6   4   33.90   36.70   1
 -17  -6   4   36.40   38.50   1
  17   6  -4   22.80   38.40   1
  17   6   5   10.50   25.90   1
 -17  -6  -5   16.60   26.00   1
 -17   6  -5   11.80   22.60   1
  17  -6   5   18.30   22.20   1
 -17  -6   5    2.60   23.70   1
  17   6  -5   10.80   25.30   1
  17   6   6   11.70   32.20   1
 -17  -6  -6   49.10   34.20   1
 -17   6  -6    9.30   30.50   1
  17  -6   6   64.40   30.00   1
 -17  -6   6   14.30   30.90   1
  17   6  -6   15.60   31.30   1
  17   6   7   25.00   27.30   1
 -17  -6  -7    7.70   26.00   1
 -17   6  -7   22.30   23.20   1
  17  -6   7    7.90   22.90   1
 -17  -6   7   17.00   24.20   1
  17   6  -7    5.60   24.90   1
  17   6   8   29.40   27.60   1
 -17  -6  -8   10.80   26.80   1
 -17   6  -8    8.10   21.70   1
  17  -6   8   21.70   21.40   1
 -17  -6   8    4.50   22.60   1
  17   6  -8   83.90   28.80   1
  17   6   9   29.10   26.50   1
 -17  -6  -9   15.30   26.90   1
 -17   6  -9    6.90   17.60   1
  17  -6   9    7.70   17.50   1
 -17  -6   9    2.30   19.50   1
  17   6  -9   12.00   21.10   1
 -17  -6 -10   15.70   21.70   1
 -17   6 -10    5.60   14.80   1
 -17  -6  10   -0.00   16.90   1
  17   6 -10    5.40   17.90   1
  17   7   0   67.70   61.30   1
 -17  -7   0   81.60   64.60   1
  17   7   1   89.60   69.00   1
 -17  -7  -1   99.30   69.20   1
 -17  -7   1  129.40   72.90   1
  17   7  -1   68.70   71.80   1
  17   7   2   16.60   39.60   1
 -17  -7  -2   15.80   34.30   1
 -17  -7   2   63.40   36.60   1
  17   7  -2   14.30   34.40   1
  17   7   3  145.20   97.40   1
 -17  -7  -3  200.40   97.70   1
 -17  -7   3  184.70  101.30   1
  17   7  -3  124.50   99.40   1
  17   7   4   25.50   32.80   1
 -17  -7  -4   18.40   32.50   1
 -17   7  -4   29.30   32.60   1
  17  -7   4   28.10   31.80   1
 -17  -7   4   19.80   34.80   1
  17   7  -4   19.70   36.70   1
  17   7   5  125.50  110.70   1
 -17  -7  -5  247.20  111.30   1
 -17   7  -5  202.60  109.70   1
  17  -7   5  211.10  109.50   1
 -17  -7   5  209.60  111.60   1
  17   7  -5  217.00  111.80   1
  17   7   6   13.90   30.70   1
 -17  -7  -6   18.80   31.40   1
 -17   7  -6   15.40   27.10   1
  17  -7   6   41.70   28.00   1
 -17  -7   6   13.10   29.20   1
  17   7  -6   14.40   30.10   1
  17   7   7   15.20   35.60   1
 -17  -7  -7   48.10   36.80   1
 -17   7  -7   57.30   35.00   1
  17  -7   7   20.80   33.80   1
 -17  -7   7   19.00   34.20   1
  17   7  -7   31.60   35.00   1
  17   7   8   10.50   25.10   1
 -17  -7  -8    2.30   24.00   1
 -17   7  -8    9.20   20.30   1
  17  -7   8    6.10   18.50   1
 -17  -7   8   16.70   20.90   1
  17   7  -8    6.70   20.90   1
  17   7   9   77.60   43.20   1
 -17  -7  -9   40.40   40.30   1
 -17   7  -9   53.50   35.80   1
  17  -7   9   19.60   34.70   1
 -17  -7   9   25.10   36.00   1
  17   7  -9   29.40   37.30   1
  17   7  10    6.30   26.90   1
 -17  -7 -10   11.10   30.80   1
 -17   7 -10   12.80   21.90   1
  17  -7  10   13.10   21.60   1
 -17  -7  10   11.10   23.60   1
  17   7 -10   13.70   25.10   1
  17   8   0   80.00   53.70   1
 -17  -8   0   42.90   53.90   1
  17   8   1   11.50   32.20   1
 -17  -8  -1   25.20   31.80   1
 -17  -8   1  216.20   46.10   1
  17   8  -1   -0.00   33.30   1
  17   8   2  148.70   82.40   1
 -17  -8  -2  179.10   86.40   1
 -17  -8   2  125.20   82.40   1
  17   8  -2   74.70   81.80   1
  17   8   3  123.20   78.40   1
 -17  -8  -3   81.10   78.10   1
 -17   8  -3  106.60   78.20   1
  17  -8   3  132.00   79.30   1
 -17  -8   3  283.80   83.30   1
  17   8  -3  173.50   81.00   1
  17   8   4  634.60  270.50   1
 -17  -8  -4  524.70  269.80   1
 -17   8  -4  519.10  269.90   1
  17  -8   4  516.50  269.60   1
 -17  -8   4  909.20  277.80   1
  17   8  -4  631.80  273.50   1
  17   8   5   25.00   34.70   1
 -17  -8  -5   36.20   35.00   1
 -17   8  -5   23.90   32.60   1
  17  -8   5   25.60   32.20   1
 -17  -8   5   53.40   37.20   1
  17   8  -5   -0.00   35.80   1
  17   8   6   60.20   68.50   1
 -17  -8  -6   65.60   69.30   1
 -17   8  -6  145.10   66.50   1
  17  -8   6  101.30   67.50   1
 -17  -8   6  115.00   69.40   1
  17   8  -6   76.30   68.90   1
  17   8   7    8.60   25.70   1
 -17  -8  -7    8.00   25.80   1
 -17   8  -7   14.60   22.30   1
  17  -8   7   25.00   24.80   1
 -17  -8   7    9.50   24.40   1
  17   8  -7   -0.00   26.30   1
  17   8   8   41.00   62.00   1
 -17  -8  -8   79.70   62.80   1
 -17   8  -8   76.50   60.90   1
  17  -8   8  100.10   60.20   1
 -17  -8   8  125.20   62.10   1
  17   8  -8  136.50   62.60   1
  17   8   9   20.30   46.70   1
 -17  -8  -9   32.00   48.80   1
 -17   8  -9   69.70   46.50   1
  17  -8   9   59.50   44.20   1
 -17  -8   9   50.00   44.90   1
  17   8  -9   52.40   45.50   1
  17   9   0   10.40   21.40   1
 -17  -9   0    4.30   22.10   1
  17   9   1   -0.00   36.00   1
 -17  -9  -1   19.30   36.80   1
 -17  -9   1  192.90   49.30   1
  17   9  -1  138.80   44.20   1
  17   9   2   16.50   25.60   1
 -17  -9  -2   22.20   33.00   1
  17  -9   2    7.10   24.50   1
 -17  -9   2   23.40   32.90   1
  17   9  -2   -0.00   32.20   1
  17   9   3   29.00   35.30   1
 -17  -9  -3   16.70   34.40   1
 -17   9  -3   13.70   35.70   1
  17  -9   3   34.30   35.80   1
 -17  -9   3   61.90   39.80   1
  17   9  -3   47.90   38.30   1
  17   9   4    1.80   26.90   1
 -17  -9  -4   10.80   26.40   1
 -17   9  -4   30.20   25.90   1
  17  -9   4   16.50   25.40   1
 -17  -9   4   12.30   31.00   1
  17   9  -4    7.90   29.20   1
  17   9   5   42.40   41.30   1
 -17  -9  -5   59.20   42.70   1
 -17   9  -5   27.60   38.90   1
  17  -9   5   65.80   39.00   1
 -17  -9   5    7.10   43.70   1
  17   9  -5    0.00   44.60   1
  17   9   6    6.40   27.20   1
 -17  -9  -6   -0.00   27.30   1
 -17   9  -6   24.40   22.80   1
  17  -9   6   13.70   22.10   1
 -17  -9   6    0.00   26.80   1
  17   9  -6    3.30   28.40   1
  17   9   7   13.50   27.70   1
 -17  -9  -7    0.70   28.00   1
 -17   9  -7    4.20   24.60   1
  17  -9   7  148.70   26.50   1
 -17  -9   7   29.80   28.10   1
  17   9  -7    6.50   27.80   1
  17   9   8   11.30   25.70   1
 -17  -9  -8    2.60   25.80   1
 -17   9  -8   17.70   23.30   1
  17  -9   8   -0.00   22.90   1
 -17  -9   8   14.80   23.30   1
  17   9  -8   10.40   24.00   1
  17   9   9   39.70   28.10   1
 -17  -9  -9   33.80   28.10   1
 -17   9  -9    9.20   20.10   1
  17  -9   9    3.90   21.40   1
 -17  -9   9    0.40   20.40   1
  17   9  -9    1.30   21.30   1
  17  10   0   38.70   41.40   1
 -17 -10   0   35.70   41.20   1
  17  10   1   -0.00   44.20   1
 -17 -10  -1   20.30   40.60   1
 -17 -10   1   34.80   41.90   1
  17  10  -1  136.30   42.60   1
  17  10   2    6.00   29.00   1
 -17 -10  -2   71.40   34.10   1
 -17  10  -2   21.90   28.90   1
  17 -10   2   -0.00   30.80   1
 -17 -10   2   64.80   40.80   1
  17  10  -2    9.70   33.60   1
  17  10   3  110.60   37.10   1
 -17 -10  -3   25.60   34.90   1
 -17  10  -3   14.20   35.40   1
  17 -10   3   30.40   35.90   1
 -17 -10   3   10.70   40.00   1
  17  10  -3   14.80   41.20   1
  17  10   4  167.40   67.50   1
 -17 -10  -4  134.80   66.60   1
 -17  10  -4   67.40   64.90   1
  17 -10   4   58.50   64.90   1
 -17 -10   4   76.20   67.80   1
  17  10  -4  107.40   67.50   1
  17  10   5   19.60   25.90   1
 -17 -10  -5   16.40   24.30   1
 -17  10  -5   12.80   20.60   1
  17 -10   5   -1.00   20.10   1
 -17 -10   5   -0.10   30.40   1
  17  10  -5   -0.00   24.90   1
  17  10   6   29.80   50.40   1
 -17 -10  -6   50.90   51.50   1
 -17  10  -6   52.40   48.20   1
  17 -10   6   51.70   48.00   1
 -17 -10   6  182.80   59.40   1
  17  10  -6  132.80   57.70   1
  17  10   7   12.80   32.10   1
 -17 -10  -7   28.70   34.20   1
 -17  10  -7   15.30   31.50   1
  17 -10   7   33.80   29.50   1
 -17 -10   7   13.40   32.70   1
  17  10  -7    6.60   34.10   1
  17  10   8   44.60   46.40   1
 -17 -10  -8   68.90   48.10   1
 -17  10  -8   41.10   43.30   1
  17 -10   8   29.30   45.00   1
 -17 -10   8   55.00   46.40   1
  17  10  -8   53.40   46.50   1
  17  11   0    9.60   26.60   1
 -17 -11   0   12.10   27.10   1
  17  11   1   29.30   50.90   1
 -17 -11  -1   46.30   48.40   1
  17 -11   1   35.70   44.70   1
 -17 -11   1   51.60   45.40   1
  17  11  -1   45.50   45.00   1
  17  11   2   22.10   26.50   1
 -17 -11  -2    5.70   26.90   1
 -17  11  -2   14.40   29.30   1
  17 -11   2   -0.00   29.10   1
 -17 -11   2   43.60   38.60   1
  17  11  -2   25.70   33.10   1
  17  11   3   13.70   32.60   1
 -17 -11  -3   21.80   32.10   1
 -17  11  -3   30.70   33.90   1
  17 -11   3   26.40   33.00   1
 -17 -11   3   32.30   42.40   1
  17  11  -3   22.60   40.00   1
  17  11   4   15.00   24.20   1
 -17 -11  -4    3.10   22.30   1
 -17  11  -4   16.30   20.40   1
  17 -11   4   -0.00   20.70   1
 -17 -11   4    2.20   27.10   1
  17  11  -4   -0.00   27.90   1
  17  11   5   72.10   47.60   1
 -17 -11  -5   60.90   46.60   1
 -17  11  -5   22.30   43.60   1
  17 -11   5   54.00   44.10   1
 -17 -11   5   65.50   48.20   1
  17  11  -5   27.20   46.90   1
  17  11   6   35.20   33.20   1
 -17 -11  -6   12.50   33.60   1
 -17  11  -6   17.80   28.20   1
  17 -11   6   17.30   27.90   1
 -17 -11   6   37.80   38.50   1
  17  11  -6    7.60   34.00   1
  17  11   7   19.90   32.40   1
 -17 -11  -7   18.00   32.30   1
 -17  11  -7   18.00   27.70   1
  17 -11   7   28.50   30.90   1
 -17 -11   7   10.50   35.20   1
  17  11  -7    5.20   36.70   1
  17  11   8   75.20   39.00   1
 -17 -11  -8    9.90   35.70   1
 -17  11  -8   24.20   31.80   1
  17 -11   8   32.60   31.90   1
 -17 -11   8   18.60   35.60   1
  17  11  -8   -0.00   36.40   1
  17  12   0   93.40   77.70   1
 -17 -12   0  137.50   78.90   1
  17  12   1   21.70   27.20   1
 -17 -12  -1   13.30   33.60   1
 -17  12  -1    6.40   22.90   1
  17 -12   1    4.60   25.60   1
 -17 -12   1   -0.00   23.10   1
  17  12  -1   11.90   23.20   1
  17  12   2  140.80   96.80   1
 -17 -12  -2  179.30   96.90   1
 -17  12  -2  131.00   98.10   1
  17 -12   2  129.00   98.00   1
 -17 -12   2  183.30   99.80   1
  17  12  -2  171.20   98.50   1
  17  12   3   16.20   35.20   1
 -17 -12  -3   29.50   35.80   1
 -17  12  -3   28.90   36.10   1
  17 -12   3   36.60   35.50   1
 -17 -12   3   19.10   44.00   1
  17  12  -3   28.10   40.80   1
  17  12   4  343.30  156.30   1
 -17 -12  -4  273.20  155.20   1
 -17  12  -4  330.50  155.50   1
  17 -12   4  269.00  155.20   1
 -17 -12   4  277.00  158.00   1
  17  12  -4  273.00  158.50   1
  17  12   5   15.30   33.00   1
 -17 -12  -5   19.90   32.40   1
 -17  12  -5   13.20   29.50   1
  17 -12   5   18.30   29.00   1
 -17 -12   5   35.40   33.90   1
  17  12  -5    7.40   33.90   1
  17  12   6   37.20   49.30   1
 -17 -12  -6   63.50   50.70   1
 -17  12  -6   57.30   46.40   1
  17 -12   6   43.80   46.10   1
 -17 -12   6   45.40   50.20   1
  17  12  -6   46.20   49.70   1
  17  12   7    8.00   35.30   1
 -17 -12  -7   41.00   37.50   1
 -17  12  -7   19.50   31.10   1
  17 -12   7   39.70   35.50   1
 -17 -12   7   16.20   42.60   1
  17  12  -7   30.90   37.90   1
  17  13   0   21.50   29.70   1
 -17 -13   0   11.80   25.60   1
  17 -13   0   -0.00   24.70   1
  17  13   1  305.70  139.70   1
 -17 -13  -1  150.20  140.90   1
 -17  13  -1  603.50  149.00   1
  17 -13   1  542.20  147.40   1
 -17 -13   1  404.40  140.90   1
  17  13  -1  249.30  139.60   1
  17  13   2   84.70   67.30   1
 -17 -13  -2   65.30   66.60   1
 -17  13  -2  128.70   69.40   1
  17 -13   2  167.80   70.10   1
 -17 -13   2   90.00   69.00   1
  17  13  -2  102.10   68.40   1
  17  13   3  640.60  173.00   1
 -17 -13  -3  386.90  170.50   1
 -17  13  -3  960.70  179.50   1
  17 -13   3  703.50  174.30   1
 -17 -13   3  313.40  174.80   1
  17  13  -3  193.20  171.10   1
  17  13   4   24.40   47.90   1
 -17 -13  -4   46.80   48.00   1
 -17  13  -4   41.90   47.30   1
  17 -13   4   70.40   48.10   1
 -17 -13   4  102.90   58.40   1
  17  13  -4   55.80   51.50   1
  17  13   5  287.60  116.60   1
 -17 -13  -5  180.00  115.00   1
 -17  13  -5  249.80  114.10   1
  17 -13   5  308.20  114.50   1
 -17 -13   5  313.20  118.70   1
  17  13  -5  102.20  115.20   1
  17  13   6   31.70   41.70   1
 -17 -13  -6   41.10   41.30   1
 -17  13  -6   30.50   37.40   1
  17 -13   6   23.90   37.10   1
 -17 -13   6   64.80   44.00   1
  17  13  -6   30.50   43.00   1
  17  14   0   16.00   43.80   1
 -17 -14   0   28.40   37.20   1
  17 -14   0   12.80   37.10   1
 -17  14   0   74.80   37.60   1
  17  14   1   13.40   25.60   1
 -17 -14  -1   28.10   32.00   1
 -17  14  -1   18.90   30.40   1
  17 -14   1    0.00   28.90   1
 -17 -14   1   -0.00   27.40   1
  17  14  -1   17.40   28.50   1
  17  14   2   13.80   26.20   1
 -17 -14  -2   16.70   26.40   1
 -17  14  -2   15.10   28.60   1
  17 -14   2   10.80   27.10   1
 -17 -14   2    1.00   26.90   1
  17  14  -2   14.50   26.70   1
  17  14   3   15.20   25.40   1
 -17 -14  -3    6.40   25.10   1
 -17  14  -3    5.60   24.80   1
  17 -14   3    5.10   24.80   1
 -17 -14   3   15.20   33.40   1
  17  14  -3   19.90   28.90   1
  17  14   4   10.30   33.70   1
 -17 -14  -4   29.80   32.70   1
 -17  14  -4   10.30   31.70   1
  17 -14   4   22.60   32.40   1
 -17 -14   4  161.00   47.20   1
  17  14  -4    7.80   37.50   1
  17  14   5   -0.00   25.00   1
 -17 -14  -5   -0.30   25.00   1
 -17  14  -5   16.40   20.80   1
  17 -14   5   -0.00   19.90   1
 -17 -14   5   -0.00   31.70   1
  17  14  -5   -0.00   32.00   1
  17  14   6   62.90   45.10   1
 -17 -14  -6   38.30   45.00   1
 -17  14  -6   31.20   40.60   1
  17 -14   6   33.30   40.30   1
 -17 -14   6   38.00   46.60   1
  17  14  -6   35.10   46.70   1
  17  15   0    2.60   31.00   1
 -17 -15   0   20.80   33.40   1
  17 -15   0   -0.00   29.30   1
 -17  15   0   -0.00   22.90   1
  17  15   1   15.80   25.20   1
 -17 -15  -1    9.90   26.90   1
  17 -15  -1    5.40   27.60   1
 -17  15  -1   -0.00   27.90   1
  17 -15   1   10.40   29.80   1
 -17 -15   1   27.20   30.20   1
  17  15  -1   11.50   28.80   1
  17  15   2   10.20   27.80   1
 -17 -15  -2    7.10   26.70   1
 -17  15  -2   10.90   30.40   1
  17 -15   2   17.00   28.70   1
 -17 -15   2   17.80   28.80   1
  17  15  -2   22.40   28.50   1
  17  15   3  155.90   67.20   1
 -17 -15  -3  123.60   66.30   1
 -17  15  -3  140.90   66.50   1
  17 -15   3   98.60   65.80   1
 -17 -15   3   53.60   66.70   1
  17  15  -3   44.30   65.20   1
  17  15   4    0.00   25.50   1
 -17 -15  -4   16.30   23.70   1
 -17  15  -4    5.90   22.80   1
  17 -15   4   -0.00   23.80   1
 -17 -15   4   17.70   35.10   1
  17  15  -4    8.80   30.00   1
  17  16   0   30.20   39.90   1
 -17 -16   0   22.80   45.10   1
  17 -16   0   20.60   40.20   1
  17  16   1   21.60   25.20   1
 -17 -16  -1   -0.00   25.30   1
  17 -16  -1   21.40   31.50   1
  17 -16   1   23.70   30.00   1
 -17 -16   1   -0.00   28.40   1
  17  16  -1    0.00   28.60   1
  17  16   2   19.50   43.70   1
 -17 -16  -2   46.40   44.60   1
  17 -16  -2  151.50   54.50   1
  17 -16   2   45.00   45.30   1
 -17 -16   2   61.80   45.40   1
  17  16  -2   43.00   46.00   1
  17  16   3   41.30   40.90   1
 -17 -16  -3   33.30   40.50   1
  17 -16   3   35.70   40.40   1
 -17 -16   3   39.40   41.30   1
  17  16  -3   21.50   40.00   1
  18   0   0  301.50  161.20   1
 -18   0   0  308.20  161.40   1
  18   0   1   40.90   41.20   1
 -18   0  -1   51.40   41.30   1
  18   0  -1   30.40   41.20   1
 -18   0   1   53.10   41.80   1
  18   0   2  240.40  149.50   1
 -18   0  -2  336.70  149.80   1
  18   0  -2  362.10  154.20   1
 -18   0   2  336.50  156.30   1
  18   0   3   19.40   37.70   1
 -18   0  -3   51.20   37.50   1
  18   0  -3   39.60   38.80   1
  18   0   4  346.60  198.70   1
 -18   0  -4  534.60  199.40   1
  18   0   5   60.10   51.80   1
 -18   0  -5   61.80   51.60   1
  18   0   6  223.00  116.20   1
 -18   0  -6  185.70  115.90   1
 -18   0  -7   14.50   26.30   1
  18   1   0   23.40   25.40   1
 -18  -1   0   15.80   24.80   1
  18  -1   0    8.50   24.60   1
 -18   1   0   25.90   25.40   1
  18   1   1   54.90   61.30   1
 -18  -1  -1   87.20   61.40   1
  18  -1  -1   82.50   62.40   1
 -18   1  -1  147.30   62.40   1
  18  -1   1   78.20   60.80   1
 -18  -1   1  140.40   62.20   1
  18   1  -1  130.70   62.00   1
  18   1   2   51.50   21.40   1
 -18  -1  -2    8.80   22.00   1
 -18   1  -2    3.90   18.30   1
  18  -1   2    8.40   18.50   1
 -18  -1   2   12.00   19.50   1
  18   1  -2    5.20   19.10   1
 -18  -1  -3   65.90   42.80   1
 -18   1  -3   39.80   39.10   1
  18  -1   3   24.50   40.00   1
 -18  -1   3   48.90   40.20   1
  18   1  -3   33.40   39.80   1
  18   1   4  164.30   38.50   1
 -18  -1  -4  133.50   36.90   1
  18  -1   4  192.70   36.30   1
 -18  -1   4    5.80   35.60   1
  18   1  -4    4.80   35.50   1
  18   1   5   27.00   28.50   1
 -18  -1  -5   36.20   27.80   1
 -18   1  -5   21.70   26.90   1
  18  -1   5   14.30   27.20   1
 -18  -1   5   -0.00   29.70   1
  18   1  -5    8.40   29.40   1
  18   1   6  161.60   70.90   1
 -18  -1  -6   94.10   70.80   1
 -18   1  -6  138.70   70.20   1
  18  -1   6  111.00   70.40   1
  18   1  -6   24.30   72.20   1
  18   1   7  213.40  128.70   1
 -18  -1  -7  241.50  128.40   1
 -18  -1  -8   59.80   52.50   1
  18   2   0  105.10   85.50   1
 -18  -2   0  211.10   86.00   1
  18   2   1   29.40   36.10   1
 -18  -2  -1   33.10   38.30   1
 -18  -2   1   27.20   35.00   1
  18   2  -1   31.60   35.40   1
  18   2   2   44.10   28.10   1
 -18  -2  -2   35.50   26.50   1
  18  -2   2   20.20   22.60   1
 -18  -2   2    3.70   23.30   1
  18   2  -2    5.20   23.40   1
  18   2   3   37.00   23.20   1
 -18  -2  -3   22.30   23.50   1
 -18   2  -3   20.30   21.10   1
  18  -2   3    2.50   20.70   1
 -18  -2   3   13.00   22.80   1
  18   2  -3   19.00   23.10   1
  18   2   4   79.40   33.60   1
 -18  -2  -4   78.40   38.70   1
 -18   2  -4   21.20   32.50   1
  18  -2   4   25.30   32.60   1
 -18  -2   4   11.60   33.40   1
  18   2  -4   23.10   33.70   1
  18   2   5   24.60   30.70   1
 -18  -2  -5   32.90   30.10   1
 -18  -2   5   18.80   30.30   1
  18   2  -5   11.50   30.00   1
  18   2   6   49.60   30.50   1
 -18  -2  -6   35.30   30.70   1
 -18   2  -6   19.00   28.70   1
 -18  -2   6    8.70   30.20   1
  18   2  -6    9.10   30.40   1
  18   2   7   40.30   34.40   1
 -18  -2  -7   42.70   33.60   1
 -18  -2   7    7.30   33.90   1
  18   2  -7   13.90   33.50   1
  18   2   8   33.40   46.30   1
 -18  -2  -8  105.60   49.40   1
  18   2  -8   42.30   48.90   1
  18   3   0    5.80   23.90   1
 -18  -3   0   15.70   25.90   1
  18   3   1  148.80   86.90   1
 -18  -3  -1  110.40   86.50   1
 -18  -3   1  122.30   86.40   1
  18   3  -1  165.60   87.10   1
  18   3   2  114.10   32.10   1
 -18  -3  -2    3.40   29.30   1
 -18  -3   2   12.60   25.30   1
  18   3  -2   10.50   25.50   1
  18   3   3   88.70   67.10   1
 -18  -3  -3   85.70   67.00   1
 -18  -3   3   89.70   66.90   1
  18   3  -3  109.60   67.30   1
  18   3   4   83.50   42.10   1
 -18  -3  -4  255.70   44.20   1
  18  -3   4   28.50   40.70   1
 -18  -3   4   17.60   41.70   1
  18   3  -4   39.60   42.90   1
  18   3   5    5.00   28.10   1
 -18  -3  -5   43.30   28.20   1
 -18  -3   5   82.90   30.30   1
  18   3  -5   10.90   27.50   1
  18   3   6   11.00   29.70   1
 -18  -3  -6   40.60   30.80   1
 -18  -3   6   16.50   28.70   1
  18   3  -6   20.50   29.30   1
  18   3   7   64.60   54.00   1
 -18  -3  -7  128.50   54.10   1
 -18  -3   7   82.40   54.70   1
  18   3  -7   29.30   53.00   1
  18   3   8   15.90   20.70   1
 -18  -3  -8   -0.00   20.00   1
 -18  -3   8   -0.00   17.40   1
  18   3  -8    6.40   18.50   1
 -18  -3  -9   38.90   45.10   1
 -18  -3   9   45.30   46.40   1
  18   3  -9   66.60   47.20   1
  18   3 -10   46.00   48.60   1
  18   4   0   86.70   62.20   1
 -18  -4   0   70.40   62.70   1
  18   4   1  264.40   44.50   1
 -18  -4  -1  335.00   47.00   1
 -18  -4   1   10.80   37.00   1
  18   4  -1    4.90   37.50   1
  18   4   2   18.90   35.10   1
 -18  -4  -2   41.40   37.60   1
 -18  -4   2   59.10   36.50   1
  18   4  -2   20.00   35.60   1
  18   4   3  213.70   39.90   1
 -18  -4  -3   79.90   30.80   1
 -18  -4   3    5.00   27.00   1
  18   4  -3    7.80   27.60   1
  18   4   4   47.30   29.00   1
 -18  -4  -4   21.00   28.10   1
 -18  -4   4    7.10   28.30   1
  18   4  -4   13.10   28.80   1
  18   4   5   84.10   30.60   1
 -18  -4  -5   79.50   29.00   1
 -18  -4   5    2.70   26.80   1
  18   4  -5    8.10   27.80   1
  18   4   6   11.40   25.80   1
 -18  -4  -6   20.20   26.60   1
 -18  -4   6   13.20   24.50   1
  18   4  -6   12.00   25.10   1
  18   4   7  279.60   36.70   1
 -18  -4  -7  210.10   33.80   1
 -18  -4   7    6.90   27.60   1
  18   4  -7   11.20   28.10   1
  18   4   8   18.40   35.40   1
 -18  -4  -8   31.80   36.30   1
 -18  -4   8   21.30   33.30   1
  18   4  -8   46.20   34.40   1
  18   4   9   23.60   27.10   1
 -18  -4  -9   52.30   30.40   1
 -18  -4   9    3.40   24.80   1
  18   4  -9   10.00   25.90   1
 -18  -4  10    2.40   15.00   1
  18   4 -10   -0.00   15.40   1
  18   5   0   17.00   37.60   1
 -18  -5   0   42.70   37.80   1
  18   5   1  146.00  103.50   1
 -18  -5  -1  179.50  104.90   1
 -18  -5   1  254.70  104.80   1
  18   5  -1  150.50  103.10   1
  18   5   2   12.30   25.80   1
 -18  -5  -2   34.10   26.80   1
 -18  -5   2    3.90   29.30   1
  18   5  -2    3.00   29.40   1
  18   5   3   84.90   59.90   1
 -18  -5  -3  166.80   62.80   1
 -18  -5   3   39.20   58.20   1
  18   5  -3   89.40   59.60   1
  18   5   4   61.60   42.50   1
 -18  -5  -4   41.00   42.20   1
 -18  -5   4   28.20   42.10   1
  18   5  -4   40.30   42.80   1
  18   5   5    0.00   29.80   1
 -18  -5  -5   25.20   29.60   1
 -18   5  -5   24.20   27.70   1
 -18  -5   5   15.80   28.60   1
  18   5  -5   61.60   30.60   1
  18   5   6   36.10   46.20   1
 -18  -5  -6   43.60   46.40   1
 -18  -5   6   67.00   46.10   1
  18   5  -6   66.90   46.10   1
  18   5   7  227.20  144.10   1
 -18  -5  -7  242.50  144.20   1
 -18   5  -7  521.60  146.90   1
 -18  -5   7  655.40  162.50   1
  18   5  -7  466.50  153.40   1
  18   5   8    8.60   30.30   1
 -18  -5  -8   11.50   29.80   1
 -18   5  -8   19.10   25.50   1
 -18  -5   8   43.60   29.10   1
  18   5  -8   18.10   27.50   1
  18   5   9   34.50   35.00   1
 -18  -5  -9   39.30   36.70   1
 -18   5  -9   31.00   31.10   1
 -18  -5   9   17.40   31.40   1
  18   5  -9   16.10   31.70   1
  18   6   0   73.30   75.10   1
 -18  -6   0  188.60   78.50   1
  18   6   1   89.50   42.70   1
 -18  -6  -1   55.80   44.30   1
 -18  -6   1   24.50   42.40   1
  18   6  -1   16.20   41.90   1
  18   6   2   24.00   35.20   1
 -18  -6  -2  101.10   37.20   1
 -18  -6   2   11.40   39.30   1
  18   6  -2    9.00   36.20   1
  18   6   3   31.00   34.80   1
 -18  -6  -3   31.50   39.40   1
 -18  -6   3   29.90   36.70   1
  18   6  -3   20.10   37.80   1
  18   6   4   21.60   30.50   1
 -18  -6  -4   29.00   30.40   1
  18  -6   4   34.80   29.50   1
 -18  -6   4   12.50   30.80   1
  18   6  -4    8.80   31.60   1
  18   6   5   21.40   28.80   1
 -18  -6  -5   14.70   27.80   1
 -18   6  -5   23.50   25.80   1
  18  -6   5   16.80   25.70   1
 -18  -6   5    6.70   27.20   1
  18   6  -5   15.80   27.70   1
  18   6   6   22.50   35.60   1
 -18  -6  -6   33.30   36.70   1
  18  -6   6   90.10   32.80   1
 -18  -6   6    6.60   33.80   1
  18   6  -6   20.70   34.60   1
  18   6   7   65.10   32.40   1
 -18  -6  -7  118.40   33.70   1
 -18   6  -7  205.40   31.70   1
  18  -6   7    3.90   27.80   1
 -18  -6   7   34.20   30.00   1
  18   6  -7   10.10   29.20   1
  18   6   8   44.20   61.10   1
 -18  -6  -8  286.80   64.70   1
 -18   6  -8   80.90   58.20   1
  18  -6   8   63.10   57.90   1
 -18  -6   8   78.20   59.60   1
  18   6  -8  143.40   62.80   1
  18   6   9   18.30   25.80   1
 -18  -6  -9   10.50   24.00   1
 -18   6  -9    4.70   14.20   1
  18  -6   9    5.00   14.10   1
 -18  -6   9    0.30   16.90   1
  18   6  -9    6.60   18.20   1
  18   7   0   74.10   66.10   1
 -18  -7   0   89.50   67.70   1
  18   7   1   28.80   41.50   1
 -18  -7  -1   33.00   41.60   1
 -18  -7   1   37.90   44.10   1
  18   7  -1  142.30   49.10   1
  18   7   2   63.20   38.60   1
 -18  -7  -2   28.30   36.60   1
 -18  -7   2   15.20   37.70   1
  18   7  -2   18.50   36.70   1
  18   7   3   58.00   40.10   1
 -18  -7  -3  109.10   42.30   1
 -18  -7   3   -0.00   43.70   1
  18   7  -3   -0.00   42.20   1
  18   7   4   56.40   39.70   1
 -18  -7  -4   81.90   40.10   1
 -18   7  -4   33.00   38.70   1
  18  -7   4   35.20   39.20   1
 -18  -7   4   22.70   40.60   1
  18   7  -4   -0.00   41.10   1
  18   7   5   48.90   50.00   1
 -18  -7  -5   65.10   49.90   1
 -18   7  -5  119.30   48.50   1
  18  -7   5   59.40   48.20   1
 -18  -7   5   23.60   49.40   1
  18   7  -5   50.20   50.10   1
  18   7   6   24.30   30.20   1
 -18  -7  -6    5.70   30.10   1
 -18   7  -6   23.90   26.20   1
  18  -7   6   64.40   28.70   1
 -18  -7   6   -0.00   28.10   1
  18   7  -6    3.40   28.60   1
  18   7   7   19.20   32.60   1
 -18  -7  -7   36.50   33.60   1
 -18   7  -7   28.40   29.50   1
  18  -7   7   27.50   30.80   1
 -18  -7   7   11.20   30.70   1
  18   7  -7   13.20   31.30   1
  18   7   8   43.40   40.70   1
 -18  -7  -8   31.50   39.90   1
 -18   7  -8   54.20   37.50   1
  18  -7   8   22.30   36.80   1
 -18  -7   8   32.80   37.90   1
  18   7  -8   39.20   38.40   1
  18   7   9   16.20   31.80   1
 -18  -7  -9   49.00   35.10   1
 -18   7  -9   30.80   27.30   1
  18  -7   9   11.80   25.90   1
 -18  -7   9   15.90   27.90   1
  18   7  -9   15.60   29.20   1
  18   8   0   38.80   53.70   1
 -18  -8   0  211.10   60.30   1
  18   8   1   41.00   44.20   1
 -18  -8  -1   52.30   44.60   1
 -18  -8   1  159.30   54.60   1
  18   8  -1   10.40   46.10   1
  18   8   2  104.00   57.90   1
 -18  -8  -2   26.50   51.60   1
 -18  -8   2  229.00   57.30   1
  18   8  -2   56.10   53.30   1
  18   8   3   67.80   56.70   1
 -18  -8  -3   71.40   57.10   1
  18  -8   3   72.70   56.80   1
 -18  -8   3   69.20   59.60   1
  18   8  -3   61.50   58.60   1
  18   8   4   84.60   51.20   1
 -18  -8  -4   89.60   51.40   1
 -18   8  -4   43.60   50.40   1
  18  -8   4   86.10   50.20   1
 -18  -8   4   26.80   54.40   1
  18   8  -4   14.40   53.00   1
  18   8   5   73.00   50.40   1
 -18  -8  -5   90.10   50.70   1
 -18   8  -5   67.10   48.20   1
  18  -8   5   76.40   48.40   1
 -18  -8   5   27.60   49.60   1
  18   8  -5   14.40   50.50   1
  18   8   6   16.10   36.20   1
 -18  -8  -6    6.60   36.40   1
 -18   8  -6   36.20   33.40   1
  18  -8   6  140.70   34.00   1
 -18  -8   6   14.70   35.20   1
  18   8  -6   16.70   36.80   1
  18   8   7   25.30   40.50   1
 -18  -8  -7   54.80   42.40   1
 -18   8  -7   36.60   38.30   1
  18  -8   7   95.00   38.70   1
 -18  -8   7   15.30   39.20   1
  18   8  -7   28.90   40.00   1
  18   8   8   49.00   45.10   1
 -18  -8  -8   56.00   45.20   1
 -18   8  -8   39.90   43.40   1
  18  -8   8   31.60   41.70   1
 -18  -8   8   35.90   43.00   1
  18   8  -8   82.90   45.20   1
  18   9   0  105.20   43.20   1
 -18  -9   0   13.80   41.90   1
  18   9   1   30.20   39.00   1
 -18  -9  -1   53.60   40.20   1
 -18  -9   1   36.30   44.50   1
  18   9  -1   11.20   41.90   1
  18   9   2   80.10   71.40   1
 -18  -9  -2  260.20   79.10   1
 -18  -9   2  127.90   74.40   1
  18   9  -2   61.50   72.70   1
  18   9   3   12.40   28.90   1
 -18  -9  -3   24.70   28.90   1
 -18   9  -3    8.50   28.60   1
  18  -9   3   29.50   31.00   1
 -18  -9   3   49.90   35.20   1
  18   9  -3   19.00   33.70   1
  18   9   4  288.50   70.80   1
 -18  -9  -4  266.30   70.20   1
 -18   9  -4  237.70   69.90   1
  18  -9   4  287.20   69.70   1
 -18  -9   4    9.10   69.70   1
  18   9  -4   73.80   69.90   1
  18   9   5   16.70   31.30   1
 -18  -9  -5   10.90   30.50   1
 -18   9  -5   14.30   28.00   1
  18  -9   5   28.60   28.60   1
 -18  -9   5    7.40   33.40   1
  18   9  -5   47.80   36.50   1
  18   9   6   54.30   34.70   1
 -18  -9  -6   42.70   35.10   1
 -18   9  -6   25.20   29.50   1
  18  -9   6   20.90   29.20   1
 -18  -9   6   -0.00   33.20   1
  18   9  -6   -0.00   34.00   1
  18   9   7   16.40   27.20   1
 -18  -9  -7    0.40   27.40   1
 -18   9  -7   25.80   26.90   1
  18  -9   7    9.00   23.00   1
 -18  -9   7   38.40   28.00   1
  18   9  -7    2.70   28.30   1
  18   9   8    3.30   26.00   1
 -18  -9  -8   65.80   29.10   1
 -18   9  -8    2.60   21.20   1
  18  -9   8   31.60   24.10   1
 -18  -9   8   -0.00   24.20   1
  18   9  -8    9.70   25.60   1
  18  10   0   57.30   56.60   1
 -18 -10   0   77.70   56.50   1
  18  10   1   23.30   36.40   1
 -18 -10  -1   25.30   36.30   1
 -18 -10   1  127.90   43.70   1
  18  10  -1    7.90   36.20   1
  18  10   2   60.50   48.00   1
 -18 -10  -2  118.40   54.70   1
  18 -10   2   48.40   47.20   1
  18  10  -2   13.80   49.30   1
  18  10   3   60.40   38.90   1
 -18 -10  -3   24.10   37.70   1
 -18  10  -3   36.90   39.80   1
  18 -10   3   31.70   38.90   1
 -18 -10   3   21.40   42.10   1
  18  10  -3   23.40   43.20   1
  18  10   4   40.70   44.10   1
 -18 -10  -4   33.70   44.10   1
 -18  10  -4  115.20   44.50   1
  18 -10   4   45.30   43.50   1
 -18 -10   4   25.10   46.10   1
  18  10  -4   39.10   45.60   1
  18  10   5    8.80   32.40   1
 -18 -10  -5   27.20   32.10   1
 -18  10  -5   16.00   29.80   1
  18 -10   5   23.90   30.20   1
 -18 -10   5   31.80   38.20   1
  18  10  -5   25.40   33.90   1
  18  10   6   56.80   55.90   1
 -18 -10  -6   88.80   57.30   1
 -18  10  -6   68.70   52.60   1
  18 -10   6   43.30   52.30   1
 -18 -10   6  123.60   59.50   1
  18  10  -6   82.30   60.30   1
  18  10   7   17.00   33.30   1
 -18 -10  -7   30.20   35.10   1
 -18  10  -7   35.70   30.40   1
  18 -10   7   21.50   31.80   1
 -18 -10   7    4.40   34.50   1
  18  10  -7    8.50   35.20   1
  18  11   0   18.40   30.90   1
 -18 -11   0   15.30   29.30   1
  18  11   1   24.90   38.50   1
 -18 -11  -1    3.90   31.90   1
 -18 -11   1   15.60   32.70   1
  18  11  -1   40.40   31.80   1
  18  11   2   46.50   42.10   1
 -18 -11  -2  193.60   48.60   1
 -18  11  -2   28.10   42.30   1
  18 -11   2   35.80   44.60   1
 -18 -11   2   36.60   48.50   1
  18  11  -2    2.90   46.20   1
  18  11   3    4.30   28.70   1
 -18 -11  -3   28.50   29.50   1
 -18  11  -3   18.00   29.90   1
  18 -11   3   12.80   29.10   1
 -18 -11   3   85.40   40.90   1
  18  11  -3    8.70   37.50   1
  18  11   4   21.50   32.10   1
 -18 -11  -4   17.80   31.60   1
 -18  11  -4   17.10   31.20   1
  18 -11   4   26.00   30.90   1
 -18 -11   4   26.30   36.20   1
  18  11  -4   18.50   35.90   1
  18  11   5    6.60   25.60   1
 -18 -11  -5   -0.00   26.40   1
 -18  11  -5   18.60   23.10   1
  18 -11   5   10.10   22.80   1
 -18 -11   5    5.10   28.20   1
  18  11  -5   13.10   28.20   1
  18  11   6   22.40   30.10   1
 -18 -11  -6   38.60   30.90   1
 -18  11  -6   13.90   24.30   1
  18 -11   6    8.40   23.30   1
 -18 -11   6    0.00   32.90   1
  18  11  -6    9.10   30.30   1
  18  11   7    8.20   33.60   1
 -18 -11  -7   -0.00   33.70   1
 -18  11  -7   33.70   28.90   1
  18 -11   7   27.60   32.70   1
 -18 -11   7   23.10   35.70   1
  18  11  -7   -0.00   37.10   1
  18  12   0   72.00   76.20   1
 -18 -12   0  225.20   77.70   1
  18  12   1  275.10  120.50   1
 -18 -12  -1  203.60  119.10   1
  18 -12   1  130.40  115.20   1
 -18 -12   1  209.20  115.50   1
  18  12  -1  185.00  115.10   1
  18  12   2  144.40   54.70   1
 -18 -12  -2   34.50   53.10   1
 -18  12  -2   27.00   54.90   1
  18 -12   2   57.90   55.10   1
 -18 -12   2  137.90   62.10   1
  18  12  -2  154.40   58.40   1
  18  12   3   67.30   55.30   1
 -18 -12  -3   41.80   54.70   1
 -18  12  -3   90.00   56.70   1
  18 -12   3   62.40   55.20   1
 -18 -12   3  195.30   67.80   1
  18  12  -3   57.20   59.20   1
  18  12   4   61.30   51.40   1
 -18 -12  -4  101.40   51.40   1
 -18  12  -4   31.70   49.60   1
  18 -12   4   46.20   50.00   1
 -18 -12   4   52.80   55.30   1
  18  12  -4   83.60   57.90   1
  18  12   5   34.60   54.20   1
 -18 -12  -5   81.70   55.20   1
 -18  12  -5   66.30   52.60   1
  18 -12   5   59.00   52.60   1
 -18 -12   5   59.20   56.30   1
  18  12  -5   61.20   56.10   1
  18  12   6   18.10   38.30   1
 -18 -12  -6   24.70   38.40   1
 -18  12  -6   29.70   34.40   1
  18 -12   6   30.60   33.90   1
 -18 -12   6   32.70   40.10   1
  18  12  -6   16.80   38.10   1
  18  13   0    2.10   22.60   1
 -18 -13   0   11.30   24.20   1
  18  13   1  143.00   65.30   1
 -18 -13  -1  168.20   71.60   1
 -18  13  -1  108.80   63.00   1
  18 -13   1  146.10   65.90   1
 -18 -13   1   55.60   61.60   1
  18  13  -1   47.30   61.30   1
  18  13   2   17.20   35.10   1
 -18 -13  -2   17.00   35.20   1
 -18  13  -2   55.60   38.30   1
  18 -13   2   45.40   38.30   1
 -18 -13   2   32.60   39.00   1
  18  13  -2   25.10   36.40   1
  18  13   3  166.50   91.60   1
 -18 -13  -3  120.80   90.60   1
 -18  13  -3  142.10   91.20   1
  18 -13   3  225.40   91.90   1
 -18 -13   3  271.50   98.40   1
  18  13  -3   85.30   93.30   1
  18  13   4   60.20   46.20   1
 -18 -13  -4   33.70   45.30   1
 -18  13  -4   58.30   44.70   1
  18 -13   4   32.10   44.10   1
 -18 -13   4   59.10   54.30   1
  18  13  -4   24.70   50.70   1
  18  13   5   39.60   43.10   1
 -18 -13  -5   25.40   41.70   1
 -18  13  -5   42.30   41.10   1
  18 -13   5   17.10   40.40   1
 -18 -13   5   76.60   46.40   1
  18  13  -5   65.90   46.80   1
  18  14   0    4.80   34.30   1
 -18 -14   0    9.10   29.60   1
  18 -14   0   36.50   30.60   1
  18  14   1   17.30   34.00   1
 -18  14  -1    9.60   34.40   1
  18 -14   1   19.90   36.60   1
 -18 -14   1   21.70   32.70   1
  18  14  -1   33.60   34.10   1
  18  14   2   81.60   56.30   1
 -18 -14  -2   36.40   54.50   1
 -18  14  -2  161.10   59.80   1
  18 -14   2  154.50   58.90   1
 -18 -14   2   98.80   57.60   1
  18  14  -2   53.50   55.40   1
  18  14   3   52.20   47.50   1
 -18 -14  -3   58.90   48.10   1
 -18  14  -3   49.90   48.30   1
  18 -14   3   36.10   47.40   1
 -18 -14   3   48.90   53.70   1
  18  14  -3   38.40   50.30   1
  18  14   4   52.90   33.90   1
 -18 -14  -4   25.40   31.20   1
 -18  14  -4    3.40   29.90   1
  18 -14   4    6.70   30.50   1
 -18 -14   4   73.60   44.70   1
  18  14  -4    8.80   37.40   1
  18  15   0   24.80   38.70   1
 -18 -15   0   -0.00   31.00   1
  18 -15   0   37.80   33.50   1
  18  15   1  113.30   84.10   1
 -18 -15  -1  386.50   91.70   1
  18 -15  -1   73.20   85.30   1
  18 -15   1   92.10   86.00   1
 -18 -15   1  294.40   88.20   1
  18  15  -1  105.50   85.30   1
  18  15   2   14.70   22.30   1
 -18 -15  -2   -0.00   21.50   1
  18 -15   2    9.00   23.30   1
 -18 -15   2    0.00   22.00   1
  18  15  -2   11.60   22.80   1
  19   0   0   18.40   24.60   1
 -19   0   0   11.40   24.30   1
  19   0   1    8.60   19.20   1
 -19   0  -1   14.20   19.10   1
  19   0  -1    2.40   19.10   1
 -19   0   1   14.50   19.50   1
  19   0   2   21.00   32.80   1
 -19   0  -2   26.90   32.30   1
  19   0  -2   33.40   33.10   1
 -19   0   2   27.50   32.90   1
  19   0   3   15.90   29.30   1
 -19   0  -3   23.10   29.70   1
  19   0  -3   66.30   32.60   1
  19   0   4   80.00   64.30   1
 -19   0  -4   97.10   65.40   1
  19   0  -4  486.40  120.90   1
  19   0   5   14.20   26.30   1
 -19   0  -5   21.00   26.10   1
  19   0   6  225.40  131.00   1
 -19   0  -6  251.60  131.30   1
  19   0   7  152.10   82.20   1
 -19   0  -7  110.00   81.00   1
  19   1   0    0.70   15.50   1
 -19  -1   0    5.70   15.30   1
  19  -1   0    5.00   15.00   1
 -19   1   0   22.70   16.40   1
  19   1   1   12.10   27.00   1
 -19  -1  -1   28.70   26.80   1
  19  -1  -1   31.20   27.70   1
 -19   1  -1   41.70   26.30   1
  19  -1   1    8.80   25.60   1
 -19  -1   1   14.00   25.90   1
  19   1  -1   29.30   27.00   1
  19   1   2    7.20   17.00   1
 -19  -1  -2    2.60   19.50   1
 -19   1  -2    3.10   14.60   1
  19  -1   2    4.50   14.70   1
 -19  -1   2   23.50   17.00   1
  19   1  -2    4.70   15.80   1
  19   1   3   16.10   33.80   1
 -19  -1  -3   84.00   35.90   1
 -19   1  -3   25.50   31.40   1
  19  -1   3   15.90   32.30   1
 -19  -1   3   21.00   32.30   1
  19   1  -3   40.00   32.70   1
  19   1   4   12.90   27.20   1
 -19  -1  -4   11.50   25.70   1
 -19   1  -4   53.80   25.70   1
  19  -1   4   13.40   26.60   1
 -19  -1   4    9.20   26.20   1
  19   1  -4    9.30   26.10   1
  19   1   5   21.80   27.40   1
 -19  -1  -5   15.70   26.90   1
 -19   1  -5   29.60   28.90   1
  19  -1   5   20.10   26.70   1
 -19  -1   5    8.40   29.10   1
  19   1  -5   13.50   29.20   1
  19   1   6    5.00   21.50   1
 -19  -1  -6   12.10   21.80   1
 -19   1  -6   14.40   20.70   1
  19  -1   6    8.70   20.20   1
  19   1  -6    7.30   25.00   1
  19   1   7   15.00   33.00   1
 -19  -1  -7   23.70   32.50   1
 -19   1  -7   53.10   33.30   1
 -19  -1  -8   17.40   29.10   1
  19   2   0   11.60   24.80   1
 -19  -2   0   16.70   24.70   1
  19   2   1   -0.00   20.40   1
 -19  -2  -1    8.80   21.20   1
  19  -2   1   17.00   17.70   1
 -19  -2   1    7.00   16.90   1
  19   2  -1    4.00   17.40   1
  19   2   2    6.40   23.40   1
 -19  -2  -2   42.00   23.10   1
  19  -2   2    9.80   18.40   1
 -19  -2   2    4.70   19.30   1
  19   2  -2    4.70   19.30   1
  19   2   3   31.20   21.90   1
 -19  -2  -3   25.30   25.20   1
 -19   2  -3   52.60   20.60   1
  19  -2   3    1.60   19.50   1
 -19  -2   3  199.30   31.90   1
  19   2  -3   78.20   24.60   1
  19   2   4   18.10   36.40   1
 -19  -2  -4   19.50   36.00   1
 -19   2  -4   56.80   34.40   1
  19  -2   4   33.30   34.80   1
 -19  -2   4   35.90   35.50   1
  19   2  -4   32.00   35.50   1
  19   2   5    8.70   24.90   1
 -19  -2  -5   23.50   25.10   1
 -19   2  -5   16.40   24.20   1
  19  -2   5   18.50   24.10   1
 -19  -2   5   13.20   25.70   1
  19   2  -5    6.60   25.30   1
  19   2   6   27.50   27.80   1
 -19  -2  -6   22.20   27.80   1
 -19  -2   6    9.10   27.00   1
  19   2  -6   10.50   27.40   1
  19   2   7   15.40   28.30   1
 -19  -2  -7   18.70   27.90   1
 -19  -2   7   21.50   30.30   1
  19   2  -7   18.00   28.80   1
  19   2   8    5.00   18.50   1
 -19  -2  -8    0.00   18.70   1
  19   2  -8  107.40   34.50   1
 -19  -2  -9   15.50   28.50   1
  19   2  -9   44.10   36.40   1
  19   3   0   35.10   35.70   1
 -19  -3   0   18.90   34.50   1
  19   3   1   65.70   50.30   1
 -19  -3  -1   30.70   50.00   1
 -19  -3   1   61.20   49.30   1
  19   3  -1   78.70   50.20   1
  19   3   2    9.70   25.80   1
 -19  -3  -2   14.40   27.90   1
 -19  -3   2    6.90   21.70   1
  19   3  -2   17.10   22.40   1
  19   3   3   13.90   33.40   1
 -19  -3  -3   53.40   34.00   1
 -19  -3   3   33.00   33.50   1
  19   3  -3   22.60   33.00   1
  19   3   4   41.20   35.70   1
 -19  -3  -4   97.10   41.60   1
  19  -3   4   22.90   34.30   1
 -19  -3   4   20.90   35.40   1
  19   3  -4   26.00   36.20   1
  19   3   5   39.90   47.20   1
 -19  -3  -5   77.20   47.30   1
 -19  -3   5   89.50   48.80   1
  19   3  -5   36.30   47.10   1
  19   3   6   43.60   37.80   1
 -19  -3  -6   61.80   38.30   1
 -19  -3   6   17.70   36.20   1
  19   3  -6   22.60   36.90   1
  19   3   7   22.50   39.70   1
 -19  -3  -7   66.10   40.30   1
 -19  -3   7   42.90   40.10   1
  19   3  -7   30.90   39.80   1
  19   3   8   20.50   26.20   1
 -19  -3  -8   25.50   26.10   1
 -19  -3   8    4.70   23.80   1
  19   3  -8    5.20   24.40   1
 -19  -3  -9    4.80   26.20   1
 -19  -3   9   27.20   28.10   1
  19   3  -9   15.90   25.20   1
  19   4   0   12.30   20.70   1
 -19  -4   0   -0.00   22.80   1
  19   4   1   12.60   24.10   1
 -19  -4  -1    4.10   22.70   1
 -19  -4   1   10.60   21.90   1
  19   4  -1   -0.00   23.60   1
  19   4   2   67.20   35.10   1
 -19  -4  -2   30.10   37.70   1
 -19  -4   2   21.70   34.00   1
  19   4  -2    9.40   34.30   1
  19   4   3    0.00   21.70   1
 -19  -4  -3   27.00   22.10   1
 -19  -4   3    7.60   20.10   1
  19   4  -3    5.90   20.50   1
  19   4   4   17.20   20.70   1
 -19  -4  -4   21.30   21.70   1
 -19  -4   4    1.10   20.20   1
  19   4  -4    4.30   20.80   1
  19   4   5   -0.10   16.70   1
 -19  -4  -5   11.20   16.20   1
 -19  -4   5    1.10   14.60   1
  19   4  -5    7.10   17.20   1
  19   4   6   13.60   24.70   1
 -19  -4  -6   29.60   25.60   1
 -19  -4   6    3.50   22.50   1
  19   4  -6   13.10   23.40   1
  19   4   7   11.10   19.30   1
 -19  -4  -7    5.70   19.70   1
 -19  -4   7    3.20   17.30   1
  19   4  -7    4.80   17.50   1
  19   4   8    7.20   20.90   1
 -19  -4  -8    8.20   19.50   1
 -19  -4   8    4.00   16.90   1
  19   4  -8   -0.00   17.20   1
  19   4   9    9.90   22.60   1
 -19  -4  -9   12.30   25.20   1
 -19  -4   9    7.00   20.60   1
  19   4  -9    5.10   20.60   1
  19   5   0  128.30   56.50   1
 -19  -5   0   40.00   53.90   1
  19   5   1   29.00   41.80   1
 -19  -5  -1   43.90   43.60   1
 -19  -5   1   61.80   44.50   1
  19   5  -1   27.80   40.70   1
  19   5   2   56.50   45.90   1
 -19  -5  -2   35.90   45.50   1
 -19  -5   2  116.80   48.50   1
  19   5  -2   31.80   47.20   1
  19   5   3   13.50   53.60   1
 -19  -5  -3   55.20   51.50   1
 -19  -5   3  110.90   52.10   1
  19   5  -3  110.00   52.60   1
  19   5   4   49.00   32.00   1
 -19  -5  -4   43.20   31.50   1
 -19  -5   4   10.40   31.10   1
  19   5  -4    7.10   31.80   1
  19   5   5   31.80   44.40   1
 -19  -5  -5   44.30   44.20   1
 -19  -5   5   73.60   44.90   1
  19   5  -5   70.00   45.00   1
  19   5   6   67.90   56.90   1
 -19  -5  -6   69.00   57.00   1
 -19  -5   6   77.00   56.10   1
  19   5  -6   55.40   55.90   1
  19   5   7   18.60   40.20   1
 -19  -5  -7  108.10   42.60   1
 -19  -5   7   57.00   40.40   1
  19   5  -7   32.30   40.40   1
  19   5   8   57.80   39.00   1
 -19  -5  -8   14.10   36.70   1
 -19   5  -8   35.20   33.60   1
 -19  -5   8   61.80   36.80   1
  19   5  -8   21.80   35.50   1
  19   5   9   74.00   45.00   1
 -19  -5  -9   20.10   42.10   1
 -19  -5   9   43.80   40.20   1
  19   5  -9   40.80   40.90   1
  19   6   0   22.10   38.50   1
 -19  -6   0   30.10   39.00   1
  19   6   1    7.90   27.50   1
 -19  -6  -1   37.50   33.10   1
 -19  -6   1   16.10   28.40   1
  19   6  -1   10.30   27.60   1
  19   6   2   18.60   37.40   1
 -19  -6  -2   39.90   37.50   1
 -19  -6   2   19.40   42.20   1
  19   6  -2   99.10   42.20   1
  19   6   3   28.00   34.80   1
 -19  -6  -3   27.50   37.60   1
 -19  -6   3   41.90   35.00   1
  19   6  -3    7.00   35.20   1
  19   6   4   21.50   25.90   1
 -19  -6  -4    7.90   24.90   1
 -19  -6   4   24.20   26.70   1
  19   6  -4   11.00   27.10   1
  19   6   5   16.00   23.00   1
 -19  -6  -5    6.20   21.50   1
 -19   6  -5   10.20   20.50   1
  19  -6   5   12.20   19.40   1
 -19  -6   5    4.80   21.20   1
  19   6  -5    4.60   22.60   1
  19   6   6   22.20   34.10   1
 -19  -6  -6   23.20   34.50   1
 -19   6  -6   24.90   31.00   1
 -19  -6   6   26.40   32.90   1
  19   6  -6   28.40   33.20   1
  19   6   7    0.00   22.80   1
 -19  -6  -7    8.10   24.20   1
 -19   6  -7   15.90   21.20   1
  19  -6   7    8.70   19.80   1
 -19  -6   7    6.30   20.80   1
  19   6  -7   14.70   21.70   1
  19   6   8   58.70   31.10   1
 -19  -6  -8   13.60   28.60   1
 -19   6  -8   22.00   25.50   1
  19  -6   8   12.60   24.60   1
 -19  -6   8    5.70   26.60   1
  19   6  -8   29.40   28.90   1
  19   7   0   17.10   28.20   1
 -19  -7   0    4.50   31.10   1
  19   7   1   36.40   31.80   1
 -19  -7  -1   19.50   31.60   1
 -19  -7   1   23.40   34.40   1
  19   7  -1    0.00   34.20   1
  19   7   2    5.20   30.60   1
 -19  -7  -2   20.60   31.50   1
 -19  -7   2  162.90   38.80   1
  19   7  -2   24.50   32.60   1
  19   7   3   29.10   35.40   1
 -19  -7  -3   61.50   41.80   1
 -19  -7   3   -0.00   40.00   1
  19   7  -3   36.40   39.90   1
  19   7   4   10.90   23.60   1
 -19  -7  -4   12.30   23.10   1
  19  -7   4   14.40   23.70   1
 -19  -7   4    2.50   26.10   1
  19   7  -4   21.60   28.60   1
  19   7   5  213.20   38.70   1
 -19  -7  -5  251.90   38.70   1
 -19   7  -5   19.60   32.40   1
  19  -7   5   30.10   32.20   1
 -19  -7   5   -0.00   33.80   1
  19   7  -5   24.60   35.00   1
  19   7   6   14.90   29.00   1
 -19  -7  -6   13.80   29.10   1
 -19   7  -6   14.50   25.00   1
  19  -7   6   18.10   24.50   1
 -19  -7   6   13.50   27.10   1
  19   7  -6   14.30   28.00   1
  19   7   7   37.50   31.70   1
 -19  -7  -7   70.40   33.00   1
 -19   7  -7   24.50   27.10   1
  19  -7   7   10.20   28.80   1
 -19  -7   7   16.10   28.70   1
  19   7  -7   -0.00   29.30   1
  19   7   8    4.10   20.30   1
 -19  -7  -8   28.10   21.20   1
 -19   7  -8    1.10   15.20   1
  19  -7   8   -0.10   14.90   1
 -19  -7   8   -0.00   17.20   1
  19   7  -8   13.50   18.60   1
  19   8   0   35.30   39.60   1
 -19  -8   0   22.40   41.50   1
  19   8   1   23.20   43.00   1
 -19  -8  -1   65.80   44.20   1
 -19  -8   1  183.70   55.00   1
  19   8  -1   31.80   47.90   1
  19   8   2   24.50   65.40   1
 -19  -8  -2  129.80   65.70   1
 -19  -8   2  316.60   71.10   1
  19   8  -2  143.00   67.20   1
  19   8   3   20.30   31.80   1
 -19  -8  -3   64.20   35.30   1
 -19  -8   3   13.60   34.90   1
  19   8  -3   12.80   34.10   1
  19   8   4  172.70   98.60   1
 -19  -8  -4  142.70   98.60   1
 -19   8  -4  183.70   99.10   1
  19  -8   4  176.20   98.70   1
 -19  -8   4  151.80  102.00   1
  19   8  -4  154.90  102.40   1
  19   8   5   31.00   28.20   1
 -19  -8  -5   39.90   28.00   1
 -19   8  -5    8.60   24.60   1
  19  -8   5   14.00   24.80   1
 -19  -8   5   10.50   28.80   1
  19   8  -5   -0.00   28.00   1
  19   8   6   57.30   57.20   1
 -19  -8  -6   46.80   57.20   1
 -19   8  -6   60.50   54.90   1
  19  -8   6  115.10   54.70   1
 -19  -8   6   56.70   56.80   1
  19   8  -6   83.00   57.90   1
  19   8   7   19.80   38.20   1
 -19  -8  -7   51.20   40.20   1
 -19   8  -7   99.20   39.10   1
  19  -8   7   28.90   35.40   1
 -19  -8   7   21.90   36.90   1
  19   8  -7   23.60   38.10   1
  19   9   0    8.20   25.60   1
 -19  -9   0   19.70   27.90   1
  19   9   1   18.30   30.00   1
 -19  -9  -1   15.10   29.10   1
 -19  -9   1   35.00   36.80   1
  19   9  -1    9.50   33.90   1
  19   9   2   16.80   34.80   1
 -19  -9  -2   -0.00   28.90   1
 -19  -9   2   31.40   31.20   1
  19   9  -2   18.80   33.70   1
  19   9   3   26.00   28.60   1
 -19  -9  -3   12.10   28.60   1
  19  -9   3   25.80   29.30   1
 -19  -9   3    6.00   32.20   1
  19   9  -3   17.60   31.70   1
  19   9   4    9.60   20.30   1
 -19  -9  -4    8.10   19.50   1
 -19   9  -4   -0.00   19.70   1
  19  -9   4   11.70   19.30   1
 -19  -9   4    2.70   26.60   1
  19   9  -4    0.20   24.10   1
  19   9   5    7.90   28.40   1
 -19  -9  -5    3.00   26.60   1
 -19   9  -5   28.20   25.50   1
  19  -9   5   24.30   25.80   1
 -19  -9   5    6.80   32.20   1
  19   9  -5   -0.00   33.80   1
  19   9   6    7.50   26.30   1
 -19  -9  -6    8.90   26.70   1
 -19   9  -6    7.10   22.30   1
  19  -9   6   14.80   21.40   1
 -19  -9   6   13.40   26.30   1
  19   9  -6    8.70   27.00   1
  19   9   7   15.40   25.30   1
 -19  -9  -7   13.70   26.30   1
 -19   9  -7    7.90   20.00   1
  19  -9   7   12.60   21.30   1
 -19  -9   7   -0.00   24.60   1
  19   9  -7   14.00   26.20   1
  19  10   0   16.10   25.10   1
 -19 -10   0    6.20   24.90   1
  19  10   1    3.70   37.40   1
 -19 -10  -1   39.30   38.30   1
 -19 -10   1   68.50   44.10   1
  19  10  -1   45.00   39.70   1
  19  10   2   45.20   40.20   1
 -19 -10  -2   -0.00   44.50   1
 -19 -10   2  135.40   49.60   1
  19  10  -2   12.70   41.20   1
  19  10   3   10.30   25.70   1
 -19 -10  -3   29.80   25.60   1
 -19  10  -3    5.60   25.50   1
  19 -10   3    0.00   27.10   1
 -19 -10   3   17.30   30.60   1
  19  10  -3   29.20   32.60   1
  19  10   4   24.60   40.50   1
 -19 -10  -4   30.20   40.90   1
 -19  10  -4  108.20   42.50   1
  19 -10   4   47.70   40.60   1
 -19 -10   4   34.20   44.00   1
  19  10  -4   30.30   43.00   1
  19  10   5   70.00   31.60   1
 -19 -10  -5   11.30   28.10   1
 -19  10  -5   10.70   25.80   1
  19 -10   5   11.60   25.90   1
 -19 -10   5   27.40   36.00   1
  19  10  -5   -0.00   31.80   1
  19  10   6   53.90   42.00   1
 -19 -10  -6   43.40   41.80   1
 -19  10  -6   44.60   38.40   1
  19 -10   6   23.30   37.30   1
 -19 -10   6   26.10   42.50   1
  19  10  -6   34.80   44.80   1
  19  11   0    3.60   19.20   1
 -19 -11   0    3.70   18.60   1
  19  11   1   16.60   31.80   1
 -19 -11  -1   17.00   29.70   1
 -19 -11   1    8.70   31.50   1
  19  11  -1   18.50   28.80   1
  19  11   2   13.10   30.00   1
 -19 -11  -2   25.90   37.30   1
  19 -11   2   17.90   30.20   1
 -19 -11   2   34.20   37.10   1
  19  11  -2   12.30   35.90   1
  19  11   3   30.00   30.70   1
 -19 -11  -3   10.20   29.20   1
 -19  11  -3   19.70   32.20   1
  19 -11   3   20.50   30.80   1
 -19 -11   3   27.30   36.50   1
  19  11  -3   14.70   38.70   1
  19  11   4    9.10   26.50   1
 -19 -11  -4    8.50   26.20   1
 -19  11  -4   21.10   26.60   1
  19 -11   4   13.10   25.30   1
 -19 -11   4   35.10   31.10   1
  19  11  -4   -0.00   31.10   1
  19  11   5   33.50   32.60   1
 -19 -11  -5    7.20   30.90   1
 -19  11  -5   12.70   29.30   1
  19 -11   5    9.80   29.50   1
 -19 -11   5   50.80   36.80   1
  19  11  -5   57.30   34.60   1
  19  11   6   17.50   25.80   1
 -19 -11  -6    0.00   27.10   1
 -19  11  -6   -0.10   20.90   1
  19 -11   6   12.80   19.30   1
 -19 -11   6   -0.00   33.10   1
  19  11  -6    9.60   27.80   1
  19  12   0   31.40   39.60   1
 -19 -12   0   31.10   38.70   1
  19  12   1    0.00   30.40   1
 -19 -12  -1    0.00   20.40   1
  19 -12   1   -0.00   19.30   1
 -19 -12   1    5.60   20.70   1
  19  12  -1   12.00   19.80   1
  19  12   2   16.20   42.90   1
 -19 -12  -2   62.90   47.20   1
 -19  12  -2   44.00   43.90   1
  19 -12   2   40.00   46.80   1
 -19 -12   2  142.80   54.90   1
  19  12  -2   94.30   49.30   1
  19  12   3   -0.00   23.60   1
 -19 -12  -3   27.30   22.90   1
 -19  12  -3   -0.00   24.50   1
  19 -12   3    9.60   23.90   1
 -19 -12   3    8.90   37.90   1
  19  12  -3    4.40   30.10   1
  19  12   4   45.70   41.60   1
 -19 -12  -4   31.00   41.30   1
 -19  12  -4   54.30   40.90   1
  19 -12   4   27.80   40.10   1
 -19 -12   4   47.80   46.50   1
  19  12  -4   15.40   46.30   1
  19  12   5    4.90   25.60   1
 -19 -12  -5    9.20   23.40   1
 -19  12  -5   20.30   22.10   1
  19 -12   5   -0.00   21.90   1
 -19 -12   5    6.90   29.70   1
  19  12  -5    3.90   26.50   1
  19  13   0    8.10   23.60   1
 -19 -13   0    4.50   26.30   1
  19  13   1  137.60   58.50   1
 -19 -13  -1   41.40   53.10   1
  19 -13   1  103.90   51.90   1
 -19 -13   1   73.00   49.60   1
  19  13  -1   25.40   48.30   1
  19  13   2   10.20   25.90   1
 -19 -13  -2   -0.10   26.70   1
 -19  13  -2   11.60   29.70   1
  19 -13   2    3.60   29.10   1
 -19 -13   2   21.60   33.00   1
  19  13  -2   74.70   30.40   1
  19  13   3   87.90   49.80   1
 -19 -13  -3   46.70   48.60   1
 -19  13  -3   59.60   50.70   1
  19 -13   3   55.60   49.60   1
 -19 -13   3   37.30   54.10   1
  19  13  -3   22.00   53.00   1
  19  13   4   12.70   33.50   1
 -19 -13  -4   96.40   36.20   1
 -19  13  -4   15.50   32.10   1
  19 -13   4   12.90   32.00   1
 -19 -13   4   26.00   41.10   1
  19  13  -4   36.20   43.00   1
  19  14   0   -0.00   23.50   1
 -19 -14   0    6.20   24.70   1
  19 -14   0   10.40   23.50   1
  19  14   1    9.60   30.10   1
 -19 -14  -1   24.00   39.10   1
  19 -14   1    9.10   31.20   1
 -19 -14   1   23.70   27.10   1
  19  14  -1    2.10   26.50   1
  19  14   2   21.20   28.10   1
 -19 -14  -2   14.60   27.90   1
 -19  14  -2   19.50   31.80   1
  19 -14   2   27.10   31.40   1
 -19 -14   2   10.90   31.20   1
  19  14  -2    6.00   28.10   1
  20   0   0  921.00  417.60   1
 -20   0   0  901.00  418.10   1
  20   0   1   28.90   34.50   1
 -20   0  -1   41.70   34.70   1
  20   0  -1   27.40   34.60   1
 -20   0   1   24.70   34.60   1
  20   0   2    7.70   20.30   1
 -20   0  -2   12.20   19.30   1
  20   0  -2    7.40   20.00   1
 -20   0   2    7.20   20.30   1
  20   0   3    5.50   21.50   1
 -20   0  -3   36.70   24.50   1
  20   0  -3    7.10   22.50   1
 -20   0   3    7.30   23.90   1
  20   0   4  100.00   59.80   1
 -20   0  -4   56.20   61.10   1
  20   0  -4  135.10   69.10   1
  20   0   5    5.40   19.40   1
 -20   0  -5   38.10   24.50   1
  20   0   6  307.90  157.70   1
 -20   0  -6  293.20  157.20   1
  20   0   7   22.60   33.70   1
 -20   0  -7   30.00   33.30   1
 -20   0  -8   31.60   37.70   1
  20   1   0   20.20   27.80   1
 -20  -1   0   24.00   27.80   1
  20  -1   0   17.40   27.40   1
 -20   1   0   14.50   27.50   1
  20   1   1   10.10   24.70   1
 -20  -1  -1    5.30   23.80   1
  20  -1  -1   46.80   26.30   1
 -20   1  -1   12.50   23.40   1
  20  -1   1   19.70   23.60   1
 -20  -1   1   20.50   23.90   1
  20   1  -1   38.10   25.10   1
  20   1   2    7.40   18.20   1
 -20  -1  -2   48.80   22.10   1
 -20   1  -2    1.50   15.30   1
  20  -1   2    3.10   15.30   1
 -20  -1   2   18.50   17.40   1
  20   1  -2    6.50   16.80   1
  20   1   3   12.30   32.00   1
 -20  -1  -3   21.90   31.50   1
 -20   1  -3   39.30   29.70   1
  20  -1   3   17.20   30.30   1
 -20  -1   3   28.50   30.80   1
  20   1  -3   23.10   30.30   1
  20   1   4   44.40   33.30   1
 -20  -1  -4   44.40   33.20   1
 -20   1  -4   24.20   33.00   1
  20  -1   4   80.80   34.40   1
 -20  -1   4    4.20   33.00   1
  20   1  -4   12.20   33.40   1
  20   1   5   59.40   34.50   1
 -20  -1  -5   20.80   34.30   1
 -20   1  -5   23.50   34.00   1
  20  -1   5   30.00   34.20   1
 -20  -1   5   53.60   38.90   1
  20   1  -5   50.40   37.20   1
  20   1   6   12.30   23.50   1
 -20  -1  -6   11.80   23.00   1
 -20   1  -6   13.20   21.90   1
  20  -1   6   12.40   22.20   1
  20   1  -6    5.60   26.10   1
  20   1   7   41.50   29.20   1
 -20  -1  -7   14.50   28.20   1
 -20   1  -7   15.50   27.80   1
  20  -1   7   15.70   28.20   1
  20   1   8   19.30   24.40   1
 -20  -1  -8    5.70   25.00   1
  20   2   0   20.30   32.60   1
 -20  -2   0   30.00   32.20   1
  20   2   1  246.20   48.00   1
 -20  -2  -1   42.80   42.40   1
  20  -2   1   35.30   40.80   1
 -20  -2   1   26.50   40.50   1
  20   2  -1   44.50   40.90   1
  20   2   2   48.00   30.40   1
 -20  -2  -2   15.40   28.40   1
 -20   2  -2   15.90   26.80   1
  20  -2   2   16.10   26.30   1
 -20  -2   2   28.20   27.40   1
  20   2  -2    9.50   27.40   1
  20   2   3   23.50   23.00   1
 -20  -2  -3    7.20   25.50   1
 -20   2  -3   36.90   20.80   1
  20  -2   3    4.40   20.00   1
 -20  -2   3   52.80   23.80   1
  20   2  -3   11.40   22.50   1
  20   2   4   23.90   26.00   1
 -20  -2  -4   86.70   24.30   1
 -20   2  -4    9.10   20.40   1
  20  -2   4    8.90   22.00   1
 -20  -2   4    1.70   22.00   1
  20   2  -4    8.30   22.10   1
  20   2   5   10.50   21.90   1
 -20  -2  -5    7.50   21.40   1
 -20   2  -5   67.30   23.00   1
  20  -2   5   11.80   20.80   1
 -20  -2   5    6.90   22.20   1
  20   2  -5    5.30   22.40   1
  20   2   6   27.80   40.40   1
 -20  -2  -6   54.70   40.60   1
  20  -2   6   39.10   38.90   1
 -20  -2   6   26.70   40.70   1
  20   2  -6   36.10   40.70   1
  20   2   7   34.70   39.80   1
 -20  -2  -7  108.00   40.90   1
 -20   2  -7   34.40   39.30   1
 -20  -2   7   12.70   40.10   1
  20   2  -7   62.10   42.50   1
  20   2   8    0.00   27.90   1
 -20  -2  -8   31.10   28.00   1
  20   2  -8   21.50   29.40   1
  20   3   0   85.30   45.90   1
 -20  -3   0   28.70   43.00   1
  20   3   1   17.60   27.60   1
 -20  -3  -1   44.90   29.40   1
 -20  -3   1    3.50   26.60   1
  20   3  -1   25.00   27.70   1
  20   3   2   19.90   28.20   1
 -20  -3  -2   56.60   31.10   1
 -20  -3   2   12.10   24.30   1
  20   3  -2    6.20   24.60   1
  20   3   3  108.20   38.80   1
 -20  -3  -3   45.20   38.40   1
 -20  -3   3   22.90   37.20   1
  20   3  -3   16.90   37.20   1
  20   3   4   40.60   29.60   1
 -20  -3  -4    0.00   28.70   1
  20  -3   4   77.00   27.20   1
 -20  -3   4   12.50   27.10   1
  20   3  -4  174.70   36.10   1
  20   3   5   47.10   41.20   1
 -20  -3  -5   34.30   40.90   1
 -20  -3   5  119.50   45.00   1
  20   3  -5   34.20   41.50   1
  20   3   6   20.30   33.80   1
 -20  -3  -6   26.70   33.50   1
 -20  -3   6   29.00   33.00   1
  20   3  -6   30.40   33.20   1
  20   3   7   27.00   36.60   1
 -20  -3  -7   38.20   37.50   1
 -20  -3   7   69.10   39.00   1
  20   3  -7   23.30   36.30   1
  20   3   8   43.00   32.70   1
 -20  -3  -8   21.00   30.80   1
 -20  -3   8    8.80   30.00   1
  20   3  -8   21.90   30.70   1
  20   4   0   14.60   22.80   1
 -20  -4   0    3.50   25.10   1
  20   4   1   24.60   36.40   1
 -20  -4  -1   48.60   36.00   1
 -20  -4   1    7.10   34.50   1
  20   4  -1   48.30   36.80   1
  20   4   2   20.20   23.90   1
 -20  -4  -2   15.20   26.60   1
 -20  -4   2    8.90   21.90   1
  20   4  -2   -0.00   22.70   1
  20   4   3   28.00   30.60   1
 -20  -4  -3   54.20   30.70   1
 -20  -4   3   14.40   29.60   1
  20   4  -3    7.70   29.70   1
  20   4   4   10.50   20.60   1
 -20  -4  -4   25.30   26.60   1
 -20  -4   4    3.80   20.50   1
  20   4  -4    9.60   20.90   1
  20   4   5   59.20   30.00   1
 -20  -4  -5   51.40   29.20   1
 -20  -4   5    5.60   27.60   1
  20   4  -5    8.80   28.70   1
  20   4   6    8.20   23.10   1
 -20  -4  -6   13.00   22.70   1
 -20  -4   6    5.70   21.40   1
  20   4  -6   12.10   21.40   1
  20   4   7   11.50   22.20   1
 -20  -4  -7   26.70   23.40   1
 -20  -4   7    5.60   20.80   1
  20   4  -7    3.30   20.60   1
  20   4   8    2.10   19.70   1
 -20  -4  -8    0.00   18.10   1
 -20  -4   8    4.70   16.80   1
  20   4  -8    9.70   18.00   1
  20   5   0   24.90   43.70   1
 -20  -5   0  118.30   46.50   1
  20   5   1   56.00   66.00   1
 -20  -5  -1  157.90   70.00   1
 -20  -5   1   97.90   68.00   1
  20   5  -1   88.20   65.90   1
  20   5   2    8.20   19.50   1
 -20  -5  -2    6.30   21.30   1
 -20  -5   2    5.80   21.80   1
  20   5  -2    5.90   23.50   1
  20   5   3  106.10   73.60   1
 -20  -5  -3  113.40   72.60   1
 -20  -5   3   94.60   72.70   1
  20   5  -3   85.00   73.00   1
  20   5   4   15.30   22.90   1
 -20  -5  -4   26.30   24.40   1
 -20  -5   4    5.10   23.20   1
  20   5  -4    5.20   23.80   1
  20   5   5  364.20  166.40   1
 -20  -5  -5  368.00  166.30   1
 -20  -5   5  263.10  167.60   1
  20   5  -5  222.30  166.70   1
  20   5   6   33.10   31.70   1
 -20  -5  -6   53.50   32.40   1
 -20  -5   6    7.80   29.40   1
  20   5  -6   18.20   30.00   1
  20   5   7   60.40   38.60   1
 -20  -5  -7   25.00   38.40   1
 -20  -5   7  347.40   60.50   1
  20   5  -7   19.30   36.90   1
  20   5   8   23.70   32.00   1
 -20  -5  -8   24.00   31.90   1
 -20  -5   8   18.40   30.30   1
  20   5  -8   18.30   30.30   1
  20   6   0   75.00   56.20   1
 -20  -6   0   49.80   54.30   1
  20   6   1   50.70   44.20   1
 -20  -6  -1   38.30   45.60   1
 -20  -6   1   16.50   43.20   1
  20   6  -1   72.10   44.10   1
  20   6   2   -0.10   15.20   1
 -20  -6  -2    0.00   14.80   1
 -20  -6   2   23.10   24.60   1
  20   6  -2   -0.00   22.00   1
  20   6   3   13.40   30.00   1
 -20  -6  -3   17.40   24.70   1
 -20  -6   3    9.10   25.90   1
  20   6  -3    5.00   25.80   1
  20   6   4   12.30   23.90   1
 -20  -6  -4   12.20   23.80   1
 -20  -6   4   14.50   24.90   1
  20   6  -4   13.30   25.80   1
  20   6   5   24.90   31.80   1
 -20  -6  -5   39.80   32.00   1
  20  -6   5   14.00   30.40   1
 -20  -6   5   21.50   31.10   1
  20   6  -5   22.90   31.90   1
  20   6   6   18.00   32.60   1
 -20  -6  -6   25.40   32.50   1
  20  -6   6   21.60   28.70   1
 -20  -6   6   20.90   30.80   1
  20   6  -6   25.30   31.30   1
  20   6   7   33.20   29.00   1
 -20  -6  -7   48.60   30.00   1
 -20  -6   7    5.70   26.00   1
  20   6  -7    8.30   26.00   1
  20   7   0   11.80   38.60   1
 -20  -7   0   93.20   45.30   1
  20   7   1   12.70   33.00   1
 -20  -7  -1   15.70   35.40   1
 -20  -7   1   38.50   35.90   1
  20   7  -1   55.80   37.40   1
  20   7   2   38.10   43.10   1
 -20  -7  -2   21.90   42.30   1
 -20  -7   2  110.50   47.90   1
  20   7  -2   76.80   45.20   1
  20   7   3   37.80   41.50   1
 -20  -7  -3   97.80   47.50   1
 -20  -7   3   20.20   43.60   1
  20   7  -3   25.70   43.40   1
  20   7   4   38.10   30.60   1
 -20  -7  -4   18.20   29.50   1
 -20  -7   4   28.70   33.00   1
  20   7  -4   -0.00   32.30   1
  20   7   5   23.70   26.50   1
 -20  -7  -5   21.00   25.80   1
 -20   7  -5    9.90   24.90   1
  20  -7   5   11.70   23.80   1
 -20  -7   5   21.10   26.20   1
  20   7  -5   -0.00   27.20   1
  20   7   6   38.30   51.40   1
 -20  -7  -6   43.90   51.30   1
 -20   7  -6   48.10   49.00   1
  20  -7   6   82.50   48.70   1
 -20  -7   6   50.30   50.40   1
  20   7  -6   90.40   51.60   1
  20   7   7   62.80   41.90   1
 -20  -7  -7   29.90   41.50   1
 -20   7  -7   49.70   40.00   1
  20  -7   7   45.70   38.10   1
 -20  -7   7   16.70   39.10   1
  20   7  -7   25.10   39.50   1
  20   8   0  519.90  120.90   1
 -20  -8   0  144.00  116.50   1
  20   8   1   33.60   44.80   1
 -20  -8  -1   55.10   45.50   1
 -20  -8   1   54.60   50.20   1
  20   8  -1   43.60   49.50   1
  20   8   2  166.60  120.90   1
 -20  -8  -2  374.60  122.40   1
 -20  -8   2  168.40  121.30   1
  20   8  -2  295.80  123.10   1
  20   8   3   40.50   38.50   1
 -20  -8  -3   29.00   43.30   1
 -20  -8   3   24.10   41.80   1
  20   8  -3   32.30   40.20   1
  20   8   4   31.40   38.60   1
 -20  -8  -4   29.10   38.50   1
  20  -8   4   48.10   39.80   1
 -20  -8   4   22.60   42.10   1
  20   8  -4  194.50   51.10   1
  20   8   5   41.90   48.70   1
 -20  -8  -5   69.60   49.00   1
 -20   8  -5   87.90   48.10   1
  20  -8   5   59.40   47.30   1
 -20  -8   5   56.50   50.20   1
  20   8  -5   20.40   49.50   1
  20   8   6   83.90   55.50   1
 -20  -8  -6   28.60   54.30   1
 -20   8  -6   59.30   52.60   1
  20  -8   6   76.40   52.00   1
 -20  -8   6   82.40   55.00   1
  20   8  -6   70.20   55.40   1
  20   9   0    6.20   23.00   1
 -20  -9   0   15.70   27.80   1
  20   9   1    2.10   21.60   1
 -20  -9  -1   14.90   22.40   1
 -20  -9   1   14.20   31.90   1
  20   9  -1    6.10   26.10   1
  20   9   2   91.80   46.40   1
 -20  -9  -2   38.00   40.10   1
 -20  -9   2   42.90   42.10   1
  20   9  -2    0.40   42.20   1
  20   9   3   12.70   28.70   1
 -20  -9  -3   40.30   31.90   1
 -20  -9   3   23.80   32.60   1
  20   9  -3   10.50   31.40   1
  20   9   4    7.50   25.10   1
 -20  -9  -4   15.30   24.80   1
 -20   9  -4   37.00   26.10   1
  20  -9   4   10.90   25.30   1
 -20  -9   4    3.90   32.70   1
  20   9  -4    8.50   29.80   1
  20   9   5    6.00   24.80   1
 -20  -9  -5    2.60   24.10   1
 -20   9  -5   14.50   22.60   1
  20  -9   5   20.90   22.70   1
 -20  -9   5   12.30   28.60   1
  20   9  -5   -0.00   30.70   1
  20   9   6   26.10   32.80   1
 -20  -9  -6   10.50   32.80   1
 -20   9  -6   18.00   29.60   1
  20  -9   6   25.60   28.80   1
 -20  -9   6   31.70   33.90   1
  20   9  -6    8.00   32.70   1
  20  10   0   22.40   36.30   1
 -20 -10   0   39.90   37.60   1
  20  10   1   10.20   24.90   1
 -20 -10  -1    8.10   25.20   1
 -20 -10   1    9.20   30.20   1
  20  10  -1   13.00   30.00   1
  20  10   2   16.20   39.30   1
 -20 -10  -2   22.60   36.60   1
 -20 -10   2   70.90   44.40   1
  20  10  -2   16.00   39.40   1
  20  10   3   19.20   24.70   1
 -20 -10  -3    7.90   25.70   1
  20 -10   3   11.40   26.20   1
 -20 -10   3   10.20   29.60   1
  20  10  -3   11.50   30.20   1
  20  10   4    9.50   26.40   1
 -20 -10  -4   21.40   26.20   1
 -20  10  -4    2.40   26.70   1
  20 -10   4   17.50   26.10   1
 -20 -10   4   42.80   32.20   1
  20  10  -4    6.10   28.80   1
  20  10   5   -0.00   27.60   1
 -20 -10  -5   17.30   27.20   1
 -20  10  -5   20.70   25.20   1
  20 -10   5   14.50   25.60   1
 -20 -10   5   27.60   36.20   1
  20  10  -5    6.20   30.40   1
  20  11   0    8.40   27.40   1
 -20 -11   0   20.80   27.40   1
  20  11   1    0.90   30.60   1
 -20 -11  -1   89.30   34.60   1
 -20 -11   1   10.70   36.40   1
  20  11  -1   16.90   31.30   1
  20  11   2   -0.10   22.90   1
 -20 -11  -2   11.10   30.00   1
  20 -11   2    8.00   19.60   1
 -20 -11   2   -0.00   32.00   1
  20  11  -2   -0.00   25.70   1
  20  11   3    6.60   24.60   1
 -20 -11  -3   -0.00   24.30   1
 -20  11  -3   16.80   25.70   1
  20 -11   3   59.70   29.90   1
 -20 -11   3   31.50   32.30   1
  20  11  -3   16.30   34.00   1
  20  11   4   18.30   26.00   1
 -20 -11  -4   10.50   25.40   1
 -20  11  -4    6.90   26.10   1
  20 -11   4    5.50   24.90   1
 -20 -11   4   12.20   30.00   1
  20  11  -4   45.70   32.20   1
  20  12   0    4.00   27.40   1
 -20 -12   0   19.10   26.30   1
  20  12   1   25.00   44.80   1
 -20 -12  -1   67.60   43.40   1
 -20 -12   1   46.20   42.90   1
  20  12  -1   22.20   41.50   1
  20  12   2   22.30   37.70   1
 -20 -12  -2   45.40   45.10   1
  20 -12   2   46.30   39.00   1
 -20 -12   2   39.60   44.60   1
  20  12  -2   20.00   41.20   1
  20  12   3   10.10   23.80   1
 -20 -12  -3    4.60   23.00   1
 -20  12  -3   20.70   27.30   1
  20 -12   3    8.50   25.70   1
 -20 -12   3   18.20   37.00   1
  20  12  -3   11.70   32.80   1
  21   0   0   10.00   20.50   1
 -21   0   0    9.60   20.40   1
  21   0   1  358.10  174.90   1
 -21   0  -1  451.80  178.60   1
  21   0  -1  317.20  176.10   1
 -21   0   1  264.80  175.60   1
  21   0   2   67.90   58.90   1
 -21   0  -2   77.60   58.60   1
  21   0  -2   76.40   59.60   1
 -21   0   2  101.90   61.60   1
  21   0   3  585.90  313.40   1
 -21   0  -3  867.50  317.00   1
  21   0  -3  718.60  332.50   1
 -21   0   3  854.00  363.00   1
  21   0   4   71.20   52.30   1
 -21   0  -4  109.10   53.50   1
  21   0  -4   18.30   52.90   1
  21   0   5  216.70  121.80   1
 -21   0  -5  213.40  121.80   1
  21   0   6   -0.00   19.00   1
 -21   0  -6   14.40   18.30   1
  21   0   7  109.60   76.80   1
 -21   0  -7  113.90   76.80   1
  21   1   0   13.10   18.10   1
 -21  -1   0    1.80   17.40   1
  21  -1   0    9.70   17.50   1
 -21   1   0    9.20   17.80   1
  21   1   1    8.30   18.80   1
 -21  -1  -1    8.90   18.10   1
  21  -1  -1   17.00   19.10   1
 -21   1  -1    8.60   17.50   1
  21  -1   1    5.60   17.40   1
 -21  -1   1    5.40   17.70   1
  21   1  -1    5.90   18.20   1
  21   1   2   40.10   41.60   1
 -21  -1  -2   59.80   42.20   1
  21  -1  -2   30.60   42.90   1
 -21   1  -2   35.60   39.90   1
  21  -1   2   29.20   39.80   1
 -21  -1   2  162.00   46.00   1
  21   1  -2   42.20   40.60   1
  21   1   3  150.00   35.10   1
 -21  -1  -3  137.00   32.80   1
 -21   1  -3   16.00   28.30   1
  21  -1   3   12.50   28.80   1
 -21  -1   3   43.80   30.60   1
  21   1  -3   14.70   29.30   1
  21   1   4   59.90   49.20   1
 -21  -1  -4   65.70   50.20   1
 -21   1  -4   95.70   50.50   1
  21  -1   4   32.80   49.50   1
 -21  -1   4   71.80   51.80   1
  21   1  -4   84.80   51.60   1
  21   1   5   70.40   28.60   1
 -21  -1  -5   14.30   31.50   1
 -21   1  -5   17.20   28.30   1
  21  -1   5    9.30   28.70   1
 -21  -1   5   20.20   30.60   1
  21   1  -5   11.40   29.90   1
  21   1   6   11.30   25.20   1
 -21  -1  -6   10.80   24.40   1
 -21   1  -6   19.90   23.70   1
  21  -1   6   13.50   24.30   1
  21   1  -6   18.20   29.20   1
  21   1   7   13.00   31.70   1
 -21  -1  -7   27.40   32.50   1
 -21   1  -7   29.70   31.40   1
  21  -1   7   31.80   31.80   1
  21   1  -7   31.50   39.10   1
  21   2   0   10.00   20.50   1
 -21  -2   0    7.40   19.40   1
  21   2   1   53.10   29.50   1
 -21  -2  -1   10.60   26.50   1
  21  -2   1    8.10   24.40   1
 -21  -2   1   37.30   25.40   1
  21   2  -1    9.80   25.00   1
  21   2   2   12.00   20.80   1
 -21  -2  -2    9.50   20.90   1
 -21   2  -2    5.50   17.60   1
  21  -2   2   16.80   17.50   1
 -21  -2   2    5.50   17.90   1
  21   2  -2    3.30   18.60   1
  21   2   3   46.80   49.00   1
 -21  -2  -3   47.70   49.90   1
 -21   2  -3  218.70   53.90   1
  21  -2   3   50.00   46.40   1
 -21  -2   3   46.10   47.40   1
  21   2  -3   67.00   48.10   1
  21   2   4   28.90   23.00   1
 -21  -2  -4   17.50   21.80   1
 -21   2  -4   11.70   20.10   1
  21  -2   4    0.00   21.30   1
 -21  -2   4   11.70   22.10   1
  21   2  -4    6.50   21.80   1
  21   2   5   18.90   31.00   1
 -21  -2  -5   32.60   31.50   1
 -21   2  -5   58.90   30.90   1
  21  -2   5   18.40   30.30   1
 -21  -2   5   14.10   31.60   1
  21   2  -5   27.30   31.80   1
  21   2   6   -0.00   19.90   1
 -21  -2  -6   17.70   19.30   1
 -21  -2   6    6.20   20.00   1
  21   2  -6    6.40   20.40   1
  21   2   7    8.20   22.90   1
 -21  -2  -7   24.80   24.00   1
 -21  -2   7    4.10   24.80   1
  21   2  -7    8.00   24.00   1
  21   3   0   12.40   34.50   1
 -21  -3   0   39.30   34.00   1
  21   3   1    9.40   23.10   1
 -21  -3  -1   28.40   25.80   1
 -21  -3   1    7.50   21.90   1
  21   3  -1    8.30   22.70   1
  21   3   2   43.00   39.50   1
 -21  -3  -2   46.60   39.00   1
 -21  -3   2   20.70   36.00   1
  21   3  -2   32.50   36.70   1
  21   3   3   26.40   41.20   1
 -21  -3  -3   52.10   43.90   1
  21  -3   3   73.20   42.10   1
 -21  -3   3   68.50   42.10   1
  21   3  -3   54.50   41.70   1
  21   3   4   90.70   54.40   1
 -21  -3  -4   43.10   50.70   1
  21  -3   4   52.60   49.30   1
 -21  -3   4   61.40   50.80   1
  21   3  -4  107.40   52.70   1
  21   3   5   18.80   24.50   1
 -21  -3  -5   22.70   24.20   1
 -21   3  -5    9.20   22.50   1
 -21  -3   5   16.80   25.00   1
  21   3  -5   13.80   24.50   1
  21   3   6   19.00   31.90   1
 -21  -3  -6   25.00   31.30   1
 -21  -3   6   21.40   31.20   1
  21   3  -6   28.40   31.80   1
  21   3   7   43.40   25.20   1
 -21  -3  -7   19.10   24.80   1
 -21   3  -7    4.90   21.60   1
 -21  -3   7   10.90   23.60   1
  21   3  -7    8.90   23.70   1
  21   4   0   -0.00   17.00   1
 -21  -4   0    8.10   20.70   1
  21   4   1   14.20   34.50   1
 -21  -4  -1   63.40   35.30   1
 -21  -4   1   13.70   33.60   1
  21   4  -1   33.90   35.10   1
  21   4   2  145.10   34.70   1
 -21  -4  -2   29.10   31.70   1
 -21  -4   2    8.40   26.90   1
  21   4  -2    7.90   27.80   1
  21   4   3    5.10   16.80   1
 -21  -4  -3    2.80   16.10   1
 -21  -4   3    1.60   15.00   1
  21   4  -3    9.70   17.20   1
  21   4   4   19.60   23.40   1
 -21  -4  -4   24.90   24.90   1
 -21  -4   4    5.80   21.10   1
  21   4  -4    4.30   21.00   1
  21   4   5   10.40   17.20   1
 -21  -4  -5   -0.00   16.30   1
 -21  -4   5    2.70   16.50   1
  21   4  -5   22.50   19.00   1
  21   4   6   10.20   22.50   1
 -21  -4  -6    9.40   21.30   1
 -21  -4   6    3.10   20.20   1
  21   4  -6   25.70   22.70   1
  21   4   7   15.10   21.30   1
 -21  -4  -7    4.30   21.60   1
 -21  -4   7    9.00   19.60   1
  21   4  -7    2.60   19.20   1
  21   5   0   -0.00   24.00   1
 -21  -5   0   35.20   27.00   1
  21   5   1   30.80   40.00   1
 -21  -5  -1   82.00   43.90   1
 -21  -5   1   27.50   40.90   1
  21   5  -1   19.70   38.60   1
  21   5   2   67.50   66.30   1
 -21  -5   2  199.60   69.60   1
  21   5  -2  108.70   68.40   1
  21   5   3   58.70   57.10   1
 -21  -5  -3   65.50   56.80   1
 -21  -5   3   80.40   57.30   1
  21   5  -3   91.00   58.30   1
  21   5   4  378.90  123.30   1
 -21  -5  -4  157.50  124.00   1
 -21  -5   4  191.10  123.30   1
  21   5  -4  267.70  124.50   1
  21   5   5   13.40   26.60   1
 -21  -5  -5   45.90   27.20   1
 -21  -5   5    7.00   26.30   1
  21   5  -5   11.30   26.30   1
  21   5   6   21.10   25.90   1
 -21  -5  -6    9.00   24.80   1
 -21  -5   6    6.60   23.50   1
  21   5  -6   94.20   28.80   1
  21   6   0   30.60   40.50   1
 -21  -6   0   31.80   39.10   1
  21   6   1   78.00   48.60   1
 -21  -6  -1   40.90   48.60   1
 -21  -6   1  115.80   50.10   1
  21   6  -1   24.40   45.60   1
  21   6   2   33.30   35.50   1
 -21  -6  -2  118.10   38.00   1
 -21  -6   2   12.10   38.20   1
  21   6  -2   -0.10   38.80   1
  21   6   3   24.60   32.00   1
 -21  -6  -3   18.90   30.00   1
 -21  -6   3   16.00   30.80   1
  21   6  -3   17.40   31.10   1
  21   6   4   34.40   28.10   1
 -21  -6  -4   35.10   30.00   1
 -21  -6   4   -0.00   28.30   1
  21   6  -4   10.30   29.30   1
  21   6   5   28.50   38.70   1
 -21  -6  -5   31.50   38.70   1
 -21  -6   5   38.30   38.80   1
  21   6  -5   55.30   39.70   1
  21   6   6   15.80   24.90   1
 -21  -6  -6   35.40   25.20   1
 -21  -6   6   -0.00   22.00   1
  21   6  -6   10.10   23.30   1
  21   7   0    5.90   38.00   1
 -21  -7   0  245.20   50.60   1
  21   7   1   41.10   46.10   1
 -21  -7  -1   45.70   49.00   1
 -21  -7   1   77.20   49.30   1
  21   7  -1   36.90   47.50   1
  21   7   2   61.70   52.30   1
 -21  -7  -2   64.00   52.30   1
 -21  -7   2   49.70   54.50   1
  21   7  -2   52.80   53.30   1
  21   7   3   26.60   32.30   1
 -21  -7  -3    0.00   26.30   1
 -21  -7   3   31.70   30.60   1
  21   7  -3   19.60   31.90   1
  21   7   4   35.20   41.00   1
 -21  -7  -4   54.50   41.70   1
 -21  -7   4   39.10   43.20   1
  21   7  -4   28.30   42.80   1
  21   7   5   30.40   30.70   1
 -21  -7  -5   46.10   31.10   1
  21  -7   5   22.60   29.40   1
 -21  -7   5    6.00   30.10   1
  21   7  -5    7.70   31.20   1
  21   8   0   17.10   41.40   1
 -21  -8   0   59.50   43.90   1
  21   8   1   22.70   40.30   1
 -21  -8  -1   69.00   43.50   1
 -21  -8   1   25.20   44.00   1
  21   8  -1  276.80   55.20   1
  21   8   2   31.10   41.00   1
 -21  -8  -2   42.60   41.50   1
 -21  -8   2   23.60   43.30   1
  21   8  -2   57.20   43.60   1
  21   8   3   65.80   34.10   1
 -21  -8  -3    8.60   36.20   1
 -21  -8   3   -0.00   35.50   1
  21   8  -3   13.30   33.80   1
  21   8   4   -0.10   24.10   1
 -21  -8  -4   33.90   24.40   1
 -21  -8   4   14.80   28.80   1
  21   8  -4    0.50   30.80   1
  21   8   5   12.80   29.00   1
 -21  -8  -5   43.40   30.50   1
 -21   8  -5    9.20   28.40   1
  21  -8   5   41.80   28.30   1
 -21  -8   5    8.60   30.80   1
  21   8  -5    6.70   31.30   1
  21   9   0   14.40   28.90   1
 -21  -9   0   13.60   33.20   1
  21   9   1   42.10   46.40   1
 -21  -9  -1   32.80   46.20   1
 -21  -9   1  108.60   54.70   1
  21   9  -1   69.40   50.70   1
  21   9   2   33.80   29.20   1
 -21  -9  -2    6.70   28.40   1
 -21  -9   2   13.70   30.90   1
  21   9  -2    5.70   31.30   1
  21   9   3   11.60   27.20   1
 -21  -9  -3  224.20   45.10   1
 -21  -9   3   13.50   32.00   1
  21   9  -3    5.80   29.80   1
  21   9   4   33.20   38.20   1
 -21  -9  -4   48.20   38.80   1
  21  -9   4   39.30   39.50   1
 -21  -9   4   12.70   45.20   1
  21   9  -4   18.70   41.60   1
  21  10   0   18.50   29.20   1
 -21 -10   0   17.40   31.40   1
  21  10   1   47.10   51.70   1
 -21 -10  -1   67.30   52.10   1
 -21 -10   1   65.90   55.90   1
  21  10  -1   47.50   54.90   1
  21  10   2    2.70   32.60   1
 -21 -10  -2   13.20   26.10   1
 -21 -10   2   19.50   34.60   1
  21  10  -2   11.00   32.70   1
  21  10   3   39.30   47.60   1
 -21 -10  -3  255.60   54.90   1
  21 -10   3   89.90   49.60   1
 -21 -10   3   67.40   50.90   1
  21  10  -3   24.60   49.60   1
  21  11   0   22.90   30.80   1
 -21 -11   0   15.60   30.90   1
  21  11   1   10.40   29.40   1
 -21 -11  -1   22.00   29.00   1
 -21 -11   1   -0.00   35.60   1
  21  11  -1   21.90   31.30   1
  22   0   0   32.20   34.60   1
 -22   0   0   26.20   34.40   1
  22   0   1   36.80   38.20   1
 -22   0  -1   97.50   39.90   1
  22   0  -1   38.60   38.40   1
 -22   0   1   24.30   38.20   1
  22   0   2   36.10   35.10   1
 -22   0  -2   27.70   34.40   1
  22   0  -2   21.20   34.60   1
 -22   0   2   43.40   36.00   1
  22   0   3    6.50   22.00   1
 -22   0  -3    7.50   23.00   1
  22   0  -3   23.00   23.00   1
 -22   0   3   42.40   27.30   1
  22   0   4   59.80   51.80   1
 -22   0  -4   55.10   51.10   1
  22   0   5    0.00   23.40   1
 -22   0  -5   13.10   19.90   1
  22   0   6   15.30   24.80   1
 -22   0  -6   15.20   24.40   1
  22   1   0   21.60   16.40   1
 -22  -1   0   -0.00   15.50   1
  22  -1   0    3.40   15.50   1
 -22   1   0    8.20   16.20   1
  22   1   1    8.30   21.00   1
 -22  -1  -1    9.50   19.80   1
  22  -1  -1    3.20   20.30   1
 -22   1  -1    5.00   19.30   1
  22  -1   1   13.70   19.50   1
 -22  -1   1   14.20   19.70   1
  22   1  -1   38.60   21.40   1
  22   1   2   24.50   22.40   1
 -22  -1  -2   15.60   20.70   1
  22  -1  -2   23.30   22.40   1
 -22   1  -2    3.50   17.50   1
  22  -1   2    6.10   17.60   1
 -22  -1   2   39.70   20.70   1
  22   1  -2    4.50   18.40   1
  22   1   3    4.60   19.30   1
 -22  -1  -3   18.40   17.80   1
 -22   1  -3   -0.00   13.80   1
  22  -1   3    5.40   15.10   1
 -22  -1   3    7.70   15.70   1
  22   1  -3    4.50   15.90   1
  22   1   4    4.80   21.80   1
 -22  -1  -4   22.00   25.60   1
 -22   1  -4   35.90   24.30   1
  22  -1   4   12.30   22.10   1
 -22  -1   4    6.30   22.90   1
  22   1  -4   11.20   23.10   1
  22   1   5   -0.00   15.90   1
 -22  -1  -5    8.40   16.40   1
 -22   1  -5    0.00   17.80   1
  22  -1   5   10.50   14.50   1
 -22  -1   5   -0.00   19.20   1
  22   1  -5   -0.00   17.70   1
  22   1   6   17.90   30.10   1
 -22  -1  -6   34.30   30.00   1
 -22   1  -6   19.70   29.20   1
  22  -1   6   21.80   29.40   1
  22   1  -6   16.70   32.50   1
  22   2   0   11.70   16.60   1
 -22  -2   0   -0.00   14.90   1
  22   2   1   14.90   32.80   1
 -22  -2  -1   28.90   31.30   1
  22  -2   1   23.50   29.80   1
 -22  -2   1   46.80   30.70   1
  22   2  -1   15.50   29.90   1
  22   2   2    7.20   19.80   1
 -22  -2  -2   50.20   23.50   1
 -22   2  -2    4.00   17.40   1
  22  -2   2    5.70   16.70   1
 -22  -2   2    6.50   17.60   1
  22   2  -2    6.20   18.20   1
  22   2   3   13.30   26.10   1
 -22  -2  -3   92.80   31.20   1
 -22   2  -3   54.40   23.20   1
  22  -2   3    8.70   21.50   1
 -22  -2   3    5.10   22.80   1
  22   2  -3   16.30   23.30   1
  22   2   4   13.80   20.90   1
 -22  -2  -4   11.40   20.70   1
 -22   2  -4    8.20   18.70   1
  22  -2   4    4.30   19.70   1
 -22  -2   4    9.20   21.00   1
  22   2  -4   20.20   20.90   1
  22   2   5   52.80   31.50   1
 -22  -2  -5    7.00   34.90   1
 -22   2  -5   38.90   31.70   1
  22  -2   5    7.20   31.50   1
 -22  -2   5   30.70   32.50   1
  22   2  -5   22.20   32.00   1
  22   2   6   14.60   21.70   1
 -22  -2  -6    6.40   21.00   1
 -22   2  -6    9.30   19.70   1
  22  -2   6   11.00   19.60   1
 -22  -2   6    8.70   22.60   1
  22   2  -6    9.90   22.00   1
  22   3   0  235.10  120.70   1
 -22  -3   0  185.90  118.90   1
  22   3   1    9.40   25.40   1
 -22  -3  -1   26.30   28.80   1
 -22  -3   1   13.00   24.20   1
  22   3  -1   14.20   25.30   1
  22   3   2   39.50   36.90   1
 -22  -3  -2   21.20   34.90   1
 -22  -3   2   20.20   33.10   1
  22   3  -2   34.90   33.70   1
  22   3   3   18.10   25.10   1
 -22  -3  -3   27.80   28.80   1
  22  -3   3   14.90   22.90   1
 -22  -3   3   15.00   23.80   1
  22   3  -3    5.70   23.90   1
  22   3   4   12.60   33.30   1
 -22  -3  -4   36.50   33.00   1
  22  -3   4   24.00   31.10   1
 -22  -3   4   30.00   32.60   1
  22   3  -4   29.80   33.20   1
  22   3   5   -0.00   17.50   1
 -22  -3  -5   23.10   19.10   1
 -22   3  -5    6.70   15.30   1
  22  -3   5    4.80   17.30   1
 -22  -3   5   16.50   18.50   1
  22   3  -5    0.00   17.90   1
  22   4   0   -0.00   19.50   1
 -22  -4   0   17.00   24.10   1
  22   4   1   22.00   26.20   1
 -22  -4  -1    3.40   25.30   1
 -22  -4   1   27.80   25.60   1
  22   4  -1   -0.00   25.90   1
  22   4   2   -0.00   18.10   1
 -22  -4  -2    7.20   22.00   1
 -22  -4   2   -0.00   12.00   1
  22   4  -2   -0.00   14.30   1
  22   4   3   54.20   29.50   1
 -22  -4  -3   36.90   29.50   1
 -22  -4   3    4.70   27.60   1
  22   4  -3   12.40   28.00   1
  22   4   4    7.50   20.90   1
 -22  -4  -4   -0.00   13.80   1
 -22  -4   4    0.00   10.80   1
  22   4  -4    0.80   12.20   1
  22   4   5   23.00   20.50   1
 -22  -4  -5   10.90   19.40   1
  22  -4   5    5.40   17.00   1
 -22  -4   5    3.50   18.70   1
  22   4  -5   29.10   21.70   1
  22   5   0    8.00   25.70   1
 -22  -5   0   18.70   26.90   1
  22   5   1  155.40   48.10   1
 -22  -5  -1   23.80   43.00   1
 -22  -5   1   42.80   44.60   1
  22   5  -1   28.00   43.00   1
  22   5   2   39.80   37.70   1
 -22  -5  -2   25.50   39.80   1
 -22  -5   2   84.20   39.70   1
  22   5  -2   12.70   37.00   1
  22   5   3   37.90   34.90   1
 -22  -5  -3   31.30   34.10   1
 -22  -5   3   21.90   34.10   1
  22   5  -3   18.10   34.80   1
  22   5   4   43.00   27.30   1
 -22  -5  -4   12.90   27.40   1
 -22  -5   4    6.10   24.00   1
  22   5  -4    9.00   24.80   1
  22   5   5   10.60   18.10   1
 -22  -5  -5    6.10   17.10   1
 -22  -5   5   -0.00   17.60   1
  22   5  -5    7.20   18.90   1
  22   6   0    4.90   28.50   1
 -22  -6   0   19.40   27.60   1
  22   6   1   -0.00   21.20   1
 -22  -6  -1   -0.00   25.50   1
 -22  -6   1    5.70   22.50   1
  22   6  -1    9.50   20.70   1
  22   6   2    9.30   21.30   1
 -22  -6  -2    8.30   23.80   1
 -22  -6   2    9.70   26.80   1
  22   6  -2   10.00   27.20   1
  22   6   3    8.10   24.80   1
 -22  -6  -3   20.50   25.00   1
 -22  -6   3   14.10   26.00   1
  22   6  -3    5.00   26.70   1
  22   6   4    8.30   16.80   1
 -22  -6  -4    3.90   24.80   1
 -22  -6   4   -0.00   16.90   1
  22   6  -4    4.90   19.10   1
  22   7   0   45.00   58.00   1
 -22  -7   0  124.10   62.10   1
  22   7   1   20.30   30.80   1
 -22  -7  -1   18.30   32.90   1
 -22  -7   1   41.30   32.10   1
  22   7  -1   -0.00   29.70   1
  22   7   2   33.60   48.30   1
 -22  -7  -2   69.80   49.20   1
 -22  -7   2  133.40   55.20   1
  22   7  -2   53.10   50.20   1
  22   7   3    5.90   24.60   1
 -22  -7  -3    0.00   19.70   1
 -22  -7   3   13.50   22.70   1
  22   7  -3   -0.00   25.90   1
  22   7   4   31.50   29.30   1
 -22  -7  -4   18.10   30.70   1
 -22  -7   4   17.70   30.80   1
  22   7  -4    5.00   31.10   1
  22   8   0   25.40   40.30   1
 -22  -8   0   35.80   43.50   1
  22   8   1   48.80   56.20   1
 -22  -8  -1   59.10   58.90   1
 -22  -8   1  105.40   60.40   1
  22   8  -1  147.50   63.10   1
  22   8   2   18.20   28.00   1
 -22  -8  -2   15.80   27.20   1
 -22  -8   2   14.80   31.50   1
  22   8  -2   12.80   29.30   1
  22   8   3   22.80   37.80   1
 -22  -8  -3    7.50   34.30   1
 -22  -8   3   59.10   41.60   1
  22   8  -3   57.00   37.40   1
  22   9   0   50.00   47.40   1
 -22  -9   0   37.20   49.70   1
  22   9   1    3.40   20.40   1
 -22  -9  -1    5.00   20.10   1
 -22  -9   1   26.70   32.50   1
  22   9  -1   -0.00   27.30   1
  23   0   0   -0.50    8.50   1
 -23   0   0   -0.10    8.20   1
  23   0   1   14.90   24.30   1
 -23   0  -1   12.20   24.00   1
  23   0  -1   16.00   24.50   1
 -23   0   1   18.50   24.80   1
  23   0   2    3.70   15.80   1
 -23   0  -2    3.30   14.10   1
  23   0  -2   10.10   15.20   1
 -23   0   2    1.50   16.20   1
  23   0   3  219.70  142.90   1
 -23   0  -3  455.60  146.30   1
  23   0  -3  266.30  149.80   1
 -23   0   3  286.70  158.00   1
  23   0   4   40.70   48.80   1
 -23   0  -4  220.20   51.30   1
  23   0  -4   42.00   50.00   1
  23   1   0    6.10   15.80   1
 -23  -1   0    6.40   15.30   1
  23  -1   0    7.10   15.00   1
 -23   1   0   -0.00   15.60   1
  23   1   1    6.90   16.80   1
 -23  -1  -1    4.30   15.30   1
  23  -1  -1   10.70   16.50   1
 -23   1  -1    4.70   15.00   1
  23  -1   1    0.00   14.90   1
 -23  -1   1    5.60   15.40   1
  23   1  -1   11.10   16.10   1
  23   1   2    3.40   26.30   1
 -23  -1  -2   11.70   24.60   1
  23  -1  -2   55.50   28.70   1
 -23   1  -2   19.20   22.80   1
  23  -1   2    9.40   22.60   1
 -23  -1   2  163.60   35.20   1
  23   1  -2   27.60   24.00   1
 -23  -1  -3   24.90   22.40   1
 -23   1  -3   10.10   18.20   1
  23  -1   3   10.80   19.20   1
 -23  -1   3    2.80   19.80   1
  23   1  -3    2.30   19.30   1
  23   1   4  120.20   26.00   1
 -23  -1  -4   18.40   26.60   1
 -23   1  -4    8.40   23.30   1
  23  -1   4   11.00   22.90   1
 -23  -1   4    0.40   24.10   1
  23   1  -4   12.50   24.00   1
  23   2   0    8.30   16.20   1
 -23  -2   0   -0.00   14.30   1
  23  -2   0    5.20   16.50   1
  23   2   1   12.30   20.90   1
 -23  -2  -1   11.60   18.00   1
  23  -2   1   17.70   15.60   1
 -23  -2   1   -0.00   15.40   1
  23   2  -1   -0.10   15.80   1
  23   2   2    6.30   19.10   1
 -23  -2  -2   -0.00   21.90   1
 -23   2  -2    9.90   16.40   1
  23  -2   2    5.20   15.40   1
 -23  -2   2    5.30   16.70   1
  23   2  -2    7.30   17.20   1
  23   2   3    1.00   25.60   1
 -23  -2  -3    0.00   25.10   1
 -23   2  -3   92.20   25.30   1
  23  -2   3   10.20   20.80   1
 -23  -2   3   39.70   23.90   1
  23   2  -3   28.40   23.40   1
  23   2   4   35.10   27.40   1
 -23  -2  -4   12.70   28.60   1
 -23   2  -4   18.50   25.60   1
  23  -2   4   12.90   26.10   1
 -23  -2   4    8.70   27.20   1
  23   2  -4   29.20   27.50   1
  23   3   0    4.30   25.50   1
 -23  -3   0   21.20   25.10   1
  23   3   1    8.30   20.10   1
 -23  -3  -1   -0.00   23.80   1
 -23  -3   1    6.60   17.50   1
  23   3  -1    5.60   18.50   1
  23   3   2   21.20   44.70   1
 -23  -3  -2   98.50   45.50   1
 -23  -3   2   48.90   42.60   1
  23   3  -2   40.80   42.90   1
  23   3   3   38.90   31.70   1
 -23  -3  -3   31.00   33.10   1
  23  -3   3   20.40   28.60   1
 -23  -3   3   11.10   29.20   1
  23   3  -3   19.90   29.40   1
  23   4   0   -0.00   19.00   1
 -23  -4   0    9.40   23.10   1
  23   4   1    7.20   20.20   1
 -23  -4  -1   12.00   20.60   1
 -23  -4   1    3.00   19.40   1
  23   4  -1   -0.00   19.70   1
  23   4   2  183.50   39.60   1
 -23  -4  -2  161.80   40.70   1
 -23  -4   2   12.10   29.30   1
  23   4  -2    7.60   29.90   1
  23   4   3   12.40   20.90   1
 -23  -4  -3   17.70   24.90   1
 -23  -4   3    0.00   20.20   1
  23   4  -3   17.00   21.80   1
  23   5   0   -0.00   20.50   1
 -23  -5   0   14.30   23.10   1
  23   5   1    9.60   28.60   1
 -23  -5  -1   -0.00   25.80   1
 -23  -5   1    8.00   28.10   1
  23   5  -1   36.80   28.00   1
  23   5   2  128.80   47.90   1
 -23  -5  -2   13.70   45.50   1
 -23  -5   2   64.00   45.30   1
  23   5  -2   36.00   44.30   1
  23   6   0   21.90   43.50   1
 -23  -6   0   72.20   44.10   1
  23   6   1   -0.00   27.50   1
 -23  -6  -1   45.80   33.10   1
 -23  -6   1    9.60   28.70   1
  23   6  -1   11.90   26.40   1
;
_shelx_hkl_checksum              7275
loop_
_space_group_symop_operation_xyz
'x, y, z'
'-x+1/2, -y, z+1/2'
'x+1/2, -y+1/2, -z+1/2'
'-x, y+1/2, -z'
'-x, -y, -z'
'x-1/2, y, -z-1/2'
'-x-1/2, y-1/2, z-1/2'
'x, -y-1/2, z'
loop_
_atom_site_label
_atom_site_type_symbol
_atom_site_fract_x
_atom_site_fract_y
_atom_site_fract_z
_atom_site_U_iso_or_equiv
_atom_site_adp_type
_atom_site_occupancy
_atom_site_site_symmetry_order
_atom_site_calc_flag
_atom_site_refinement_flags_posn
_atom_site_refinement_flags_occupancy
Si01 Si 0.4235(4) 0.0597(4) -0.3339(7) 0.029(2) Uiso 1 1 d D .
Si02 Si 0.3081(4) 0.0304(5) -0.1855(8) 0.046(3) Uiso 1 1 d D .
Si03 Si 0.2794(4) 0.0622(4) 0.0349(7) 0.031(2) Uiso 1 1 d D .
Si04 Si 0.1218(4) 0.0627(4) 0.0293(7) 0.030(2) Uiso 1 1 d D .
Si05 Si 0.0735(3) 0.0283(3) -0.1830(6) 0.0216(18) Uiso 1 1 d D .
Si06 Si 0.1873(4) 0.0570(4) -0.3275(7) 0.036(2) Uiso 1 1 d D .
Si07 Si 0.4229(4) -0.1709(4) -0.3250(7) 0.041(2) Uiso 1 1 d D .
Si08 Si 0.3104(4) -0.1301(4) -0.1814(7) 0.031(2) Uiso 1 1 d D .
Si09 Si 0.2745(4) -0.1729(4) 0.0333(7) 0.031(2) Uiso 1 1 d D .
Si10 Si 0.1199(4) -0.1738(4) 0.0300(7) 0.038(2) Uiso 1 1 d D .
Si11 Si 0.0697(4) -0.1294(4) -0.1821(7) 0.033(2) Uiso 1 1 d D .
Si12 Si 0.1888(4) -0.1739(4) -0.3160(7) 0.036(2) Uiso 1 1 d D .
O01 O 0.3742(7) 0.0560(7) -0.2407(12) 0.055(4) Uiso 1 1 d D .
O02 O 0.3097(7) 0.0599(7) -0.0751(10) 0.053(4) Uiso 1 1 d D .
O03 O 0.2010(5) 0.0583(9) 0.0291(18) 0.069(5) Uiso 1 1 d D .
O04 O 0.0947(8) 0.0641(8) -0.0811(12) 0.058(4) Uiso 1 1 d D .
O05 O 0.1155(7) 0.0537(7) -0.2754(12) 0.051(4) Uiso 1 1 d D .
O06 O 0.2452(7) 0.0548(8) -0.2470(13) 0.063(5) Uiso 1 1 d D .
O07 O 0.3776(7) -0.1556(8) -0.2312(12) 0.055(4) Uiso 1 1 d D .
O08 O 0.3096(8) -0.1592(9) -0.0703(12) 0.061(4) Uiso 1 1 d D .
O09 O 0.1970(6) -0.1573(8) 0.0199(14) 0.057(4) Uiso 1 1 d D .
O10 O 0.0870(10) -0.1633(10) -0.0773(13) 0.076(5) Uiso 1 1 d D .
O11 O 0.1193(8) -0.1590(8) -0.2647(14) 0.065(5) Uiso 1 1 d D .
O12 O 0.2424(8) -0.1503(10) -0.2355(15) 0.081(6) Uiso 1 1 d D .
O13 O 0.3086(10) -0.0505(6) -0.172(2) 0.077(6) Uiso 1 1 d D .
O14 O 0.0774(9) -0.0509(7) -0.1720(16) 0.063(5) Uiso 1 1 d D .
O15 O 0.4209(7) 0.1271(6) -0.3951(12) 0.056(4) Uiso 1 1 d D .
O16 O 0.4053(8) 0.0019(7) -0.4102(14) 0.061(4) Uiso 1 1 d D .
O17 O 0.4033(8) -0.1325(6) -0.4244(11) 0.057(4) Uiso 1 1 d D .
O18 O 0.1913(7) 0.1321(6) -0.3769(12) 0.041(3) Uiso 1 1 d D .
O19 O 0.1877(7) -0.0013(7) -0.4080(12) 0.056(4) Uiso 1 1 d D .
O20 O 0.1981(8) -0.1302(7) -0.4137(13) 0.059(5) Uiso 1 1 d D .
O21 O -0.0015(6) 0.0492(7) -0.2057(13) 0.051(4) Uiso 1 1 d D .
O22 O -0.0042(6) -0.1525(8) -0.2125(14) 0.060(4) Uiso 1 1 d D .
O23 O 0.4234(11) -0.250000 -0.349(2) 0.056(6) Uiso 1 2 d DS P
O24 O 0.1893(13) -0.250000 -0.352(2) 0.075(8) Uiso 1 2 d DS P
O25 O 0.2862(10) -0.250000 0.0557(17) 0.042(5) Uiso 1 2 d DS P
O26 O 0.1071(10) -0.250000 0.0633(17) 0.045(5) Uiso 1 2 d DS P
loop_
_atom_type_symbol
_atom_type_description
_atom_type_scat_dispersion_real
_atom_type_scat_dispersion_imag
_atom_type_scat_source
O O 0.0000 0.0000 'International Tables Vol C Tables 4.2.6.8 and 6.1.1.4'
Si Si 0.0000 0.0000 'International Tables Vol C Tables 4.2.6.8 and 6.1.1.4'
loop_
_geom_angle_atom_site_label_1
_geom_angle_atom_site_label_2
_geom_angle_atom_site_label_3
_geom_angle
_geom_angle_site_symmetry_1
_geom_angle_site_symmetry_3
O15 Si01 O16 106.0(11) . .
O15 Si01 O01 115.3(10) . .
O16 Si01 O01 109.2(10) . .
O15 Si01 O21 108.2(9) . 6_655
O16 Si01 O21 109.5(9) . 6_655
O01 Si01 O21 108.4(10) . 6_655
O06 Si02 O02 112.8(10) . .
O06 Si02 O01 108.8(11) . .
O02 Si02 O01 107.2(9) . .
O06 Si02 O13 111.6(11) . .
O02 Si02 O13 105.3(11) . .
O01 Si02 O13 111.2(10) . .
O03 Si03 O19 113.7(10) . 2
O03 Si03 O20 110.3(10) . 2
O19 Si03 O20 109.2(11) 2 2
O03 Si03 O02 109.4(11) . .
O19 Si03 O02 105.5(9) 2 .
O20 Si03 O02 108.6(10) 2 .
O04 Si04 O03 110.0(12) . .
O04 Si04 O17 103.9(9) . 2
O03 Si04 O17 111.2(10) . 2
O04 Si04 O16 111.7(10) . 2
O03 Si04 O16 107.0(10) . 2
O17 Si04 O16 113.1(11) 2 2
O05 Si05 O14 111.4(10) . .
O05 Si05 O21 105.6(9) . .
O14 Si05 O21 109.0(9) . .
O05 Si05 O04 112.6(9) . .
O14 Si05 O04 110.7(10) . .
O21 Si05 O04 107.3(10) . .
O19 Si06 O06 116.0(10) . .
O19 Si06 O05 105.8(9) . .
O06 Si06 O05 111.2(11) . .
O19 Si06 O18 113.1(10) . .
O06 Si06 O18 105.3(9) . .
O05 Si06 O18 105.0(8) . .
O07 Si07 O17 115.6(10) . .
O07 Si07 O22 103.5(10) . 6_655
O17 Si07 O22 112.5(11) . 6_655
O07 Si07 O23 110.6(12) . .
O17 Si07 O23 107.9(11) . .
O22 Si07 O23 106.4(11) 6_655 .
O07 Si08 O13 111.7(10) . .
O07 Si08 O12 116.9(12) . .
O13 Si08 O12 105.5(11) . .
O07 Si08 O08 106.5(10) . .
O13 Si08 O08 106.9(12) . .
O12 Si08 O08 108.9(11) . .
O08 Si09 O25 105.6(11) . .
O08 Si09 O09 107.6(10) . .
O25 Si09 O09 110.8(10) . .
O08 Si09 O18 112.3(9) . 2
O25 Si09 O18 106.6(10) . 2
O09 Si09 O18 113.7(9) . 2
O09 Si10 O15 115.7(10) . 2
O09 Si10 O10 107.4(11) . .
O15 Si10 O10 106.1(11) 2 .
O09 Si10 O26 112.1(10) . .
O15 Si10 O26 107.2(10) 2 .
O10 Si10 O26 108.0(12) . .
O14 Si11 O10 108.8(11) . .
O14 Si11 O11 111.3(10) . .
O10 Si11 O11 108.6(11) . .
O14 Si11 O22 113.3(10) . .
O10 Si11 O22 107.7(11) . .
O11 Si11 O22 107.0(10) . .
O11 Si12 O20 111.1(10) . .
O11 Si12 O24 108.4(13) . .
O20 Si12 O24 105.9(13) . .
O11 Si12 O12 104.2(11) . .
O20 Si12 O12 108.5(11) . .
O24 Si12 O12 118.7(14) . .
Si01 O01 Si02 152.8(12) . .
Si02 O02 Si03 149.5(11) . .
Si03 O03 Si04 173.3(14) . .
Si04 O04 Si05 152.3(11) . .
Si05 O05 Si06 146.4(12) . .
Si02 O06 Si06 161.1(13) . .
Si07 O07 Si08 152.1(13) . .
Si09 O08 Si08 152.4(12) . .
Si10 O09 Si09 154.2(13) . .
Si11 O10 Si10 159.7(14) . .
Si12 O11 Si11 156.5(14) . .
Si12 O12 Si08 163.4(16) . .
Si08 O13 Si02 169.3(18) . .
Si11 O14 Si05 166.8(14) . .
Si01 O15 Si10 147.4(11) . 2_554
Si01 O16 Si04 169.0(14) . 2_554
Si07 O17 Si04 145.2(12) . 2_554
Si09 O18 Si06 141.9(11) 2_554 .
Si03 O19 Si06 153.6(12) 2_554 .
Si12 O20 Si03 149.6(13) . 2_554
Si05 O21 Si01 148.8(13) . 6
Si07 O22 Si11 146.7(14) 6 .
Si07 O23 Si07 156.9(19) . 8
Si12 O24 Si12 145(2) 8 .
Si09 O25 Si09 152.1(16) 8 .
Si10 O26 Si10 142.6(17) 8 .
loop_
_geom_bond_atom_site_label_1
_geom_bond_atom_site_label_2
_geom_bond_distance
_geom_bond_site_symmetry_2
Si01 O15 1.573(11) .
Si01 O16 1.581(15) .
Si01 O01 1.593(12) .
Si01 O21 1.607(14) 6_655
Si02 O06 1.579(11) .
Si02 O02 1.590(15) .
Si02 O01 1.598(14) .
Si02 O13 1.620(15) .
Si03 O03 1.574(10) .
Si03 O19 1.576(11) 2
Si03 O20 1.583(11) 2
Si03 O02 1.593(12) .
Si04 O04 1.575(16) .
Si04 O03 1.589(8) .
Si04 O17 1.600(9) 2
Si04 O16 1.613(15) 2
Si05 O05 1.578(15) .
Si05 O14 1.584(14) .
Si05 O21 1.588(11) .
Si05 O04 1.596(15) .
Si06 O19 1.583(11) .
Si06 O06 1.584(11) .
Si06 O05 1.599(15) .
Si06 O18 1.636(14) .
Si07 O07 1.578(16) .
Si07 O17 1.583(11) .
Si07 O22 1.588(12) 6_655
Si07 O23 1.607(10) .
Si08 O07 1.585(15) .
Si08 O13 1.588(12) .
Si08 O12 1.594(11) .
Si08 O08 1.596(17) .
Si09 O08 1.578(16) .
Si09 O25 1.581(9) .
Si09 O09 1.593(11) .
Si09 O18 1.605(15) 2
Si10 O09 1.582(14) .
Si10 O15 1.592(9) 2
Si10 O10 1.595(17) .
Si10 O26 1.601(11) .
Si11 O14 1.576(14) .
Si11 O10 1.594(17) .
Si11 O11 1.599(16) .
Si11 O22 1.600(14) .
Si12 O11 1.579(16) .
Si12 O20 1.581(15) .
Si12 O24 1.589(13) .
Si12 O12 1.591(12) .

_cod_database_fobs_code 2300643
