#------------------------------------------------------------------------------
#$Date: 2018-07-06 05:20:27 +0300 (Fri, 06 Jul 2018) $
#$Revision: 208877 $
#$URL: file:///home/coder/svn-repositories/cod/cif/2/30/06/2300642.cif $
#------------------------------------------------------------------------------
#
# This file is available in the Crystallography Open Database (COD),
# http://www.crystallography.net/. The original data for this entry
# were provided by IUCr Journals, http://journals.iucr.org/.
#
# The file may be used within the scientific community so long as
# proper attribution is given to the journal article from which the
# data were obtained.
#
data_2300642
loop_
_publ_author_name
'Wang, Yunchen'
'Yang, Taimin'
'Xu, Hongyi'
'Zou, Xiaodong'
'Wan, Wei'
_publ_section_title
;
 On the quality of the continuous rotation electron diffraction data for
 accurate atomic structure determination of inorganic compounds
;
_journal_issue                   4
_journal_name_full               'Journal of Applied Crystallography'
_journal_page_first
;
;
_journal_paper_doi               10.1107/S1600576718007604
_journal_volume                  51
_journal_year                    2018
_chemical_formula_sum            'O192 Si96'
_chemical_formula_weight         5768.06
_space_group_crystal_system      orthorhombic
_space_group_IT_number           62
_space_group_name_Hall           '-P 2ac 2n'
_space_group_name_H-M_alt        'P n m a'
_symmetry_space_group_name_Hall  '-P 2ac 2n'
_symmetry_space_group_name_H-M   'P n m a'
_audit_creation_method           SHELXL-2018/3
_cell_angle_alpha                90
_cell_angle_beta                 90
_cell_angle_gamma                90
_cell_formula_units_Z            1
_cell_length_a                   20.022(4)
_cell_length_b                   19.899(4)
_cell_length_c                   13.383(3)
_cell_measurement_reflns_used    10305
_cell_measurement_temperature    293(2)
_cell_measurement_theta_max      0.827
_cell_measurement_theta_min      0.065
_cell_volume                     5332.0(19)
_computing_structure_refinement  'SHELXL-2018/3 (Sheldrick, 2018)'
_diffrn_ambient_temperature      293(2)
_diffrn_measured_fraction_theta_full 0.667
_diffrn_measured_fraction_theta_max 0.667
_diffrn_measurement_device_type  'JEOL JEM-2100'
_diffrn_radiation_wavelength     0.0251
_diffrn_reflns_av_R_equivalents  0.2055
_diffrn_reflns_av_unetI/netI     0.1519
_diffrn_reflns_Laue_measured_fraction_full 0.667
_diffrn_reflns_Laue_measured_fraction_max 0.667
_diffrn_reflns_limit_h_max       18
_diffrn_reflns_limit_h_min       -18
_diffrn_reflns_limit_k_max       22
_diffrn_reflns_limit_k_min       -22
_diffrn_reflns_limit_l_max       15
_diffrn_reflns_limit_l_min       -15
_diffrn_reflns_number            17621
_diffrn_reflns_point_group_measured_fraction_full 0.667
_diffrn_reflns_point_group_measured_fraction_max 0.667
_diffrn_reflns_theta_full        0.827
_diffrn_reflns_theta_max         0.827
_diffrn_reflns_theta_min         0.065
_exptl_absorpt_coefficient_mu    0.000
_exptl_crystal_colour            white
_exptl_crystal_density_diffrn    1.796
_exptl_crystal_description       Plate
_exptl_crystal_F_000             939
_refine_diff_density_max         0.636
_refine_diff_density_min         -0.201
_refine_diff_density_rms         0.069
_refine_ls_extinction_coef       3079(82)
_refine_ls_extinction_expression Fc^*^=kFc[1+0.001xFc^2^\l^3^/sin(2\q)]^-1/4^
_refine_ls_extinction_method     'SHELXL-2018/3 (Sheldrick 2018)'
_refine_ls_goodness_of_fit_ref   1.177
_refine_ls_hydrogen_treatment    undef
_refine_ls_matrix_type           full
_refine_ls_number_parameters     150
_refine_ls_number_reflns         2925
_refine_ls_number_restraints     48
_refine_ls_restrained_S_all      1.177
_refine_ls_R_factor_all          0.2515
_refine_ls_R_factor_gt           0.2327
_refine_ls_shift/su_max          0.030
_refine_ls_shift/su_mean         0.001
_refine_ls_structure_factor_coef Fsqd
_refine_ls_weighting_details
'w=1/[\s^2^(Fo^2^)+(0.2364P)^2^+6.0900P] where P=(Fo^2^+2Fc^2^)/3'
_refine_ls_weighting_scheme      calc
_refine_ls_wR_factor_gt          0.5421
_refine_ls_wR_factor_ref         0.5571
_reflns_Friedel_coverage         0.000
_reflns_number_gt                2172
_reflns_number_total             2925
_reflns_threshold_expression     'I > 2\s(I)'
_cod_data_source_file            kc5069sup1.cif
_cod_data_source_block           dataset9
_cod_database_code               2300642
_shelx_shelxl_version_number     2018/3
_shelx_space_group_comment
;
The symmetry employed for this shelxl refinement is uniquely defined
by the following loop, which should always be used as a source of
symmetry information in preference to the above space-group names.
They are only intended as comments.
;
_shelx_res_file
;

    3_a_Adjusted.res created by SHELXL-2018/3 at 11:23:34 on 24-Apr-2018
TITL 3_a.res in Pnma
CELL  0.0251  20.0220  19.8990  13.3830   90.000   90.000   90.000
ZERR   1.000   0.0040   0.0040   0.0027    0.000    0.000    0.000
LATT 1
SYMM 1/2-x,-y,1/2+z
SYMM 1/2+x,1/2-y,1/2-z
SYMM -x,1/2+y,-z
REM  ------ Electron scattering factors ------
REM  SFAC Species a(1) b(1) a(2) b(2) a(3) b(3) =
REM  a(4) b(4) c f' f'' mu cov_radius weight
SFAC O      0.45480  23.78030   0.91730   7.62200   0.47190   2.14400 =
            0.13840   0.29590   0.00000   0.000   0.000   0.000   0.730  15.999
SFAC SI     2.12930  57.77480   2.53330  16.47560   0.83490   2.87960 =
            0.32160   0.38600   0.00000   0.000   0.000   0.000   1.110  28.086
UNIT 192 96
L.S. 10
BOND
LIST 6
FMAP 2
PLAN 20
SHEL 20 0.87
ACTA
EQIV $1   x-1/2, y, -z-1/2
EQIV $2   -x+1/2, -y, z-1/2
EQIV $3   x, -y-1/2, z
EQIV $4   -x+1/2, -y, z+1/2
EQIV $5   x+1/2, y, -z-1/2

DFIX 1.61 0.03 Si01 O15 Si01 O21_$5 Si01 O01
DFIX 1.61 0.015 Si01 O16
DFIX 1.61 0.03 Si02 O06 Si02 O01 Si02 O02 Si02 O13
DFIX 1.61 0.03 Si03 O19_$4 Si03 O02 Si03 O20_$4 Si03 O03
DFIX 1.61 0.03 Si04 O03
DFIX 1.61 0.03 Si04 O17_$4 Si04 O16_$4 Si04 O04
DFIX 1.61 0.015 Si05 O04
DFIX 1.61 0.03 Si05 O14 Si05 O21 Si05 O05
DFIX 1.61 0.03 Si06 O05 Si06 O19 Si06 O18 Si06 O06
DFIX 1.61 0.015 Si07 O07
DFIX 1.61 0.03 Si07 O23 Si07 O22_$5 Si07 O17
DFIX 1.61 0.015 Si08 O12 Si08 O13
DFIX 1.61 0.03 Si08 O08 Si08 O07
DFIX 1.61 0.03 Si09 O18_$4 Si09 O25 Si09 O08 Si09 O09
DFIX 1.61 0.03 Si10 O09 Si10 O26 Si10 O15_$4 Si10 O10
DFIX 1.61 0.015 Si11 O10
DFIX 1.61 0.03 Si11 O22 Si11 O11 Si11 O14
DFIX 1.61 0.015 Si12 O11 Si12 O12 Si12 O20
DFIX 1.61 0.03  Si12 O24

WGHT    0.236400    6.090000
EXTI 3079.162109
FVAR       1.81516
SI01  2    0.424443    0.057052   -0.334945    11.00000    0.02514
SI02  2    0.309904    0.028851   -0.188490    11.00000    0.03092
SI03  2    0.279815    0.062455    0.035347    11.00000    0.02584
SI04  2    0.121743    0.063936    0.029496    11.00000    0.02702
SI05  2    0.071401    0.027082   -0.180281    11.00000    0.02462
SI06  2    0.188388    0.060919   -0.323354    11.00000    0.02514
SI07  2    0.422742   -0.173241   -0.321028    11.00000    0.02637
SI08  2    0.308765   -0.129651   -0.181154    11.00000    0.02814
SI09  2    0.275248   -0.172780    0.034671    11.00000    0.02874
SI10  2    0.118343   -0.173123    0.030128    11.00000    0.02520
SI11  2    0.070252   -0.130382   -0.182086    11.00000    0.02931
SI12  2    0.188939   -0.173028   -0.315663    11.00000    0.03796
O01   1    0.375283    0.056594   -0.241080    11.00000    0.06562
O02   1    0.309038    0.059085   -0.075232    11.00000    0.04346
O03   1    0.200344    0.060429    0.030708    11.00000    0.07887
O04   1    0.093441    0.064127   -0.080857    11.00000    0.05589
O05   1    0.117081    0.053104   -0.271120    11.00000    0.06183
O06   1    0.243091    0.060816   -0.234518    11.00000    0.11862
O07   1    0.377644   -0.154750   -0.227514    11.00000    0.06348
O08   1    0.311236   -0.158439   -0.070846    11.00000    0.04202
O09   1    0.196265   -0.155211    0.031487    11.00000    0.05137
O10   1    0.088837   -0.164758   -0.078909    11.00000    0.09398
O11   1    0.117747   -0.156023   -0.268898    11.00000    0.06346
O12   1    0.243472   -0.155047   -0.234334    11.00000    0.07816
O13   1    0.305616   -0.050263   -0.175933    11.00000    0.06187
O14   1    0.077883   -0.051940   -0.170081    11.00000    0.05119
O15   1    0.418736    0.127245   -0.389686    11.00000    0.06442
O16   1    0.408000   -0.002310   -0.410085    11.00000    0.05041
O17   1    0.400417   -0.132121   -0.417325    11.00000    0.04299
O18   1    0.190340    0.131680   -0.379290    11.00000    0.04105
O19   1    0.193913    0.000162   -0.403738    11.00000    0.04103
O20   1    0.196371   -0.130043   -0.414997    11.00000    0.04535
O21   1   -0.001890    0.051343   -0.206354    11.00000    0.05664
O22   1   -0.004158   -0.150448   -0.209684    11.00000    0.06521
O23   1    0.425711   -0.250000   -0.351503    10.50000    0.04800
O24   1    0.195251   -0.250000   -0.345874    10.50000    0.05875
O25   1    0.287206   -0.250000    0.062337    10.50000    0.03230
O26   1    0.105493   -0.250000    0.063209    10.50000    0.03562
HKLF 4




REM  3_a.res in Pnma
REM wR2 = 0.5571, GooF = S = 1.177, Restrained GooF = 1.177 for all data
REM R1 = 0.2327 for 2172 Fo > 4sig(Fo) and 0.2515 for all 2925 data
REM 150 parameters refined using 48 restraints

END

WGHT      0.2000      0.0000

REM Highest difference peak  0.636,  deepest hole -0.201,  1-sigma level  0.069
Q1    1   0.1911 -0.2500  0.3238  10.50000  0.05    0.64
Q2    1   0.0857  0.2500 -0.1802  10.50000  0.05    0.45
Q3    1  -0.0029 -0.2500  0.2178  10.50000  0.05    0.29
Q4    1   0.3238 -0.1847  0.0256  11.00000  0.05    0.28
Q5    1   0.2910 -0.1311 -0.1787  11.00000  0.05    0.28
Q6    1   0.2532  0.0620  0.0249  11.00000  0.05    0.26
Q7    1   0.3247  0.0634  0.0331  11.00000  0.05    0.26
Q8    1   0.0321 -0.2500 -0.5843  10.50000  0.05    0.26
Q9    1   0.1238 -0.2500 -0.6022  10.50000  0.05    0.25
Q10   1   0.4775 -0.2500  0.1845  10.50000  0.05    0.23
Q11   1   0.3779 -0.2500  0.2252  10.50000  0.05    0.23
Q12   1   0.4540 -0.2500  0.1804  10.50000  0.05    0.23
Q13   1   0.1529  0.0605  0.0273  11.00000  0.05    0.23
Q14   1   0.0906 -0.1291 -0.1767  11.00000  0.05    0.23
Q15   1   0.2602 -0.1854  0.0255  11.00000  0.05    0.22
Q16   1   0.3415 -0.2500 -0.6269  10.50000  0.05    0.22
Q17   1   0.2552 -0.2500 -0.6086  10.50000  0.05    0.22
Q18   1   0.3211 -0.2500  0.0586  10.50000  0.05    0.21
Q19   1   0.4548 -0.2500 -0.1552  10.50000  0.05    0.21
Q20   1   0.4868  0.0550  0.0314  11.00000  0.05    0.21
;
_shelx_res_checksum              78902
_shelx_hkl_file
;
   0   0   1  119.00   74.90   1
   0   0  -1  160.40   75.00   1
   0   0   2 3110.80  521.30   1
   0   0  -2 3524.30  520.90   1
   0   0   3   82.30   49.20   1
   0   0  -3   48.30   49.10   1
   0   0   4 1288.40  281.40   1
   0   0  -4 1439.20  279.30   1
   0   0   5  111.70   52.80   1
   0   0  -5   51.60   52.60   1
   0   0   6 5112.50  831.40   1
   0   0  -6 6607.40  822.20   1
   0   0   7  197.00   96.20   1
   0   0  -7  229.60   96.00   1
   0   0   8 6428.50 1021.10   1
   0   0  -8 8011.00  991.80   1
   0   0   9  157.60   89.00   1
   0   0  -9  211.30   89.10   1
   0   0  10  313.00  131.90   1
   0   0 -10  437.50  131.50   1
   0   0  11   31.10   39.20   1
   0   0 -11   51.30   39.80   1
   0   0  12 1202.70  286.30   1
   0   0 -12 1273.50  269.30   1
   0   0 -13   63.30   51.50   1
   0   0 -14  855.80  214.40   1
   0   0 -15   32.30   37.10   1
   0   0 -16   79.90   58.40   1
   0   1   0  122.40   66.60   1
   0  -1   0   98.50   66.60   1
   0   1   1 1996.30  331.20   1
   0  -1  -1 1984.40  331.30   1
   0   1  -1 1529.50  329.90   1
   0  -1   1 2008.30  331.10   1
   0   1   2   72.10   43.90   1
   0  -1  -2   33.60   43.80   1
   0   1   3 3113.40  505.60   1
   0  -1  -3 3619.00  506.90   1
   0   1   4  115.80   51.30   1
   0  -1  -4   41.00   51.10   1
   0   1   5 1046.20  247.50   1
   0  -1  -5 1409.40  249.40   1
   0   1   6   55.90   55.10   1
   0  -1  -6  111.10   55.40   1
   0   1   7  390.80  114.70   1
   0  -1  -7  259.40  114.40   1
   0   1   8   47.30   38.00   1
   0  -1  -8   25.10   38.00   1
   0   1   9 2188.50  313.90   1
   0  -1  -9 1416.20  307.90   1
   0   1  10   47.80   24.90   1
   0  -1 -10   -0.70   24.20   1
   0   1  11  339.50  124.00   1
   0  -1 -11  352.20  123.70   1
   0   1  12   36.40   38.70   1
   0  -1 -12   35.50   38.60   1
   0   1  13   42.20   46.40   1
   0  -1 -13   59.10   46.20   1
   0   1  14   16.90   26.30   1
   0  -1 -14   15.10   25.90   1
   0   1  15    5.60   23.10   1
   0  -1 -15   16.40   22.70   1
   0   1  16   -0.00    7.70   1
   0  -1 -16   -0.00    5.70   1
   0   2   0 2088.70  326.20   1
   0  -2   0 1595.90  324.30   1
   0   2   1  172.70   85.90   1
   0  -2  -1  224.10   86.00   1
   0   2  -1  185.10   85.90   1
   0  -2   1  152.60   85.80   1
   0   2   2 1490.90  306.70   1
   0  -2  -2 1644.20  307.30   1
   0   2  -2 1768.80  307.60   1
   0  -2   2 1686.40  307.10   1
   0   2   3   21.60   35.90   1
   0  -2  -3   22.40   35.90   1
   0   2  -3   34.40   35.80   1
   0  -2   3   39.80   35.80   1
   0   2   4   76.20   53.50   1
   0  -2  -4   64.70   53.40   1
   0   2   5   65.30   50.10   1
   0  -2  -5   57.90   50.10   1
   0   2   6 1063.10  112.30   1
   0  -2  -6  233.40  108.80   1
   0   2   7   82.60   65.80   1
   0  -2  -7  130.40   65.70   1
   0   2   8  524.00  149.60   1
   0  -2  -8  468.70  149.10   1
   0   2   9   28.70   58.30   1
   0  -2  -9  175.70   58.50   1
   0   2  10  290.40  118.90   1
   0  -2 -10  376.10  119.20   1
   0   2  11   28.60   32.80   1
   0  -2 -11   20.20   33.40   1
   0   2  12  372.60  116.80   1
   0  -2 -12  272.70  116.50   1
   0   2  13   52.40   37.80   1
   0  -2 -13   14.40   37.90   1
   0   2  14  232.20   91.40   1
   0  -2 -14  173.20   91.00   1
   0   2  15   14.30   25.50   1
   0  -2 -15   16.30   25.90   1
   0   2  16   26.90   31.40   1
   0  -2 -16   19.80   31.50   1
   0   3   0   16.90   32.50   1
   0  -3   0   36.30   32.50   1
   0   3   1 1563.10  278.20   1
   0  -3  -1 1631.40  278.30   1
   0   3  -1 1306.60  277.10   1
   0  -3   1 1257.80  276.90   1
   0   3   2  178.90   79.40   1
   0  -3  -2  208.80   79.50   1
   0   3  -2  202.40   79.40   1
   0  -3   2  103.90   79.30   1
   0   3   3 3828.00  567.60   1
   0  -3  -3 3998.50  568.90   1
   0   3  -3 3894.20  568.30   1
   0  -3   3 3913.70  567.60   1
   0   3   4   63.30   44.70   1
   0  -3  -4   94.00   44.80   1
   0   3  -4   51.20   44.60   1
   0  -3   4   29.20   44.60   1
   0   3   5 3201.10  503.30   1
   0  -3  -5 3827.60  505.90   1
   0   3  -5 3213.20  505.90   1
   0  -3   5 3088.60  508.00   1
   0   3   6   43.00   32.10   1
   0  -3  -6    9.90   32.10   1
   0   3   7 1871.80  335.60   1
   0  -3  -7 1855.00  336.20   1
   0   3   8   49.80   40.20   1
   0  -3  -8   30.60   40.10   1
   0   3   9  680.10  143.00   1
   0  -3  -9  381.40  141.90   1
   0   3  10   32.80   42.60   1
   0  -3 -10   52.40   42.50   1
   0   3  11  496.10  154.30   1
   0  -3 -11  540.30  154.20   1
   0   3  12   13.20   30.80   1
   0  -3 -12   26.60   30.20   1
   0   3  13   97.10   55.10   1
   0  -3 -13   58.30   54.50   1
   0   3  14   13.80   25.80   1
   0  -3 -14   16.30   25.80   1
   0   3  15  104.70   54.90   1
   0  -3 -15   47.90   54.80   1
   0   4   0 1882.10  338.50   1
   0  -4   0 1889.50  338.30   1
   0   4   1  292.70   91.70   1
   0  -4  -1  177.90   91.50   1
   0   4  -1  261.40   91.70   1
   0  -4   1  150.20   91.50   1
   0   4   2  288.90  103.90   1
   0  -4  -2  339.20  104.10   1
   0   4  -2  198.70  103.70   1
   0  -4   2  264.40  103.80   1
   0   4   3   94.20   52.40   1
   0  -4  -3   23.60   52.30   1
   0   4  -3   92.90   52.20   1
   0   4   4 2305.60  419.60   1
   0  -4  -4 2785.10  421.80   1
   0   4  -4 2693.90  421.30   1
   0  -4   4 2722.80  420.70   1
   0   4   5    5.70   33.80   1
   0  -4  -5   18.30   33.90   1
   0   4  -5   20.10   33.70   1
   0  -4   5   85.60   33.80   1
   0   4   6  205.70   90.80   1
   0  -4  -6  214.10   90.80   1
   0   4  -6  181.60   90.70   1
   0  -4   6  189.30   90.70   1
   0   4   7   44.10   28.50   1
   0  -4  -7   19.60   28.50   1
   0   4  -7   19.20   28.20   1
   0  -4   7    8.20   28.20   1
   0   4   8   56.10   47.20   1
   0  -4  -8   52.70   47.20   1
   0   4   9   17.40   33.20   1
   0  -4  -9   37.50   33.30   1
   0   4  10   68.00   53.60   1
   0  -4 -10   71.30   53.50   1
   0   4  11   48.10   44.00   1
   0  -4 -11   45.50   43.90   1
   0   4  12   59.80   41.30   1
   0  -4 -12   30.00   40.90   1
   0   4  13   49.00   38.70   1
   0  -4 -13   27.60   38.30   1
   0   4  14   81.00   63.20   1
   0  -4 -14  105.90   62.90   1
   0   4  15   -0.00   15.20   1
   0  -4 -15    5.30   13.60   1
   0   5   0   53.80   51.50   1
   0  -5   0   80.10   51.50   1
   0   5   1 8117.90 1123.90   1
   0  -5  -1 7837.10 1123.60   1
   0   5  -111039.10 1139.90   1
   0  -5   111583.70 1144.80   1
   0   5   2  172.00   89.10   1
   0  -5  -2  262.50   89.30   1
   0   5  -2  133.50   89.00   1
   0  -5   2  594.60   90.30   1
   0   5   3 6913.70  908.90   1
   0  -5  -3 6595.60  909.00   1
   0   5  -3 7146.70  906.20   1
   0  -5   3 7436.00  907.70   1
   0   5   4   24.80   43.60   1
   0  -5  -4   26.90   43.60   1
   0  -5   4   78.10   43.50   1
   0   5   5 2164.90  397.20   1
   0  -5  -5 2440.40  398.70   1
   0   5  -5 2439.70  398.50   1
   0  -5   5 2626.60  398.40   1
   0   5   6   40.80   37.20   1
   0  -5  -6   28.30   37.20   1
   0   5  -6   31.60   37.00   1
   0  -5   6   34.80   37.00   1
   0   5   7  237.60   98.90   1
   0  -5  -7  229.40   98.90   1
   0   5  -7  224.00   98.80   1
   0  -5   7  230.10   98.80   1
   0   5   8   58.10   51.00   1
   0  -5  -8  162.40   51.40   1
   0   5  -8   36.60   50.80   1
   0  -5   8   89.00   50.90   1
   0   5   9 7314.80  932.10   1
   0  -5  -9 7892.20  932.00   1
   0   5  -9 6158.70  942.40   1
   0  -5   9 6729.70  994.50   1
   0   5  10   29.40   40.70   1
   0  -5 -10   53.60   40.80   1
   0   5  11 3504.40  524.20   1
   0  -5 -11 3398.80  523.90   1
   0   5  12   20.20   25.60   1
   0  -5 -12   11.40   25.40   1
   0   5  13  137.00   78.10   1
   0  -5 -13  154.70   78.10   1
   0   5  14   21.20   23.00   1
   0  -5 -14    5.90   22.60   1
   0   5  15  179.90   75.10   1
   0  -5 -15  110.60   74.60   1
   0   6   0 3140.70  482.20   1
   0  -6   0 3100.60  481.60   1
   0   6   1  191.80  102.20   1
   0  -6  -1  217.90  102.30   1
   0   6  -1  297.50  102.50   1
   0  -6   1  385.80  102.70   1
   0   6   2  643.80  183.10   1
   0  -6  -2  640.10  183.00   1
   0   6  -2  904.70  183.70   1
   0  -6   2  711.30  183.10   1
   0   6   3   56.20   46.30   1
   0  -6  -3  101.10   46.30   1
   0   6  -3   32.40   46.00   1
   0  -6   3   46.20   46.10   1
   0   6   4  377.70  131.30   1
   0  -6  -4  346.60  131.30   1
   0   6  -4  425.90  131.30   1
   0  -6   4  414.10  131.30   1
   0   6   5   24.30   51.60   1
   0  -6  -5   28.70   51.60   1
   0   6  -5   91.90   51.50   1
   0  -6   5  107.90   51.50   1
   0   6   6 1162.90  271.00   1
   0  -6  -6 1474.70  272.30   1
   0   6  -6 1361.10  271.70   1
   0  -6   6 1511.60  271.80   1
   0   6   7   32.50   27.20   1
   0  -6  -7   14.60   27.30   1
   0   6  -7   19.50   27.00   1
   0  -6   7   10.90   26.90   1
   0   6   8  345.80  120.30   1
   0  -6  -8  317.50  120.20   1
   0   6  -8  303.60  120.10   1
   0  -6   8  377.50  120.30   1
   0   6   9   33.70   39.80   1
   0  -6  -9   45.50   39.80   1
   0   6  -9   41.10   39.50   1
   0  -6   9   34.60   39.50   1
   0   6  10  462.20  144.00   1
   0  -6 -10  531.10  144.20   1
   0   6 -10  434.30  144.00   1
   0  -6  10  397.50  144.30   1
   0   6  11   -1.30   22.70   1
   0  -6 -11   26.90   22.90   1
   0   6 -11   12.70   22.20   1
   0   6  12   78.10   35.00   1
   0  -6 -12   38.90   35.00   1
   0   6 -12   13.00   34.40   1
   0   6  13   15.00   26.20   1
   0  -6 -13   16.90   26.10   1
   0   6  14  179.40   89.80   1
   0  -6 -14  202.40   89.90   1
   0   6  15   -0.00    6.80   1
   0  -6 -15   -0.00    6.20   1
   0   7   0  124.60   69.20   1
   0  -7   0  107.70   69.10   1
   0   7   1 1008.40  229.50   1
   0  -7  -1 1022.10  229.60   1
   0   7  -1  933.90  229.00   1
   0  -7   1 1222.90  229.90   1
   0   7   2  121.50   54.10   1
   0  -7  -2  210.50   54.30   1
   0   7  -2   60.20   54.20   1
   0  -7   2   -0.00   54.00   1
   0   7   3   95.30   77.30   1
   0  -7  -3  141.00   77.40   1
   0  -7   3  473.30   78.40   1
   0   7   4   64.00   56.70   1
   0  -7  -4  177.00   57.00   1
   0   7  -4   49.20   56.40   1
   0  -7   4   81.40   56.50   1
   0   7   5   57.00   49.50   1
   0  -7  -5   25.60   49.40   1
   0   7  -5   36.90   49.20   1
   0  -7   5  160.50   49.40   1
   0   7   6   22.40   44.50   1
   0  -7  -6   43.20   44.60   1
   0   7  -6  221.90   44.70   1
   0  -7   6   17.70   44.30   1
   0   7   7  649.60  165.20   1
   0  -7  -7  562.40  165.20   1
   0   7  -7  558.60  165.00   1
   0  -7   7  586.50  164.90   1
   0   7   8    6.00   31.40   1
   0  -7  -8   44.30   31.80   1
   0   7  -8   32.10   31.20   1
   0  -7   8   20.40   31.20   1
   0   7   9  121.10   58.40   1
   0  -7  -9  104.80   58.40   1
   0   7  -9   40.90   58.00   1
   0  -7   9  201.90   58.40   1
   0   7  10   18.80   31.90   1
   0  -7 -10    6.90   31.80   1
   0   7 -10   39.50   31.50   1
   0  -7  10   22.30   31.50   1
   0   7  11  182.40   49.30   1
   0  -7 -11   52.60   48.90   1
   0   7 -11   49.70   48.50   1
   0  -7  11   41.40   48.50   1
   0   7  12   22.50   25.30   1
   0  -7 -12   32.00   25.60   1
   0   7 -12   26.00   24.90   1
   0  -7  12  -11.20   25.00   1
   0   7  13  173.80   88.20   1
   0  -7 -13  207.10   88.30   1
   0   7 -13  166.70   88.30   1
   0   7  14    4.60   15.30   1
   0  -7 -14   18.10   15.40   1
   0   7 -14    0.00   14.50   1
   0   7  15   13.20   19.60   1
   0  -7 -15    3.60   19.60   1
   0   8   0 5884.40  796.30   1
   0  -8   0 6047.90  795.80   1
   0   8   1   77.60   69.80   1
   0  -8  -1   70.60   69.80   1
   0   8  -1  355.20   70.50   1
   0  -8   1  301.20   70.40   1
   0   8   2  405.10  141.20   1
   0  -8  -2  523.50  141.50   1
   0   8  -2  407.80  141.30   1
   0  -8   2  481.20  141.50   1
   0   8   3   71.50   61.80   1
   0  -8  -3   84.60   61.80   1
   0   8  -3   61.60   61.80   1
   0  -8   3  337.00   62.50   1
   0   8   4 6444.00  868.50   1
   0  -8  -4 6422.80  869.70   1
   0   8  -4 6695.10  866.00   1
   0  -8   4 6826.80  864.80   1
   0   8   5  106.20   86.80   1
   0  -8  -5  183.10   86.90   1
   0   8  -5  322.50   87.00   1
   0  -8   5  188.40   86.70   1
   0   8   6 1845.60  306.10   1
   0  -8  -6 1712.40  305.40   1
   0   8  -6 1611.30  304.70   1
   0  -8   6 1432.60  303.70   1
   0   8   7   24.30   47.70   1
   0  -8  -7   57.70   47.80   1
   0   8  -7  185.90   47.70   1
   0  -8   7   24.30   47.40   1
   0   8   8  255.80   90.70   1
   0  -8  -8  206.90   90.60   1
   0   8  -8  174.40   90.30   1
   0  -8   8  176.30   90.30   1
   0   8   9   32.90   38.80   1
   0  -8  -9   44.00   39.10   1
   0   8  -9   72.20   38.60   1
   0  -8   9   12.60   38.50   1
   0   8  10  540.60  166.70   1
   0  -8 -10  606.50  166.90   1
   0   8 -10  612.20  166.70   1
   0  -8  10  640.70  167.10   1
   0   8  11   35.20   31.20   1
   0  -8 -11   16.20   31.10   1
   0   8 -11   20.20   30.60   1
   0  -8  11   24.00   30.60   1
   0   8  12   72.40   47.80   1
   0  -8 -12   42.20   47.60   1
   0   8 -12   58.70   47.20   1
   0  -8  12   49.80   47.30   1
   0   8  13   92.70   38.60   1
   0  -8 -13   65.00   38.50   1
   0   8 -13   12.10   37.70   1
   0  -8  13   53.40   38.00   1
   0   8  14  139.10   91.10   1
   0  -8 -14  247.80   91.60   1
   0   8 -14  496.30   95.80   1
   0  -8  14  429.40  100.20   1
   0   8  15   18.50   22.50   1
   0  -8 -15   19.70   22.50   1
   0   8 -15    5.90   21.70   1
   0   9   0  177.10   91.30   1
   0  -9   0  221.50   91.30   1
   0   9   1  119.50   87.00   1
   0  -9  -1  143.90   87.10   1
   0   9  -1  312.40   87.40   1
   0  -9   1  393.80   87.70   1
   0   9   2   88.90   61.30   1
   0  -9  -2   81.00   61.30   1
   0   9  -2  102.70   61.50   1
   0  -9   2   96.90   61.60   1
   0   9   3   58.30   63.00   1
   0  -9  -3   98.00   63.00   1
   0   9  -3  247.00   63.30   1
   0  -9   3   69.70   62.90   1
   0   9   4  210.00   74.10   1
   0  -9  -4  112.80   73.80   1
   0   9  -4   76.50   73.60   1
   0  -9   4  208.50   74.00   1
   0   9   5  201.00   91.90   1
   0  -9  -5  294.30   92.20   1
   0   9  -5  194.50   91.70   1
   0  -9   5  169.10   91.60   1
   0   9   6   29.50   35.40   1
   0  -9  -6    1.70   35.20   1
   0   9  -6   34.40   34.90   1
   0  -9   6   40.90   34.80   1
   0   9   7  132.90   73.20   1
   0  -9  -7  152.60   73.20   1
   0   9  -7   97.40   72.90   1
   0  -9   7  151.00   72.90   1
   0   9   8   42.90   39.00   1
   0  -9  -8   43.30   39.00   1
   0   9  -8   43.70   38.50   1
   0  -9   8   21.70   38.50   1
   0   9   9  114.30   57.00   1
   0  -9  -9   72.40   57.10   1
   0   9  -9   73.80   56.60   1
   0  -9   9   67.80   56.60   1
   0   9  10   17.30   32.50   1
   0  -9 -10   24.70   32.80   1
   0   9 -10   48.20   32.30   1
   0  -9  10   13.60   32.20   1
   0   9  11  263.00  111.20   1
   0  -9 -11  266.30  111.20   1
   0   9 -11  296.60  111.10   1
   0  -9  11  321.30  111.20   1
   0   9  12   19.30   25.10   1
   0  -9 -12    3.20   25.00   1
   0   9 -12   35.30   24.70   1
   0  -9  12    3.40   24.50   1
   0   9  13   32.30   29.10   1
   0  -9 -13    6.20   28.90   1
   0   9 -13   23.00   28.60   1
   0  -9  13   19.20   28.60   1
   0   9  14    6.90   18.60   1
   0  -9 -14   14.10   18.70   1
   0   9 -14    7.30   17.70   1
   0  -9  14    5.20   17.80   1
   0  10   0 7824.60  998.30   1
   0 -10   0 7811.40  995.80   1
   0  10   1   68.20   52.80   1
   0 -10  -1   64.30   52.80   1
   0  10  -1   83.30   52.90   1
   0 -10   1   56.50   52.80   1
   0  10   2 2360.60  439.80   1
   0 -10  -2 2377.80  440.30   1
   0  10  -2 3433.90  444.70   1
   0 -10   2 3900.80  448.20   1
   0  10   3   47.30   33.10   1
   0 -10  -3   47.90   32.90   1
   0  10  -3   12.90   32.90   1
   0 -10   3   -0.00   32.90   1
   0  10   4 1777.70  297.00   1
   0 -10  -4 1931.60  297.40   1
   0  10  -4 1597.30  294.60   1
   0 -10   4 1244.40  293.60   1
   0  10   5  138.10   77.50   1
   0 -10  -5  347.90   78.30   1
   0  10  -5  130.60   77.30   1
   0 -10   5  109.00   77.30   1
   0  10   6 1278.60  231.10   1
   0 -10  -6 1032.10  230.30   1
   0  10  -6 1011.10  229.40   1
   0 -10   6  930.10  229.10   1
   0  10   7   50.50   31.70   1
   0 -10  -7   12.70   31.40   1
   0  10  -7   38.30   31.00   1
   0 -10   7    7.80   30.90   1
   0  10   8 1289.90  254.60   1
   0 -10  -8 1500.80  255.70   1
   0  10  -8 1008.60  252.60   1
   0 -10   8 1254.70  253.30   1
   0  10   9   31.60   26.60   1
   0 -10  -9   -0.30   26.40   1
   0  10  -9   42.90   26.20   1
   0 -10   9   -0.80   26.00   1
   0  10  10  552.70  171.80   1
   0 -10 -10  669.80  172.60   1
   0  10 -10  618.90  171.90   1
   0 -10  10  699.90  172.10   1
   0  10  11   42.10   41.70   1
   0 -10 -11  174.20   42.70   1
   0  10 -11   54.20   41.40   1
   0 -10  11   16.60   41.30   1
   0  10  12  139.20   73.10   1
   0 -10 -12  176.60   73.50   1
   0  10 -12   95.90   72.70   1
   0 -10  12  150.20   72.90   1
   0  10  13   28.40   28.50   1
   0 -10 -13   16.20   28.20   1
   0  10 -13   15.90   27.70   1
   0 -10  13   19.10   27.80   1
   0  10  14   50.30   43.70   1
   0 -10 -14   43.50   43.50   1
   0  10 -14   74.10   43.30   1
   0 -10  14   29.90   43.10   1
   0  11   0  231.90  104.90   1
   0 -11   0  288.30  105.00   1
   0  11   1  689.50  183.70   1
   0 -11  -1  730.60  183.90   1
   0  11  -1  664.10  183.40   1
   0 -11   1  749.10  183.60   1
   0  11   2   82.10   57.00   1
   0 -11  -2   86.60   57.00   1
   0  11  -2   65.90   57.10   1
   0 -11   2   77.10   57.30   1
   0  11   3  756.30  152.90   1
   0 -11  -3  955.90  153.80   1
   0  11  -3  376.30  151.70   1
   0 -11   3  458.80  152.00   1
   0  11   4   32.20   46.00   1
   0 -11  -4   58.70   46.10   1
   0  11  -4   29.60   46.00   1
   0 -11   4   91.30   46.20   1
   0  11   5   94.30   59.60   1
   0 -11  -5  142.30   59.80   1
   0  11  -5   53.00   59.30   1
   0 -11   5   84.20   59.50   1
   0  11   6    4.00   27.10   1
   0 -11  -6  130.40   28.20   1
   0  11  -6    4.00   26.60   1
   0 -11   6    2.20   26.40   1
   0  11   7  117.10   83.70   1
   0 -11  -7  136.20   83.80   1
   0  11  -7  168.80   83.60   1
   0 -11   7  288.50   83.80   1
   0  11   8   20.10   29.80   1
   0 -11  -8   15.00   29.60   1
   0  11  -8   11.70   29.00   1
   0 -11   8   35.00   29.20   1
   0  11   9   48.60   41.70   1
   0 -11  -9   55.20   42.00   1
   0  11  -9   41.50   41.40   1
   0 -11   9   31.50   41.30   1
   0  11  10    6.80   23.50   1
   0 -11 -10   -5.40   23.80   1
   0  11 -10   34.40   23.00   1
   0 -11  10    4.40   22.80   1
   0  11  11  257.50   94.60   1
   0 -11 -11  193.40   94.30   1
   0  11 -11  192.80   94.00   1
   0 -11  11  208.50   94.00   1
   0  11  12    7.80   25.80   1
   0 -11 -12   37.50   26.10   1
   0  11 -12   18.00   25.30   1
   0 -11  12    8.20   25.20   1
   0  11  13   18.10   37.00   1
   0 -11 -13   29.70   37.30   1
   0  11 -13   22.60   36.80   1
   0 -11  13   72.90   37.00   1
   0  11  14   10.80   19.50   1
   0 -11 -14   -0.10   19.70   1
   0  11 -14    9.30   18.80   1
   0 -11  14    9.40   18.70   1
   0  12   0 1300.20  266.20   1
   0 -12   0 1296.30  265.90   1
   0  12   1   81.60   48.30   1
   0 -12  -1   69.90   48.30   1
   0  12  -1   55.40   48.30   1
   0 -12   1   28.30   48.30   1
   0  12   2 1315.80  271.40   1
   0 -12  -2 1329.30  271.70   1
   0  12  -2 1164.20  270.50   1
   0 -12   2 1881.40  274.00   1
   0  12   3   17.30   31.20   1
   0 -12  -3   29.20   31.10   1
   0  12  -3   17.70   31.30   1
   0 -12   3   27.10   31.50   1
   0  12   4  654.80  172.50   1
   0 -12  -4  567.20  172.10   1
   0  12  -4  790.50  172.70   1
   0 -12   4  580.60  172.00   1
   0  12   5   26.60   53.50   1
   0 -12  -5   47.30   53.50   1
   0  12  -5   64.70   53.50   1
   0 -12   5  221.80   54.10   1
   0  12   6  527.90  143.00   1
   0 -12  -6  552.10  143.20   1
   0  12  -6  383.90  142.10   1
   0 -12   6  434.90  142.20   1
   0  12   7  100.20   52.50   1
   0 -12  -7  165.20   52.60   1
   0  12  -7   67.00   51.90   1
   0 -12   7   22.40   51.60   1
   0  12   8  203.90   72.40   1
   0 -12  -8  197.60   72.40   1
   0  12  -8   75.90   71.80   1
   0 -12   8  117.60   71.80   1
   0  12   9   -0.20   41.30   1
   0 -12  -9    7.30   41.30   1
   0  12  -9  150.90   41.40   1
   0 -12   9   41.10   41.00   1
   0  12  10  263.20   87.60   1
   0 -12 -10  202.20   87.20   1
   0  12 -10  135.30   86.70   1
   0 -12  10  194.20   86.90   1
   0  12  11   -0.00   23.90   1
   0 -12 -11   -0.00   23.80   1
   0  12 -11   35.20   23.40   1
   0 -12  11    8.40   23.30   1
   0  12  12  161.00   41.80   1
   0 -12 -12   60.50   41.30   1
   0  12 -12   25.20   40.50   1
   0 -12  12   21.50   40.50   1
   0  12  13   12.20   25.20   1
   0 -12 -13   62.40   26.00   1
   0  12 -13   11.40   24.60   1
   0 -12  13    5.70   24.50   1
   0  13   0   54.90   51.50   1
   0 -13   0   73.50   51.50   1
   0  13   1  385.70  149.50   1
   0 -13  -1  439.60  149.70   1
   0  13  -1  571.10  150.00   1
   0 -13   1  778.90  150.70   1
   0  13   2   39.80   46.60   1
   0 -13  -2   53.70   46.70   1
   0  13  -2   58.70   46.70   1
   0 -13   2   65.00   47.10   1
   0  13   3  549.10  176.10   1
   0 -13  -3  574.90  176.30   1
   0  13  -3  806.20  177.10   1
   0 -13   3  905.50  177.60   1
   0  13   4   37.60   40.60   1
   0 -13  -4   50.20   40.50   1
   0  13  -4   21.50   40.60   1
   0 -13   4   47.60   40.90   1
   0  13   5 1463.80  297.40   1
   0 -13  -5 1264.60  295.80   1
   0  13  -5 1842.30  297.60   1
   0 -13   5 1682.10  297.00   1
   0  13   6    6.20   32.80   1
   0 -13  -6    2.00   32.70   1
   0  13  -6   64.80   32.70   1
   0  13   7 3828.50  441.70   1
   0 -13  -7 4102.30  448.50   1
   0  13  -7 2368.80  425.90   1
   0 -13   7 2271.30  424.50   1
   0  13   8   17.10   45.70   1
   0 -13  -8   35.50   45.60   1
   0  13  -8  118.90   45.50   1
   0 -13   8   37.40   45.10   1
   0  13   9  325.60   87.20   1
   0 -13  -9  154.10   86.40   1
   0  13  -9  137.20   86.00   1
   0 -13   9  200.50   86.10   1
   0  13  10   55.80   38.50   1
   0 -13 -10    5.40   38.20   1
   0  13 -10   99.80   38.10   1
   0 -13  10   11.90   37.70   1
   0  13  11  453.30  145.20   1
   0 -13 -11  435.40  145.20   1
   0  13 -11  452.60  144.60   1
   0 -13  11  500.90  145.00   1
   0  13  12    0.00   26.80   1
   0 -13 -12   20.80   26.50   1
   0  13 -12   21.50   26.00   1
   0 -13  12   15.20   26.00   1
   0  13  13  116.30   44.30   1
   0 -13 -13   42.30   43.60   1
   0  13 -13   33.50   43.20   1
   0 -13  13   37.30   43.30   1
   0  14   0  402.70  130.50   1
   0 -14   0  367.00  130.30   1
   0  14   1   16.10   31.00   1
   0 -14  -1   24.90   30.90   1
   0  14  -1   21.90   31.10   1
   0 -14   1   29.00   31.10   1
   0  14   2  215.20   93.00   1
   0 -14  -2  207.50   93.00   1
   0  14  -2  181.90   92.90   1
   0 -14   2  219.60   93.20   1
   0  14   3   32.10   39.50   1
   0 -14  -3   26.50   39.30   1
   0  14  -3   37.40   39.70   1
   0 -14   3   74.90   40.30   1
   0  14   4   72.50   43.70   1
   0 -14  -4   59.30   43.40   1
   0  14  -4   19.50   43.40   1
   0 -14   4   35.50   43.50   1
   0  14   5   48.00   32.50   1
   0 -14  -5   17.00   32.40   1
   0  14  -5   11.90   32.50   1
   0 -14   5   20.70   32.40   1
   0  14   6 1205.90  208.40   1
   0 -14  -6 1045.70  206.90   1
   0  14  -6  652.50  203.90   1
   0 -14   6  964.70  205.40   1
   0  14   7   71.30   41.50   1
   0 -14  -7  105.40   41.60   1
   0  14  -7   20.20   40.60   1
   0 -14   7   11.90   40.50   1
   0  14   8  160.90   86.10   1
   0 -14  -8  224.70   86.40   1
   0  14  -8  160.10   85.90   1
   0 -14   8  170.00   85.80   1
   0  14   9    0.00   26.20   1
   0 -14  -9   -0.10   26.00   1
   0  14  -9   12.50   25.60   1
   0 -14   9   41.60   25.70   1
   0  14  10   18.60   34.60   1
   0 -14 -10   39.40   34.70   1
   0  14 -10   14.30   34.00   1
   0 -14  10   43.40   34.10   1
   0  14  11   11.00   19.70   1
   0 -14 -11    0.00   19.40   1
   0  14 -11    8.00   18.50   1
   0 -14  11    9.40   18.40   1
   0  14  12   72.10   36.20   1
   0 -14 -12   29.60   35.70   1
   0  14 -12   11.10   35.10   1
   0 -14  12   38.40   35.20   1
   0  15   0  182.40   84.10   1
   0 -15   0  153.40   84.00   1
   0  15   1  174.00   92.80   1
   0 -15  -1  231.00   93.00   1
   0  15  -1  209.90   92.90   1
   0 -15   1  209.70   93.00   1
   0  15   2   32.50   38.20   1
   0 -15  -2   40.50   38.10   1
   0  15  -2   24.20   38.00   1
   0 -15   2   49.00   38.60   1
   0  15   3  365.30  111.20   1
   0 -15  -3  275.00  110.80   1
   0  15  -3  252.50  110.80   1
   0 -15   3  269.90  111.00   1
   0  15   4   -0.00   20.40   1
   0 -15  -4   18.50   20.00   1
   0  15  -4    8.60   20.50   1
   0 -15   4    3.60   20.60   1
   0  15   5 1374.10  280.30   1
   0 -15  -5 1278.10  279.20   1
   0  15  -5 1707.70  281.10   1
   0 -15   5 1316.80  278.40   1
   0  15   6   -0.00   32.50   1
   0 -15  -6   45.50   32.50   1
   0  15  -6   -0.00   32.20   1
   0 -15   6   65.40   32.80   1
   0  15   7  706.10  193.70   1
   0 -15  -7  625.20  193.30   1
   0  15  -7  868.40  193.70   1
   0 -15   7  880.60  193.70   1
   0  15   8   51.10   36.50   1
   0 -15  -8   54.90   36.50   1
   0  15  -8   19.10   35.80   1
   0 -15   8   16.00   35.70   1
   0  15   9  150.70   67.00   1
   0 -15  -9  123.80   67.00   1
   0  15  -9  103.20   66.60   1
   0 -15   9   80.20   66.30   1
   0  15  10   -0.70   17.60   1
   0 -15 -10   16.60   17.80   1
   0  15 -10    2.10   16.80   1
   0 -15  10    6.90   16.60   1
   0  15  11   48.60   49.30   1
   0 -15 -11   58.90   49.20   1
   0  15 -11   58.50   48.90   1
   0 -15  11   61.90   48.90   1
   0  15  12    9.20   21.30   1
   0 -15 -12    1.00   21.40   1
   0  15 -12   13.30   20.50   1
   0 -15  12    9.80   20.40   1
   0  16   0 6202.10  833.30   1
   0 -16   0 6157.90  829.50   1
   0  16   1    7.10   23.90   1
   0 -16  -1   13.10   24.00   1
   0  16  -1   16.10   24.10   1
   0 -16   1   17.00   24.00   1
   0  16   2  314.50  128.70   1
   0 -16  -2  304.70  128.70   1
   0  16  -2  464.40  129.20   1
   0 -16   2  555.20  129.80   1
   0  16   3  104.70   48.50   1
   0 -16  -3   47.30   48.10   1
   0  16  -3   52.30   48.30   1
   0 -16   3   27.30   48.60   1
   0  16   4  443.00  142.80   1
   0 -16  -4  455.80  142.80   1
   0  16  -4  429.50  142.60   1
   0 -16   4  470.70  142.90   1
   0  16   5   22.10   40.80   1
   0 -16  -5   26.70   40.50   1
   0  16  -5   33.80   40.90   1
   0 -16   5  100.50   41.30   1
   0  16   6  112.40   60.70   1
   0 -16  -6  224.70   61.30   1
   0  16  -6   66.50   60.50   1
   0 -16   6   44.50   60.30   1
   0  16   7   -1.30   20.60   1
   0 -16  -7    7.20   20.40   1
   0  16  -7    2.70   19.90   1
   0 -16   7   27.90   20.80   1
   0  16   8  208.80   93.30   1
   0 -16  -8  334.80   94.20   1
   0  16  -8  201.70   93.00   1
   0 -16   8  162.70   92.70   1
   0  16   9   24.20   30.80   1
   0 -16  -9   80.40   31.20   1
   0  16  -9   18.10   30.10   1
   0 -16   9   -0.00   29.90   1
   0  16  10   12.60   38.50   1
   0 -16 -10   16.90   38.70   1
   0  16 -10   70.00   38.70   1
   0 -16  10   42.30   38.30   1
   0  16  11    5.80   20.10   1
   0 -16 -11   27.60   20.70   1
   0  16 -11    9.80   19.30   1
   0 -16  11   -0.00   19.00   1
   0  17   0  168.40   81.80   1
   0 -17   0  147.90   81.80   1
   0  17   1   67.60   51.80   1
   0 -17  -1   59.20   52.00   1
   0  17  -1   56.30   51.90   1
   0 -17   1   75.80   52.00   1
   0  17   2   21.10   34.40   1
   0 -17  -2   20.00   34.60   1
   0  17  -2   33.00   34.60   1
   0 -17   2   46.80   35.00   1
   0  17   3  700.20  199.90   1
   0 -17  -3  739.70  200.20   1
   0  17  -3  791.00  200.10   1
   0 -17   3 1697.10  207.80   1
   0  17   4   21.90   35.50   1
   0 -17  -4   12.00   35.20   1
   0  17  -4   49.10   35.80   1
   0 -17   4   63.20   36.40   1
   0  17   5   17.00   31.80   1
   0 -17  -5   53.70   31.80   1
   0  17  -5   15.30   31.80   1
   0 -17   5    7.30   31.80   1
   0  17   6   91.50   31.00   1
   0 -17  -6   24.90   29.90   1
   0  17  -6   -0.10   30.20   1
   0 -17   6   -1.00   29.90   1
   0  17   7  324.20  118.40   1
   0 -17  -7  288.30  118.20   1
   0  17  -7  287.30  117.90   1
   0 -17   7  388.80  118.50   1
   0  17   8    4.30   25.40   1
   0 -17  -8   -0.00   25.20   1
   0  17  -8   16.20   24.90   1
   0 -17   8   28.90   24.90   1
   0  17   9   67.60   52.40   1
   0 -17  -9   90.60   52.20   1
   0  17  -9   73.50   51.90   1
   0 -17   9   41.80   51.50   1
   0  17  10   17.90   16.80   1
   0 -17 -10   -0.00   16.40   1
   0  17 -10   -0.00   16.00   1
   0 -17  10    2.20   15.10   1
   0  17  11   45.00   48.90   1
   0 -17 -11   65.70   49.10   1
   0 -17  11   58.70   48.50   1
   0  18   0  488.20  143.20   1
   0 -18   0  421.60  142.80   1
   0  18   1   36.40   36.00   1
   0 -18  -1   50.50   36.20   1
   0  18  -1   28.50   35.90   1
   0 -18   1   10.90   36.00   1
   0  18   2  147.10   71.10   1
   0 -18  -2  129.10   70.90   1
   0  18  -2  101.70   70.80   1
   0 -18   2  114.30   71.00   1
   0  18   3   54.90   48.40   1
   0 -18  -3   58.10   48.30   1
   0  18  -3   46.60   48.10   1
   0 -18   3   68.80   48.60   1
   0  18   4  132.50   79.10   1
   0 -18  -4  141.40   79.00   1
   0  18  -4  121.60   79.20   1
   0 -18   4  286.80   80.30   1
   0  18   5   43.40   38.70   1
   0 -18  -5   24.00   38.30   1
   0  18  -5   30.50   38.40   1
   0 -18   5   44.50   38.60   1
   0  18   6   38.90   44.30   1
   0 -18  -6   41.90   44.40   1
   0  18  -6   91.30   44.80   1
   0 -18   6   32.00   44.30   1
   0  18   7   -0.20   33.00   1
   0 -18  -7   26.10   33.10   1
   0  18  -7    8.90   32.80   1
   0 -18   7   98.40   33.90   1
   0  18   8  119.10   52.40   1
   0 -18  -8   51.50   51.90   1
   0  18  -8   39.20   51.60   1
   0 -18   8   74.50   51.90   1
   0  18   9   46.50   42.00   1
   0 -18  -9   23.30   41.90   1
   0  18  -9   29.40   41.60   1
   0 -18   9   66.50   41.90   1
   0  18  10  708.90  147.90   1
   0 -18 -10  288.60  143.30   1
   0 -18  10  835.20  146.90   1
   0  19   0   -0.30    7.50   1
   0 -19   0   -1.10    8.20   1
   0  19   1   61.80   53.10   1
   0 -19  -1   77.70   53.20   1
   0  19  -1   59.80   53.20   1
   0 -19   1   72.80   53.20   1
   0  19   2   19.50   25.40   1
   0 -19  -2   18.90   25.50   1
   0  19  -2   -0.00   25.20   1
   0 -19   2   26.20   25.70   1
   0  19   3  102.40   59.90   1
   0 -19  -3  111.50   59.90   1
   0  19  -3   57.00   59.90   1
   0 -19   3   81.40   60.20   1
   0  19   4   13.30   20.80   1
   0 -19  -4    0.00   20.00   1
   0  19  -4   15.00   20.80   1
   0 -19   4   11.60   21.30   1
   0  19   5   14.80   24.10   1
   0 -19  -5   22.40   24.10   1
   0  19  -5    5.30   24.60   1
   0 -19   5    4.70   24.60   1
   0  19   6   12.20   14.70   1
   0 -19  -6   -0.20   14.40   1
   0  19  -6   -0.00   15.10   1
   0 -19   6   -0.00   15.00   1
   0  19   7   76.10   62.50   1
   0 -19  -7   74.20   62.30   1
   0  19  -7   89.90   62.60   1
   0 -19   7  148.70   62.80   1
   0  19   8   -0.00   16.60   1
   0 -19  -8    3.00   16.30   1
   0  19  -8   -1.50   16.10   1
   0 -19   8   16.30   16.50   1
   0  19   9   64.90   52.60   1
   0 -19  -9   58.40   52.40   1
   0 -19   9   68.30   52.10   1
   0  20   0  723.00  189.80   1
   0 -20   0  739.90  189.70   1
   0  20   1   27.10   35.40   1
   0 -20  -1   39.60   35.90   1
   0  20  -1   32.70   35.70   1
   0 -20   1   23.10   35.60   1
   0  20   2   47.30   45.90   1
   0 -20  -2   53.00   45.90   1
   0  20  -2   47.40   46.00   1
   0 -20   2   56.10   46.20   1
   0  20   3   16.20   25.40   1
   0 -20  -3   18.00   25.10   1
   0  20  -3   -0.00   25.30   1
   0 -20   3   27.50   26.00   1
   0  20   4   79.60   52.80   1
   0 -20  -4   72.70   52.70   1
   0  20  -4   53.20   52.70   1
   0 -20   4   59.20   53.10   1
   0  20   5   22.90   28.70   1
   0 -20  -5   16.90   28.50   1
   0  20  -5   17.50   28.90   1
   0 -20   5   16.50   29.10   1
   0  20   6  272.10  101.70   1
   0 -20  -6  169.50  100.80   1
   0  20  -6  276.50  101.40   1
   0 -20   6  280.50  101.50   1
   0  20   7   12.50   19.10   1
   0 -20  -7   15.90   18.80   1
   0  20  -7   -0.00   18.80   1
   0 -20   7   -0.40   18.50   1
   0  20   8   55.90   54.20   1
   0 -20  -8   63.50   54.00   1
   0 -20   8   91.00   54.40   1
   0  21   0   -0.70    9.10   1
   0 -21   0   -0.10    9.10   1
   0  21   1  168.50   99.70   1
   0 -21  -1  267.80  100.40   1
   0  21  -1  246.30  100.20   1
   0 -21   1  318.40  100.70   1
   0  21   2   32.10   31.50   1
   0 -21  -2   21.50   31.60   1
   0  21  -2   16.50   31.70   1
   0 -21   2   22.10   31.90   1
   0  21   3   47.20   51.60   1
   0 -21  -3   48.00   51.60   1
   0  21  -3  129.10   52.10   1
   0 -21   3   62.40   52.00   1
   0  21   4   16.50   21.20   1
   0 -21  -4    4.30   20.60   1
   0  21  -4    4.10   20.70   1
   0 -21   4   14.00   21.80   1
   0  21   5  229.20  114.40   1
   0 -21  -5  244.60  114.30   1
   0  21  -5  374.00  115.30   1
   0 -21   5  598.80  117.50   1
   0  21   6   -0.00   17.30   1
   0 -21  -6    2.40   16.60   1
   0 -21   6   14.10   17.60   1
   0  21   7   40.80   38.90   1
   0 -21  -7   27.10   38.50   1
   0 -21   7   39.00   38.80   1
   0  22   0   46.90   40.60   1
   0 -22   0   30.40   40.50   1
   0  22   1   18.60   20.70   1
   0 -22  -1   15.70   20.80   1
   0  22  -1   -0.00   20.90   1
   0 -22   1   -0.00   20.80   1
   0  22   2   36.30   41.20   1
   0 -22  -2   34.70   41.20   1
   0  22  -2   45.10   41.40   1
   0 -22   2   50.40   41.60   1
   0  22   3   -0.00    7.40   1
   0 -22  -3    0.00    7.40   1
   0  22  -3   -0.50    7.70   1
   0 -22   3   -0.00   10.20   1
   0  22   4  109.20   68.50   1
   0 -22  -4   90.40   68.20   1
   0  22  -4  122.70   68.60   1
   0 -22   4  139.60   69.10   1
   0  22   5   -0.10   18.40   1
   0 -22  -5   -0.10   18.10   1
   0 -22   5   27.30   19.60   1
   0  23   0   -0.90    8.10   1
   0 -23   0   -0.00    9.50   1
   0  23   1   42.40   54.90   1
   0 -23  -1   82.10   55.40   1
   0  23  -1   67.90   55.30   1
   0 -23   1  159.80   56.00   1
   0  23   2    3.00   11.30   1
   0 -23  -2    4.30   12.20   1
   0  23  -2   -0.00   11.70   1
   0 -23   2   -0.00   12.00   1
   0  23   3   41.30   40.30   1
   0 -23  -3   33.80   40.30   1
   0  23  -3   37.70   40.40   1
   0 -23   3   41.70   40.80   1
   1   0   2 2759.40  454.30   1
  -1   0  -2 2975.90  455.70   1
   1   0   3 3496.90  558.00   1
  -1   0  -3 4233.30  559.60   1
   1   0   4 6960.90  926.80   1
  -1   0  -4 7663.00  937.20   1
   1   0   5 1296.80  254.80   1
  -1   0  -5 1157.10  254.30   1
   1   0   6 1312.20  262.00   1
  -1   0  -6 1241.20  261.30   1
   1   0   7   45.10   48.70   1
  -1   0  -7   66.10   48.50   1
   1   0   8 3108.40  480.00   1
  -1   0  -8 3056.70  479.20   1
   1   0   9  763.40  201.70   1
  -1   0  -9  909.80  202.30   1
   1   0  10 2429.90  337.20   1
  -1   0 -10 1586.50  329.80   1
   1   0  11  816.80  165.30   1
  -1   0 -11  500.10  162.30   1
   1   0  12  464.10  142.10   1
  -1   0 -12  427.10  141.10   1
   1   0  13   41.80   42.50   1
  -1   0 -13   45.00   42.40   1
   1   0  14   83.00   57.50   1
  -1   0 -14   77.20   57.20   1
   1   0  15   10.30   24.60   1
  -1   0 -15   16.30   24.20   1
   1   0  16   19.10   32.40   1
  -1   0 -16   33.70   32.20   1
   1   0 -16   19.80   32.20   1
   1   1   0  167.60   67.50   1
  -1  -1   0  151.30   67.50   1
   1  -1   0   60.50   67.20   1
  -1   1   0  290.90   67.90   1
   1   1   1 1308.10  249.40   1
  -1  -1  -1 1297.80  249.40   1
   1  -1  -1 1315.40  251.40   1
  -1   1   1 1405.30  252.10   1
  -1   1  -1  901.50  248.80   1
   1  -1   1 1121.00  249.60   1
   1   1   2 1381.30  288.40   1
  -1  -1  -2 1520.30  288.70   1
   1  -1  -2 1316.70  290.60   1
  -1   1   2 1694.50  293.10   1
  -1   1  -2 1859.50  293.10   1
   1  -1   2 1489.70  290.10   1
   1   1   3 1906.50  364.10   1
  -1  -1  -3 2142.00  364.60   1
   1  -1  -3 2157.40  368.90   1
  -1   1   3 2698.10  373.90   1
   1   1   4  699.90  172.20   1
  -1  -1  -4  508.80  171.70   1
   1  -1  -4  946.80  174.90   1
  -1   1   4  972.40  175.40   1
   1   1   5  452.30  112.00   1
  -1  -1  -5  270.10  111.60   1
   1  -1  -5  292.70  112.20   1
  -1   1   5  212.60  111.80   1
   1   1   6   53.20   38.10   1
  -1  -1  -6   19.90   38.10   1
   1  -1  -6  260.70   40.40   1
  -1   1   6   15.40   38.40   1
   1   1   7   41.30   53.20   1
  -1  -1  -7   87.40   53.20   1
   1  -1  -7  163.30   54.30   1
  -1   1   7  142.10   53.90   1
   1   1   8   18.80   46.30   1
  -1  -1  -8   60.50   46.30   1
   1  -1  -8  304.30   49.10   1
  -1   1   8  180.60   47.70   1
  -1   1  -8  151.30   47.10   1
   1   1   9  126.80   72.20   1
  -1  -1  -9  123.00   72.20   1
  -1   1   9  114.90   72.60   1
  -1   1  -9  147.00   72.60   1
   1   1  10  174.80   88.50   1
  -1  -1 -10  160.60   88.30   1
   1  -1 -10  594.30   93.60   1
  -1   1  10  212.30   89.50   1
  -1   1 -10  481.90   92.40   1
   1   1  11  243.30   95.80   1
  -1  -1 -11  198.10   95.40   1
   1  -1 -11  258.60   96.80   1
  -1   1  11  149.60   96.00   1
  -1   1 -11  739.20  105.00   1
   1   1  12   37.30   40.00   1
  -1  -1 -12   33.60   39.70   1
   1  -1 -12   68.20   41.00   1
  -1   1  12   16.40   39.70   1
  -1   1 -12  129.70   40.70   1
   1   1  13   43.20   45.80   1
  -1  -1 -13   42.40   45.90   1
   1  -1 -13   91.50   46.90   1
  -1   1  13   40.60   45.90   1
  -1   1 -13   72.10   46.10   1
   1   1  14   13.80   30.30   1
  -1  -1 -14   31.80   31.00   1
   1  -1 -14   37.60   31.40   1
  -1   1  14    7.20   30.30   1
  -1   1 -14   63.90   31.10   1
   1   1  15   31.60   42.50   1
  -1  -1 -15   83.20   43.20   1
   1  -1 -15   62.00   43.60   1
  -1   1  15   22.00   42.50   1
  -1   1 -15   72.80   43.10   1
   1   1  16    2.40   20.30   1
  -1  -1 -16    4.20   21.40   1
   1  -1 -16   47.60   22.20   1
  -1   1  16   -0.30   20.30   1
  -1   1 -16   29.80   21.00   1
   1   2   0  120.60   73.70   1
  -1  -2   0  147.10   73.80   1
   1   2   1 1403.50  264.60   1
  -1  -2  -1 1425.90  264.80   1
   1  -2  -1 1371.30  265.00   1
  -1   2   1 1382.00  265.10   1
  -1   2  -1 1405.90  265.10   1
   1  -2   1 1076.00  264.20   1
  -1  -2   1 1071.60  264.20   1
   1   2  -1 1491.20  265.60   1
   1   2   2  191.90  100.80   1
  -1  -2  -2  226.60  100.90   1
   1  -2  -2  291.30  101.30   1
  -1   2   2  291.40  101.30   1
  -1   2  -2  274.40  100.90   1
   1  -2   2  248.20  100.80   1
  -1  -2   2  246.20  101.80   1
   1   2  -2  229.00  101.50   1
   1   2   3  877.30  208.60   1
  -1  -2  -3  832.30  208.60   1
   1  -2  -3  873.50  208.90   1
  -1   2   3  844.80  208.80   1
  -1   2  -3  867.10  208.90   1
   1  -2   3 1038.50  209.40   1
   1   2   4 2458.80  364.90   1
  -1  -2  -4 2031.30  363.60   1
   1  -2  -4 1903.70  363.50   1
  -1   2   4 1778.80  363.10   1
  -1   2  -4 2415.70  363.80   1
   1  -2   4 2134.80  363.00   1
   1   2   5  124.40   71.20   1
  -1  -2  -5  126.50   71.30   1
   1  -2  -5  180.30   71.50   1
  -1   2   5  104.10   71.30   1
   1  -2   5  116.50   71.10   1
   1   2   6  565.50  174.40   1
  -1  -2  -6  720.70  174.80   1
   1  -2  -6  663.50  175.00   1
  -1   2   6  705.20  175.00   1
   1   2   7   37.20   44.20   1
  -1  -2  -7   84.20   44.30   1
   1  -2  -7   35.20   44.50   1
  -1   2   7   31.20   44.50   1
   1   2   8  201.10   69.50   1
  -1  -2  -8   81.50   69.40   1
   1  -2  -8  103.50   69.60   1
  -1   2   8  147.90   69.80   1
   1   2   9   37.30   42.40   1
  -1  -2  -9   40.90   42.40   1
   1  -2  -9   41.30   42.70   1
  -1   2   9   83.60   43.00   1
   1   2  10  565.20  139.50   1
  -1  -2 -10  415.10  139.10   1
   1  -2 -10  443.60  139.70   1
  -1   2  10  331.90  139.40   1
   1   2  11   71.60   59.30   1
  -1  -2 -11  106.30   59.30   1
   1  -2 -11   91.50   59.60   1
  -1   2  11   74.20   59.60   1
   1   2  12   74.60   43.00   1
  -1  -2 -12   49.50   42.70   1
   1  -2 -12   35.70   43.00   1
  -1   2  12   16.30   43.10   1
   1   2  13   16.40   28.10   1
  -1  -2 -13   22.30   27.80   1
   1  -2 -13   12.90   28.00   1
  -1   2  13   21.60   28.30   1
   1   2  14  121.50   59.60   1
  -1  -2 -14   91.60   58.90   1
   1  -2 -14   90.50   59.20   1
  -1   2  14   47.20   59.10   1
   1   2  15   -0.10   18.30   1
  -1  -2 -15   13.90   17.40   1
   1  -2 -15   -0.60   17.60   1
  -1   2  15   11.00   18.30   1
   1   2  16   30.70   28.80   1
  -1  -2 -16   18.70   28.10   1
   1  -2 -16   12.80   28.20   1
  -1   2  16   16.10   28.80   1
   1   3   0   31.00   44.70   1
  -1  -3   0   22.20   44.70   1
   1  -3   0  108.50   44.70   1
  -1   3   0   71.60   44.70   1
   1   3   1 1978.60  339.50   1
  -1  -3  -1 2047.20  339.80   1
   1  -3  -1 1880.90  339.90   1
  -1   3   1 1870.60  339.90   1
  -1   3  -1 1920.50  339.10   1
   1  -3   1 2172.60  339.80   1
  -1  -3   1 1515.90  338.50   1
   1   3  -1 2063.00  340.30   1
   1   3   2  476.10  136.00   1
  -1  -3  -2  473.80  136.00   1
   1  -3  -2  424.50  135.90   1
  -1   3   2  416.70  135.80   1
  -1   3  -2  462.50  135.90   1
   1  -3   2  444.40  135.90   1
  -1  -3   2  412.40  135.80   1
   1   3  -2  321.50  135.70   1
   1   3   3 7495.80  947.10   1
  -1  -3  -3 7640.60  948.70   1
   1  -3  -3 7683.80  949.80   1
  -1   3   3 7843.80  951.80   1
  -1   3  -3 7456.30  948.30   1
   1  -3   3 6569.50  945.60   1
  -1  -3   3 7971.40  963.10   1
   1   3  -3 6980.70  953.20   1
   1   3   4  391.90  139.10   1
  -1  -3  -4  319.80  138.90   1
   1  -3  -4  487.80  139.30   1
  -1   3   4  438.80  139.20   1
  -1   3  -4  540.40  139.30   1
   1  -3   4  575.60  139.40   1
   1   3  -4  545.00  142.30   1
   1   3   5  581.20  160.00   1
  -1  -3  -5  721.10  160.30   1
   1  -3  -5  672.30  160.20   1
  -1   3   5  371.50  159.60   1
  -1   3  -5  585.50  159.60   1
   1  -3   5  618.90  159.70   1
   1   3   6  334.60  137.40   1
  -1  -3  -6  417.50  137.60   1
   1  -3  -6  545.00  138.30   1
  -1   3   6  406.90  137.90   1
  -1   3  -6  468.10  137.50   1
   1  -3   6  479.70  137.50   1
   1   3   7 1062.70  238.90   1
  -1  -3  -7 1386.40  240.30   1
   1  -3  -7  928.60  239.30   1
  -1   3   7 1194.60  240.00   1
  -1   3  -7 1001.40  239.00   1
   1  -3   7 1232.10  241.10   1
   1   3   8   51.80   51.40   1
  -1  -3  -8   82.00   51.50   1
   1  -3  -8   51.70   52.10   1
  -1   3   8   80.20   51.90   1
   1   3   9   71.20   57.20   1
  -1  -3  -9   95.90   57.20   1
   1  -3  -9   58.30   57.70   1
  -1   3   9   84.00   57.50   1
   1   3  10  273.20   83.90   1
  -1  -3 -10  163.30   83.70   1
   1  -3 -10  142.60   84.10   1
  -1   3  10  124.90   83.80   1
   1   3  11  164.50   90.50   1
  -1  -3 -11  277.00   90.70   1
   1  -3 -11  140.20   90.80   1
  -1   3  11  258.60   91.10   1
   1   3  12   41.50   28.20   1
  -1  -3 -12   11.30   28.00   1
   1  -3 -12   10.50   28.60   1
  -1   3  12   11.10   28.50   1
   1   3  13   35.50   45.30   1
  -1  -3 -13   39.80   45.30   1
   1  -3 -13   93.10   45.90   1
  -1   3  13   76.20   45.80   1
   1   3  14   13.50   23.50   1
  -1  -3 -14   13.50   23.20   1
   1  -3 -14   12.80   23.80   1
  -1   3  14   10.90   23.80   1
   1   3  15   37.30   30.50   1
  -1  -3 -15   14.70   30.20   1
   1  -3 -15   16.40   30.40   1
  -1   3  15   26.20   30.70   1
   1   4   0   15.10   45.90   1
  -1  -4   0   25.20   45.90   1
   1  -4   0  198.90   46.30   1
  -1   4   0  172.80   46.20   1
   1   4   1  493.30  152.20   1
  -1  -4  -1  410.30  152.00   1
   1  -4  -1  528.60  152.20   1
  -1   4   1  550.00  152.30   1
  -1   4  -1  576.70  152.40   1
   1  -4   1  447.30  152.10   1
  -1  -4   1  583.10  152.40   1
   1   4  -1  640.10  152.50   1
   1   4   2  730.90  158.80   1
  -1  -4  -2  779.10  158.90   1
   1  -4  -2  498.90  158.10   1
  -1   4   2  612.40  158.30   1
  -1   4  -2  484.90  158.30   1
   1  -4   2  658.20  158.80   1
  -1  -4   2  517.40  158.20   1
   1   4  -2  425.90  158.00   1
   1   4   3  118.20   65.70   1
  -1  -4  -3  217.80   65.90   1
   1  -4  -3   54.00   65.60   1
  -1   4   3   52.30   65.60   1
  -1   4  -3  237.50   65.80   1
   1  -4   3  132.10   65.60   1
  -1  -4   3  126.70   65.50   1
   1   4  -3   98.80   65.50   1
   1   4   4  116.00   48.30   1
  -1  -4  -4   36.90   48.20   1
   1  -4  -4   38.70   48.30   1
  -1   4   4   77.30   48.30   1
  -1   4  -4  237.20   48.50   1
  -1  -4   4   23.40   48.10   1
   1   4  -4   59.70   48.20   1
   1   4   5   70.50   49.40   1
  -1  -4  -5   56.70   49.30   1
   1  -4  -5   44.80   49.40   1
  -1   4   5   93.70   49.50   1
  -1   4  -5   29.50   49.20   1
   1  -4   5   68.40   49.20   1
  -1  -4   5   63.60   49.30   1
   1   4  -5   85.50   49.30   1
   1   4   6   68.30   39.80   1
  -1  -4  -6  105.20   39.90   1
  -1   4  -6   34.80   39.40   1
   1  -4   6   41.20   39.40   1
   1   4  -6   13.40   39.40   1
   1   4   7   47.60   44.70   1
  -1  -4  -7   44.30   44.70   1
   1  -4  -7  121.50   45.00   1
  -1   4   7  261.00   45.70   1
  -1   4  -7   46.70   44.50   1
   1  -4   7   30.20   44.40   1
   1   4   8  417.20   58.10   1
  -1  -4  -8   81.30   57.00   1
   1  -4  -8   72.70   57.10   1
  -1   4   8   59.20   57.20   1
  -1   4  -8   70.40   56.70   1
   1  -4   8   73.60   56.70   1
   1   4   9   25.80   42.00   1
  -1  -4  -9  104.80   42.30   1
   1  -4  -9   33.00   42.40   1
  -1   4   9   11.20   42.50   1
  -1   4  -9   70.90   41.80   1
   1  -4   9   27.40   41.80   1
   1   4  10  193.60   95.50   1
  -1  -4 -10  195.40   95.50   1
   1  -4 -10  240.40   96.00   1
  -1   4  10  326.40   96.60   1
   1   4  11   44.70   44.70   1
  -1  -4 -11   44.70   44.60   1
   1  -4 -11   52.90   45.50   1
  -1   4  11   68.70   45.70   1
   1   4  12  208.70   84.60   1
  -1  -4 -12  192.90   84.50   1
   1  -4 -12  155.10   85.10   1
  -1   4  12  115.50   84.80   1
   1   4  13   20.40   42.90   1
  -1  -4 -13   93.80   43.20   1
   1  -4 -13   41.90   44.00   1
  -1   4  13   43.90   43.50   1
   1   4  14   95.50   38.10   1
  -1  -4 -14   15.30   37.70   1
   1  -4 -14   44.90   38.90   1
  -1   4  14   21.10   38.10   1
   1   4  15    2.90   27.50   1
  -1  -4 -15   37.00   27.60   1
   1  -4 -15   11.20   29.00   1
  -1   4  15   23.60   28.00   1
   1  -5   0   60.80   46.10   1
  -1   5   0   43.70   46.10   1
   1   5   1 7984.20  955.40   1
  -1  -5  -1 8421.50  958.50   1
   1  -5  -1 7930.10  951.80   1
  -1   5   1 7378.00  949.20   1
  -1   5  -1 7937.30  955.60   1
   1  -5   1 6692.80  951.00   1
  -1  -5   1 7043.10  949.00   1
   1   5  -1 6907.40  949.30   1
   1   5   2 2013.90  338.10   1
  -1  -5  -2 2004.50  337.90   1
   1  -5  -2 1737.10  336.40   1
  -1   5   2 1794.20  336.70   1
  -1   5  -2 1586.70  336.70   1
   1  -5   2 2127.20  338.40   1
  -1  -5   2 2112.50  338.10   1
   1   5  -2 1921.60  337.40   1
   1   5   3 3249.70  565.20   1
  -1  -5  -3 3651.10  566.30   1
   1  -5  -3 3962.50  567.30   1
  -1   5   3 4908.80  570.50   1
  -1   5  -3 3889.80  569.50   1
   1  -5   3 3698.50  569.00   1
  -1  -5   3 4699.10  571.90   1
   1   5  -3 3974.80  567.90   1
   1   5   4 1038.70  264.70   1
  -1  -5  -4 1164.80  265.10   1
   1  -5  -4 1718.40  266.00   1
  -1   5   4 1661.00  266.10   1
  -1   5  -4 1033.70  264.30   1
   1  -5   4 1253.40  265.00   1
  -1  -5   4 1666.00  266.40   1
   1   5  -4 1525.90  265.50   1
   1   5   5  514.60  144.70   1
  -1  -5  -5  661.70  145.10   1
   1  -5  -5  511.00  144.70   1
  -1   5   5  322.90  144.30   1
  -1   5  -5  523.70  144.60   1
   1  -5   5  615.10  144.90   1
  -1  -5   5  514.30  144.70   1
   1   5  -5  387.80  144.30   1
   1   5   6   41.20   62.00   1
  -1  -5  -6   80.10   62.10   1
   1  -5  -6  152.30   62.10   1
  -1   5   6   77.10   62.00   1
   1  -5   6  293.20   62.30   1
  -1  -5   6  353.80   62.90   1
   1   5  -6   58.40   61.90   1
   1  -5  -7   22.50   50.50   1
  -1   5   7   35.30   50.50   1
  -1   5  -7  105.10   50.30   1
   1  -5   7   56.60   50.30   1
  -1  -5   7  243.00   51.60   1
   1   5   8   72.80   65.30   1
  -1  -5  -8  128.00   65.40   1
   1  -5  -8   87.30   65.30   1
  -1   5   8   79.20   65.30   1
  -1   5  -8  145.50   65.10   1
   1  -5   8  145.70   65.10   1
   1   5  -8   57.10   65.10   1
   1   5   9  484.70   72.10   1
  -1  -5  -9  161.40   70.90   1
   1  -5  -9  120.80   70.80   1
  -1   5   9  134.20   70.90   1
  -1   5  -9   94.60   70.40   1
   1  -5   9  109.10   70.50   1
   1   5  10  771.60  207.70   1
  -1  -5 -10 1198.40  209.80   1
   1  -5 -10  813.40  208.20   1
  -1   5  10  752.90  208.00   1
  -1   5 -10 1097.70  209.70   1
   1  -5  10  980.80  210.50   1
   1   5  11  397.90  136.50   1
  -1  -5 -11  429.20  136.60   1
   1  -5 -11  418.60  136.80   1
  -1   5  11  377.90  136.80   1
  -1   5 -11  583.20  138.50   1
   1   5  12   72.20   39.40   1
  -1  -5 -12    7.70   39.10   1
   1  -5 -12   54.00   39.60   1
  -1   5  12   46.50   40.20   1
   1   5  13  278.70   85.30   1
  -1  -5 -13  156.50   84.80   1
   1  -5 -13  127.70   84.90   1
  -1   5  13  194.80   85.80   1
   1   5  14   44.80   49.30   1
  -1  -5 -14  217.80   50.20   1
   1  -5 -14   37.90   49.60   1
  -1   5  14   41.40   50.10   1
   1   5  15  107.00   63.30   1
  -1  -5 -15  185.00   63.60   1
   1  -5 -15   35.40   63.40   1
  -1   5  15  120.00   64.20   1
   1   6   0  171.20   72.80   1
  -1  -6   0  150.50   72.80   1
   1  -6   0  108.00   72.80   1
  -1   6   0   95.80   72.80   1
   1   6   1  326.20  121.80   1
  -1  -6  -1  356.60  121.90   1
   1  -6  -1  439.90  122.10   1
  -1   6   1  457.20  122.20   1
  -1   6  -1  236.80  121.80   1
   1  -6   1  312.20  121.90   1
  -1  -6   1  378.40  121.90   1
   1   6  -1  343.90  121.80   1
   1   6   2  620.40  116.70   1
  -1  -6  -2  450.10  116.20   1
   1  -6  -2  444.80  116.00   1
  -1   6   2  524.30  116.10   1
  -1   6  -2  549.10  116.40   1
   1  -6   2  215.70  115.60   1
  -1  -6   2  237.60  115.60   1
   1   6  -2  238.00  115.50   1
   1   6   3  109.60   67.60   1
  -1  -6  -3  122.20   67.70   1
   1  -6  -3   80.20   67.50   1
  -1   6   3   83.20   67.50   1
  -1   6  -3   96.10   67.50   1
   1  -6   3  108.20   67.60   1
  -1  -6   3  195.60   67.70   1
   1   6  -3  172.20   67.60   1
   1   6   4  272.80  120.00   1
  -1  -6  -4  294.50  120.00   1
   1  -6  -4  349.00  120.20   1
  -1   6   4  377.00  120.20   1
  -1   6  -4  310.30  120.00   1
   1  -6   4  383.30  120.10   1
  -1  -6   4  324.30  120.10   1
   1   6  -4  373.50  120.10   1
   1   6   5  127.90   63.20   1
  -1  -6  -5  292.90   63.70   1
   1  -6  -5   71.60   63.20   1
  -1   6   5   66.90   63.20   1
  -1   6  -5   85.50   63.10   1
   1  -6   5  130.40   63.20   1
  -1  -6   5   84.50   63.00   1
   1   6  -5   86.20   63.00   1
   1   6   6   66.90   56.50   1
  -1  -6  -6  141.50   56.70   1
   1  -6  -6   74.60   56.50   1
  -1   6   6  212.50   56.80   1
  -1   6  -6   74.10   56.40   1
   1  -6   6   74.40   56.40   1
  -1  -6   6   47.60   56.30   1
   1   6  -6   75.80   56.30   1
   1   6   7   63.50   50.60   1
  -1  -6  -7  176.70   50.90   1
   1  -6  -7   62.20   50.30   1
  -1   6   7   41.20   50.30   1
  -1   6  -7   68.50   50.10   1
   1  -6   7   47.60   50.10   1
  -1  -6   7   60.60   50.10   1
   1   6  -7   61.60   50.10   1
   1   6   8  180.20   72.40   1
  -1  -6  -8  130.80   72.40   1
   1  -6  -8  209.00   72.50   1
  -1   6   8  142.40   72.30   1
  -1   6  -8   91.50   71.90   1
   1  -6   8  122.20   72.00   1
   1   6   9   22.00   41.60   1
  -1  -6  -9   46.90   41.80   1
   1  -6  -9   24.70   41.70   1
  -1   6   9   32.80   41.80   1
  -1   6  -9   80.80   41.40   1
   1  -6   9   24.30   41.30   1
  -1  -6   9   74.10   41.90   1
   1   6  -9   60.60   41.60   1
   1   6  10  347.00   55.10   1
  -1  -6 -10  131.50   54.30   1
   1  -6 -10   50.10   53.90   1
  -1   6  10   76.60   54.00   1
  -1   6 -10   55.10   53.60   1
   1  -6  10   85.30   53.70   1
   1   6 -10   36.30   53.70   1
   1   6  11   71.20   60.60   1
  -1  -6 -11  102.50   60.80   1
   1  -6 -11   95.70   60.70   1
  -1   6  11   93.60   60.80   1
  -1   6 -11   93.60   60.30   1
   1  -6  11   84.10   60.30   1
   1   6  12  172.60   93.00   1
  -1  -6 -12  177.50   93.00   1
   1  -6 -12  290.90   93.60   1
  -1   6  12  278.10   93.70   1
  -1   6 -12  222.00   93.10   1
   1  -6  12  167.30   93.20   1
   1   6  13   14.50   35.80   1
  -1  -6 -13    1.40   35.70   1
   1  -6 -13  185.00   37.20   1
  -1   6  13   46.40   36.60   1
  -1   6 -13   50.00   35.60   1
   1   6  14   19.90   35.30   1
  -1  -6 -14    0.00   35.20   1
   1  -6 -14  159.20   36.50   1
  -1   6  14  112.70   36.90   1
   1   6  15   24.90   27.20   1
  -1  -6 -15   15.00   27.10   1
   1  -6 -15   12.40   27.40   1
  -1   6  15   16.40   28.40   1
   1   7   0   48.60   59.80   1
  -1  -7   0   72.20   59.90   1
   1  -7   0  121.40   60.10   1
  -1   7   0  158.20   60.10   1
   1   7   1  197.10   79.30   1
  -1  -7  -1  206.50   79.40   1
   1  -7  -1  124.90   79.20   1
  -1   7   1  122.50   79.10   1
  -1   7  -1  125.40   79.20   1
   1  -7   1  113.40   79.20   1
  -1  -7   1  200.30   79.20   1
   1   7  -1  176.50   79.20   1
   1   7   2  295.20   67.00   1
  -1  -7  -2  401.20   67.60   1
   1  -7  -2   95.70   66.60   1
  -1   7   2   83.00   66.50   1
  -1   7  -2  124.90   66.50   1
   1  -7   2  102.30   66.50   1
  -1  -7   2   70.80   66.40   1
   1   7  -2   84.20   66.40   1
   1   7   3 1587.40  344.30   1
  -1  -7  -3 1958.30  345.30   1
   1  -7  -3 2308.20  346.40   1
  -1   7   3 2220.40  345.80   1
  -1   7  -3 1446.70  344.40   1
   1  -7   3 1768.10  345.50   1
  -1  -7   3 2641.40  347.10   1
   1   7  -3 2414.40  346.30   1
   1   7   4  152.00   90.30   1
  -1  -7  -4  212.10   90.40   1
   1  -7  -4  211.00   90.40   1
  -1   7   4  172.10   90.30   1
  -1   7  -4  182.50   90.30   1
   1  -7   4  175.60   90.30   1
  -1  -7   4  264.30   90.50   1
   1   7  -4  242.20   90.50   1
  -1  -7  -5  911.00  117.70   1
   1  -7  -5  266.50  114.90   1
  -1   7   5  296.20  115.00   1
  -1   7  -5  879.90  117.20   1
   1  -7   5  334.30  115.00   1
  -1  -7   5  273.30  114.90   1
   1   7  -5  252.60  114.80   1
   1   7   6  189.40   81.70   1
  -1  -7  -6  143.50   81.50   1
   1  -7  -6  142.20   81.50   1
  -1   7   6  118.10   81.50   1
  -1   7  -6  291.70   81.70   1
   1  -7   6  168.80   81.50   1
  -1  -7   6  175.40   81.40   1
   1   7  -6  135.70   81.30   1
   1   7   7  188.80  101.10   1
  -1  -7  -7  247.20  101.20   1
   1  -7  -7  159.70  100.90   1
  -1   7   7  483.90  101.70   1
  -1   7  -7  266.00  101.00   1
   1  -7   7  309.00  101.00   1
  -1  -7   7  227.60  100.90   1
   1   7  -7  238.20  100.90   1
   1   7   8  160.00   63.10   1
  -1  -7  -8  158.90   63.10   1
   1  -7  -8  109.60   62.70   1
  -1   7   8   87.50   62.70   1
  -1   7  -8   74.50   62.50   1
   1  -7   8  101.40   62.50   1
  -1  -7   8   87.70   62.50   1
   1   7  -8   78.50   62.40   1
   1   7   9   80.50   63.70   1
  -1  -7  -9  103.30   63.70   1
   1  -7  -9   83.60   63.60   1
  -1   7   9  137.80   63.70   1
  -1   7  -9  136.70   63.30   1
   1  -7   9   86.00   63.30   1
  -1  -7   9   94.90   63.40   1
   1   7  -9   76.90   63.30   1
   1   7  10   13.50   38.00   1
  -1  -7 -10   35.70   38.10   1
   1  -7 -10   43.20   38.20   1
  -1   7  10   47.30   38.20   1
  -1   7 -10   49.30   37.70   1
   1  -7  10   56.50   37.70   1
  -1  -7  10    9.10   37.70   1
   1   7 -10   28.20   37.80   1
   1   7  11  267.00  108.70   1
  -1  -7 -11  431.30  109.60   1
   1  -7 -11  233.20  108.70   1
  -1   7  11  346.50  109.10   1
  -1   7 -11  220.30  108.40   1
   1  -7  11  316.70  108.70   1
  -1  -7  11  309.80  111.50   1
   1   7 -11  261.50  109.20   1
   1   7  12    0.50   27.20   1
  -1  -7 -12   30.80   27.70   1
   1  -7 -12   36.30   27.50   1
  -1   7  12   28.50   27.60   1
  -1   7 -12   21.10   26.80   1
   1  -7  12   16.50   26.80   1
   1   7 -12    9.80   26.90   1
   1   7  13  158.70   78.90   1
  -1  -7 -13  151.10   79.00   1
   1  -7 -13  181.60   79.10   1
  -1   7  13  106.00   78.90   1
  -1   7 -13  163.50   78.70   1
   1  -7  13  145.90   78.90   1
   1   7  14   -0.00   20.10   1
  -1  -7 -14   14.50   20.00   1
   1  -7 -14    5.90   20.20   1
  -1   7  14   27.10   20.80   1
  -1   7 -14    5.10   19.30   1
   1  -7  14   12.40   19.50   1
   1   7  15   77.20   50.80   1
  -1  -7 -15   56.20   50.60   1
   1  -7 -15   36.50   50.80   1
  -1   7  15   70.60   51.20   1
  -1   7 -15   85.10   50.70   1
   1  -8   0 1065.40  249.60   1
  -1   8   0 1345.70  250.70   1
   1   8   1  371.90  136.10   1
  -1  -8  -1  412.10  136.20   1
   1  -8  -1  387.00  136.10   1
  -1   8   1  323.40  135.90   1
  -1   8  -1  391.10  136.10   1
   1  -8   1  413.50  136.10   1
  -1  -8   1  727.90  136.90   1
   1   8  -1  758.30  137.10   1
   1   8   2  698.50  179.60   1
  -1  -8  -2 1006.00  180.70   1
   1  -8  -2  688.20  179.60   1
  -1   8   2  636.60  179.50   1
  -1  -8   2  739.30  179.50   1
   1   8  -2  570.00  179.10   1
   1   8   3  127.50   82.90   1
  -1  -8  -3  149.80   83.00   1
   1  -8  -3  151.70   83.00   1
  -1   8   3  149.20   83.00   1
  -1   8  -3  153.40   82.90   1
   1  -8   3  150.80   83.00   1
  -1  -8   3  241.00   83.10   1
   1   8  -3  290.50   83.20   1
   1   8   4 2097.30  360.70   1
  -1  -8  -4 1892.70  359.50   1
   1  -8  -4 2496.50  360.90   1
  -1   8   4 1885.20  358.30   1
  -1   8  -4 2096.10  359.70   1
   1  -8   4 1594.90  357.70   1
  -1  -8   4 2867.90  362.00   1
   1   8  -4 2470.10  360.00   1
   1   8   5  249.70  114.80   1
  -1  -8  -5  271.10  114.80   1
   1  -8  -5  357.10  115.00   1
  -1   8   5  236.60  114.70   1
  -1   8  -5  309.20  114.90   1
   1  -8   5  450.00  115.40   1
  -1  -8   5  314.40  114.90   1
   1   8  -5  463.00  115.30   1
   1   8   6 3559.80  525.10   1
  -1  -8  -6 2313.50  519.20   1
   1  -8  -6 3345.60  522.00   1
  -1   8   6 4007.70  525.70   1
  -1   8  -6 5314.50  534.10   1
   1  -8   6 3745.10  524.20   1
  -1  -8   6 3919.40  525.20   1
   1   8  -6 4272.90  525.50   1
   1   8   7  230.90  100.80   1
  -1  -8  -7  233.70  100.80   1
   1  -8  -7  191.90  100.70   1
  -1   8   7  191.40  100.70   1
  -1   8  -7  267.60  100.70   1
   1  -8   7  830.00  102.90   1
  -1  -8   7  262.80  100.60   1
   1   8  -7  226.40  100.60   1
   1   8   8 3923.00  594.20   1
  -1  -8  -8 4221.00  598.30   1
   1  -8  -8 3664.00  589.20   1
  -1   8   8 4515.90  592.80   1
  -1   8  -8 4441.00  591.80   1
   1  -8   8 3837.70  590.10   1
  -1  -8   8 4331.00  595.10   1
   1   8  -8 4030.50  590.70   1
   1   8   9  109.10   66.60   1
  -1  -8  -9   40.50   66.40   1
   1  -8  -9  113.70   66.50   1
  -1   8   9  219.80   66.70   1
  -1   8  -9  199.10   66.30   1
   1  -8   9  112.10   66.10   1
  -1  -8   9  105.50   66.10   1
   1   8  -9   73.30   66.10   1
   1   8  10  141.90   73.20   1
  -1  -8 -10  180.40   73.40   1
   1  -8 -10  124.30   73.10   1
  -1   8  10  140.90   73.10   1
  -1   8 -10  129.10   72.80   1
   1  -8  10   88.20   72.80   1
  -1  -8  10  126.20   72.90   1
   1   8 -10  182.20   73.10   1
   1   8  11   -0.00   38.20   1
  -1  -8 -11   19.10   38.30   1
   1  -8 -11    7.90   38.20   1
  -1   8  11   55.50   38.60   1
  -1   8 -11   46.00   38.00   1
   1  -8  11   78.80   38.00   1
  -1  -8  11   47.30   38.10   1
   1   8 -11   25.40   37.90   1
   1   8  12  549.70  170.10   1
  -1  -8 -12  438.40  169.90   1
   1  -8 -12  857.20  172.10   1
  -1   8  12  720.80  171.20   1
  -1   8 -12  603.70  170.10   1
   1  -8  12  746.00  171.10   1
  -1  -8  12  655.20  175.40   1
   1   8 -12 1742.20  193.10   1
   1   8  13    6.80   27.40   1
  -1  -8 -13   15.60   27.60   1
   1  -8 -13   15.90   27.60   1
  -1   8  13   25.90   27.70   1
  -1   8 -13   29.50   27.00   1
   1  -8  13    8.20   27.00   1
   1   8 -13   24.70   27.20   1
   1   8  14  109.90   32.60   1
  -1  -8 -14   62.20   32.60   1
   1  -8 -14   36.20   32.30   1
  -1   8  14   28.60   32.20   1
  -1   8 -14   22.10   31.60   1
   1  -8  14   16.40   31.60   1
   1   8 -14    4.90   31.70   1
   1   8  15   49.90   41.40   1
  -1  -8 -15   35.60   41.30   1
   1  -8 -15   27.40   41.30   1
  -1   8  15   56.00   41.50   1
  -1   8 -15   83.70   41.10   1
   1  -8  15   24.00   40.90   1
   1   9   0   16.30   20.60   1
  -1  -9   0   17.00   20.60   1
   1  -9   0    1.30   20.40   1
  -1   9   0    5.30   20.50   1
   1   9   1  380.70  118.10   1
  -1  -9  -1  377.70  118.10   1
   1  -9  -1  286.20  117.90   1
  -1   9   1  300.70  117.90   1
  -1   9  -1  395.80  118.00   1
   1  -9   1  280.00  117.80   1
  -1  -9   1  300.20  117.90   1
   1   9  -1  299.90  117.90   1
   1   9   2   45.00   49.10   1
  -1  -9  -2   43.20   49.30   1
   1  -9  -2   55.80   49.30   1
  -1   9   2   72.40   49.30   1
  -1   9  -2   64.70   49.10   1
   1  -9   2  176.40   49.30   1
  -1  -9   2   49.80   49.10   1
   1   9  -2   21.30   49.10   1
   1   9   3  214.20   70.00   1
  -1  -9  -3  189.80   70.00   1
   1  -9  -3   83.30   70.00   1
  -1   9   3   83.50   69.90   1
  -1   9  -3  125.40   69.80   1
   1  -9   3  206.60   70.00   1
  -1  -9   3   60.60   69.80   1
   1   9  -3  111.60   69.80   1
   1   9   4   59.50   45.70   1
  -1  -9  -4   56.00   45.80   1
   1  -9  -4   50.50   45.90   1
  -1   9   4   26.30   45.90   1
  -1   9  -4   29.80   45.60   1
   1  -9   4   59.80   45.70   1
  -1  -9   4  109.80   45.80   1
   1   9  -4   33.90   45.70   1
   1   9   5  269.50   69.90   1
  -1  -9  -5   96.50   69.40   1
   1  -9  -5  305.30   70.10   1
  -1   9   5  446.40   70.60   1
  -1   9  -5  216.20   69.70   1
   1  -9   5  198.00   69.80   1
  -1  -9   5   34.90   69.30   1
   1   9  -5   56.70   69.30   1
   1   9   6   55.50   46.90   1
  -1  -9  -6   44.70   46.70   1
   1  -9  -6    5.10   46.70   1
  -1   9   6   -0.00   46.60   1
  -1   9  -6  139.20   47.10   1
   1  -9   6  118.00   47.00   1
  -1  -9   6   46.20   46.70   1
   1   9  -6  189.60   47.00   1
   1   9   7   31.50   60.10   1
  -1  -9  -7   69.30   60.20   1
   1  -9  -7   37.70   60.10   1
  -1   9   7   50.80   60.20   1
  -1   9  -7  143.00   60.20   1
   1  -9   7  108.80   60.20   1
  -1  -9   7  386.30   61.10   1
   1   9  -7  152.00   60.20   1
   1   9   8   56.30   42.20   1
  -1  -9  -8  121.90   42.40   1
   1  -9  -8    8.40   41.50   1
  -1   9   8   12.90   41.60   1
  -1   9  -8  142.50   42.00   1
   1  -9   8   28.10   41.50   1
  -1  -9   8   45.00   41.40   1
   1   9  -8   38.50   41.40   1
   1   9   9   57.40   40.90   1
  -1  -9  -9  166.20   41.40   1
   1  -9  -9   71.50   40.60   1
  -1   9   9   15.90   40.40   1
  -1   9  -9   20.70   40.20   1
   1  -9   9    7.00   40.00   1
  -1  -9   9   51.80   40.10   1
   1   9  -9   58.90   40.20   1
   1   9  10    6.90   32.60   1
  -1  -9 -10   19.00   32.80   1
   1  -9 -10   26.50   32.80   1
  -1   9  10   12.50   32.70   1
  -1   9 -10   36.30   32.30   1
   1  -9  10   20.00   32.20   1
  -1  -9  10   31.40   32.30   1
   1   9 -10   33.70   32.20   1
   1   9  11   51.50   48.30   1
  -1  -9 -11   51.20   48.30   1
   1  -9 -11   76.80   48.30   1
  -1   9  11  145.20   48.70   1
  -1   9 -11   50.10   47.80   1
   1  -9  11   73.90   47.80   1
  -1  -9  11   35.80   47.80   1
   1   9 -11   43.80   47.70   1
   1   9  12    4.50   25.00   1
  -1  -9 -12   15.10   25.20   1
   1  -9 -12   13.90   25.00   1
  -1   9  12    8.10   25.00   1
  -1   9 -12   24.20   24.50   1
   1  -9  12   18.90   24.40   1
  -1  -9  12    6.10   24.50   1
   1   9 -12   16.80   24.40   1
   1   9  13   48.30   40.70   1
  -1  -9 -13   42.40   40.80   1
   1  -9 -13    8.10   40.40   1
  -1   9  13   32.40   40.60   1
  -1   9 -13   38.60   40.20   1
   1  -9  13   30.50   40.10   1
  -1  -9  13   65.20   40.50   1
   1   9 -13  102.60   40.60   1
   1   9  14    2.90   19.60   1
  -1  -9 -14   10.40   19.90   1
   1  -9 -14   -0.00   19.60   1
  -1   9  14    9.80   19.80   1
  -1   9 -14   12.10   18.90   1
   1  -9  14    6.80   18.90   1
  -1  -9  14   15.60   19.30   1
   1   9 -14    8.00   19.10   1
   1  10   0  135.70   81.00   1
  -1 -10   0  107.10   81.00   1
   1 -10   0  190.40   81.10   1
  -1  10   0  264.10   81.40   1
   1  10   1  936.20  199.50   1
  -1 -10  -1 1003.10  199.70   1
   1 -10  -1  868.20  199.60   1
  -1  10   1  829.90  199.30   1
  -1  10  -1  779.00  198.80   1
   1 -10   1  729.80  198.70   1
  -1 -10   1  787.60  198.90   1
   1  10  -1  720.20  198.70   1
   1  10   2  418.20   92.20   1
  -1 -10  -2  611.80   93.10   1
  -1  10  -2  603.30   93.10   1
   1 -10   2  408.70   92.30   1
  -1 -10   2  106.80   91.60   1
   1  10  -2   94.10   91.60   1
   1  10   3   90.50   77.90   1
  -1 -10  -3  113.30   77.90   1
   1 -10  -3  233.80   78.30   1
  -1  10   3  222.70   78.30   1
  -1  10  -3  168.20   78.00   1
   1 -10   3   56.70   77.80   1
  -1 -10   3  322.50   78.40   1
   1  10  -3  433.80   78.80   1
   1  10   4  131.90   80.20   1
  -1 -10  -4  230.90   80.50   1
   1 -10  -4  165.00   80.50   1
  -1  10   4  293.00   80.70   1
  -1  10  -4  184.00   80.30   1
   1 -10   4  246.00   80.50   1
  -1 -10   4  115.00   80.20   1
   1  10  -4   86.20   80.10   1
   1  10   5  151.00   88.90   1
  -1 -10  -5  188.20   88.90   1
   1 -10  -5  241.80   89.20   1
  -1  10   5  194.00   89.10   1
  -1  10  -5  159.20   88.90   1
  -1 -10   5  170.40   88.80   1
   1  10  -5  270.30   89.00   1
   1  10   6  208.70  116.90   1
  -1 -10  -6  463.00  117.60   1
   1 -10  -6  412.80  117.40   1
  -1  10   6  830.70  119.00   1
  -1  10  -6  303.80  117.00   1
   1 -10   6  313.40  117.00   1
  -1 -10   6  351.90  117.00   1
   1  10  -6  255.50  116.80   1
   1  10   7   60.70   42.70   1
  -1 -10  -7   24.60   42.30   1
   1 -10  -7    5.20   42.40   1
  -1  10   7   11.70   42.10   1
  -1  10  -7   14.00   42.30   1
   1 -10   7  177.70   42.80   1
  -1 -10   7   39.70   42.20   1
   1  10  -7  208.30   42.70   1
   1  10   8 1520.60  274.20   1
  -1 -10  -8 1186.90  271.60   1
   1 -10  -8 1521.00  271.90   1
  -1  10   8 1323.00  271.30   1
  -1  10  -8 1511.80  272.20   1
   1 -10   8 1722.10  272.70   1
  -1 -10   8 1091.20  270.20   1
   1  10  -8 1249.10  270.60   1
   1  10   9  118.10   88.10   1
  -1 -10  -9  245.70   88.50   1
   1 -10  -9  144.50   87.80   1
  -1  10   9  162.50   87.90   1
  -1  10  -9  253.10   88.10   1
   1 -10   9  189.10   87.80   1
  -1 -10   9  190.00   87.70   1
   1  10  -9  218.60   87.80   1
   1  10  10  442.20  110.20   1
  -1 -10 -10  402.30  110.20   1
   1 -10 -10  230.30  109.00   1
  -1  10  10  232.70  109.00   1
  -1  10 -10  257.60  108.80   1
   1 -10  10  281.40  108.90   1
  -1 -10  10  280.00  109.00   1
   1  10 -10  284.50  108.90   1
   1  10  11   25.00   42.70   1
  -1 -10 -11   38.50   42.80   1
   1 -10 -11   40.20   43.00   1
  -1  10  11   56.00   42.90   1
  -1  10 -11   98.90   42.60   1
   1 -10  11   46.70   42.50   1
  -1 -10  11   46.80   42.40   1
   1  10 -11   23.10   42.30   1
   1  10  12   97.90   40.90   1
  -1 -10 -12   40.70   40.60   1
  -1  10  12   78.30   40.70   1
  -1  10 -12   17.70   39.80   1
   1 -10  12   55.80   40.00   1
  -1 -10  12   33.60   39.90   1
   1  10 -12   28.90   39.90   1
   1  10  13   10.80   35.00   1
  -1 -10 -13   45.80   35.40   1
   1 -10 -13   47.50   35.30   1
  -1  10  13   29.40   35.10   1
  -1  10 -13   50.80   34.70   1
   1 -10  13   37.30   34.60   1
  -1 -10  13   13.70   34.50   1
   1  10 -13   23.50   34.50   1
   1  10  14   42.50   32.20   1
  -1 -10 -14   24.00   32.00   1
   1 -10 -14   12.30   31.90   1
  -1  10  14   54.20   32.30   1
  -1  10 -14   32.40   31.50   1
   1 -10  14   23.50   31.40   1
  -1 -10  14   21.30   31.50   1
   1  10 -14   11.90   31.40   1
   1  11   0   -0.00   37.00   1
  -1 -11   0    8.90   36.90   1
   1 -11   0   70.40   36.90   1
  -1  11   0   53.80   37.10   1
   1  11   1  188.90   80.60   1
  -1 -11  -1  263.80   81.00   1
   1 -11  -1  134.50   80.50   1
  -1  11   1  102.40   80.40   1
  -1  11  -1  284.40   80.70   1
   1 -11   1  209.30   80.50   1
  -1 -11   1  146.70   80.50   1
   1  11  -1   80.80   80.40   1
   1  11   2   95.40   58.60   1
  -1 -11  -2  111.00   58.70   1
   1 -11  -2   72.20   58.90   1
  -1  11   2   94.00   59.00   1
  -1  11  -2   83.70   58.60   1
   1 -11   2   65.50   58.50   1
  -1 -11   2  106.20   58.90   1
   1  11  -2   48.10   58.80   1
   1  11   3  553.70   86.50   1
  -1 -11  -3  454.90   85.90   1
   1 -11  -3  133.20   85.20   1
  -1  11   3  122.50   85.10   1
  -1  11  -3  350.40   85.60   1
   1 -11   3  543.10   86.50   1
  -1 -11   3   93.00   84.90   1
   1  11  -3  114.40   85.00   1
   1  11   4   55.20   57.10   1
  -1 -11  -4   50.90   57.20   1
   1 -11  -4  113.40   57.60   1
  -1  11   4  101.20   57.60   1
  -1  11  -4   54.20   57.20   1
   1 -11   4   93.70   57.30   1
  -1 -11   4  118.00   57.40   1
   1  11  -4  105.40   57.30   1
   1  11   5   94.00   63.60   1
  -1 -11  -5   79.00   63.60   1
   1 -11  -5  168.20   64.10   1
  -1  11   5  147.20   64.00   1
  -1  11  -5   83.90   63.60   1
   1 -11   5  171.10   63.90   1
  -1 -11   5   91.00   63.60   1
   1  11  -5   54.80   63.60   1
   1  11   6   68.60   42.10   1
  -1 -11  -6   65.20   42.10   1
   1 -11  -6   55.40   42.30   1
  -1  11   6   26.10   42.20   1
  -1  11  -6   43.30   42.30   1
   1 -11   6   24.10   42.10   1
  -1 -11   6   28.70   41.80   1
   1  11  -6   42.30   41.90   1
   1  11   7  372.70   90.90   1
  -1 -11  -7  193.40   90.10   1
   1 -11  -7  705.10   92.80   1
  -1  11   7  642.50   92.00   1
  -1  11  -7  175.00   90.10   1
   1 -11   7  246.70   90.20   1
  -1 -11   7  151.00   89.90   1
   1  11  -7  114.40   89.80   1
   1  11   8   69.10   39.70   1
  -1 -11  -8   25.80   39.30   1
   1 -11  -8   30.90   39.40   1
  -1  11   8   36.00   39.20   1
  -1  11  -8    0.00   39.10   1
   1 -11   8   33.20   39.30   1
  -1 -11   8   57.20   39.10   1
   1  11  -8   58.30   39.10   1
   1  11   9  131.80   62.70   1
  -1 -11  -9  141.60   62.70   1
   1 -11  -9  103.30   62.30   1
  -1  11   9   38.40   62.10   1
  -1  11  -9  168.00   62.30   1
   1 -11   9   50.50   62.00   1
   1  11  -9  135.00   62.20   1
   1  11  10   19.40   25.30   1
  -1 -11 -10   60.10   25.80   1
   1 -11 -10   -0.00   24.60   1
  -1  11  10   22.60   24.90   1
  -1  11 -10   31.60   24.70   1
   1 -11  10    5.70   24.30   1
  -1 -11  10    0.00   24.30   1
   1  11 -10   18.10   24.40   1
   1  11  11   71.10   40.80   1
  -1 -11 -11   43.30   41.00   1
   1 -11 -11   29.90   40.40   1
  -1  11  11   37.70   40.60   1
  -1  11 -11   40.40   40.20   1
   1 -11  11   37.80   40.20   1
  -1 -11  11   39.90   40.20   1
   1  11 -11   32.70   40.20   1
   1  11  12   25.30   35.60   1
  -1 -11 -12   23.50   35.70   1
   1 -11 -12   33.90   35.50   1
  -1  11  12   45.60   35.80   1
  -1  11 -12   28.50   35.10   1
   1 -11  12   32.70   35.10   1
  -1 -11  12   30.00   35.10   1
   1  11 -12   25.40   35.00   1
   1  11  13   30.50   31.00   1
  -1 -11 -13   21.90   30.90   1
   1 -11 -13   15.70   30.80   1
  -1  11  13   57.00   31.20   1
  -1  11 -13   26.10   30.30   1
   1 -11  13   14.30   30.30   1
  -1 -11  13    6.30   30.20   1
   1  11 -13   38.30   30.40   1
   1  11  14    7.50   20.90   1
  -1 -11 -14    5.40   20.90   1
   1 -11 -14    8.30   21.10   1
  -1  11  14    1.90   20.70   1
  -1  11 -14   17.40   20.20   1
   1 -11  14   33.70   20.30   1
  -1 -11  14    5.00   20.00   1
   1  11 -14   -0.00   19.90   1
   1  12   0   39.00   47.80   1
  -1 -12   0   44.70   47.90   1
   1 -12   0   52.60   47.60   1
  -1  12   0   83.20   47.80   1
   1  12   1  161.10   58.40   1
  -1 -12  -1  182.80   58.50   1
   1 -12  -1   97.80   58.20   1
  -1  12   1   78.00   58.10   1
  -1  12  -1   29.90   57.90   1
   1 -12   1   58.80   58.00   1
  -1 -12   1   89.10   58.10   1
   1  12  -1   62.90   58.10   1
   1  12   2  694.10  215.20   1
  -1 -12  -2  777.00  215.50   1
   1 -12  -2 1115.40  217.50   1
  -1  12   2 1047.50  217.00   1
  -1  12  -2 1267.60  217.80   1
   1 -12   2  899.80  216.10   1
  -1 -12   2 1126.70  216.80   1
   1  12  -2 1185.60  216.80   1
   1  12   3  190.90  105.60   1
  -1 -12  -3  201.80  105.60   1
   1 -12  -3  360.00  106.30   1
  -1  12   3  333.70  106.10   1
  -1  12  -3  237.40  105.60   1
   1 -12   3  191.70  105.50   1
  -1 -12   3  495.50  106.50   1
   1  12  -3  616.00  107.20   1
   1  12   4  397.20  156.90   1
  -1 -12  -4  574.00  157.50   1
   1 -12  -4  773.70  158.40   1
  -1  12   4  669.80  157.80   1
  -1  12  -4  501.70  157.20   1
   1 -12   4  441.40  156.90   1
  -1 -12   4  566.90  157.20   1
   1  12  -4  713.00  157.70   1
   1  12   5   41.30   39.90   1
  -1 -12  -5   44.30   39.90   1
   1 -12  -5   27.90   40.20   1
  -1  12   5   59.20   40.40   1
  -1  12  -5   33.90   39.80   1
   1 -12   5   30.20   40.10   1
  -1 -12   5   23.30   39.90   1
   1  12  -5   58.50   40.10   1
   1  12   6  673.70  207.00   1
  -1 -12  -6  561.50  206.70   1
   1 -12  -6 1539.20  211.70   1
  -1  12   6 1583.00  211.90   1
  -1  12  -6  764.60  207.20   1
   1 -12   6 1063.50  208.60   1
  -1 -12   6 1175.20  208.40   1
   1  12  -6 1115.00  208.30   1
   1  12   7   20.40   33.20   1
  -1 -12  -7    4.40   32.80   1
   1 -12  -7   20.30   33.60   1
  -1  12   7   15.50   33.20   1
  -1  12  -7   18.90   33.10   1
   1 -12   7   80.00   33.50   1
  -1 -12   7   42.80   32.90   1
   1  12  -7   24.00   32.80   1
   1  12   8  795.80  189.80   1
  -1 -12  -8  708.70  189.00   1
   1 -12  -8  925.10  189.80   1
  -1  12   8  589.80  188.10   1
  -1  12  -8 1014.30  189.90   1
   1 -12   8  702.50  188.50   1
  -1 -12   8  990.40  189.80   1
   1  12  -8  623.30  188.00   1
   1  12   9   -0.00   28.80   1
  -1 -12  -9    0.00   28.60   1
   1 -12  -9    9.10   28.80   1
  -1  12   9   33.00   28.60   1
  -1  12  -9   -0.00   28.40   1
   1 -12   9   28.40   28.50   1
  -1 -12   9   36.20   28.40   1
   1  12  -9   37.60   28.50   1
   1  12  10  176.30   73.70   1
  -1 -12 -10  177.20   73.70   1
   1 -12 -10   84.30   73.10   1
  -1  12  10   65.00   72.90   1
  -1  12 -10  192.00   73.30   1
   1 -12  10  126.70   73.00   1
   1  12 -10  205.30   73.20   1
   1  12  11   22.90   30.80   1
  -1 -12 -11   26.60   30.30   1
   1 -12 -11   23.10   30.10   1
  -1  12  11   16.80   30.00   1
  -1  12 -11   18.90   29.70   1
   1 -12  11   42.20   29.80   1
  -1 -12  11    7.00   29.40   1
   1  12 -11   21.80   29.60   1
   1  12  12  283.60  108.30   1
  -1 -12 -12  250.20  108.20   1
   1 -12 -12  218.30  107.80   1
  -1  12  12  267.70  108.00   1
  -1  12 -12  275.00  107.80   1
   1 -12  12  296.40  107.80   1
  -1 -12  12  398.10  108.50   1
   1  12 -12  242.50  107.60   1
   1  12  13   -0.00   20.90   1
  -1 -12 -13    5.80   21.10   1
   1 -12 -13   11.20   21.10   1
  -1  12  13   -0.00   20.80   1
  -1  12 -13   19.00   20.30   1
   1 -12  13   11.30   20.30   1
  -1 -12  13   13.00   20.10   1
   1  12 -13    6.50   20.10   1
   1  13   0   26.70   37.90   1
  -1 -13   0   40.50   38.10   1
   1 -13   0   29.60   37.70   1
  -1  13   0   44.10   38.00   1
   1  13   1  543.50  186.80   1
  -1 -13  -1  625.00  187.20   1
   1 -13  -1  716.30  187.50   1
  -1  13   1  686.70  187.60   1
  -1  13  -1  976.80  188.50   1
   1 -13   1 1285.30  190.50   1
  -1 -13   1  851.30  187.70   1
   1  13  -1  848.90  187.90   1
   1  13   2   41.80   47.50   1
  -1 -13  -2   43.80   47.60   1
   1 -13  -2   81.40   47.80   1
  -1  13   2   68.40   47.80   1
  -1  13  -2   30.90   47.30   1
   1 -13   2   34.10   47.30   1
  -1 -13   2  197.30   48.30   1
   1  13  -2   53.80   47.80   1
   1  13   3 4607.50  744.60   1
  -1 -13  -3 4921.00  744.80   1
   1 -13  -3 7155.40  768.90   1
  -1  13   3 6903.60  762.30   1
  -1  13  -3 4298.30  744.10   1
   1 -13   3 4833.30  746.20   1
  -1 -13   3 7875.90  763.40   1
   1  13  -3 8461.80  769.10   1
   1  13   4   45.10   54.10   1
  -1 -13  -4   53.80   54.30   1
   1 -13  -4   67.50   54.70   1
  -1  13   4   70.70   54.60   1
  -1  13  -4   53.40   54.20   1
   1 -13   4   47.50   54.10   1
  -1 -13   4  215.00   54.80   1
   1  13  -4  146.00   54.70   1
   1  13   5  853.20  213.80   1
  -1 -13  -5  820.00  213.70   1
   1 -13  -5 1287.60  216.00   1
  -1  13   5 1066.20  214.60   1
  -1  13  -5  828.40  213.30   1
   1 -13   5 1027.10  214.30   1
  -1 -13   5  896.60  213.30   1
   1  13  -5  818.00  213.00   1
   1  13   6  415.60  129.20   1
  -1 -13  -6  267.10  128.60   1
   1 -13  -6  444.60  129.40   1
  -1  13   6  411.30  129.20   1
  -1  13  -6  530.10  129.50   1
   1 -13   6  634.70  130.20   1
  -1 -13   6  391.40  128.80   1
   1  13  -6  288.10  128.50   1
   1  13   7  295.70  140.90   1
  -1 -13  -7  561.50  142.10   1
   1 -13  -7  362.90  141.20   1
  -1  13   7  466.30  141.50   1
  -1  13  -7  407.30  141.30   1
   1 -13   7  435.20  141.30   1
  -1 -13   7  853.40  142.80   1
   1  13  -7  747.90  142.50   1
   1  13   8   87.10   47.80   1
  -1 -13  -8   48.50   47.60   1
   1 -13  -8   18.80   47.60   1
  -1  13   8   63.30   47.70   1
  -1  13  -8   39.40   47.50   1
   1 -13   8  313.20   49.00   1
  -1 -13   8   46.80   47.20   1
   1  13  -8   37.70   47.20   1
   1  13   9  181.60   85.90   1
  -1 -13  -9  463.50   87.90   1
   1 -13  -9  340.70   86.60   1
  -1  13   9  178.20   85.70   1
  -1  13  -9  119.00   85.40   1
   1 -13   9  176.20   85.60   1
  -1 -13   9  180.90   85.40   1
   1  13  -9  139.80   85.30   1
   1  13  10   50.00   49.00   1
  -1 -13 -10   62.70   49.00   1
   1 -13 -10   53.90   48.70   1
  -1  13  10   12.40   48.30   1
  -1  13 -10   62.10   48.50   1
   1 -13  10  117.40   48.50   1
  -1 -13  10   62.50   48.30   1
   1  13 -10   55.40   48.20   1
   1  13  11 1520.50  196.90   1
  -1 -13 -11 1213.40  193.40   1
   1 -13 -11  768.90  185.90   1
  -1  13  11  596.90  184.70   1
  -1  13 -11  536.60  184.20   1
   1 -13  11 1490.70  192.10   1
  -1 -13  11  607.30  184.60   1
   1  13 -11  873.20  186.20   1
   1  13  12   13.50   24.90   1
  -1 -13 -12   -0.00   24.80   1
   1 -13 -12   36.70   24.50   1
  -1  13  12   15.40   24.70   1
  -1  13 -12   12.60   23.80   1
   1 -13  12   15.30   23.80   1
  -1 -13  12   -0.00   23.70   1
   1  13 -12   20.10   23.80   1
   1  13  13   75.40   52.60   1
  -1 -13 -13  105.10   52.90   1
   1 -13 -13   28.50   52.00   1
  -1  13  13   66.40   52.30   1
  -1  13 -13   69.20   52.00   1
   1 -13  13   68.40   52.00   1
  -1 -13  13  151.40   52.40   1
   1  13 -13   47.80   51.90   1
   1  14   0   64.00   74.20   1
  -1 -14   0  126.70   74.30   1
   1 -14   0  152.80   74.20   1
  -1  14   0  240.80   74.50   1
   1  14   1   46.70   35.30   1
  -1 -14  -1   67.70   36.00   1
   1 -14  -1   26.90   35.30   1
  -1  14   1   24.80   35.40   1
  -1  14  -1   24.40   35.20   1
   1 -14   1   34.20   35.20   1
  -1 -14   1   11.80   35.60   1
   1  14  -1    8.30   35.60   1
   1  14   2  193.10   61.20   1
  -1 -14  -2  168.80   61.30   1
   1 -14  -2  135.30   61.30   1
  -1  14   2  107.30   61.20   1
  -1  14  -2   79.50   60.90   1
   1 -14   2   56.50   60.80   1
  -1 -14   2   27.10   60.90   1
   1  14  -2   71.90   61.20   1
   1  14   3   97.90   76.50   1
  -1 -14  -3  104.40   76.60   1
   1 -14  -3  256.50   77.40   1
  -1  14   3  254.60   77.50   1
  -1  14  -3   70.40   76.30   1
   1 -14   3  124.80   76.50   1
  -1 -14   3  357.70   77.60   1
   1  14  -3  223.40   76.90   1
   1  14   4  102.90   66.00   1
  -1 -14  -4  158.90   66.20   1
   1 -14  -4  151.90   66.70   1
  -1  14   4  124.20   66.50   1
  -1  14  -4  184.00   66.20   1
   1 -14   4   96.80   66.00   1
  -1 -14   4   30.00   66.10   1
   1  14  -4   68.20   66.20   1
   1  14   5   42.70   42.70   1
  -1 -14  -5   48.20   42.80   1
   1 -14  -5   37.00   43.30   1
  -1  14   5   15.10   43.10   1
  -1  14  -5   55.70   42.70   1
   1 -14   5   74.40   43.00   1
  -1 -14   5   21.50   42.90   1
   1  14  -5   55.80   43.20   1
   1  14   6  306.40   68.20   1
  -1 -14  -6  173.80   67.40   1
   1 -14  -6  102.30   67.50   1
  -1  14   6  101.30   67.50   1
  -1  14  -6  168.20   67.50   1
   1 -14   6  111.20   67.40   1
  -1 -14   6   85.60   67.10   1
   1  14  -6   37.40   67.10   1
   1  14   7    5.40   30.50   1
  -1 -14  -7   26.30   30.40   1
   1 -14  -7   45.20   30.90   1
  -1  14   7   28.70   30.80   1
  -1  14  -7   11.00   30.40   1
   1 -14   7   11.40   30.60   1
  -1 -14   7   17.30   30.30   1
   1  14  -7   36.90   30.50   1
   1  14   8  139.90   69.10   1
  -1 -14  -8   48.70   68.70   1
   1 -14  -8  222.10   69.70   1
  -1  14   8  129.60   69.20   1
  -1  14  -8  175.10   69.40   1
   1 -14   8  137.90   69.20   1
  -1 -14   8   94.10   68.80   1
   1  14  -8  116.10   68.80   1
   1  14   9   24.60   38.80   1
  -1 -14  -9   24.60   38.70   1
   1 -14  -9   21.70   38.90   1
  -1  14   9   66.20   39.10   1
  -1  14  -9   32.80   38.70   1
   1 -14   9  120.40   39.30   1
  -1 -14   9   20.70   38.40   1
   1  14  -9   30.40   38.50   1
   1  14  10   68.00   41.30   1
  -1 -14 -10  158.40   41.90   1
   1 -14 -10  112.40   41.30   1
  -1  14  10   44.30   40.80   1
  -1  14 -10   43.60   40.70   1
   1 -14  10   11.50   40.40   1
  -1 -14  10   21.90   40.30   1
   1  14 -10   20.10   40.20   1
   1  14  11   35.60   21.30   1
  -1 -14 -11   -0.00   20.60   1
   1 -14 -11   -0.10   20.40   1
  -1  14  11    0.00   19.90   1
  -1  14 -11   35.20   20.30   1
   1 -14  11    0.40   19.60   1
  -1 -14  11   -0.00   19.50   1
   1  14 -11   14.70   19.50   1
   1  14  12   44.10   51.70   1
  -1 -14 -12  102.70   52.20   1
   1 -14 -12   80.30   51.70   1
  -1  14  12   28.10   51.30   1
  -1  14 -12   88.70   51.50   1
   1 -14  12   29.20   51.10   1
  -1 -14  12   81.20   51.30   1
   1  14 -12  196.60   52.10   1
   1 -15   0   39.70   38.40   1
  -1  15   0   30.40   38.40   1
   1  15   1  236.70   70.10   1
  -1 -15  -1  229.10   70.40   1
   1 -15  -1  130.30   69.90   1
  -1  15   1  162.50   70.10   1
  -1  15  -1  210.50   70.10   1
   1 -15   1  373.80   71.00   1
  -1 -15   1   29.00   69.70   1
   1  15  -1   14.60   69.60   1
   1  15   2   32.90   42.60   1
  -1 -15  -2   23.20   42.50   1
   1 -15  -2   76.50   42.90   1
  -1  15   2   90.10   43.30   1
  -1  15  -2   31.50   42.30   1
   1 -15   2   31.00   42.40   1
  -1 -15   2   77.50   43.30   1
   1  15  -2   50.30   42.90   1
   1  15   3  926.60  161.10   1
  -1 -15  -3 1024.30  161.40   1
   1 -15  -3  429.50  158.60   1
  -1  15   3  435.20  158.60   1
  -1  15  -3  871.40  160.90   1
   1 -15   3  992.40  161.50   1
  -1 -15   3  395.00  158.30   1
   1  15  -3  541.80  158.70   1
   1  15   4   32.00   50.00   1
  -1 -15  -4   40.50   50.20   1
   1 -15  -4  123.60   51.30   1
  -1  15   4   74.50   50.90   1
  -1  15  -4   48.80   50.10   1
   1 -15   4   43.80   50.10   1
  -1 -15   4  192.30   51.30   1
   1  15  -4   92.90   50.70   1
   1  15   5  113.30   75.90   1
  -1 -15  -5  116.50   75.90   1
   1 -15  -5  436.90   78.40   1
  -1  15   5  454.30   78.20   1
  -1  15  -5  113.20   75.90   1
   1 -15   5  151.60   76.10   1
  -1 -15   5  132.60   76.10   1
   1  15  -5  111.30   76.30   1
   1  15   6   56.20   42.70   1
  -1 -15  -6   45.00   42.40   1
   1 -15  -6   -0.00   42.80   1
  -1  15   6   -0.70   42.80   1
  -1  15  -6   59.70   42.70   1
   1 -15   6  140.50   43.80   1
  -1 -15   6   43.70   42.80   1
   1  15  -6   61.00   43.00   1
   1  15   7  115.90   43.90   1
  -1 -15  -7  120.90   43.80   1
   1 -15  -7   34.50   43.80   1
  -1  15   7   11.10   43.50   1
  -1  15  -7   77.50   43.80   1
   1 -15   7   15.70   43.60   1
  -1 -15   7   32.30   43.30   1
   1  15  -7   30.80   43.30   1
   1  15   8   31.10   33.40   1
  -1 -15  -8   -0.00   33.00   1
   1 -15  -8   20.00   33.50   1
  -1  15   8   24.20   33.60   1
  -1  15  -8   22.40   33.20   1
   1 -15   8  114.40   34.10   1
  -1 -15   8   25.50   32.90   1
   1  15  -8   23.40   33.00   1
   1  15   9   83.90   68.70   1
  -1 -15  -9  201.10   69.30   1
   1 -15  -9  112.00   68.80   1
  -1  15   9   87.30   68.70   1
  -1  15  -9  108.90   68.70   1
   1 -15   9  162.10   68.90   1
  -1 -15   9   90.00   68.30   1
   1  15  -9  129.30   68.50   1
   1  15  10   12.50   22.80   1
  -1 -15 -10   -0.00   22.40   1
   1 -15 -10    8.30   22.80   1
  -1  15  10   25.20   22.70   1
  -1  15 -10   -0.00   22.30   1
   1 -15  10   56.60   23.00   1
  -1 -15  10   -0.00   22.10   1
   1  15 -10    7.20   21.90   1
   1  15  11   97.20   56.30   1
  -1 -15 -11   85.00   56.10   1
   1 -15 -11   62.70   55.80   1
  -1  15  11   88.20   55.90   1
  -1  15 -11   84.20   55.80   1
   1 -15  11  131.50   55.70   1
  -1 -15  11   67.50   55.50   1
   1  15 -11   38.10   55.30   1
   1  15  12   61.70   23.00   1
  -1 -15 -12   33.80   21.80   1
   1 -15 -12   14.30   21.60   1
  -1  15  12    0.00   21.10   1
  -1  15 -12    6.50   21.10   1
   1 -15  12   -0.00   20.60   1
  -1 -15  12    0.00   20.60   1
   1  15 -12    8.80   20.70   1
   1  16   0   32.40   61.70   1
  -1 -16   0   53.90   62.00   1
   1 -16   0  182.20   62.10   1
  -1  16   0  218.80   62.30   1
   1  16   1  139.10   78.80   1
  -1 -16  -1  194.10   79.20   1
   1 -16  -1  165.90   78.90   1
  -1  16   1  171.80   79.10   1
  -1  16  -1  104.80   78.60   1
   1 -16   1   84.80   78.60   1
  -1 -16   1  269.50   79.60   1
   1  16  -1  249.60   79.50   1
   1  16   2 1100.00  268.80   1
  -1 -16  -2 1203.70  269.20   1
   1 -16  -2 1547.90  272.10   1
  -1  16   2 1508.80  272.40   1
  -1  16  -2 1130.00  269.40   1
   1 -16   2 1098.70  269.20   1
  -1 -16   2 1956.00  273.20   1
   1  16  -2 1918.50  273.60   1
   1  16   3   58.80   42.60   1
  -1 -16  -3   71.00   42.70   1
   1 -16  -3   15.80   42.40   1
  -1  16   3   26.70   42.50   1
  -1  16  -3   49.50   42.20   1
   1 -16   3   69.60   42.60   1
  -1 -16   3   34.20   42.80   1
   1  16  -3   27.20   42.50   1
   1  16   4  225.20   95.20   1
  -1 -16  -4  293.10   95.60   1
   1 -16  -4  401.60   96.80   1
  -1  16   4  300.30   96.00   1
  -1  16  -4  344.30   95.80   1
   1 -16   4  137.90   94.90   1
  -1 -16   4  139.60   95.20   1
   1  16  -4  209.90   95.50   1
   1  16   5   -0.00   33.00   1
  -1 -16  -5   23.10   33.20   1
   1 -16  -5   37.10   34.10   1
  -1  16   5   26.20   34.20   1
  -1  16  -5   22.60   33.10   1
   1 -16   5   44.80   33.40   1
  -1 -16   5   35.80   33.80   1
   1  16  -5   60.80   34.10   1
   1  16   6   70.80   54.00   1
  -1 -16  -6   38.80   53.80   1
   1 -16  -6   94.60   54.60   1
  -1  16   6   61.80   54.40   1
  -1  16  -6   79.60   54.00   1
   1 -16   6  175.10   54.80   1
  -1 -16   6   47.40   53.90   1
   1  16  -6   82.40   54.20   1
   1  16   7   27.40   34.20   1
  -1 -16  -7   14.20   34.00   1
   1 -16  -7   15.10   34.50   1
  -1  16   7   22.90   34.50   1
  -1  16  -7   35.40   34.10   1
   1 -16   7   63.10   34.90   1
  -1 -16   7   21.60   33.90   1
   1  16  -7   34.00   34.10   1
   1  16   8   47.30   46.00   1
  -1 -16  -8   89.40   46.20   1
   1 -16  -8   33.90   46.00   1
  -1  16   8   20.80   45.90   1
  -1  16  -8   70.10   46.10   1
   1 -16   8   40.10   46.00   1
  -1 -16   8   68.00   45.90   1
   1  16  -8   47.70   45.80   1
   1  16   9    8.50   28.70   1
  -1 -16  -9   19.70   28.40   1
   1 -16  -9   14.50   28.80   1
  -1  16   9   23.50   28.90   1
  -1  16  -9   39.00   28.70   1
   1 -16   9   20.00   28.70   1
  -1 -16   9    9.10   28.20   1
   1  16  -9   19.70   28.10   1
   1  16  10    4.40   40.80   1
  -1 -16 -10   55.20   41.00   1
   1 -16 -10  103.10   41.50   1
  -1  16  10   36.60   40.80   1
  -1  16 -10  101.10   41.30   1
   1 -16  10  126.50   41.30   1
  -1 -16  10   18.30   40.30   1
   1  16 -10   11.30   40.20   1
   1  16  11   25.50   21.20   1
  -1 -16 -11   23.20   20.70   1
   1 -16 -11    4.40   20.80   1
  -1  16  11    8.50   20.80   1
  -1  16 -11    6.60   19.90   1
   1 -16  11    5.10   20.00   1
  -1 -16  11   -0.00   19.40   1
   1  16 -11    8.00   19.40   1
   1  17   0   16.70   31.70   1
  -1 -17   0   22.20   32.10   1
   1 -17   0   25.80   31.50   1
  -1  17   0   27.50   31.80   1
   1  17   1  125.10   76.90   1
  -1 -17  -1  132.60   77.10   1
   1 -17  -1   96.40   76.80   1
  -1  17   1  111.50   77.00   1
  -1  17  -1  332.90   77.90   1
   1 -17   1  174.20   77.00   1
  -1 -17   1  168.20   77.40   1
   1  17  -1  147.00   77.10   1
   1  17   2   21.40   34.00   1
  -1 -17  -2   21.00   34.10   1
   1 -17  -2   33.40   34.60   1
  -1  17   2   37.00   34.60   1
  -1  17  -2   31.10   34.00   1
   1 -17   2   30.10   34.00   1
  -1 -17   2   23.00   34.90   1
   1  17  -2   23.50   34.90   1
   1  17   3  625.10  101.50   1
  -1 -17  -3  687.90  101.90   1
   1 -17  -3  184.70   98.70   1
  -1  17   3  176.00   98.80   1
  -1  17  -3  545.00  100.90   1
   1 -17   3  638.20  101.60   1
  -1 -17   3  138.30   98.60   1
   1  17  -3  183.80   98.60   1
   1  17   4   38.00   40.10   1
  -1 -17  -4   58.90   40.30   1
   1 -17  -4   25.30   40.50   1
  -1  17   4   30.70   40.90   1
  -1  17  -4   60.20   40.20   1
   1 -17   4   26.60   40.00   1
  -1 -17   4   43.30   40.70   1
   1  17  -4   25.00   40.40   1
   1  17   5   23.40   41.90   1
  -1 -17  -5   15.10   41.90   1
   1 -17  -5  130.40   43.60   1
  -1  17   5  122.90   43.50   1
  -1  17  -5   17.40   42.00   1
   1 -17   5   50.60   42.20   1
  -1 -17   5   68.70   42.80   1
   1  17  -5  104.20   43.00   1
   1  17   6   -0.00   34.90   1
  -1 -17  -6   20.40   35.00   1
   1 -17  -6   50.50   36.40   1
  -1  17   6   89.40   36.80   1
  -1  17  -6   30.40   34.90   1
   1 -17   6   54.30   35.50   1
  -1 -17   6   13.30   35.40   1
   1  17  -6   49.90   35.80   1
   1  17   7  126.40   64.60   1
  -1 -17  -7  163.80   64.70   1
   1 -17  -7  126.30   65.00   1
  -1  17   7  247.60   65.60   1
  -1  17  -7  139.70   64.60   1
  -1 -17   7   53.90   64.40   1
   1  17  -7   29.40   64.30   1
   1  17   8   -0.00   23.00   1
  -1 -17  -8   19.40   22.90   1
   1 -17  -8   15.50   23.70   1
  -1  17   8   -0.00   23.40   1
  -1  17  -8   -0.10   23.10   1
   1 -17   8   11.40   23.20   1
  -1 -17   8   32.00   22.80   1
   1  17  -8    8.80   23.10   1
   1  17   9   18.40   30.10   1
  -1 -17  -9   56.90   30.20   1
   1 -17  -9   24.70   30.40   1
  -1  17   9   15.10   30.40   1
  -1  17  -9   51.40   30.50   1
   1 -17   9    8.70   30.00   1
  -1 -17   9   10.40   29.70   1
   1  17  -9    6.10   29.70   1
   1  17  10   -0.00   26.90   1
  -1 -17 -10   15.60   26.60   1
   1 -17 -10    3.40   26.80   1
  -1  17  10   11.90   27.20   1
  -1  17 -10   -0.00   26.70   1
   1 -17  10   75.80   27.60   1
  -1 -17  10    5.30   26.20   1
   1  17 -10   35.60   26.30   1
   1  17  11   43.20   38.30   1
  -1 -17 -11   31.70   38.00   1
   1 -17 -11  204.20   40.40   1
  -1  17  11   53.70   38.40   1
   1 -17  11   34.60   37.90   1
  -1 -17  11   -0.00   37.60   1
   1  18   0  114.90   76.60   1
  -1 -18   0  225.90   77.40   1
   1 -18   0  127.40   76.60   1
  -1  18   0  139.00   76.60   1
   1  18   1   50.60   43.80   1
  -1 -18  -1   68.00   44.40   1
   1 -18  -1   24.20   43.80   1
  -1  18   1   31.30   44.10   1
  -1  18  -1   42.50   43.70   1
   1 -18   1   42.00   43.80   1
  -1 -18   1   76.20   44.50   1
   1  18  -1   61.10   44.30   1
   1  18   2  177.70   90.70   1
  -1 -18  -2  190.30   90.90   1
   1 -18  -2  188.30   90.90   1
  -1  18   2  164.00   90.80   1
  -1  18  -2  276.60   91.20   1
   1 -18   2  182.40   90.70   1
  -1 -18   2  191.30   91.00   1
   1  18  -2  221.20   91.00   1
   1  18   3   79.20   51.10   1
  -1 -18  -3   82.60   51.30   1
   1 -18  -3   71.40   51.10   1
  -1  18   3   83.50   51.50   1
  -1  18  -3   63.20   50.90   1
   1 -18   3   85.40   51.20   1
  -1 -18   3   35.00   51.20   1
   1  18  -3   10.50   51.20   1
   1  18   4  502.90  112.40   1
  -1 -18  -4  513.70  112.30   1
   1 -18  -4  210.00  110.60   1
  -1  18   4  186.60  110.50   1
  -1  18  -4  470.60  112.00   1
   1 -18   4  319.70  110.90   1
  -1 -18   4  568.10  112.40   1
   1  18  -4  194.30  110.50   1
   1  18   5    5.10   19.40   1
  -1 -18  -5    2.60   19.60   1
   1 -18  -5   33.90   21.50   1
  -1  18   5   10.50   21.50   1
  -1  18  -5    1.40   19.20   1
   1 -18   5    0.20   19.70   1
  -1 -18   5   43.20   21.10   1
   1  18  -5   -0.10   21.10   1
   1  18   6  271.50  120.00   1
  -1 -18  -6  276.20  120.00   1
  -1  18  -6  228.90  119.70   1
   1 -18   6  473.30  121.30   1
  -1 -18   6  552.50  121.40   1
   1  18  -6  592.50  121.90   1
   1  18   7   24.10   42.60   1
  -1 -18  -7   46.70   42.60   1
   1 -18  -7   15.00   43.10   1
  -1  18   7   34.20   43.20   1
  -1  18  -7   21.60   42.50   1
   1 -18   7   73.30   43.30   1
  -1 -18   7   90.30   43.10   1
   1  18  -7   77.60   43.20   1
   1  18   8  333.10  117.40   1
  -1 -18  -8  222.50  116.50   1
   1 -18  -8  296.90  117.20   1
  -1  18   8  216.40  116.60   1
  -1  18  -8  367.10  117.40   1
   1 -18   8  329.60  117.10   1
  -1 -18   8  486.50  117.80   1
   1  18  -8  463.40  117.60   1
   1  18   9   16.00   25.20   1
  -1 -18  -9   -0.00   24.70   1
   1 -18  -9   21.00   25.60   1
  -1  18   9    0.00   25.20   1
  -1  18  -9   16.00   25.10   1
   1 -18   9   23.50   25.30   1
  -1 -18   9   29.20   24.90   1
   1  18  -9    9.90   24.70   1
   1  18  10   19.50   35.20   1
  -1 -18 -10   19.50   34.80   1
   1 -18 -10   21.10   35.10   1
  -1  18  10   -0.00   35.10   1
   1 -18  10   39.30   35.10   1
  -1 -18  10   73.90   35.00   1
   1  19   0   39.20   31.50   1
  -1 -19   0   60.90   32.20   1
   1 -19   0   11.80   31.20   1
  -1  19   0   -0.40   31.50   1
   1  19   1   80.80   54.80   1
  -1 -19  -1  125.00   55.20   1
   1 -19  -1  136.60   55.10   1
  -1  19   1  183.70   55.60   1
  -1  19  -1   21.10   54.50   1
   1 -19   1   58.50   54.60   1
  -1 -19   1   64.10   55.00   1
   1  19  -1   50.90   54.90   1
   1  19   2   19.20   19.40   1
  -1 -19  -2    9.90   19.80   1
   1 -19  -2   17.20   19.30   1
  -1  19   2   15.70   19.80   1
  -1  19  -2   -0.00   18.80   1
   1 -19   2    2.30   19.10   1
  -1 -19   2   -1.40   20.20   1
   1  19  -2   -0.10   20.20   1
   1 -19  -3   39.00   40.30   1
  -1  19   3   40.40   40.50   1
  -1 -19   3   27.00   40.40   1
   1  19  -3   47.30   40.60   1
   1  19   4   58.90   40.30   1
  -1 -19  -4   62.70   40.70   1
   1 -19  -4    9.00   40.70   1
  -1  19   4   27.20   40.60   1
  -1  19  -4   55.40   40.50   1
   1 -19   4   53.30   40.40   1
  -1 -19   4   24.10   40.70   1
   1  19  -4    9.20   40.70   1
   1  19   5   11.00   40.30   1
  -1 -19  -5   42.60   40.30   1
   1 -19  -5   20.90   40.90   1
  -1  19   5   45.10   41.00   1
  -1  19  -5   19.60   40.30   1
   1 -19   5   19.60   40.20   1
  -1 -19   5  248.20   42.80   1
   1  19  -5  190.30   41.90   1
   1  19   6   12.20   29.50   1
  -1 -19  -6   10.70   29.60   1
   1 -19  -6   62.00   31.50   1
  -1  19   6  105.90   32.20   1
  -1  19  -6   13.80   29.50   1
   1 -19   6   31.50   30.30   1
  -1 -19   6   -0.00   30.30   1
   1  19  -6   12.50   30.40   1
   1  19   7   67.80   43.70   1
  -1 -19  -7   62.20   43.50   1
   1 -19  -7   55.50   44.20   1
  -1  19   7  102.50   44.90   1
  -1  19  -7   86.30   43.80   1
   1 -19   7   22.00   43.80   1
  -1 -19   7   -0.20   43.40   1
   1  19  -7   23.40   43.60   1
   1  19   8   -0.00   16.00   1
  -1 -19  -8   -0.00   15.50   1
   1 -19  -8    7.40   16.70   1
  -1  19   8   -0.10   17.30   1
  -1  19  -8   27.20   16.20   1
   1 -19   8   -1.00   17.00   1
  -1 -19   8   -0.00   15.90   1
   1  19   9    5.50   22.20   1
  -1 -19  -9   16.40   21.90   1
   1 -19  -9    8.90   22.80   1
  -1  19   9    7.10   22.50   1
   1 -19   9    7.00   22.20   1
  -1 -19   9   13.80   21.80   1
   1  20   0  193.70   80.00   1
  -1 -20   0  107.80   79.90   1
   1 -20   0  232.80   80.30   1
  -1  20   0  124.20   79.70   1
   1  20   1   -0.30   28.20   1
  -1 -20  -1   23.40   28.50   1
   1 -20  -1   35.80   28.40   1
  -1  20   1   -0.00   28.20   1
  -1  20  -1   -0.00   28.00   1
   1 -20   1    2.00   27.90   1
  -1 -20   1   80.30   29.50   1
   1  20  -1   66.50   28.90   1
   1  20   2   26.00   31.00   1
  -1 -20  -2   19.10   31.40   1
   1 -20  -2   27.90   31.20   1
  -1  20   2   33.40   31.70   1
  -1  20  -2   28.60   31.00   1
   1 -20   2   23.30   30.90   1
  -1 -20   2    4.00   32.00   1
   1  20  -2    5.60   31.80   1
   1  20   3   82.90   48.40   1
  -1 -20  -3  106.30   48.60   1
   1 -20  -3   38.30   48.00   1
  -1  20   3   24.80   48.20   1
  -1  20  -3  150.40   48.80   1
   1 -20   3   76.20   48.30   1
  -1 -20   3   19.70   48.30   1
   1  20  -3   18.50   48.40   1
   1  20   4  207.60   78.50   1
  -1 -20  -4  228.80   78.70   1
   1 -20  -4   98.40   78.00   1
  -1  20   4  117.20   78.20   1
  -1  20  -4  185.40   78.40   1
   1 -20   4  144.20   78.10   1
  -1 -20   4  113.00   78.20   1
   1  20  -4  153.80   78.30   1
   1  20   5    5.60   20.90   1
  -1 -20  -5   12.30   20.90   1
   1 -20  -5   -0.00   21.50   1
  -1  20   5   17.10   21.70   1
  -1  20  -5    5.70   20.60   1
   1 -20   5   -0.00   20.70   1
  -1 -20   5   37.30   21.80   1
   1  20  -5   10.40   22.20   1
   1  20   6   22.80   34.20   1
  -1 -20  -6   25.20   34.30   1
   1 -20  -6   40.60   35.30   1
  -1  20   6   47.40   35.40   1
  -1  20  -6   19.40   34.30   1
   1 -20   6   33.40   34.90   1
  -1 -20   6   22.90   35.30   1
   1  20   7   16.70   32.20   1
  -1 -20  -7   32.10   32.00   1
   1 -20  -7   42.90   33.30   1
  -1  20   7   68.90   33.50   1
  -1  20  -7   18.40   31.90   1
   1 -20   7   -0.10   32.30   1
  -1 -20   7   16.70   32.60   1
   1  20  -7   26.80   32.80   1
   1  20   8   47.20   36.30   1
  -1 -20  -8   45.80   36.10   1
   1 -20  -8   14.70   36.80   1
  -1  20   8   20.70   36.60   1
   1 -20   8   12.00   36.60   1
  -1 -20   8   32.60   36.30   1
   1  21   0   65.20   49.10   1
  -1 -21   0   61.70   49.30   1
   1 -21   0   60.30   48.90   1
  -1  21   0   44.50   48.90   1
   1  21   1   68.80   45.00   1
  -1 -21  -1   86.10   45.50   1
   1 -21  -1   50.30   44.90   1
  -1  21   1   63.40   45.30   1
  -1  21  -1   42.00   44.70   1
   1 -21   1   50.10   44.80   1
  -1 -21   1   19.90   45.50   1
   1  21  -1   19.80   45.00   1
   1  21   2   24.30   29.00   1
  -1 -21  -2    9.50   28.90   1
   1 -21  -2   26.20   28.80   1
  -1  21   2   26.40   29.30   1
  -1  21  -2    0.80   28.50   1
   1 -21   2    9.90   28.80   1
  -1 -21   2   49.20   30.10   1
   1  21  -2   38.60   29.60   1
   1  21   3  528.50  103.40   1
  -1 -21  -3  768.60  106.70   1
   1 -21  -3  141.10   99.80   1
  -1  21   3  166.10  100.00   1
   1 -21   3  450.50  102.20   1
  -1 -21   3  296.40  100.70   1
   1  21  -3  230.20  100.40   1
   1  21   4   64.20   44.50   1
  -1 -21  -4   94.30   45.00   1
   1 -21  -4   14.50   44.30   1
  -1  21   4   -0.00   44.40   1
  -1  21  -4  134.20   45.10   1
   1 -21   4   72.80   44.50   1
  -1 -21   4   35.20   44.60   1
   1  21  -4   43.60   44.70   1
   1  21   5   11.30   29.50   1
  -1 -21  -5   10.10   29.60   1
   1 -21  -5   40.40   30.50   1
  -1  21   5  111.40   31.40   1
  -1  21  -5   15.80   29.50   1
   1 -21   5   17.00   29.60   1
  -1 -21   5   23.30   30.40   1
   1  21  -5    0.80   30.30   1
   1  21   6   -0.00   20.60   1
  -1 -21  -6   10.30   20.60   1
   1 -21  -6   16.70   22.10   1
  -1  21   6   -0.20   22.20   1
   1 -21   6    7.40   21.10   1
  -1 -21   6   27.90   22.00   1
   1  21   7   38.70   46.00   1
  -1 -21  -7   31.70   45.80   1
   1 -21  -7  164.10   48.00   1
  -1  21   7   70.20   47.20   1
   1 -21   7   55.60   46.40   1
   1  22   0   39.60   53.00   1
  -1 -22   0   33.00   53.20   1
   1 -22   0  107.50   53.30   1
  -1  22   0  153.00   53.80   1
   1  22   1    8.20   14.10   1
  -1 -22  -1    9.60   14.70   1
   1 -22  -1    8.40   13.50   1
  -1  22   1   -1.10   14.20   1
  -1  22  -1   -0.00   13.20   1
   1 -22   1   -0.00   13.40   1
  -1 -22   1   -0.00   15.60   1
   1  22  -1   -0.00   14.40   1
   1  22   2   32.40   43.90   1
  -1 -22  -2   33.70   44.10   1
   1 -22  -2   30.30   43.80   1
  -1  22   2   35.10   44.10   1
  -1  22  -2   68.30   44.10   1
   1 -22   2   22.50   43.80   1
  -1 -22   2  134.40   45.30   1
   1  22  -2  121.50   45.00   1
   1  22   3   49.60   37.60   1
  -1 -22  -3   76.10   38.10   1
   1 -22  -3   29.00   37.40   1
  -1  22   3   14.80   37.70   1
  -1  22  -3  159.10   39.00   1
   1 -22   3   -0.00   37.60   1
  -1 -22   3   -0.20   37.90   1
   1  22  -3   30.50   38.00   1
   1  22   4  113.60   53.20   1
  -1 -22  -4  100.50   53.10   1
   1 -22  -4   40.20   52.90   1
  -1  22   4   44.90   52.80   1
  -1  22  -4   80.80   53.00   1
   1 -22   4  157.60   53.70   1
  -1 -22   4   37.90   53.10   1
   1  22  -4   32.60   53.10   1
   1  22   5   17.20   15.30   1
  -1 -22  -5   -0.00   15.00   1
   1 -22  -5   -0.00   16.40   1
  -1  22   5    5.20   17.00   1
   1 -22   5   -0.00   15.00   1
  -1 -22   5   -0.00   17.10   1
   1  23   0   -0.00   31.00   1
  -1 -23   0   22.70   31.90   1
   1 -23   0   35.30   30.90   1
  -1  23   0   34.30   31.40   1
   1  23   1   50.00   41.40   1
  -1 -23  -1   63.10   41.70   1
   1 -23  -1   15.30   41.20   1
  -1  23   1   27.20   41.70   1
  -1  23  -1   78.20   41.70   1
   1 -23   1   70.70   41.50   1
  -1 -23   1   22.90   42.00   1
   1  23  -1   22.30   41.40   1
   1  23   2    3.00   28.80   1
  -1 -23  -2    4.30   29.00   1
   1 -23  -2   29.90   28.90   1
  -1  23   2   35.90   29.70   1
  -1  23  -2   36.20   29.20   1
   1 -23   2   10.80   28.70   1
  -1 -23   2   21.50   29.70   1
   1  23  -2   25.70   29.50   1
   1  23   3  423.40  131.20   1
  -1 -23  -3  459.10  131.50   1
   1 -23  -3  290.30  130.00   1
  -1  23   3  324.10  130.40   1
  -1  23  -3 1163.70  146.60   1
   1 -23   3  446.90  131.40   1
  -1 -23   3  355.20  130.30   1
   1  23  -3  359.60  130.50   1
   2   0   4 2328.60  389.00   1
  -2   0  -4 2259.70  389.00   1
   2   0   5 1583.30  288.60   1
  -2   0  -5 1407.40  287.90   1
   2   0   6  193.80   91.90   1
  -2   0  -6  207.70   91.90   1
   2   0   7  487.20  159.50   1
  -2   0  -7  647.00  159.80   1
   2   0   8  518.70  154.30   1
  -2   0  -8  524.80  154.40   1
   2   0   9  649.90  178.10   1
  -2   0  -9  698.60  178.40   1
   2   0  10  332.20  117.70   1
  -2   0 -10  308.20  117.60   1
   2   0  11   29.90   46.00   1
  -2   0 -11   91.00   46.00   1
   2   0  12  108.50   51.50   1
  -2   0 -12   49.80   51.30   1
   2   0  13   59.90   46.70   1
  -2   0 -13   49.70   46.30   1
   2   0  14  296.80  114.70   1
  -2   0 -14  304.40  114.50   1
   2   0  15   38.80   35.50   1
  -2   0 -15   24.70   35.40   1
   2   0  16  266.40   47.80   1
  -2   0 -16   35.60   44.70   1
   2   1   2  686.20  181.10   1
  -2  -1  -2  682.70  181.40   1
   2   1   3  365.00  121.90   1
  -2  -1  -3  319.50  121.90   1
   2   1   4  201.30   85.70   1
  -2  -1  -4  156.30   85.70   1
   2   1   5  108.80   63.30   1
  -2  -1  -5   89.00   63.30   1
   2   1   6   28.00   41.40   1
  -2  -1  -6   59.60   41.40   1
   2   1   7  155.20   88.40   1
  -2  -1  -7  240.80   88.60   1
   2   1   8   39.70   47.20   1
  -2  -1  -8  100.20   47.20   1
  -2   1  -8   54.50   47.00   1
   2  -1   8   49.20   47.00   1
   2   1   9  108.60   70.70   1
  -2  -1  -9  126.20   70.70   1
  -2   1  -9  109.90   70.60   1
   2  -1   9  161.00   70.70   1
   2   1  10   16.50   41.00   1
  -2  -1 -10   57.10   41.10   1
   2  -1  10   76.50   41.10   1
   2   1  11   42.60   51.80   1
  -2  -1 -11   60.90   51.80   1
  -2   1 -11   86.70   51.80   1
   2  -1  11   88.80   51.90   1
   2   1  12   30.20   38.60   1
  -2  -1 -12   24.60   38.60   1
   2  -1 -12    7.00   38.70   1
  -2   1 -12  121.00   39.00   1
   2  -1  12   91.80   38.90   1
   2   1  13   19.30   32.30   1
  -2  -1 -13   15.80   32.20   1
   2  -1 -13    7.10   32.40   1
  -2   1 -13  104.80   33.00   1
   2  -1  13   43.80   32.50   1
   2   1  14   43.60   30.60   1
  -2  -1 -14   17.50   30.30   1
   2  -1 -14   13.40   30.60   1
  -2   1 -14   51.90   30.70   1
   2  -1  14    7.00   30.40   1
   2   1  15   18.20   22.20   1
  -2  -1 -15    6.40   21.80   1
   2  -1 -15   -0.00   22.10   1
  -2   1 -15   43.70   22.10   1
   2  -1  15    0.60   22.10   1
   2   1  16    1.20   19.10   1
  -2  -1 -16   14.40   18.10   1
   2  -1 -16    3.10   18.30   1
  -2   1 -16   10.80   18.10   1
   2  -1  16    1.30   18.40   1
   2   2   0 1097.70  227.20   1
  -2  -2   0 1022.90  226.70   1
   2  -2   0  875.50  223.30   1
  -2   2   0 1055.90  224.20   1
   2   2   1  127.30   75.10   1
  -2  -2  -1  118.60   75.10   1
   2  -2  -1  169.30   75.50   1
  -2   2   1  151.90   75.50   1
  -2   2  -1  169.70   75.40   1
   2  -2   1  142.80   75.40   1
   2   2   2  195.00   93.60   1
  -2  -2  -2  236.50   93.60   1
   2  -2  -2  204.80   94.00   1
  -2   2   2  240.10   94.20   1
  -2   2  -2  191.00   93.70   1
   2  -2   2  197.90   93.80   1
   2   2   3  246.70   59.80   1
  -2  -2  -3   87.70   59.60   1
   2  -2  -3  148.30   60.40   1
  -2   2   3  125.80   60.40   1
  -2   2  -3   61.30   59.60   1
   2  -2   3   43.40   59.60   1
   2   2   4  166.60   85.80   1
  -2  -2  -4  200.10   85.80   1
   2  -2  -4  138.40   86.30   1
  -2   2   4  179.50   86.40   1
  -2   2  -4  176.20   85.90   1
   2  -2   4  177.00   85.80   1
   2   2   5   98.30   69.00   1
  -2  -2  -5  116.60   69.00   1
   2  -2  -5  155.20   69.80   1
  -2   2   5  291.10   70.40   1
  -2   2  -5  111.00   69.00   1
   2  -2   5  112.80   69.00   1
   2   2   6  109.20   65.20   1
  -2  -2  -6   95.20   65.20   1
   2  -2  -6  138.80   66.00   1
  -2   2   6   86.80   65.80   1
   2   2   7  128.40   63.20   1
  -2  -2  -7   97.50   63.10   1
   2  -2  -7   90.70   64.10   1
  -2   2   7   46.80   63.50   1
   2   2   8   59.20   55.80   1
  -2  -2  -8  265.50   56.40   1
   2  -2  -8  158.70   57.30   1
  -2   2   8   31.10   56.10   1
   2   2   9   70.90   49.90   1
  -2  -2  -9   49.70   49.90   1
   2  -2  -9   67.40   51.00   1
  -2   2   9   62.00   50.30   1
   2   2  10  142.70   50.00   1
  -2  -2 -10   65.40   49.90   1
   2  -2 -10   59.80   51.00   1
  -2   2  10    0.00   50.00   1
   2   2  11   27.40   36.10   1
  -2  -2 -11   44.60   36.20   1
   2  -2 -11   78.80   38.30   1
  -2   2  11    7.80   36.60   1
   2   2  12   36.00   38.80   1
  -2  -2 -12   42.50   38.80   1
   2  -2 -12   54.40   40.40   1
  -2   2  12   20.70   39.20   1
   2   2  13   59.80   34.60   1
  -2  -2 -13   13.20   34.40   1
   2  -2 -13   48.00   36.10   1
  -2   2  13    4.80   34.80   1
  -2   2 -13   43.70   34.60   1
   2   2  14   53.20   42.00   1
  -2  -2 -14   47.40   42.00   1
   2  -2 -14   61.80   43.40   1
  -2   2  14   10.70   42.10   1
  -2   2 -14   71.90   42.40   1
   2   2  15   13.50   27.90   1
  -2  -2 -15   18.20   27.90   1
   2  -2 -15   55.20   29.80   1
  -2   2  15    8.80   28.10   1
  -2   2 -15   29.50   28.10   1
   2   3   0 1442.20  254.00   1
  -2  -3   0 1347.70  253.80   1
   2  -3   0 1172.40  253.50   1
  -2   3   0 1012.00  253.00   1
   2   3   1   98.80   73.10   1
  -2  -3  -1  119.30   73.10   1
   2  -3  -1  145.40   73.40   1
  -2   3   1  216.90   73.50   1
  -2   3  -1  154.40   73.50   1
   2  -3   1  174.00   73.60   1
   2   3   2 1409.10  272.10   1
  -2  -3  -2 1540.90  272.50   1
   2  -3  -2 1210.60  272.50   1
  -2   3   2 1312.50  272.90   1
  -2   3  -2 1236.30  272.20   1
   2  -3   2 1456.70  272.70   1
  -2  -3   2 1273.40  279.00   1
   2   3  -2 1314.50  278.30   1
   2   3   3 1340.30  249.80   1
  -2  -3  -3 1261.70  249.60   1
   2  -3  -3 1222.60  250.60   1
  -2   3   3 1240.90  250.50   1
  -2   3  -3 1454.40  250.90   1
   2  -3   3  887.20  249.10   1
   2   3   4  466.50  152.60   1
  -2  -3  -4  713.40  153.20   1
   2  -3  -4  439.70  152.90   1
  -2   3   4  574.70  153.20   1
  -2   3  -4  496.90  152.70   1
   2  -3   4  516.10  152.80   1
   2   3   5  453.00  144.40   1
  -2  -3  -5  699.90  145.10   1
   2  -3  -5  399.80  144.50   1
  -2   3   5  418.50  144.60   1
  -2   3  -5  504.00  144.40   1
   2  -3   5  438.10  144.30   1
   2   3   6   59.80   56.90   1
  -2  -3  -6   78.00   57.00   1
   2  -3  -6   74.00   57.30   1
  -2   3   6   35.70   57.20   1
  -2   3  -6  108.60   56.80   1
   2  -3   6   83.40   56.80   1
   2   3   7  315.00  141.10   1
  -2  -3  -7  422.80  141.30   1
   2  -3  -7  503.30  141.90   1
  -2   3   7  590.80  142.60   1
  -2   3  -7 1178.40  144.40   1
   2  -3   7  503.20  141.40   1
   2   3   8  146.50   69.90   1
  -2  -3  -8  139.80   69.90   1
   2  -3  -8   78.00   70.10   1
  -2   3   8   92.80   70.30   1
   2   3   9  218.40   63.20   1
  -2  -3  -9  145.20   62.90   1
   2  -3  -9   62.10   63.10   1
  -2   3   9   37.60   62.90   1
   2   3  10  103.00   57.40   1
  -2  -3 -10  133.40   57.60   1
   2  -3 -10   55.00   57.70   1
  -2   3  10   31.20   57.60   1
   2   3  11  269.40   62.60   1
  -2  -3 -11   71.00   62.00   1
   2  -3 -11   88.70   62.50   1
  -2   3  11   56.20   62.40   1
   2   3  12   37.80   40.60   1
  -2  -3 -12   64.80   40.70   1
   2  -3 -12   28.20   41.00   1
  -2   3  12   21.60   41.10   1
   2   3  13   21.50   27.70   1
  -2  -3 -13   25.40   27.70   1
   2  -3 -13    3.60   28.10   1
  -2   3  13   14.60   28.40   1
  -2  -3 -14   14.70   22.20   1
   2  -3 -14    8.10   22.70   1
  -2   3  14    8.70   23.20   1
   2   3  15   28.70   23.70   1
  -2  -3 -15   11.50   23.50   1
   2  -3 -15    4.00   24.00   1
  -2   3  15   -0.00   24.50   1
   2   4   0  775.90  207.50   1
  -2  -4   0  820.60  207.60   1
   2  -4   0 1100.30  208.70   1
  -2   4   0  989.70  208.40   1
   2   4   1  202.30   65.30   1
  -2  -4  -1  146.80   65.20   1
   2  -4  -1  493.60   66.60   1
  -2   4   1  556.30   66.90   1
  -2   4  -1  191.10   65.30   1
   2  -4   1  117.70   65.10   1
  -2  -4   1   54.30   65.00   1
   2   4  -1   38.70   65.00   1
   2   4   2   83.40   64.90   1
  -2  -4  -2  112.80   64.90   1
   2  -4  -2  186.90   65.40   1
  -2   4   2  264.90   65.70   1
  -2   4  -2   64.80   64.90   1
   2  -4   2  139.10   65.00   1
  -2  -4   2  100.60   64.90   1
   2   4  -2   90.00   64.90   1
   2   4   3   28.80   41.50   1
  -2  -4  -3   25.20   41.50   1
   2  -4  -3   47.80   42.10   1
  -2   4   3   33.80   42.20   1
  -2   4  -3   44.80   41.50   1
   2  -4   3  155.80   41.60   1
  -2  -4   3   54.50   41.60   1
   2   4  -3   15.60   41.50   1
   2   4   4  174.20   73.20   1
  -2  -4  -4  157.40   73.10   1
   2  -4  -4  192.70   73.80   1
  -2   4   4  243.90   73.90   1
  -2   4  -4  117.50   72.90   1
   2  -4   4   99.90   72.90   1
  -2  -4   4   94.70   73.20   1
   2   4  -4  122.20   73.20   1
   2   4   5   45.30   59.90   1
  -2  -4  -5   52.60   59.90   1
  -2   4   5  183.40   60.60   1
  -2   4  -5  104.40   59.80   1
   2  -4   5  125.30   59.90   1
   2   4   6   81.90   54.20   1
  -2  -4  -6   68.00   54.30   1
   2  -4  -6   64.00   55.00   1
  -2   4   6   48.10   54.70   1
  -2   4  -6  118.60   54.20   1
   2  -4   6   54.90   54.10   1
   2   4   7   65.60   59.80   1
  -2  -4  -7   69.40   59.80   1
   2  -4  -7  327.80   61.40   1
  -2   4   7   80.60   60.20   1
  -2   4  -7   99.30   59.70   1
   2  -4   7   93.90   59.70   1
   2   4   8  185.20   50.80   1
  -2  -4  -8   31.90   50.40   1
   2  -4  -8   69.20   51.10   1
  -2   4   8   98.90   51.00   1
  -2   4  -8  110.50   50.40   1
   2  -4   8   39.20   50.30   1
   2   4   9   49.90   44.10   1
  -2  -4  -9   25.90   44.00   1
   2  -4  -9  211.20   45.40   1
  -2   4   9   82.30   44.60   1
  -2   4  -9   28.00   43.80   1
   2  -4   9   82.70   43.80   1
   2   4  10   51.40   39.10   1
  -2  -4 -10   62.70   39.20   1
   2  -4 -10   51.40   39.60   1
  -2   4  10   -1.90   39.20   1
  -2   4 -10   43.00   38.60   1
   2  -4  10   29.70   38.60   1
   2   4  11   26.30   38.20   1
  -2  -4 -11   22.10   38.20   1
   2  -4 -11   66.70   38.80   1
  -2   4  11   49.20   38.70   1
   2   4  12   55.10   30.50   1
  -2  -4 -12    4.80   30.30   1
   2  -4 -12   11.80   30.70   1
  -2   4  12   25.40   31.00   1
   2   4  13   10.90   32.90   1
  -2  -4 -13   39.60   33.10   1
   2  -4 -13   27.80   33.40   1
  -2   4  13   44.30   33.80   1
   2   4  14   38.90   37.80   1
  -2  -4 -14   33.00   37.80   1
   2  -4 -14   21.70   38.00   1
  -2   4  14   54.10   38.60   1
   2   4  15   11.00   23.10   1
  -2  -4 -15   12.30   23.00   1
   2  -4 -15    4.70   23.50   1
  -2   4  15   28.80   24.00   1
   2   5   0 2339.40  393.80   1
  -2  -5   0 2346.60  393.80   1
   2  -5   0 2432.80  395.30   1
  -2   5   0 2350.80  394.90   1
   2   5   1   43.70   51.70   1
  -2  -5  -1   73.40   51.80   1
   2  -5  -1   77.80   51.80   1
  -2   5   1   58.10   51.80   1
  -2   5  -1  185.60   51.90   1
   2  -5   1  144.60   51.80   1
  -2  -5   1   43.00   51.70   1
   2   5  -1   24.90   51.70   1
   2   5   2 1575.60  278.40   1
  -2  -5  -2 1550.90  278.20   1
   2  -5  -2 1467.60  277.80   1
  -2   5   2 1421.90  277.80   1
  -2   5  -2 1343.90  277.50   1
   2  -5   2 1552.10  278.20   1
  -2  -5   2 1153.10  277.30   1
   2   5  -2 1292.00  277.70   1
   2   5   3  764.40  164.70   1
  -2  -5  -3  559.20  164.20   1
   2  -5  -3  412.90  164.10   1
  -2   5   3  664.20  164.80   1
  -2   5  -3  512.00  164.20   1
   2  -5   3  672.90  164.40   1
  -2  -5   3  700.90  164.80   1
   2   5  -3  705.70  164.70   1
   2   5   4 1747.30  235.70   1
  -2  -5  -4 1008.80  233.00   1
   2  -5  -4 1191.60  233.70   1
  -2   5   4 1129.40  233.40   1
  -2   5  -4  866.70  232.40   1
   2  -5   4 1127.40  233.30   1
  -2  -5   4 1075.80  233.60   1
   2   5  -4  922.90  232.80   1
   2   5   5  214.20   99.60   1
  -2  -5  -5  202.10   99.60   1
   2  -5  -5  205.60   99.70   1
  -2   5   5  208.30   99.80   1
  -2   5  -5  728.50  101.00   1
  -2  -5   5  249.20   99.80   1
   2   5  -5  254.30   99.70   1
   2   5   6  534.70   92.40   1
  -2  -5  -6  241.80   91.70   1
   2  -5  -6  187.80   91.80   1
  -2   5   6  148.00   91.80   1
  -2   5  -6  281.10   91.70   1
   2  -5   6  187.40   91.40   1
   2   5  -6  103.20   91.50   1
   2   5   7  820.20  242.00   1
  -2  -5  -7 1045.10  242.40   1
   2  -5  -7 1242.50  243.60   1
  -2   5   7 1878.80  248.20   1
  -2   5  -7 1408.80  244.40   1
   2  -5   7 1259.70  242.90   1
   2   5   8  237.80   63.10   1
  -2  -5  -8   60.40   62.60   1
   2  -5  -8   36.50   63.40   1
  -2   5   8   48.20   63.50   1
  -2   5  -8  145.30   62.60   1
   2  -5   8   94.90   62.60   1
   2   5   9  372.40  127.70   1
  -2  -5  -9  746.10  129.30   1
   2  -5  -9  343.80  128.20   1
  -2   5   9  332.70  128.00   1
  -2   5  -9  394.60  127.50   1
   2  -5   9  322.80  127.30   1
   2   5  10  180.40   89.50   1
  -2  -5 -10  169.50   89.40   1
   2  -5 -10  170.40   90.30   1
  -2   5  10  303.90   90.40   1
  -2   5 -10  158.30   89.10   1
   2  -5  10  257.10   89.30   1
   2   5  11  603.50  173.50   1
  -2  -5 -11  848.10  175.40   1
   2  -5 -11  791.60  175.30   1
  -2   5  11  513.70  173.40   1
  -2   5 -11  592.50  172.90   1
   2  -5  11  729.00  173.80   1
   2   5  12   75.40   60.90   1
  -2  -5 -12  105.10   60.90   1
   2  -5 -12  323.20   63.40   1
  -2   5  12  146.30   61.50   1
  -2   5 -12   73.00   60.50   1
   2  -5  12   86.10   60.60   1
   2   5  13   70.10   52.50   1
  -2  -5 -13   33.90   52.40   1
   2  -5 -13   45.20   53.30   1
  -2   5  13   90.10   52.90   1
  -2   5 -13  127.10   52.50   1
   2   5  14   81.20   57.00   1
  -2  -5 -14   87.80   57.10   1
   2  -5 -14  111.40   57.90   1
  -2   5  14   51.30   57.20   1
   2   5  15  124.70   61.80   1
  -2  -5 -15   69.60   61.70   1
   2  -5 -15   72.30   62.30   1
  -2   5  15  124.90   62.50   1
   2   6   0  263.10   94.50   1
  -2  -6   0  304.70   94.60   1
   2  -6   0  187.30   94.30   1
  -2   6   0  171.20   94.30   1
   2   6   1  485.30   61.40   1
  -2  -6  -1  392.10   61.00   1
   2  -6  -1   36.10   60.30   1
  -2   6   1   35.80   60.30   1
  -2   6  -1   52.30   60.20   1
   2  -6   1   54.70   60.20   1
  -2  -6   1  349.00   60.80   1
   2   6  -1  180.50   60.40   1
   2   6   2  174.60   85.20   1
  -2  -6  -2  183.10   85.20   1
   2  -6  -2  206.90   85.30   1
  -2   6   2  202.50   85.30   1
  -2   6  -2  140.40   85.10   1
   2  -6   2  161.10   85.10   1
  -2  -6   2  174.60   85.20   1
   2   6  -2  177.00   85.20   1
   2   6   3   57.00   50.60   1
  -2  -6  -3   44.10   50.60   1
   2  -6  -3   52.10   50.50   1
  -2   6   3   29.90   50.50   1
  -2   6  -3  132.00   50.60   1
   2  -6   3  129.10   50.70   1
  -2  -6   3   81.90   50.50   1
   2   6  -3   37.00   50.40   1
   2   6   4  120.20   61.70   1
  -2  -6  -4   86.40   61.60   1
   2  -6  -4   76.30   61.60   1
  -2   6   4   64.20   61.60   1
  -2   6  -4   71.60   61.50   1
   2  -6   4  131.00   61.60   1
  -2  -6   4   86.50   61.50   1
   2   6  -4  123.20   61.50   1
   2   6   5  192.60   57.70   1
  -2  -6  -5  176.50   57.80   1
   2  -6  -5  185.90   57.80   1
  -2   6   5  113.20   57.60   1
  -2   6  -5   67.60   57.40   1
   2  -6   5   48.00   57.30   1
  -2  -6   5   53.30   57.30   1
   2   6  -5   51.30   57.30   1
   2   6   6  900.40  218.60   1
  -2  -6  -6 1043.30  219.20   1
   2  -6  -6 1065.00  219.20   1
  -2   6   6 1303.90  220.50   1
  -2   6  -6 1155.90  219.60   1
   2  -6   6  892.40  218.80   1
  -2  -6   6  798.90  219.10   1
   2   6  -6  742.40  218.60   1
   2   6   7   53.70   54.70   1
  -2  -6  -7   76.40   54.80   1
   2  -6  -7   81.60   55.00   1
  -2   6   7  166.90   55.40   1
  -2   6  -7   74.70   54.60   1
   2  -6   7   51.10   54.60   1
  -2  -6   7  161.80   55.30   1
   2   6  -7   73.30   54.70   1
   2   6   8   85.70   52.30   1
  -2  -6  -8   72.10   52.20   1
   2  -6  -8   60.20   52.60   1
  -2   6   8   66.30   52.80   1
  -2   6  -8   75.80   52.10   1
   2  -6   8   51.80   52.20   1
   2   6  -8   53.70   52.20   1
   2   6   9   83.50   37.50   1
  -2  -6  -9   73.70   37.40   1
   2  -6  -9   55.60   37.90   1
  -2   6   9   31.80   38.20   1
  -2   6  -9   20.00   37.10   1
   2  -6   9   13.20   37.00   1
   2   6  10   31.60   35.50   1
  -2  -6 -10   33.80   35.40   1
   2  -6 -10   43.20   36.20   1
  -2   6  10    2.20   36.30   1
  -2   6 -10   39.20   35.10   1
   2  -6  10   24.30   35.00   1
   2   6  11   36.10   42.20   1
  -2  -6 -11   53.60   42.40   1
   2  -6 -11   54.00   42.90   1
  -2   6  11   11.50   43.20   1
  -2   6 -11   26.90   41.70   1
   2  -6  11   75.10   41.80   1
   2   6  12    9.20   34.60   1
  -2  -6 -12   32.60   34.80   1
   2  -6 -12   13.80   35.70   1
  -2   6  12   36.80   35.80   1
  -2   6 -12   55.00   34.20   1
   2  -6  12   20.20   34.10   1
   2   6  13   19.40   25.20   1
  -2  -6 -13    8.50   25.10   1
   2  -6 -13   26.90   26.70   1
  -2   6  13   25.70   26.50   1
  -2   6 -13   15.60   24.40   1
   2  -6  13   12.00   24.50   1
   2   6  14   25.40   30.40   1
  -2  -6 -14    4.20   30.30   1
   2  -6 -14   27.00   31.90   1
  -2   6  14   15.50   31.30   1
  -2   6 -14   23.30   29.80   1
   2  -6  14   32.40   30.00   1
   2   6  15   14.70   26.50   1
  -2  -6 -15   20.40   26.60   1
   2  -6 -15   -0.30   28.30   1
  -2   6  15   17.00   27.20   1
  -2   6 -15   17.80   26.00   1
   2   7   0  213.10   93.40   1
  -2  -7   0  182.10   93.30   1
   2  -7   0  222.70   93.40   1
  -2   7   0  217.60   93.40   1
   2   7   1   54.60   41.10   1
  -2  -7  -1   63.50   41.20   1
   2  -7  -1   52.80   41.20   1
  -2   7   1   46.80   41.20   1
  -2   7  -1   21.70   41.20   1
   2  -7   1   34.70   41.30   1
  -2  -7   1   29.70   41.20   1
   2   7  -1   31.00   41.20   1
   2   7   2  198.70   79.60   1
  -2  -7  -2  209.70   79.60   1
   2  -7  -2   98.80   79.40   1
  -2   7   2  108.40   79.40   1
  -2   7  -2  154.20   79.50   1
   2  -7   2  112.30   79.50   1
  -2  -7   2  332.60   79.80   1
   2   7  -2  182.30   79.50   1
   2   7   3  132.20   60.40   1
  -2  -7  -3   80.40   60.30   1
   2  -7  -3   76.30   60.20   1
  -2   7   3   55.90   60.20   1
  -2   7  -3   62.00   60.20   1
   2  -7   3  106.20   60.30   1
  -2  -7   3  116.70   60.20   1
   2   7  -3  100.80   60.20   1
   2   7   4  137.30   74.10   1
  -2  -7  -4  151.70   74.10   1
   2  -7  -4  159.20   74.00   1
  -2   7   4  181.10   74.10   1
  -2   7  -4  321.00   74.40   1
   2  -7   4  154.30   74.00   1
  -2  -7   4  108.40   73.90   1
   2   7  -4   69.10   73.80   1
   2   7   5   91.60   63.40   1
  -2  -7  -5  100.40   63.50   1
   2  -7  -5   85.50   63.40   1
  -2   7   5   57.20   63.40   1
  -2   7  -5  105.90   63.40   1
   2  -7   5   96.30   63.30   1
  -2  -7   5   98.30   63.30   1
   2   7  -5  172.50   63.40   1
   2   7   6   37.60   36.70   1
  -2  -7  -6   38.10   36.80   1
   2  -7  -6   -2.70   36.60   1
  -2   7   6   45.70   36.80   1
  -2   7  -6   62.00   36.50   1
   2  -7   6   27.20   36.40   1
  -2  -7   6   26.70   36.50   1
   2   7  -6   34.00   36.50   1
   2   7   7  121.30   56.50   1
  -2  -7  -7  162.70   56.70   1
   2  -7  -7   55.90   56.60   1
  -2   7   7  164.20   56.80   1
  -2   7  -7  117.10   56.40   1
   2  -7   7   77.30   56.30   1
  -2  -7   7   43.50   56.30   1
   2   7  -7   25.40   56.30   1
   2   7   8   75.70   56.40   1
  -2  -7  -8   98.40   56.50   1
   2  -7  -8   62.60   56.70   1
  -2   7   8   74.60   56.70   1
  -2   7  -8   85.60   56.30   1
   2  -7   8   95.60   56.50   1
  -2  -7   8   64.80   56.50   1
   2   7  -8   60.30   56.40   1
   2   7   9   62.90   65.50   1
  -2  -7  -9  154.80   65.60   1
   2  -7  -9  175.20   66.00   1
  -2   7   9  105.90   65.90   1
  -2   7  -9  160.50   65.60   1
   2  -7   9   71.90   65.40   1
  -2  -7   9  285.30   68.10   1
   2   7  -9   75.40   65.50   1
   2   7  10   28.20   46.70   1
  -2  -7 -10   37.60   46.70   1
   2  -7 -10   43.80   47.00   1
  -2   7  10   75.00   47.40   1
  -2   7 -10   57.30   46.60   1
   2  -7  10   82.40   46.50   1
   2   7 -10   45.80   46.70   1
   2   7  11   71.20   41.80   1
  -2  -7 -11  158.90   42.20   1
   2  -7 -11   42.60   41.90   1
  -2   7  11   32.10   42.00   1
  -2   7 -11   28.90   41.10   1
   2  -7  11   32.30   41.00   1
   2   7  12   23.20   39.30   1
  -2  -7 -12   50.80   39.50   1
   2  -7 -12   43.90   39.60   1
  -2   7  12   44.90   40.20   1
  -2   7 -12   20.40   38.90   1
   2  -7  12   63.60   38.90   1
   2   7  13   48.60   53.80   1
  -2  -7 -13   83.20   54.00   1
   2  -7 -13   58.10   54.10   1
  -2   7  13   47.30   54.50   1
  -2   7 -13   72.40   53.50   1
   2  -7  13   87.20   53.50   1
   2   7  14   -0.20   19.10   1
  -2  -7 -14   -0.00   19.10   1
   2  -7 -14   -0.00   19.80   1
  -2   7  14   -0.10   20.80   1
  -2   7 -14   19.50   18.30   1
   2  -7  14    5.70   18.20   1
   2   7  15   29.90   23.00   1
  -2  -7 -15   13.60   22.90   1
   2  -7 -15   15.20   23.90   1
  -2   7  15   19.80   25.10   1
  -2   7 -15    5.50   22.10   1
   2  -7  15   15.00   22.20   1
   2   8   0 1195.10  274.50   1
  -2  -8   0 1353.30  275.00   1
   2  -8   0 1660.00  275.60   1
  -2   8   0 1396.60  274.80   1
   2   8   1  360.30   71.20   1
  -2  -8  -1  397.00   71.30   1
   2  -8  -1   78.90   70.60   1
  -2   8   1   78.50   70.60   1
  -2   8  -1   91.40   70.70   1
   2  -8   1   87.00   70.70   1
  -2  -8   1  137.80   70.60   1
   2   8  -1  141.70   70.60   1
   2   8   2  587.80  156.80   1
  -2  -8  -2  585.30  156.80   1
   2  -8  -2  480.70  156.50   1
  -2   8   2  470.20  156.50   1
  -2   8  -2  519.80  156.70   1
   2  -8   2  522.80  156.70   1
  -2  -8   2  596.20  156.80   1
   2   8  -2  587.90  156.80   1
   2   8   3   56.10   64.80   1
  -2  -8  -3   95.10   64.90   1
   2  -8  -3  152.10   64.90   1
  -2   8   3   79.70   64.70   1
  -2   8  -3   93.30   64.90   1
   2  -8   3  129.20   65.00   1
  -2  -8   3  272.70   65.10   1
   2   8  -3   70.40   64.70   1
   2   8   4 1695.90  286.40   1
  -2  -8  -4 1672.70  286.00   1
   2  -8  -4 1516.00  285.00   1
  -2   8   4 1405.10  284.80   1
  -2   8  -4 1604.20  286.70   1
   2  -8   4 1587.20  286.80   1
  -2  -8   4 1385.80  285.10   1
   2   8  -4 1160.20  284.30   1
   2   8   5   75.80   51.70   1
  -2  -8  -5  100.00   51.80   1
   2  -8  -5   24.20   51.40   1
  -2   8   5   34.30   51.50   1
  -2   8  -5  297.80   52.40   1
   2  -8   5   72.90   51.50   1
  -2  -8   5   65.00   51.40   1
   2   8  -5   63.00   51.40   1
   2  -8  -6  198.60   63.80   1
  -2   8   6  186.80   63.80   1
  -2   8  -6  328.20   64.20   1
  -2  -8   6   54.80   63.40   1
   2   8  -6   52.10   63.40   1
   2   8   7  231.40  117.80   1
  -2  -8  -7  353.10  118.00   1
   2  -8  -7  360.70  118.20   1
  -2   8   7  506.00  118.60   1
  -2   8  -7  312.20  117.90   1
   2  -8   7  236.70  117.70   1
  -2  -8   7  418.80  118.20   1
   2   8  -7  460.60  118.20   1
   2   8   8   90.60   51.10   1
  -2  -8  -8   55.70   51.00   1
   2  -8  -8   70.80   51.20   1
  -2   8   8   30.00   51.10   1
  -2   8  -8   90.70   51.00   1
   2  -8   8  186.50   51.40   1
  -2  -8   8   29.00   50.90   1
   2   8  -8   52.80   50.90   1
   2   8   9  303.50  126.30   1
  -2  -8  -9  223.50  126.00   1
   2  -8  -9  459.30  126.80   1
  -2   8   9  626.60  127.40   1
  -2   8  -9  509.30  126.90   1
   2  -8   9  894.20  128.70   1
  -2  -8   9  390.30  126.90   1
   2   8  -9  309.70  126.30   1
   2   8  10  134.50   66.70   1
  -2  -8 -10  335.80   67.70   1
   2  -8 -10   91.30   66.60   1
  -2   8  10   96.60   66.70   1
  -2   8 -10   87.70   66.30   1
   2  -8  10   96.70   66.30   1
  -2  -8  10  114.30   66.60   1
   2   8 -10  104.70   66.50   1
   2   8  11   58.40   55.40   1
  -2  -8 -11   30.70   55.10   1
   2  -8 -11   41.00   55.30   1
  -2   8  11   85.30   55.50   1
  -2   8 -11  356.40   56.30   1
   2  -8  11   75.30   54.90   1
  -2  -8  11  221.30   58.40   1
   2   8 -11  240.80   56.90   1
   2  -8 -12   97.90   44.40   1
  -2   8  12   39.80   44.20   1
  -2   8 -12   48.10   43.40   1
   2  -8  12   42.50   43.50   1
   2   8 -12   32.60   43.60   1
   2   8  13   27.60   50.60   1
  -2  -8 -13   70.50   50.90   1
   2  -8 -13   40.30   50.70   1
  -2   8  13  277.40   52.70   1
  -2   8 -13   60.00   50.20   1
   2  -8  13   74.20   50.30   1
   2   8  14   99.50   65.10   1
  -2  -8 -14   98.70   65.10   1
   2  -8 -14  179.80   65.70   1
  -2   8  14  119.50   65.50   1
  -2   8 -14   84.90   64.60   1
   2  -8  14   98.30   64.60   1
   2   8  15    9.30   30.70   1
  -2  -8 -15    1.10   30.60   1
   2  -8 -15   16.20   31.00   1
  -2   8  15   17.00   31.60   1
  -2   8 -15   30.50   30.20   1
   2  -8  15   33.30   30.10   1
   2   9   0   67.10   57.00   1
  -2  -9   0   68.70   57.00   1
   2  -9   0   88.10   57.20   1
  -2   9   0   99.80   57.20   1
   2   9   1   11.80   34.30   1
  -2  -9  -1   25.70   34.40   1
   2  -9  -1   72.20   34.70   1
  -2   9   1   46.80   34.50   1
  -2   9  -1   28.90   34.40   1
   2  -9   1   39.00   34.60   1
  -2  -9   1   12.20   34.30   1
   2   9  -1   16.50   34.40   1
   2   9   2   76.10   58.20   1
  -2  -9  -2   89.70   58.20   1
   2  -9  -2   49.60   57.90   1
  -2   9   2   49.90   57.90   1
  -2   9  -2   65.10   58.00   1
   2  -9   2  102.70   58.20   1
  -2  -9   2  132.70   58.10   1
   2   9  -2  151.60   58.10   1
   2   9   3   37.10   46.30   1
  -2  -9  -3   27.60   46.30   1
   2  -9  -3   41.60   46.20   1
  -2   9   3   66.50   46.40   1
  -2   9  -3   77.60   46.40   1
   2  -9   3   61.40   46.40   1
  -2  -9   3   54.60   46.30   1
   2   9  -3   58.60   46.20   1
   2   9   4   70.20   44.80   1
  -2  -9  -4   45.40   44.60   1
   2  -9  -4   57.20   44.60   1
  -2   9   4   44.50   44.60   1
  -2   9  -4   10.80   44.30   1
   2  -9   4   14.20   44.40   1
  -2  -9   4  158.70   44.70   1
   2   9  -4   55.80   44.40   1
   2   9   5   25.60   54.10   1
  -2  -9  -5   34.30   54.30   1
   2  -9  -5   50.00   54.30   1
  -2   9   5  115.90   54.40   1
  -2   9  -5  134.30   54.30   1
   2  -9   5   43.60   54.10   1
  -2  -9   5  109.90   54.30   1
   2   9  -5  134.40   54.30   1
   2   9   6   48.10   44.50   1
  -2  -9  -6   32.30   44.60   1
   2  -9  -6   71.30   44.60   1
  -2   9   6   99.10   44.80   1
  -2   9  -6   37.90   44.30   1
   2  -9   6   28.20   44.20   1
  -2  -9   6   62.70   44.40   1
   2   9  -6   45.70   44.40   1
   2   9   7   82.90   52.90   1
  -2  -9  -7   63.50   52.90   1
   2  -9  -7   48.00   52.90   1
  -2   9   7   33.30   52.90   1
  -2   9  -7   60.20   52.70   1
   2  -9   7   83.00   52.80   1
  -2  -9   7  226.60   53.30   1
   2   9  -7   58.70   52.80   1
   2   9   8   15.10   26.70   1
  -2  -9  -8   27.50   26.90   1
   2  -9  -8   15.90   27.00   1
  -2   9   8   39.80   27.10   1
  -2   9  -8    0.00   26.50   1
   2  -9   8   35.00   27.00   1
  -2  -9   8    5.10   26.60   1
   2   9  -8   27.30   26.70   1
   2   9   9  120.50   44.20   1
  -2  -9  -9   43.80   43.80   1
   2  -9  -9   45.30   44.00   1
  -2   9   9   55.70   44.10   1
  -2   9  -9  102.00   44.00   1
   2  -9   9   12.50   43.80   1
  -2  -9   9   39.50   43.80   1
   2   9  -9   31.60   43.70   1
   2   9  10   39.60   30.10   1
  -2  -9 -10   24.50   30.10   1
   2  -9 -10   17.00   30.00   1
  -2   9  10   20.70   30.20   1
  -2   9 -10   36.70   29.90   1
   2  -9  10   15.00   29.70   1
  -2  -9  10    5.60   29.60   1
   2   9 -10   25.10   29.70   1
   2   9  11   56.10   54.00   1
  -2  -9 -11  195.40   54.60   1
   2  -9 -11   78.90   54.00   1
  -2   9  11   65.60   54.00   1
  -2   9 -11   83.90   53.80   1
   2  -9  11   37.10   53.60   1
  -2  -9  11   62.00   53.80   1
   2   9 -11  125.10   54.00   1
   2   9  12   52.80   31.60   1
  -2  -9 -12   18.70   31.20   1
   2  -9 -12   80.30   31.50   1
  -2   9  12   14.30   31.20   1
  -2   9 -12   26.30   30.80   1
   2  -9  12   25.10   30.60   1
  -2  -9  12   16.40   30.80   1
   2   9 -12    0.60   30.70   1
   2   9  13   25.50   33.60   1
  -2  -9 -13   49.70   33.90   1
   2  -9 -13   38.60   33.70   1
  -2   9  13   26.20   33.60   1
  -2   9 -13   17.50   32.90   1
   2  -9  13   24.20   33.00   1
   2   9 -13   31.40   33.20   1
   2   9  14   -3.80   26.80   1
  -2  -9 -14    8.20   26.90   1
   2  -9 -14   24.20   26.90   1
  -2   9  14    7.10   27.20   1
  -2   9 -14   21.30   26.20   1
   2  -9  14   27.70   26.30   1
   2   9 -14   14.40   26.40   1
   2  10   0 1513.00  284.10   1
  -2 -10   0 1403.10  283.80   1
   2 -10   0 1448.30  284.60   1
  -2  10   0 1424.70  284.50   1
   2  10   1   56.90   51.20   1
  -2 -10  -1   64.60   51.30   1
   2 -10  -1   71.60   51.40   1
  -2  10   1   79.10   51.30   1
  -2  10  -1  116.90   51.40   1
   2 -10   1  165.90   51.50   1
  -2 -10   1   31.80   51.00   1
   2  10  -1   29.10   51.00   1
   2  10   2  693.20  184.50   1
  -2 -10  -2  814.70  184.90   1
   2 -10  -2  741.00  184.60   1
  -2  10   2  635.80  184.20   1
  -2  10  -2  935.50  185.30   1
   2 -10   2 1164.20  186.60   1
  -2 -10   2  574.90  184.00   1
   2  10  -2  693.30  184.40   1
   2  10   3   98.40   77.00   1
  -2 -10  -3  110.30   76.90   1
   2 -10  -3  127.60   76.90   1
  -2  10   3   94.20   76.70   1
  -2  10  -3  305.20   77.50   1
   2 -10   3  134.80   76.90   1
  -2 -10   3  343.80   77.30   1
   2  10  -3  177.60   76.90   1
   2  10   4  341.50  111.40   1
  -2 -10  -4  329.50  111.40   1
   2 -10  -4  281.00  111.10   1
  -2  10   4  292.00  111.10   1
  -2  10  -4  227.70  111.10   1
   2 -10   4  296.00  111.20   1
  -2 -10   4  304.70  111.20   1
   2  10  -4  261.20  111.10   1
   2  10   5  110.60   76.50   1
  -2 -10  -5  180.40   76.80   1
   2 -10  -5  101.30   76.50   1
  -2  10   5  120.90   76.50   1
  -2  10  -5  203.10   76.70   1
   2 -10   5  137.00   76.50   1
  -2 -10   5  244.80   76.70   1
   2  10  -5  119.00   76.50   1
   2  10   6  503.60   98.20   1
  -2 -10  -6  211.70   97.10   1
   2 -10  -6  140.00   97.10   1
  -2  10   6  147.50   97.10   1
  -2  10  -6  262.10   97.20   1
   2 -10   6  291.00   97.30   1
  -2 -10   6  269.30   97.20   1
   2  10  -6  265.00   97.20   1
   2  10   7  117.00   75.10   1
  -2 -10  -7  116.40   75.10   1
   2 -10  -7  236.20   75.60   1
  -2  10   7  193.30   75.40   1
  -2  10  -7  124.70   75.00   1
   2 -10   7   98.40   75.00   1
  -2 -10   7  145.10   75.10   1
   2  10  -7  147.70   75.10   1
   2  10   8  104.70   54.00   1
  -2 -10  -8   46.70   53.80   1
   2 -10  -8   12.10   54.00   1
  -2  10   8  113.30   54.20   1
  -2  10  -8   63.30   53.70   1
   2 -10   8  275.60   54.70   1
  -2 -10   8   68.30   53.90   1
   2  10  -8   68.90   53.90   1
   2  10   9  148.10   76.60   1
  -2 -10  -9   87.80   76.40   1
   2 -10  -9  153.20   76.60   1
  -2  10   9  146.70   76.80   1
  -2  10  -9  177.90   76.60   1
   2 -10   9  166.20   76.60   1
  -2 -10   9  187.40   76.60   1
   2  10  -9  116.90   76.30   1
   2  10  10  283.00   99.90   1
  -2 -10 -10  224.80   99.50   1
   2 -10 -10  255.50   99.60   1
  -2  10  10  201.60   99.50   1
  -2  10 -10  187.20   99.30   1
   2 -10  10  291.10   99.60   1
  -2 -10  10  227.70   99.40   1
   2  10 -10  234.60   99.40   1
   2  10  11   21.20   40.00   1
  -2 -10 -11   13.80   39.90   1
   2 -10 -11   97.60   40.50   1
  -2  10  11   49.70   40.30   1
  -2  10 -11   19.70   39.90   1
   2 -10  11  102.00   40.10   1
  -2 -10  11   45.80   39.90   1
   2  10 -11   27.60   39.80   1
   2  10  12   59.90   45.90   1
  -2 -10 -12  187.40   46.80   1
   2 -10 -12   24.90   45.50   1
  -2  10  12   32.20   45.60   1
  -2  10 -12   83.30   45.50   1
   2 -10  12   53.10   45.20   1
  -2 -10  12   59.20   45.40   1
   2  10 -12   28.40   45.20   1
   2  10  13   54.00   33.40   1
  -2 -10 -13   25.60   33.00   1
   2 -10 -13   12.20   32.80   1
  -2  10  13   13.20   32.90   1
  -2  10 -13   16.80   32.40   1
   2 -10  13   39.20   32.40   1
  -2 -10  13   16.50   32.40   1
   2  10 -13   41.70   32.70   1
   2  10  14  142.30   49.90   1
  -2 -10 -14  228.20   51.40   1
   2 -10 -14   50.10   49.20   1
  -2  10  14   56.20   49.30   1
  -2  10 -14   54.70   48.80   1
   2 -10  14   56.00   48.80   1
  -2 -10  14   83.50   49.70   1
   2  10 -14   30.40   48.80   1
   2  11   0   32.50   37.20   1
  -2 -11   0   26.40   37.00   1
   2 -11   0   37.80   37.30   1
  -2  11   0   37.50   37.20   1
   2  11   1  235.80   59.50   1
  -2 -11  -1  208.20   59.40   1
   2 -11  -1   41.50   59.00   1
  -2  11   1   34.20   58.90   1
  -2  11  -1   50.50   59.00   1
   2 -11   1   56.60   59.10   1
  -2 -11   1  114.60   59.00   1
   2  11  -1   97.80   58.90   1
   2  11   2   50.10   41.30   1
  -2 -11  -2   60.80   41.30   1
   2 -11  -2   51.50   41.30   1
  -2  11   2   39.20   41.00   1
  -2  11  -2   47.30   41.20   1
   2 -11   2   53.00   41.30   1
  -2 -11   2   26.50   40.90   1
   2  11  -2   22.80   40.90   1
   2  11   3   82.10   53.00   1
  -2 -11  -3  114.30   53.20   1
   2 -11  -3   57.60   53.00   1
  -2  11   3   72.40   52.90   1
  -2  11  -3   37.50   52.90   1
   2 -11   3   31.40   52.80   1
  -2 -11   3   88.10   52.80   1
   2  11  -3   76.60   52.80   1
   2  11   4   84.40   41.00   1
  -2 -11  -4   50.30   41.00   1
   2 -11  -4   40.30   40.80   1
  -2  11   4    8.30   40.50   1
  -2  11  -4   76.30   40.80   1
   2 -11   4   25.80   40.60   1
  -2 -11   4   29.60   40.50   1
   2  11  -4   48.40   40.50   1
   2  11   5   75.90   48.60   1
  -2 -11  -5  292.70   49.80   1
   2 -11  -5   16.60   48.50   1
  -2  11   5   35.00   48.60   1
  -2  11  -5  230.80   49.10   1
  -2 -11   5   30.40   48.40   1
   2  11  -5   37.20   48.50   1
   2  11   6   24.70   34.30   1
  -2 -11  -6   22.40   34.30   1
   2 -11  -6    3.00   34.30   1
  -2  11   6   11.30   34.40   1
  -2  11  -6   26.70   34.10   1
   2 -11   6   24.80   34.10   1
  -2 -11   6   87.10   34.40   1
   2  11  -6   41.10   34.30   1
   2  11   7  133.30   53.90   1
  -2 -11  -7  171.90   54.00   1
   2 -11  -7   57.90   53.80   1
  -2  11   7   37.70   53.70   1
  -2  11  -7  111.00   53.70   1
   2 -11   7   83.60   53.60   1
  -2 -11   7   55.60   53.60   1
   2  11  -7   18.50   53.50   1
   2  11   8   19.10   30.30   1
  -2 -11  -8   22.60   30.30   1
   2 -11  -8   30.10   30.90   1
  -2  11   8   33.70   30.90   1
  -2  11  -8   25.00   30.20   1
   2 -11   8   30.60   30.40   1
  -2 -11   8   17.10   30.30   1
   2  11  -8   10.80   30.20   1
   2  11   9   75.50   44.10   1
  -2 -11  -9   27.40   43.70   1
   2 -11  -9  104.50   44.40   1
  -2  11   9   50.30   44.20   1
  -2  11  -9   59.30   43.90   1
   2 -11   9   19.60   43.90   1
  -2 -11   9   47.50   43.80   1
   2  11  -9   36.30   43.80   1
   2  11  10   -0.00   31.40   1
  -2 -11 -10   22.20   31.30   1
   2 -11 -10   20.50   31.60   1
  -2  11  10   20.60   31.60   1
  -2  11 -10   32.90   31.60   1
   2 -11  10   64.60   31.80   1
  -2 -11  10   35.30   31.30   1
   2  11 -10   13.70   31.10   1
   2  11  11   16.40   29.50   1
  -2 -11 -11   45.40   29.60   1
   2 -11 -11   -0.50   29.30   1
  -2  11  11    3.20   29.40   1
  -2  11 -11   51.00   29.30   1
   2 -11  11   56.30   29.40   1
  -2 -11  11   -1.60   28.90   1
   2  11 -11   23.40   29.00   1
   2  11  12   18.30   22.80   1
  -2 -11 -12   18.90   22.60   1
   2 -11 -12    8.00   22.40   1
  -2  11  12   15.10   22.50   1
  -2  11 -12   23.50   22.30   1
   2 -11  12    5.80   21.90   1
  -2 -11  12    9.60   21.90   1
   2  11 -12    5.40   21.80   1
   2  11  13   79.60   33.70   1
  -2 -11 -13   47.40   33.20   1
   2 -11 -13   28.40   33.00   1
  -2  11  13   28.90   32.90   1
  -2  11 -13   11.70   32.30   1
   2 -11  13   53.50   32.40   1
  -2 -11  13   13.90   32.20   1
   2  11 -13   10.70   32.10   1
   2  11  14    6.60   25.40   1
  -2 -11 -14   36.10   25.60   1
   2 -11 -14   20.70   25.00   1
  -2  11  14    9.50   25.10   1
  -2  11 -14   13.50   24.40   1
   2 -11  14   15.10   24.40   1
  -2 -11  14    9.90   24.50   1
   2  11 -14   12.70   24.40   1
   2  12   0  398.80  133.40   1
  -2 -12   0  425.30  133.40   1
   2 -12   0  425.70  133.50   1
  -2  12   0  359.00  133.20   1
   2  12   1  106.00   64.40   1
  -2 -12  -1  122.70   64.40   1
   2 -12  -1   59.30   64.20   1
  -2  12   1   46.90   64.10   1
  -2  12  -1  128.10   64.50   1
   2 -12   1   98.80   64.50   1
  -2 -12   1  143.70   64.40   1
   2  12  -1  148.00   64.40   1
   2  12   2  138.50   83.00   1
  -2 -12  -2  151.50   83.10   1
   2 -12  -2  230.30   83.30   1
  -2  12   2  228.80   83.20   1
  -2  12  -2  376.90   83.90   1
   2 -12   2  214.70   83.30   1
  -2 -12   2  127.40   82.90   1
   2  12  -2  104.50   82.90   1
   2  12   3   26.20   48.00   1
  -2 -12  -3   43.60   48.10   1
   2 -12  -3   73.20   48.10   1
  -2  12   3   86.60   48.30   1
  -2  12  -3   39.20   47.90   1
   2 -12   3   50.20   47.90   1
  -2 -12   3   68.20   47.90   1
   2  12  -3   69.40   48.00   1
   2  12   4  107.70   78.70   1
  -2 -12  -4   89.40   78.80   1
   2 -12  -4  592.70   80.70   1
  -2  12   4  353.10   79.40   1
  -2  12  -4  123.20   78.70   1
   2 -12   4   97.00   78.50   1
  -2 -12   4  182.30   78.60   1
   2  12  -4  164.70   78.60   1
   2  12   5   31.00   33.20   1
  -2 -12  -5   27.50   33.50   1
   2 -12  -5    7.00   33.30   1
  -2  12   5   -0.00   33.00   1
  -2  12  -5   19.50   33.00   1
   2 -12   5   30.00   33.00   1
  -2 -12   5   33.50   33.30   1
   2  12  -5   84.00   33.30   1
   2  12   6   61.10   49.90   1
  -2 -12  -6  133.50   50.20   1
   2 -12  -6   21.90   50.00   1
  -2  12   6   33.10   49.90   1
  -2  12  -6  344.70   51.40   1
   2 -12   6   90.30   50.00   1
  -2 -12   6   44.50   50.00   1
   2  12  -6   35.10   49.90   1
   2  12   7  106.40   73.20   1
  -2 -12  -7  100.20   73.20   1
   2 -12  -7  161.10   73.40   1
  -2  12   7  239.80   73.80   1
  -2  12  -7  104.50   73.10   1
   2 -12   7  100.60   73.10   1
  -2 -12   7  143.00   73.30   1
   2  12  -7  175.90   73.30   1
   2  12   8   28.00   39.70   1
  -2 -12  -8   13.40   39.70   1
   2 -12  -8   20.40   40.00   1
  -2  12   8   47.70   40.30   1
  -2  12  -8   31.60   39.70   1
   2 -12   8   71.20   40.00   1
  -2 -12   8   68.40   40.00   1
   2  12  -8   57.40   40.00   1
   2  12   9   44.30   43.50   1
  -2 -12  -9   22.10   43.20   1
   2 -12  -9   46.00   43.70   1
  -2  12   9   22.70   43.50   1
  -2  12  -9   40.30   43.30   1
   2 -12   9  142.80   44.10   1
  -2 -12   9   44.20   43.30   1
   2  12  -9   69.10   43.40   1
   2  12  10   25.10   38.20   1
  -2 -12 -10   99.80   38.50   1
   2 -12 -10   51.00   38.50   1
  -2  12  10   71.10   38.70   1
  -2  12 -10   18.30   38.00   1
   2 -12  10   10.50   38.10   1
  -2 -12  10   33.30   38.00   1
   2  12 -10   32.50   38.00   1
   2  12  11   17.00   31.80   1
  -2 -12 -11    1.10   31.40   1
   2 -12 -11   18.70   31.80   1
  -2  12  11   19.40   31.80   1
  -2  12 -11   19.30   31.50   1
   2 -12  11   80.40   31.90   1
  -2 -12  11   47.50   31.50   1
   2  12 -11   16.10   31.20   1
   2  12  12   15.90   42.70   1
  -2 -12 -12   96.30   43.20   1
   2 -12 -12   23.50   42.70   1
  -2  12  12   22.10   42.70   1
  -2  12 -12   71.80   42.80   1
   2 -12  12   45.50   42.60   1
  -2 -12  12   34.10   42.40   1
   2  12 -12   89.30   42.60   1
   2  12  13    0.00   28.30   1
  -2 -12 -13    9.00   28.10   1
   2 -12 -13   25.20   28.30   1
  -2  12  13   24.10   28.10   1
  -2  12 -13   11.70   27.80   1
   2 -12  13   47.30   27.80   1
  -2 -12  13   26.80   27.60   1
   2  12 -13    6.40   27.40   1
   2 -13   0  228.30   92.00   1
  -2  13   0  175.20   91.90   1
   2  13   1   46.60   56.60   1
  -2 -13  -1   67.20   56.60   1
   2 -13  -1  229.20   57.20   1
  -2  13   1  204.70   57.00   1
  -2 -13   1   41.70   56.40   1
   2  13  -1   40.10   56.50   1
   2  13   2  497.00  147.60   1
  -2 -13  -2  484.10  147.50   1
   2 -13  -2  482.70  147.60   1
  -2  13   2  448.70  147.50   1
  -2  13  -2  379.40  147.40   1
   2 -13   2  425.00  147.50   1
  -2 -13   2  510.60  147.50   1
   2  13  -2  684.10  148.00   1
   2  13   3  577.80  145.80   1
  -2 -13  -3  579.30  145.80   1
   2 -13  -3  455.00  145.30   1
  -2  13   3  436.20  145.30   1
  -2  13  -3  405.70  145.30   1
   2 -13   3  431.70  145.20   1
  -2 -13   3  447.60  145.10   1
   2  13  -3  478.90  145.10   1
   2  13   4  208.90  105.30   1
  -2 -13  -4  248.40  105.60   1
   2 -13  -4  333.30  105.70   1
  -2  13   4  255.30  105.50   1
  -2  13  -4  223.20  105.40   1
   2 -13   4  222.20  105.30   1
  -2 -13   4  288.00  105.40   1
   2  13  -4  355.00  105.60   1
   2  13   5  233.20  104.20   1
  -2 -13  -5  341.40  104.70   1
  -2  13   5  888.40  107.40   1
  -2  13  -5  224.40  104.10   1
   2 -13   5  256.20  104.20   1
  -2 -13   5  237.80  104.10   1
   2  13  -5  205.30  104.00   1
   2  13   6   44.10   49.60   1
  -2 -13  -6   85.80   49.90   1
   2 -13  -6   64.40   50.00   1
  -2  13   6   21.50   49.70   1
  -2  13  -6   77.10   49.60   1
   2 -13   6   77.70   49.70   1
  -2 -13   6   67.60   49.90   1
   2  13  -6   52.40   49.60   1
   2  13   7  303.60  112.00   1
  -2 -13  -7  354.90  112.20   1
   2 -13  -7  433.20  112.40   1
  -2  13   7  279.20  111.80   1
  -2  13  -7  287.40  111.80   1
   2 -13   7  218.80  111.60   1
  -2 -13   7  348.30  112.00   1
   2  13  -7  235.10  111.70   1
   2  13   8   46.40   41.00   1
  -2 -13  -8   24.10   40.80   1
   2 -13  -8   27.50   41.10   1
  -2  13   8   57.40   41.20   1
  -2  13  -8   26.70   40.70   1
   2 -13   8  114.40   41.30   1
  -2 -13   8   18.80   41.00   1
   2  13  -8   63.80   41.20   1
   2  13   9   61.60   58.90   1
  -2 -13  -9   79.70   59.00   1
   2 -13  -9   91.20   59.20   1
  -2  13   9  114.00   59.30   1
  -2  13  -9   49.30   58.80   1
   2 -13   9  120.60   59.30   1
  -2 -13   9  128.20   59.10   1
   2  13  10  135.50   49.80   1
  -2 -13 -10  107.60   49.60   1
   2 -13 -10   63.00   49.50   1
  -2  13  10   20.00   49.30   1
  -2  13 -10  131.90   49.70   1
   2 -13  10   35.40   49.20   1
  -2 -13  10   25.10   49.00   1
   2  13 -10   81.70   49.20   1
   2  13  11   40.30   51.40   1
  -2 -13 -11  104.90   51.50   1
   2 -13 -11   45.40   51.50   1
  -2  13  11   87.00   51.70   1
  -2  13 -11   39.00   51.30   1
   2 -13  11   42.20   51.30   1
  -2 -13  11   83.20   51.20   1
   2  13 -11   83.60   51.20   1
   2  13  12   58.60   47.10   1
  -2 -13 -12   16.70   46.70   1
   2 -13 -12   92.50   47.40   1
  -2  13  12  103.10   47.50   1
  -2  13 -12   50.40   46.90   1
   2 -13  12   98.70   47.10   1
  -2 -13  12   45.70   46.60   1
   2  13 -12   39.20   46.60   1
   2  13  13   28.30   37.40   1
  -2 -13 -13   32.10   37.20   1
   2 -13 -13    7.60   37.20   1
  -2  13  13  207.60   39.20   1
  -2  13 -13   56.40   37.30   1
   2 -13  13   26.20   36.90   1
  -2 -13  13   27.40   36.80   1
   2  13 -13   29.30   36.80   1
   2  14   0  168.70   71.90   1
  -2 -14   0  186.00   72.20   1
   2 -14   0   96.30   71.90   1
  -2  14   0   76.60   71.70   1
   2  14   1   17.40   33.60   1
  -2 -14  -1   18.10   33.40   1
   2 -14  -1    1.00   33.80   1
  -2  14   1    5.90   33.50   1
  -2  14  -1   95.20   34.20   1
   2 -14   1   69.10   34.10   1
  -2 -14   1   23.20   33.50   1
   2  14  -1   22.40   33.60   1
   2  14   2   79.30   41.50   1
  -2 -14  -2   88.40   41.80   1
   2 -14  -2   40.60   41.40   1
  -2  14   2   39.00   41.20   1
  -2  14  -2   33.10   41.20   1
   2 -14   2   15.70   41.00   1
  -2 -14   2   34.50   41.00   1
   2  14  -2   27.50   41.10   1
   2  14   3   -0.10   26.00   1
  -2 -14  -3   25.10   26.50   1
   2 -14  -3    5.00   26.20   1
  -2  14   3   -0.10   26.20   1
  -2  14  -3   21.80   25.70   1
   2 -14   3   17.50   25.50   1
  -2 -14   3   26.50   25.80   1
   2  14  -3   18.20   25.80   1
   2  14   4   32.00   39.70   1
  -2 -14  -4   22.30   40.00   1
   2 -14  -4   67.10   40.20   1
  -2  14   4   53.30   39.90   1
  -2  14  -4   56.20   39.60   1
   2 -14   4   36.20   39.50   1
  -2 -14   4   33.30   39.50   1
   2  14  -4   20.10   39.40   1
   2  14   5   30.80   36.80   1
  -2 -14  -5   25.90   36.90   1
   2 -14  -5   32.00   37.10   1
  -2  14   5   36.20   36.90   1
  -2  14  -5   27.20   36.50   1
   2 -14   5   27.40   36.60   1
  -2 -14   5   43.60   36.80   1
   2  14  -5   36.60   36.70   1
   2  14   6   42.70   45.90   1
  -2 -14  -6   40.60   46.00   1
   2 -14  -6  149.70   46.70   1
  -2  14   6  106.40   46.40   1
  -2  14  -6   38.70   45.70   1
   2 -14   6   56.50   45.80   1
  -2 -14   6   20.90   45.70   1
   2  14  -6   44.90   45.80   1
   2  14   7   46.00   38.40   1
  -2 -14  -7   56.80   38.70   1
   2 -14  -7    8.20   38.70   1
  -2  14   7    0.00   38.30   1
  -2  14  -7   59.40   38.40   1
   2 -14   7   39.50   38.30   1
  -2 -14   7   14.40   38.30   1
   2  14  -7   69.20   38.50   1
   2  14   8   40.80   40.20   1
  -2 -14  -8   31.20   40.20   1
   2 -14  -8   27.40   40.40   1
  -2  14   8   31.90   40.50   1
  -2  14  -8   26.20   40.00   1
   2 -14   8   36.80   40.10   1
  -2 -14   8   52.30   40.30   1
   2  14  -8   81.20   40.50   1
   2  14   9   18.10   23.60   1
  -2 -14  -9   18.00   23.60   1
   2 -14  -9    8.10   23.80   1
  -2  14   9   -0.00   24.00   1
  -2  14  -9   10.10   23.40   1
   2 -14   9   16.10   24.00   1
  -2 -14   9    5.00   23.60   1
   2  14  -9   28.60   23.90   1
   2  14  10   24.80   33.80   1
  -2 -14 -10   36.60   33.70   1
   2 -14 -10    8.10   33.80   1
  -2  14  10   26.80   34.00   1
  -2  14 -10   35.50   33.70   1
   2 -14  10    9.30   33.70   1
  -2 -14  10   47.20   33.80   1
   2  14 -10   27.50   33.60   1
   2  14  11    9.70   19.00   1
  -2 -14 -11   37.30   18.80   1
   2 -14 -11   -0.00   19.10   1
  -2  14  11    6.00   19.10   1
  -2  14 -11   -0.10   18.60   1
   2 -14  11    4.60   18.70   1
  -2 -14  11    0.00   18.10   1
   2  14 -11    7.80   18.20   1
   2  14  12   43.70   38.60   1
  -2 -14 -12   33.70   38.30   1
   2 -14 -12   50.20   38.60   1
  -2  14  12   32.10   38.50   1
  -2  14 -12   60.40   38.50   1
   2 -14  12   33.50   38.30   1
  -2 -14  12   34.40   38.00   1
   2  14 -12   16.50   38.00   1
   2  15   0  161.70   81.50   1
  -2 -15   0  194.00   81.60   1
   2 -15   0  131.10   81.50   1
  -2  15   0  144.10   81.60   1
   2  15   1   79.80   69.30   1
  -2 -15  -1   89.80   69.30   1
   2 -15  -1  188.10   69.70   1
  -2  15   1  173.70   69.70   1
  -2  15  -1  130.70   69.50   1
   2 -15   1   91.70   69.40   1
  -2 -15   1  119.10   69.60   1
   2  15  -1  106.40   69.60   1
   2  15   2   -0.00   33.50   1
  -2 -15  -2   -0.10   33.60   1
   2 -15  -2   22.20   33.60   1
  -2  15   2   20.00   33.80   1
  -2  15  -2   31.90   33.60   1
   2 -15   2   41.60   33.40   1
  -2 -15   2   88.30   33.80   1
   2  15  -2   17.60   33.60   1
   2  15   3   76.30   54.10   1
  -2 -15  -3   80.70   54.30   1
   2 -15  -3   26.30   54.00   1
  -2  15   3   39.40   54.00   1
  -2  15  -3   70.30   54.00   1
   2 -15   3   16.40   53.60   1
  -2 -15   3  331.40   54.90   1
   2  15  -3  250.20   54.70   1
   2  15   4   43.70   47.50   1
  -2 -15  -4  111.10   47.90   1
   2 -15  -4   35.80   47.50   1
  -2  15   4   44.20   47.40   1
  -2  15  -4   34.80   47.20   1
   2 -15   4  111.90   47.50   1
  -2 -15   4   45.00   47.20   1
   2  15  -4   50.70   47.30   1
   2  15   5   56.50   49.50   1
  -2 -15  -5  287.10   51.10   1
   2 -15  -5   36.80   49.90   1
  -2  15   5   38.40   49.70   1
  -2  15  -5   91.10   49.60   1
   2 -15   5  180.80   50.00   1
  -2 -15   5   32.20   49.40   1
   2  15  -5   16.90   49.40   1
   2  15   6   16.80   34.50   1
  -2 -15  -6   34.10   34.70   1
   2 -15  -6   18.90   35.10   1
  -2  15   6   32.70   35.10   1
  -2  15  -6   14.40   34.10   1
   2 -15   6   15.20   34.40   1
  -2 -15   6   68.20   34.80   1
   2  15  -6   50.40   34.60   1
   2  15   7  180.80   59.60   1
  -2 -15  -7  182.50   59.60   1
   2 -15  -7  182.20   59.80   1
  -2  15   7   95.70   59.30   1
  -2  15  -7  107.20   59.10   1
   2 -15   7  138.90   59.20   1
  -2 -15   7   32.50   58.90   1
   2  15  -7   25.20   58.80   1
   2  15   8    0.00   20.80   1
  -2 -15  -8   20.00   21.20   1
   2 -15  -8    1.00   21.60   1
  -2  15   8    1.50   21.20   1
  -2  15  -8   17.30   20.80   1
   2 -15   8   -0.00   21.00   1
  -2 -15   8   17.30   21.10   1
   2  15  -8   19.20   20.90   1
   2  15   9   79.60   43.90   1
  -2 -15  -9   28.20   43.50   1
   2 -15  -9   39.10   43.90   1
  -2  15   9   42.40   43.70   1
  -2  15  -9   57.10   43.60   1
   2 -15   9   96.60   44.20   1
  -2 -15   9   45.50   43.70   1
   2  15  -9   21.40   43.50   1
   2  15  10   18.70   35.40   1
  -2 -15 -10   47.40   35.50   1
   2 -15 -10  101.40   36.30   1
  -2  15  10   32.30   35.70   1
  -2  15 -10   27.20   35.30   1
   2 -15  10   18.80   35.60   1
  -2 -15  10   17.20   35.30   1
   2  15 -10   22.60   35.30   1
   2  15  11   93.90   60.00   1
  -2 -15 -11   69.90   59.90   1
   2 -15 -11   61.40   59.80   1
  -2  15  11   67.60   60.00   1
  -2  15 -11  111.60   60.10   1
   2 -15  11   81.30   59.90   1
  -2 -15  11   80.60   59.80   1
   2  15 -11  170.30   60.20   1
   2  15  12   25.50   31.80   1
  -2 -15 -12    8.30   31.20   1
   2 -15 -12   25.00   31.50   1
  -2  15  12   25.50   31.80   1
  -2  15 -12   37.40   31.50   1
   2 -15  12   38.10   31.60   1
  -2 -15  12   31.30   31.20   1
   2  15 -12    7.70   31.20   1
   2  16   0  273.80  123.60   1
  -2 -16   0  324.00  123.80   1
   2 -16   0  539.90  125.20   1
  -2  16   0  458.00  124.60   1
   2  16   1   44.80   36.30   1
  -2 -16  -1   33.70   36.30   1
   2 -16  -1   53.30   36.60   1
  -2  16   1   52.60   36.50   1
  -2  16  -1    7.90   35.80   1
   2 -16   1    7.80   35.70   1
  -2 -16   1   29.50   36.20   1
   2  16  -1   34.50   36.00   1
   2  16   2   57.00   53.80   1
  -2 -16  -2   38.20   53.80   1
   2 -16  -2   39.00   53.90   1
  -2  16   2   35.20   54.00   1
  -2  16  -2  332.40   55.60   1
   2 -16   2   89.40   53.80   1
  -2 -16   2   94.30   54.10   1
   2  16  -2   86.30   54.10   1
   2  16   3   74.50   53.90   1
  -2 -16  -3   52.10   54.10   1
   2 -16  -3   99.40   54.20   1
  -2  16   3  111.00   54.10   1
  -2  16  -3   66.70   53.80   1
   2 -16   3   41.90   53.60   1
  -2 -16   3   69.80   53.90   1
   2  16  -3   69.70   54.00   1
   2  16   4   47.20   59.10   1
  -2 -16  -4  144.60   59.70   1
   2 -16  -4   14.90   59.10   1
  -2  16   4   18.30   59.20   1
  -2  16  -4  174.90   59.50   1
   2 -16   4  172.00   59.40   1
  -2 -16   4   99.60   59.20   1
   2  16  -4  161.60   59.50   1
   2  16   5   28.40   35.30   1
  -2 -16  -5   31.00   35.50   1
   2 -16  -5   63.60   36.10   1
  -2  16   5   52.40   35.70   1
  -2  16  -5   19.80   35.10   1
   2 -16   5   19.40   35.10   1
  -2 -16   5   22.20   35.20   1
   2  16  -5   32.70   35.40   1
   2  16   6  266.90   50.40   1
  -2 -16  -6   83.70   49.10   1
   2 -16  -6   48.60   49.40   1
  -2  16   6   15.20   49.20   1
  -2  16  -6   68.20   49.00   1
   2 -16   6  322.10   51.00   1
  -2 -16   6   19.50   48.80   1
   2  16  -6   45.90   49.10   1
   2  16   7   93.00   40.50   1
  -2 -16  -7   82.80   40.60   1
   2 -16  -7    3.60   40.50   1
  -2  16   7   24.90   40.30   1
  -2  16  -7   70.50   40.20   1
   2 -16   7   56.80   40.10   1
  -2 -16   7   18.00   39.90   1
   2  16  -7    5.90   40.00   1
   2  16   8   22.20   30.20   1
  -2 -16  -8   14.80   30.30   1
  -2  16   8   63.00   31.20   1
  -2  16  -8   17.80   30.10   1
   2 -16   8   12.10   30.20   1
  -2 -16   8   29.60   30.50   1
   2  16  -8   18.40   30.20   1
   2  16   9   15.30   27.70   1
  -2 -16  -9   24.40   27.90   1
   2 -16  -9    6.90   28.60   1
  -2  16   9    0.00   28.10   1
  -2  16  -9   17.40   27.60   1
   2 -16   9   32.20   28.30   1
  -2 -16   9   33.30   28.10   1
   2  16  -9   16.30   27.70   1
   2  16  10   25.60   32.30   1
  -2 -16 -10   16.70   32.20   1
   2 -16 -10   45.20   32.80   1
  -2  16  10    6.00   32.40   1
  -2  16 -10   26.90   32.30   1
   2 -16  10   31.40   32.50   1
  -2 -16  10   39.50   32.50   1
   2  16 -10   18.60   32.30   1
   2  16  11   31.10   24.90   1
  -2 -16 -11    7.10   24.60   1
   2 -16 -11   30.20   25.30   1
  -2  16  11   16.00   24.90   1
  -2  16 -11   22.20   24.60   1
   2 -16  11   -0.60   24.70   1
  -2 -16  11    0.50   24.50   1
   2  16 -11   14.30   24.50   1
   2  17   0   96.90   63.30   1
  -2 -17   0  106.80   63.40   1
   2 -17   0  107.90   63.40   1
  -2  17   0   75.40   63.20   1
   2  17   1   66.70   52.00   1
  -2 -17  -1   67.30   52.00   1
   2 -17  -1   53.70   52.10   1
  -2  17   1   63.70   52.30   1
  -2  17  -1   48.30   51.80   1
   2 -17   1   31.90   51.60   1
  -2 -17   1  121.80   52.40   1
   2  17  -1  103.40   52.20   1
   2  17   2   31.50   48.10   1
  -2 -17  -2   43.30   48.00   1
   2 -17  -2   82.00   48.40   1
  -2  17   2   65.70   48.20   1
  -2  17  -2   23.20   47.70   1
   2 -17   2   40.90   47.70   1
  -2 -17   2  108.00   48.50   1
   2  17  -2  102.10   48.60   1
   2  17   3   22.00   42.60   1
  -2 -17  -3   32.60   43.10   1
   2 -17  -3  150.80   43.70   1
  -2  17   3  105.70   43.30   1
  -2  17  -3   44.20   42.60   1
   2 -17   3   34.80   42.40   1
  -2 -17   3   16.80   42.80   1
   2  17  -3   30.60   42.90   1
   2  17   4   16.10   32.00   1
  -2 -17  -4   53.50   32.90   1
   2 -17  -4    6.50   32.80   1
  -2  17   4   13.60   32.40   1
  -2  17  -4   20.90   32.00   1
   2 -17   4   32.60   32.20   1
  -2 -17   4   34.90   32.40   1
   2  17  -4   23.20   32.60   1
   2  17   5   93.30   42.50   1
  -2 -17  -5   57.40   42.40   1
   2 -17  -5   21.60   42.50   1
  -2  17   5   16.90   42.50   1
  -2  17  -5   74.90   42.20   1
   2 -17   5   30.90   41.90   1
  -2 -17   5   41.40   42.10   1
   2  17  -5   24.80   42.20   1
   2  17   6   38.40   29.80   1
  -2 -17  -6   25.10   29.70   1
   2 -17  -6   15.90   30.30   1
  -2  17   6    8.50   30.00   1
  -2  17  -6   12.40   29.50   1
   2 -17   6   38.30   29.70   1
  -2 -17   6   12.40   29.60   1
   2  17  -6   16.20   29.70   1
   2  17   7   43.10   45.40   1
  -2 -17  -7   35.80   45.40   1
   2 -17  -7   50.60   45.80   1
  -2  17   7   27.70   45.50   1
  -2  17  -7   35.50   45.20   1
   2 -17   7   37.70   45.20   1
  -2 -17   7   78.40   45.60   1
   2  17  -7  312.40   47.30   1
   2  17   8   22.60   27.50   1
  -2 -17  -8   -0.00   27.70   1
   2 -17  -8    1.10   28.40   1
  -2  17   8   26.70   28.50   1
  -2  17  -8   17.00   27.40   1
   2 -17   8    6.50   27.50   1
  -2 -17   8   34.10   27.80   1
   2  17  -8   39.20   27.90   1
   2  17   9    0.00   31.50   1
  -2 -17  -9   16.80   31.50   1
  -2  17   9   39.90   32.30   1
  -2  17  -9   21.60   31.40   1
   2 -17   9   63.10   32.30   1
  -2 -17   9   30.00   31.90   1
   2  17  -9   27.80   31.80   1
   2  17  10   32.70   28.60   1
  -2 -17 -10    9.10   28.30   1
   2 -17 -10    5.40   28.90   1
  -2  17  10    6.10   28.40   1
  -2  17 -10   17.40   28.10   1
   2 -17  10  107.70   29.60   1
  -2 -17  10    6.10   28.20   1
   2  17 -10   20.00   28.20   1
   2  17  11   21.10   29.30   1
  -2 -17 -11   25.60   29.10   1
   2 -17 -11   39.20   29.60   1
  -2  17  11    4.70   29.10   1
   2 -17  11   -0.00   29.10   1
  -2 -17  11   32.00   29.00   1
   2  18   0  163.50   83.30   1
  -2 -18   0  167.50   83.30   1
   2 -18   0  153.40   83.30   1
  -2  18   0  168.50   83.50   1
   2  18   1    2.80   36.20   1
  -2 -18  -1   -0.00   36.20   1
   2 -18  -1   46.50   36.30   1
  -2  18   1   60.00   36.70   1
  -2  18  -1   26.10   36.10   1
   2 -18   1   39.90   36.00   1
  -2 -18   1   57.60   36.80   1
   2  18  -1   30.70   36.60   1
   2  18   2   47.20   48.70   1
  -2 -18  -2   45.00   48.80   1
  -2  18  -2  103.60   48.90   1
   2 -18   2   45.40   48.40   1
   2  18   3   29.50   43.90   1
  -2 -18  -3   49.60   44.40   1
   2 -18  -3   19.60   44.30   1
  -2  18   3   25.80   44.20   1
  -2  18  -3   42.20   43.90   1
   2 -18   3  119.10   44.20   1
  -2 -18   3   59.20   44.40   1
   2  18  -3   47.30   44.30   1
   2  18   4   27.20   60.70   1
  -2 -18  -4   83.40   61.20   1
   2 -18  -4  134.50   61.40   1
  -2  18   4   81.40   61.10   1
  -2  18  -4  237.20   61.90   1
   2 -18   4  136.00   61.00   1
  -2 -18   4  105.40   61.20   1
   2  18  -4   79.50   61.10   1
   2  18   5   20.60   33.80   1
  -2 -18  -5   23.50   34.20   1
   2 -18  -5   -0.10   34.20   1
  -2  18   5   19.30   34.20   1
  -2  18  -5   12.90   33.60   1
   2 -18   5   12.30   33.60   1
  -2 -18   5   67.20   34.30   1
   2  18  -5  213.00   35.60   1
   2 -18  -6   21.60   38.80   1
  -2  18   6   26.00   38.90   1
  -2  18  -6   95.60   38.60   1
  -2 -18   6   35.00   38.40   1
   2  18  -6   12.00   38.50   1
   2  18   7   46.30   53.00   1
  -2 -18  -7   39.90   53.00   1
   2 -18  -7   70.00   53.50   1
  -2  18   7   78.40   53.50   1
  -2  18  -7   78.00   53.10   1
   2 -18   7   76.20   53.20   1
  -2 -18   7   69.60   53.10   1
   2  18  -7   98.90   53.20   1
   2  18   8   11.30   35.50   1
  -2 -18  -8   33.70   35.70   1
   2 -18  -8   71.40   36.60   1
  -2  18   8   58.50   36.40   1
  -2  18  -8   33.40   35.50   1
   2 -18   8   18.50   35.50   1
  -2 -18   8   12.50   35.60   1
   2  18  -8   45.00   35.70   1
   2  18   9   23.30   40.50   1
  -2 -18  -9   41.50   40.60   1
   2 -18  -9   38.50   41.30   1
  -2  18   9   53.20   41.20   1
  -2  18  -9   32.80   40.40   1
   2 -18   9   41.00   40.80   1
  -2 -18   9   54.40   40.80   1
   2  18  -9   44.20   40.70   1
   2  18  10   31.20   36.00   1
  -2 -18 -10   24.80   35.90   1
   2 -18 -10   78.30   37.00   1
  -2  18  10   32.30   36.40   1
   2 -18  10   53.40   36.60   1
  -2 -18  10    7.80   35.80   1
   2  19   0   35.60   31.90   1
  -2 -19   0   19.10   31.60   1
   2 -19   0   17.10   31.30   1
  -2  19   0   22.10   31.80   1
   2  19   1   35.00   34.00   1
  -2 -19  -1   30.40   34.10   1
   2 -19  -1   -0.00   34.10   1
  -2  19   1   19.80   34.30   1
  -2  19  -1  147.80   35.00   1
   2 -19   1   30.30   33.90   1
  -2 -19   1   17.20   34.00   1
   2  19  -1    0.30   33.90   1
   2  19   2   -0.00   37.20   1
  -2 -19  -2   -0.00   37.40   1
   2 -19  -2   80.60   38.40   1
  -2  19   2   91.00   38.50   1
  -2  19  -2   67.50   37.60   1
   2 -19   2   21.90   36.90   1
  -2 -19   2   44.40   37.90   1
   2  19  -2   31.40   37.70   1
   2  19   3    7.00   32.00   1
  -2 -19  -3   -0.20   32.80   1
   2 -19  -3   27.20   32.60   1
  -2  19   3   35.40   32.70   1
  -2  19  -3   41.20   32.10   1
   2 -19   3   22.30   31.90   1
  -2 -19   3   44.00   32.80   1
   2  19  -3   18.00   32.30   1
   2  19   4   42.50   31.00   1
  -2 -19  -4   26.60   31.20   1
   2 -19  -4   21.70   31.30   1
  -2  19   4   24.30   31.10   1
  -2  19  -4   19.80   30.60   1
   2 -19   4   27.10   30.40   1
  -2 -19   4    4.20   31.00   1
   2  19  -4    6.30   31.20   1
   2  19   5  231.90   40.60   1
   2 -19  -5    5.80   39.20   1
  -2  19   5    5.80   39.20   1
  -2  19  -5   40.40   38.80   1
   2 -19   5  314.20   41.90   1
  -2 -19   5   16.20   39.00   1
   2  19  -5    7.20   39.00   1
   2  19   6   26.10   33.20   1
  -2 -19  -6   39.60   33.30   1
   2 -19  -6   -0.00   33.60   1
  -2  19   6    4.70   33.60   1
  -2  19  -6   20.50   32.90   1
   2 -19   6   43.70   33.10   1
  -2 -19   6   24.80   33.20   1
   2  19  -6   40.30   33.50   1
   2  19   7   34.40   31.80   1
  -2 -19  -7   52.90   32.00   1
   2 -19  -7   13.70   31.80   1
  -2  19   7   -0.00   32.00   1
  -2  19  -7   41.30   31.60   1
   2 -19   7   44.10   31.70   1
  -2 -19   7   -0.10   31.50   1
   2  19  -7   10.40   31.60   1
   2  19   8    2.60   21.80   1
  -2 -19  -8   -0.00   21.90   1
   2 -19  -8   23.50   22.90   1
  -2  19   8    9.00   22.90   1
  -2  19  -8   16.80   21.50   1
   2 -19   8    9.80   21.70   1
  -2 -19   8   17.00   22.00   1
   2  19  -8    9.30   21.90   1
   2  19   9   -0.00   20.20   1
  -2 -19  -9    3.60   20.40   1
   2 -19  -9   19.80   21.80   1
  -2  19   9    7.70   21.50   1
   2 -19   9   24.50   21.20   1
  -2 -19   9   10.40   20.50   1
   2  20   0   42.50   46.00   1
  -2 -20   0   54.50   45.80   1
   2 -20   0   40.40   45.50   1
  -2  20   0   60.70   45.70   1
   2  20   1   -0.00   25.30   1
  -2 -20  -1    6.60   25.20   1
   2 -20  -1   11.10   24.80   1
  -2  20   1   19.80   25.50   1
  -2  20  -1   23.90   24.90   1
   2 -20   1   11.70   24.70   1
  -2 -20   1   19.40   25.30   1
   2  20  -1   14.60   25.10   1
   2  20   2   54.50   46.10   1
  -2 -20  -2   52.50   46.50   1
   2 -20  -2   52.00   46.30   1
  -2  20   2   48.30   46.60   1
  -2  20  -2   65.10   46.10   1
   2 -20   2   42.00   45.80   1
  -2 -20   2   27.50   46.30   1
   2  20  -2   62.80   46.20   1
   2  20   3   11.10   35.70   1
  -2 -20  -3   26.20   36.10   1
   2 -20  -3   61.10   36.40   1
  -2  20   3   66.50   36.80   1
  -2  20  -3   30.70   35.60   1
   2 -20   3    0.00   35.30   1
  -2 -20   3   36.80   36.20   1
   2  20  -3   70.50   36.60   1
   2  20   4   35.20   37.30   1
  -2 -20  -4   27.90   37.90   1
   2 -20  -4    4.10   37.70   1
  -2  20   4    3.00   38.00   1
  -2  20  -4   59.60   37.40   1
   2 -20   4   80.60   37.50   1
  -2 -20   4   18.50   37.80   1
   2  20  -4   20.70   37.80   1
   2  20   5    9.60   23.80   1
  -2 -20  -5   15.90   24.10   1
   2 -20  -5   -0.00   25.00   1
  -2  20   5   27.50   24.90   1
  -2  20  -5    8.90   23.60   1
   2 -20   5   14.20   23.70   1
  -2 -20   5   10.10   24.30   1
   2  20  -5   18.20   24.50   1
   2  20   6  124.60   54.70   1
  -2 -20  -6  116.30   54.70   1
   2 -20  -6   47.10   54.60   1
  -2  20   6   27.00   54.30   1
  -2  20  -6  151.70   54.80   1
   2 -20   6  140.30   54.70   1
  -2 -20   6   29.00   54.20   1
   2  20  -6   50.40   54.40   1
   2  20   7   19.60   30.90   1
  -2 -20  -7   24.50   31.00   1
   2 -20  -7    6.00   31.30   1
  -2  20   7   11.60   31.40   1
  -2  20  -7   34.60   30.80   1
   2 -20   7   37.30   30.70   1
  -2 -20   7   30.70   30.80   1
   2  20  -7   -0.00   31.00   1
   2  20   8    1.90   25.40   1
  -2 -20  -8   21.70   25.70   1
   2 -20  -8   44.70   26.80   1
  -2  20   8   26.50   26.50   1
   2 -20   8    4.80   25.30   1
  -2 -20   8   14.20   25.70   1
   2  21   0   30.10   37.90   1
  -2 -21   0   24.80   37.90   1
   2 -21   0   41.10   37.80   1
  -2  21   0   36.70   37.90   1
   2  21   1    9.80   32.00   1
  -2 -21  -1   25.80   31.90   1
   2 -21  -1   -0.00   31.60   1
  -2  21   1   -0.00   31.60   1
  -2  21  -1   59.90   31.70   1
   2 -21   1   26.50   31.10   1
  -2 -21   1   27.50   32.10   1
   2  21  -1   40.60   32.20   1
   2  21   2   48.70   34.60   1
  -2 -21  -2   63.00   35.20   1
   2 -21  -2   34.50   35.00   1
  -2  21   2   56.00   34.90   1
  -2  21  -2    4.00   34.20   1
   2 -21   2   12.40   34.10   1
  -2 -21   2   19.00   34.80   1
   2  21  -2   16.70   34.70   1
   2  21   3   13.50   44.10   1
  -2 -21  -3   42.60   44.70   1
   2 -21  -3  131.50   45.60   1
  -2  21   3  118.00   45.50   1
  -2  21  -3   68.20   44.40   1
   2 -21   3   28.60   43.90   1
  -2 -21   3   62.00   44.90   1
   2  21  -3   25.10   44.40   1
   2  21   4   -0.00   38.40   1
  -2 -21  -4    0.00   38.80   1
   2 -21  -4   64.00   39.40   1
  -2  21   4   67.80   39.60   1
  -2  21  -4   20.50   38.40   1
   2 -21   4   22.80   38.30   1
  -2 -21   4  181.20   40.50   1
   2  21  -4  166.60   40.40   1
   2  21   5   38.20   33.80   1
  -2 -21  -5   37.80   33.90   1
   2 -21  -5    4.00   34.40   1
  -2  21   5   -0.00   34.10   1
  -2  21  -5   61.60   33.70   1
   2 -21   5   39.30   33.70   1
  -2 -21   5   -0.00   34.00   1
   2  21  -5   16.30   34.10   1
   2  21   6   39.80   38.90   1
  -2 -21  -6   29.60   38.90   1
   2 -21  -6   32.40   39.40   1
  -2  21   6   44.50   39.50   1
   2 -21   6   34.90   38.70   1
  -2 -21   6   33.80   39.00   1
   2  21   7  106.60   52.50   1
  -2 -21  -7   95.70   52.60   1
   2 -21  -7   41.10   52.30   1
  -2  21   7   70.20   52.60   1
   2 -21   7   54.30   51.90   1
  -2 -21   7   50.20   52.10   1
   2  22   0   28.60   34.70   1
  -2 -22   0   39.80   34.80   1
   2 -22   0   17.00   34.20   1
  -2  22   0   28.90   34.70   1
   2  22   1    3.50   25.00   1
  -2 -22  -1   -0.10   25.50   1
   2 -22  -1   19.80   24.50   1
  -2  22   1    8.00   24.60   1
  -2  22  -1    0.00   24.50   1
   2 -22   1   22.50   24.20   1
  -2 -22   1   -0.00   25.20   1
   2  22  -1   54.90   25.70   1
   2  22   2   15.40   29.70   1
  -2 -22  -2   24.40   30.30   1
   2 -22  -2   35.30   30.00   1
  -2  22   2   19.20   30.10   1
  -2  22  -2   15.70   29.80   1
   2 -22   2   23.90   29.50   1
  -2 -22   2   17.10   30.10   1
   2  22  -2    6.90   30.30   1
   2  22   3   15.00   22.00   1
  -2 -22  -3   24.70   23.00   1
   2 -22  -3   -0.00   23.20   1
  -2  22   3   25.70   23.20   1
  -2  22  -3   12.40   22.10   1
   2 -22   3   -0.00   21.60   1
  -2 -22   3   11.20   23.10   1
   2  22  -3   -0.00   22.90   1
   2  22   4   29.10   37.30   1
  -2 -22  -4   25.80   37.60   1
   2 -22  -4   70.60   38.70   1
  -2  22   4   66.30   38.60   1
  -2  22  -4   32.30   37.20   1
   2 -22   4   13.20   37.00   1
  -2 -22   4   32.10   38.20   1
   2  22  -4   42.80   38.10   1
   2  22   5   -0.20   15.30   1
  -2 -22  -5   -0.00   15.30   1
   2 -22  -5   15.60   17.30   1
  -2  22   5    7.90   17.90   1
   2 -22   5   -0.00   14.60   1
  -2 -22   5   13.30   16.60   1
   2  23   0   21.60   35.10   1
  -2 -23   0   -0.80   35.00   1
   2 -23   0   40.80   34.40   1
  -2  23   0   45.80   35.10   1
   2  23   1   18.10   30.30   1
  -2 -23  -1   29.70   30.40   1
   2 -23  -1   21.60   29.80   1
  -2  23   1   19.60   30.00   1
  -2  23  -1   40.00   30.30   1
   2 -23   1   -0.00   29.50   1
  -2 -23   1   20.10   30.60   1
   2  23  -1   28.80   30.50   1
   2  23   2   36.00   38.60   1
  -2 -23  -2   30.20   39.40   1
   2 -23  -2   27.00   38.80   1
  -2  23   2   26.90   38.70   1
  -2  23  -2   36.30   38.50   1
   2 -23   2   56.60   38.30   1
  -2 -23   2   16.80   38.60   1
   2  23  -2   43.30   39.10   1
   2  23   3   37.30   37.30   1
  -2 -23  -3   47.40   38.20   1
   2 -23  -3   20.60   37.50   1
  -2  23   3   19.00   38.00   1
  -2  23  -3   14.40   37.30   1
   2 -23   3   33.30   37.10   1
  -2 -23   3   38.90   38.00   1
   2  23  -3   67.80   38.20   1
   3   0   6  217.00   94.40   1
  -3   0  -6  203.80   94.40   1
   3   0   7 3162.00  472.10   1
  -3   0  -7 2921.90  471.60   1
   3   0   8  231.00   97.70   1
  -3   0  -8  220.00   97.70   1
   3   0   9  390.80  132.70   1
  -3   0  -9  404.20  132.70   1
   3   0  10   96.80   62.10   1
  -3   0 -10   91.40   62.10   1
   3   0  11  584.30  142.00   1
  -3   0 -11  390.10  140.80   1
   3   0  12  145.00   75.20   1
  -3   0 -12  127.80   75.10   1
   3   0  13  161.40   57.30   1
  -3   0 -13   52.90   57.00   1
   3   0  14  150.80   79.20   1
  -3   0 -14  149.90   79.30   1
   3   0  15  105.60   35.40   1
  -3   0 -15   12.40   35.00   1
   3   1   4 1230.80  251.50   1
  -3  -1  -4 1123.70  252.00   1
   3   1   5   19.00   41.10   1
  -3  -1  -5  101.20   41.20   1
   3   1   6  925.90  215.80   1
  -3  -1  -6  937.00  216.00   1
   3   1   7   22.70   34.60   1
  -3  -1  -7   36.90   34.60   1
   3   1   8   41.30   49.10   1
  -3  -1  -8   67.40   49.10   1
  -3   1  -8   64.60   49.10   1
   3  -1   8   63.40   49.00   1
   3   1   9   27.90   30.30   1
  -3  -1  -9   28.20   30.40   1
  -3   1  -9   27.10   30.10   1
   3  -1   9   16.20   30.10   1
   3   1  10   70.70   59.70   1
  -3  -1 -10  126.30   59.90   1
   3   1  11   29.40   34.60   1
  -3  -1 -11   23.50   34.50   1
   3  -1  11   34.70   34.40   1
   3   1  12   25.20   35.50   1
  -3  -1 -12   26.00   35.40   1
   3  -1  12   37.00   35.30   1
   3   1  13   20.70   28.40   1
  -3  -1 -13   29.50   28.50   1
  -3   1 -13   17.00   28.30   1
   3  -1  13   17.70   28.20   1
   3   1  14   19.50   26.60   1
  -3  -1 -14    0.90   26.60   1
  -3   1 -14   14.20   26.40   1
   3  -1  14   43.50   26.60   1
   3   1  15   10.90   23.00   1
  -3  -1 -15   17.70   23.10   1
  -3   1 -15   13.00   22.80   1
   3  -1  15    7.60   23.40   1
   3   2   2  117.60   71.50   1
  -3  -2  -2  130.90   71.60   1
   3   2   3 2369.60  399.50   1
  -3  -2  -3 2441.70  400.30   1
   3   2   4  265.30  103.40   1
  -3  -2  -4  239.20  103.40   1
   3   2   5  497.80  141.20   1
  -3  -2  -5  412.40  141.00   1
   3   2   6   51.50   49.10   1
  -3  -2  -6   68.60   49.20   1
   3   2   7  306.80  116.50   1
  -3  -2  -7  322.70  116.50   1
   3  -2  -7  280.40  119.10   1
   3   2   8  125.60   74.90   1
  -3  -2  -8  154.30   74.90   1
   3  -2  -8  100.70   75.50   1
   3   2   9   25.60   39.40   1
  -3  -2  -9   68.10   39.40   1
   3  -2  -9   18.20   39.60   1
   3   2  10   82.20   58.00   1
  -3  -2 -10   77.60   58.10   1
   3  -2 -10  108.50   59.00   1
   3   2  11   99.30   65.90   1
  -3  -2 -11  109.30   65.90   1
   3  -2 -11  120.20   67.00   1
   3   2  12   44.30   42.00   1
  -3  -2 -12   67.60   41.90   1
   3  -2 -12   13.40   42.10   1
   3   2  13   31.30   32.70   1
  -3  -2 -13   23.10   32.70   1
   3  -2 -13   22.60   33.10   1
   3   2  14   21.70   35.20   1
  -3  -2 -14   79.20   35.60   1
   3  -2 -14   15.60   35.40   1
   3   2  15   50.70   26.10   1
  -3  -2 -15   -0.00   25.90   1
   3  -2 -15    5.20   26.10   1
  -3   2 -15   33.60   25.80   1
   3  -2  15    0.00   25.80   1
   3   3   0   64.30   46.90   1
  -3  -3   0   87.70   47.00   1
   3  -3   0   28.10   47.50   1
  -3   3   0   21.40   47.20   1
   3   3   1  962.60  178.80   1
  -3  -3  -1  905.60  178.60   1
   3  -3  -1  671.40  178.00   1
  -3   3   1  657.00  178.00   1
  -3   3  -1  564.30  177.50   1
   3  -3   1  544.60  177.30   1
   3   3   2 1814.60  282.30   1
  -3  -3  -2 1931.70  283.00   1
   3  -3  -2 1269.40  281.70   1
  -3   3   2 1606.60  284.00   1
  -3   3  -2 1116.70  280.40   1
   3  -3   2 1259.10  280.90   1
   3   3   3  732.40  178.90   1
  -3  -3  -3  638.80  178.70   1
   3  -3  -3  711.10  180.00   1
  -3   3   3  765.00  180.40   1
  -3   3  -3  685.10  179.30   1
   3  -3   3  596.40  179.00   1
   3   3   4  475.00  108.90   1
  -3  -3  -4  417.10  108.70   1
   3  -3  -4  217.80  108.90   1
  -3   3   4  306.50  109.20   1
  -3   3  -4  166.90  108.40   1
   3  -3   4  286.20  108.70   1
   3   3   5  333.60  101.20   1
  -3  -3  -5  275.50  101.00   1
   3  -3  -5  168.70  101.50   1
  -3   3   5  252.90  101.80   1
  -3   3  -5  156.50  101.00   1
   3  -3   5  405.00  101.70   1
   3   3   6  221.20   81.40   1
  -3  -3  -6  145.90   81.30   1
   3  -3  -6  145.10   82.20   1
  -3   3   6  228.00   82.50   1
  -3   3  -6  107.70   81.40   1
   3  -3   6  182.90   81.40   1
   3   3   7  211.80   79.30   1
  -3  -3  -7  179.80   79.20   1
   3  -3  -7  101.40   80.00   1
  -3   3   7  141.70   79.90   1
  -3   3  -7  120.20   79.10   1
   3  -3   7  136.40   79.10   1
   3   3   8   97.70   55.30   1
  -3  -3  -8   66.30   55.20   1
   3  -3  -8   64.10   56.40   1
  -3   3   8   47.60   55.90   1
   3   3   9   59.30   48.70   1
  -3  -3  -9   48.20   48.70   1
   3  -3  -9   77.60   50.30   1
  -3   3   9   72.70   49.40   1
   3   3  10   58.10   51.00   1
  -3  -3 -10  140.20   51.30   1
   3  -3 -10  121.10   53.00   1
  -3   3  10   -0.50   51.40   1
   3   3  11   38.60   46.00   1
  -3  -3 -11   58.90   46.00   1
   3  -3 -11  160.50   48.50   1
  -3   3  11   47.60   46.80   1
   3   3  12   35.70   37.80   1
  -3  -3 -12   41.10   37.60   1
   3  -3 -12   88.80   39.90   1
  -3   3  12    0.70   38.20   1
   3   3  13  120.10   44.70   1
  -3  -3 -13   32.80   44.30   1
   3  -3 -13   75.70   46.30   1
  -3   3  13   21.10   44.70   1
   3   3  14    7.60   32.10   1
  -3  -3 -14   50.00   32.40   1
   3  -3 -14   71.60   34.30   1
  -3   3  14   17.60   32.60   1
   3   3  15   37.60   43.70   1
  -3  -3 -15   56.40   43.80   1
   3  -3 -15   55.60   45.10   1
  -3   3  15   46.50   44.40   1
   3   4   0   15.30   33.00   1
  -3  -4   0   18.20   33.00   1
   3  -4   0   56.60   33.50   1
  -3   4   0   48.60   33.30   1
   3   4   1   99.10   64.90   1
  -3  -4  -1  118.60   64.90   1
   3  -4  -1  115.30   65.10   1
  -3   4   1   92.40   65.10   1
  -3   4  -1  141.80   65.20   1
   3  -4   1   58.90   65.10   1
  -3  -4   1  109.30   65.00   1
   3   4  -1   93.50   64.90   1
   3   4   2   21.20   27.60   1
  -3  -4  -2   18.00   27.60   1
   3  -4  -2   59.70   28.30   1
  -3   4   2   62.80   28.40   1
  -3   4  -2   -1.60   27.90   1
   3  -4   2   23.60   28.10   1
  -3  -4   2  -11.50   27.80   1
   3   4  -2   18.10   27.70   1
   3   4   3  791.20  196.20   1
  -3  -4  -3  721.20  196.00   1
   3  -4  -3  681.60  196.20   1
  -3   4   3  851.10  196.80   1
  -3   4  -3  870.20  196.70   1
   3  -4   3 1014.90  197.30   1
   3   4   4   66.60   57.10   1
  -3  -4  -4   56.20   57.10   1
   3  -4  -4  132.60   57.40   1
  -3   4   4  201.60   57.80   1
  -3   4  -4   68.40   57.30   1
   3  -4   4   75.70   57.30   1
   3   4   5   88.10   64.80   1
  -3  -4  -5  166.00   64.90   1
   3  -4  -5   89.40   65.20   1
  -3   4   5   40.40   65.10   1
  -3   4  -5   71.70   64.90   1
   3  -4   5  167.60   64.90   1
   3   4   6   26.20   41.50   1
  -3  -4  -6   15.70   41.50   1
   3  -4  -6   27.50   42.00   1
  -3   4   6   11.80   42.00   1
  -3   4  -6   56.40   41.50   1
   3  -4   6  129.60   41.60   1
   3   4   7  292.70  110.60   1
  -3  -4  -7  248.60  110.50   1
   3  -4  -7  286.70  111.10   1
  -3   4   7  246.20  111.10   1
  -3   4  -7  351.90  110.60   1
   3  -4   7  289.60  110.50   1
   3   4   8   33.50   45.20   1
  -3  -4  -8   62.60   45.30   1
   3  -4  -8   93.20   46.00   1
  -3   4   8   19.90   45.40   1
  -3   4  -8   46.40   44.90   1
   3  -4   8   58.70   44.90   1
   3   4   9   19.40   38.40   1
  -3  -4  -9   22.00   38.60   1
   3  -4  -9   95.80   39.60   1
  -3   4   9    2.50   38.90   1
  -3   4  -9   57.60   38.30   1
   3  -4   9   32.70   38.30   1
   3   4  10   24.80   32.80   1
  -3  -4 -10   45.00   33.00   1
   3  -4 -10   22.80   33.60   1
  -3   4  10   28.20   33.80   1
  -3   4 -10   22.50   32.60   1
   3   4  11   23.70   30.10   1
  -3  -4 -11   33.30   30.10   1
   3  -4 -11   14.80   30.80   1
  -3   4  11   -8.20   31.00   1
   3   4  12    5.20   19.40   1
  -3  -4 -12    7.50   19.10   1
   3  -4 -12    5.60   20.40   1
  -3   4  12   32.10   20.90   1
   3   4  13   15.60   24.30   1
  -3  -4 -13    9.60   24.00   1
   3  -4 -13   25.50   25.00   1
  -3   4  13   11.50   25.20   1
   3   4  14   21.60   27.50   1
  -3  -4 -14   21.30   27.40   1
   3  -4 -14   20.60   28.00   1
  -3   4  14   -0.40   28.30   1
   3   4  15   -0.00   22.20   1
  -3  -4 -15   27.90   22.50   1
   3  -4 -15   16.00   23.00   1
  -3   4  15    8.80   23.40   1
   3   5   0   52.30   43.60   1
  -3  -5   0   35.60   43.60   1
   3  -5   0   43.00   44.50   1
  -3   5   0   88.10   44.70   1
   3   5   1  407.00  137.30   1
  -3  -5  -1  410.10  137.30   1
   3  -5  -1  392.30  137.90   1
  -3   5   1  460.00  138.00   1
  -3   5  -1  434.00  137.80   1
   3  -5   1  401.90  137.60   1
  -3  -5   1  459.20  137.60   1
   3   5  -1  459.10  137.60   1
   3   5   2 6050.60  772.20   1
  -3  -5  -2 5552.60  770.40   1
   3  -5  -2 7720.40  787.90   1
  -3   5   2 7720.90  786.00   1
  -3   5  -2 6521.00  775.20   1
   3  -5   2 6656.80  776.70   1
  -3  -5   2 4586.80  769.00   1
   3   5  -2 4513.40  767.50   1
   3   5   3   32.30   52.80   1
  -3  -5  -3   24.40   52.80   1
   3  -5  -3  148.60   53.80   1
  -3   5   3   98.50   53.50   1
  -3   5  -3   90.20   52.90   1
   3  -5   3  164.70   53.10   1
  -3  -5   3   57.90   52.90   1
   3   5  -3  160.40   53.10   1
   3   5   4 2767.30  413.10   1
  -3  -5  -4 2513.90  412.60   1
   3  -5  -4 1839.30  411.70   1
  -3   5   4 2718.10  415.80   1
  -3   5  -4 2591.10  413.20   1
   3  -5   4 3254.40  415.20   1
  -3  -5   4 3104.80  450.70   1
   3   5  -4 2571.00  429.80   1
   3   5   5  559.50  160.50   1
  -3  -5  -5  616.30  160.70   1
   3  -5  -5  498.70  160.90   1
  -3   5   5  517.30  160.90   1
  -3   5  -5  574.00  160.50   1
   3  -5   5  580.20  160.60   1
   3   5   6 4579.20  689.40   1
  -3  -5  -6 5042.70  691.10   1
   3  -5  -6 5054.30  697.80   1
  -3   5   6 4898.10  697.30   1
  -3   5  -6 5641.60  697.60   1
   3  -5   6 5251.70  691.80   1
   3   5   7   93.10   57.50   1
  -3  -5  -7   85.10   57.50   1
   3  -5  -7   89.20   57.90   1
  -3   5   7  108.90   57.90   1
  -3   5  -7   70.10   57.20   1
   3  -5   7   75.10   57.20   1
   3   5   8  116.90   66.60   1
  -3  -5  -8   56.10   66.50   1
   3  -5  -8   36.60   66.80   1
  -3   5   8   89.10   66.80   1
  -3   5  -8  154.70   66.40   1
   3  -5   8  276.30   66.80   1
   3   5   9   20.10   49.40   1
  -3  -5  -9   71.50   49.60   1
   3  -5  -9   48.90   49.80   1
  -3   5   9  125.80   50.30   1
  -3   5  -9   65.80   49.30   1
   3  -5   9   81.20   49.30   1
   3   5  10  149.00   99.90   1
  -3  -5 -10  295.70  100.40   1
   3  -5 -10  279.10  100.80   1
  -3   5  10  417.90  101.70   1
  -3   5 -10  343.80  100.60   1
   3  -5  10  240.30  100.00   1
   3   5  11  118.20   82.90   1
  -3  -5 -11  126.60   82.90   1
   3  -5 -11  163.00   83.50   1
  -3   5  11  247.50   84.00   1
  -3   5 -11  213.10   83.00   1
   3  -5  11  260.10   83.10   1
   3   5  12  135.10   73.40   1
  -3  -5 -12  104.50   73.20   1
   3  -5 -12   98.90   73.60   1
  -3   5  12  146.50   74.00   1
  -3   5 -12  169.80   73.20   1
   3   5  13   27.60   42.90   1
  -3  -5 -13  101.90   43.00   1
   3  -5 -13   22.40   43.10   1
  -3   5  13   86.50   43.80   1
  -3   5 -13   41.80   42.50   1
   3   5  14  122.40   44.60   1
  -3  -5 -14   19.20   43.90   1
   3  -5 -14   18.30   44.20   1
  -3   5  14   18.80   44.40   1
  -3   5 -14   77.00   43.70   1
   3   5  15   60.70   48.40   1
  -3  -5 -15  242.10   50.50   1
   3  -5 -15   31.90   48.50   1
  -3   5  15   45.90   48.80   1
   3   6   0   18.90   44.10   1
  -3  -6   0   18.20   44.00   1
   3  -6   0  323.90   45.20   1
  -3   6   0  204.20   44.70   1
   3   6   1  256.60  124.60   1
  -3  -6  -1  242.00  124.60   1
   3  -6  -1  399.60  125.10   1
  -3   6   1  436.00  125.20   1
  -3   6  -1  618.20  125.50   1
   3  -6   1  459.30  125.00   1
  -3  -6   1  480.70  125.10   1
   3   6  -1  442.00  125.00   1
   3   6   2   28.70   31.60   1
  -3  -6  -2   27.30   31.70   1
   3  -6  -2   23.80   32.30   1
  -3   6   2   33.60   32.40   1
  -3   6  -2   24.90   31.70   1
   3  -6   2   15.70   31.70   1
  -3  -6   2   25.70   31.60   1
   3   6  -2   20.50   31.60   1
   3   6   3  678.00  184.20   1
  -3  -6  -3  680.40  184.30   1
   3  -6  -3  713.90  184.70   1
  -3   6   3  900.90  185.40   1
  -3   6  -3  702.10  184.40   1
   3  -6   3  730.60  184.50   1
  -3  -6   3  728.70  184.50   1
   3   6  -3  671.00  184.40   1
   3   6   4   67.50   43.90   1
  -3  -6  -4   29.00   43.90   1
   3  -6  -4  114.30   45.10   1
  -3   6   4  102.10   45.10   1
  -3   6  -4   13.40   43.80   1
   3  -6   4   17.50   43.80   1
  -3  -6   4  135.00   44.30   1
   3   6  -4  104.00   44.10   1
   3   6   5  155.40   82.70   1
  -3  -6  -5  137.50   82.70   1
   3  -6  -5  201.50   83.40   1
  -3   6   5  186.70   83.50   1
  -3   6  -5  136.00   82.60   1
   3  -6   5  170.60   82.60   1
  -3  -6   5  257.90   83.30   1
   3   6  -5  227.40   83.00   1
   3   6   6   67.10   35.90   1
  -3  -6  -6   31.40   35.70   1
   3  -6  -6   61.10   37.10   1
  -3   6   6   33.00   37.10   1
  -3   6  -6   30.50   35.40   1
   3  -6   6   21.40   35.40   1
  -3  -6   6   12.50   35.40   1
   3   6  -6   46.20   35.60   1
   3   6   7  371.70  129.90   1
  -3  -6  -7  339.90  129.90   1
   3  -6  -7  337.10  130.50   1
  -3   6   7  735.80  131.90   1
  -3   6  -7  354.60  129.70   1
   3  -6   7  440.80  130.00   1
   3   6   8   70.20   52.80   1
  -3  -6  -8  102.00   52.90   1
   3  -6  -8  105.80   53.90   1
  -3   6   8   58.90   53.40   1
  -3   6  -8   50.50   52.50   1
   3  -6   8   67.70   52.60   1
   3   6   9   37.60   36.90   1
  -3  -6  -9   29.40   37.00   1
   3  -6  -9   77.00   38.50   1
  -3   6   9   45.90   37.80   1
  -3   6  -9   35.60   36.70   1
   3  -6   9   24.50   36.60   1
   3   6  10   13.40   37.50   1
  -3  -6 -10   48.00   37.90   1
   3  -6 -10   47.50   38.90   1
  -3   6  10   42.50   38.40   1
  -3   6 -10  246.20   38.60   1
   3  -6  10   26.70   37.40   1
   3   6  11   44.80   49.90   1
  -3  -6 -11   81.40   50.00   1
   3  -6 -11   63.90   51.00   1
  -3   6  11  107.00   50.90   1
  -3   6 -11   63.40   49.80   1
   3  -6  11   51.60   49.80   1
   3   6  12    5.30   23.90   1
  -3  -6 -12   15.00   23.80   1
   3  -6 -12   22.50   25.40   1
  -3   6  12   31.90   24.80   1
  -3   6 -12   15.20   23.50   1
   3  -6  12   11.00   23.50   1
   3   6  13   30.70   39.10   1
  -3  -6 -13   24.20   38.90   1
   3  -6 -13   53.00   40.10   1
  -3   6  13   50.40   39.60   1
  -3   6 -13   42.60   38.80   1
   3  -6  13   37.80   38.70   1
   3   6  14   18.30   22.20   1
  -3  -6 -14    5.70   21.70   1
   3  -6 -14   29.70   23.20   1
  -3   6  14   22.10   22.80   1
  -3   6 -14    8.50   21.20   1
   3   6  15   -0.00   27.50   1
  -3  -6 -15   20.40   27.50   1
   3  -6 -15   17.70   28.30   1
  -3   6  15   32.50   28.10   1
  -3   6 -15   19.50   26.90   1
   3   7   0   92.20   63.90   1
  -3  -7   0   91.40   63.90   1
   3  -7   0  129.20   63.90   1
  -3   7   0   88.90   63.90   1
   3   7   1   79.30   63.80   1
  -3  -7  -1   81.60   63.90   1
   3  -7  -1  103.60   64.00   1
  -3   7   1  116.60   63.90   1
  -3   7  -1  153.00   64.00   1
   3  -7   1  230.80   64.20   1
  -3  -7   1   71.20   63.80   1
   3   7  -1   78.40   63.80   1
   3   7   2  328.70  128.20   1
  -3  -7  -2  397.40  128.40   1
   3  -7  -2  347.00  128.30   1
  -3   7   2  436.50  128.50   1
  -3   7  -2  449.20  128.50   1
   3  -7   2  352.50  128.20   1
  -3  -7   2  407.30  128.40   1
   3   7  -2  347.90  128.20   1
   3   7   3  231.10   88.20   1
  -3  -7  -3  228.10   88.20   1
   3  -7  -3  476.50   89.10   1
  -3   7   3  661.20   90.10   1
  -3   7  -3  161.60   88.10   1
   3  -7   3  174.60   88.10   1
  -3  -7   3  120.60   88.00   1
   3   7  -3  160.10   88.10   1
   3   7   4  574.70  168.60   1
  -3  -7  -4  569.30  168.70   1
   3  -7  -4  824.90  169.60   1
  -3   7   4  654.60  169.10   1
  -3   7  -4  614.50  168.70   1
   3  -7   4  837.80  169.30   1
  -3  -7   4  590.90  168.90   1
   3   7  -4  484.10  168.50   1
   3   7   5  145.70   69.80   1
  -3  -7  -5  138.50   69.70   1
   3  -7  -5   96.80   69.90   1
  -3   7   5   93.20   70.10   1
  -3   7  -5   90.60   69.50   1
   3  -7   5  111.00   69.50   1
  -3  -7   5  142.80   69.70   1
   3   7  -5  136.20   69.60   1
   3   7   6  384.50   80.60   1
  -3  -7  -6  116.90   79.90   1
   3  -7  -6  205.00   80.30   1
  -3   7   6  332.70   80.90   1
  -3   7  -6  135.90   79.70   1
   3  -7   6  271.60   80.00   1
  -3  -7   6   73.70   79.70   1
   3   7  -6  132.60   79.80   1
   3   7   7   62.50   38.90   1
  -3  -7  -7    8.80   38.60   1
   3  -7  -7   16.20   39.20   1
  -3   7   7    3.90   39.50   1
  -3   7  -7   41.90   38.50   1
   3  -7   7   24.90   38.50   1
  -3  -7   7   86.20   39.00   1
   3   7  -7   65.80   38.80   1
   3   7   8   24.70   40.30   1
  -3  -7  -8   17.20   40.30   1
   3  -7  -8  189.60   42.00   1
  -3   7   8   85.60   41.80   1
  -3   7  -8   41.90   40.10   1
   3  -7   8   36.30   40.10   1
   3   7  -8   33.70   40.20   1
   3   7   9   31.20   39.80   1
  -3  -7  -9   59.60   40.20   1
   3  -7  -9   20.60   41.00   1
  -3   7   9   32.70   41.20   1
  -3   7  -9   38.00   39.80   1
   3  -7   9   40.60   39.60   1
   3   7  10   86.70   65.30   1
  -3  -7 -10   84.00   65.30   1
   3  -7 -10  342.90   68.00   1
  -3   7  10  227.30   67.30   1
  -3   7 -10  110.00   65.20   1
   3  -7  10   92.70   65.10   1
   3   7  11   49.30   52.40   1
  -3  -7 -11   52.20   52.50   1
   3  -7 -11  190.60   54.80   1
  -3   7  11   73.70   53.60   1
  -3   7 -11   64.70   52.30   1
   3  -7  11   88.70   52.40   1
   3   7  12   38.00   38.70   1
  -3  -7 -12   25.80   38.60   1
   3  -7 -12   43.20   40.50   1
  -3   7  12   60.40   40.00   1
  -3   7 -12   43.00   38.50   1
   3  -7  12   32.40   38.50   1
   3   7  13   64.20   46.00   1
  -3  -7 -13   40.30   45.70   1
   3  -7 -13   18.60   47.00   1
  -3   7  13   17.00   46.20   1
  -3   7 -13   83.60   45.70   1
   3  -7  13   51.10   45.50   1
   3   7  14   24.00   32.20   1
  -3  -7 -14    6.40   31.80   1
   3  -7 -14   43.00   34.00   1
  -3   7  14   45.60   32.70   1
  -3   7 -14   25.10   31.60   1
   3  -7  14   28.60   31.60   1
   3   7  15   60.60   27.20   1
  -3  -7 -15   20.30   26.60   1
   3  -7 -15   13.60   28.70   1
  -3   7  15   17.90   27.30   1
  -3   7 -15    9.50   26.00   1
   3  -7  15   16.60   26.00   1
   3   8   0   44.20   40.40   1
  -3  -8   0   58.10   40.40   1
   3  -8   0   32.70   40.40   1
  -3   8   0   28.20   40.30   1
   3   8   1  282.40  127.80   1
  -3  -8  -1  338.20  127.90   1
   3  -8  -1  481.80  128.40   1
  -3   8   1  446.90  128.30   1
  -3   8  -1  329.10  127.90   1
   3  -8   1  506.90  128.20   1
  -3  -8   1  406.10  128.10   1
   3   8  -1  383.20  128.00   1
   3   8   2   46.00   41.80   1
  -3  -8  -2   46.10   41.80   1
   3  -8  -2   35.60   41.90   1
  -3   8   2   30.90   41.80   1
  -3   8  -2   67.20   41.90   1
   3  -8   2  119.50   42.10   1
  -3  -8   2   19.10   41.70   1
   3   8  -2   28.00   41.80   1
   3   8   3  519.50  145.80   1
  -3  -8  -3  640.70  146.10   1
   3  -8  -3  578.50  145.90   1
  -3   8   3  514.60  145.80   1
  -3   8  -3  444.10  145.60   1
   3  -8   3  450.10  145.60   1
  -3  -8   3  368.20  145.40   1
   3   8  -3  432.10  145.50   1
   3   8   4 1545.30  323.40   1
  -3  -8  -4 2078.50  325.20   1
   3  -8  -4 1754.20  324.20   1
  -3   8   4 1945.20  325.00   1
  -3   8  -4 1662.80  323.90   1
   3  -8   4 1697.70  323.80   1
  -3  -8   4 2224.60  326.50   1
   3   8  -4 1679.50  324.50   1
   3   8   5  537.70  159.90   1
  -3  -8  -5  623.40  160.00   1
   3  -8  -5  595.00  160.00   1
  -3   8   5  385.30  159.60   1
  -3   8  -5  718.80  160.10   1
   3  -8   5  570.30  159.90   1
  -3  -8   5  731.90  160.60   1
   3   8  -5  531.90  159.80   1
   3   8   6   87.70   55.70   1
  -3  -8  -6  100.70   55.70   1
   3  -8  -6  154.70   56.00   1
  -3   8   6  108.00   56.00   1
  -3   8  -6   53.30   55.50   1
   3  -8   6  135.50   55.70   1
  -3  -8   6   33.00   55.40   1
   3   8  -6   52.80   55.40   1
   3   8   7  251.50  104.30   1
  -3  -8  -7  277.80  104.30   1
   3  -8  -7  222.60  104.20   1
  -3   8   7  306.70  104.50   1
  -3   8  -7  285.30  104.10   1
   3  -8   7  184.10  103.90   1
  -3  -8   7  596.00  106.20   1
   3   8   8  115.40   78.50   1
  -3  -8  -8  167.20   78.70   1
   3  -8  -8   88.60   78.50   1
  -3   8   8  129.00   78.80   1
  -3   8  -8  274.40   78.80   1
   3  -8   8  162.50   78.40   1
  -3  -8   8  160.90   78.60   1
   3   8  -8  172.80   78.60   1
   3   8   9   71.90   65.70   1
  -3  -8  -9   85.70   65.90   1
   3  -8  -9  123.70   66.20   1
  -3   8   9  136.80   66.70   1
  -3   8  -9  182.40   65.90   1
   3  -8   9   79.30   65.50   1
  -3  -8   9  228.70   67.60   1
   3   8  -9  429.00   69.40   1
   3   8  10   46.10   43.30   1
  -3  -8 -10   57.10   43.40   1
   3  -8 -10   18.40   43.80   1
  -3   8  10   41.50   44.20   1
  -3   8 -10  115.90   43.30   1
   3  -8  10   41.90   43.00   1
   3   8 -10   19.70   43.10   1
   3   8  11   26.30   43.80   1
  -3  -8 -11   84.40   44.20   1
   3  -8 -11  147.10   45.30   1
  -3   8  11   17.30   45.00   1
  -3   8 -11   59.90   43.70   1
   3  -8  11   30.00   43.80   1
   3   8  12   26.90   34.00   1
  -3  -8 -12   20.60   34.00   1
   3  -8 -12   58.20   35.50   1
  -3   8  12    0.00   35.70   1
  -3   8 -12   19.60   33.80   1
   3  -8  12   52.30   34.00   1
   3   8  13   24.10   42.00   1
  -3  -8 -13   33.80   41.90   1
   3  -8 -13   36.80   43.00   1
  -3   8  13   48.90   43.70   1
  -3   8 -13   48.30   41.90   1
   3  -8  13   60.00   41.80   1
   3   8  14   21.10   30.50   1
  -3  -8 -14   18.10   30.20   1
   3  -8 -14   61.30   32.40   1
  -3   8  14   43.10   32.20   1
  -3   8 -14   23.30   30.10   1
   3  -8  14   17.00   29.90   1
   3   8  15   49.50   34.70   1
  -3  -8 -15   12.30   34.10   1
  -3   8  15   42.70   35.60   1
  -3   8 -15   35.20   33.80   1
   3  -8  15   23.00   33.70   1
   3   9   0   -0.00   31.50   1
  -3  -9   0   12.20   31.50   1
   3  -9   0   57.80   31.90   1
  -3   9   0   57.40   31.80   1
   3   9   1   41.70   43.30   1
  -3  -9  -1   39.70   43.30   1
   3  -9  -1   30.00   43.40   1
  -3   9   1   33.40   43.40   1
  -3   9  -1   66.40   43.40   1
   3  -9   1   58.90   43.40   1
  -3  -9   1   59.60   43.30   1
   3   9  -1   41.50   43.30   1
   3   9   2   83.30   55.30   1
  -3  -9  -2   79.40   55.40   1
   3  -9  -2   54.60   55.30   1
  -3   9   2   49.60   55.30   1
  -3   9  -2   54.90   55.40   1
   3  -9   2   72.60   55.30   1
  -3  -9   2  119.40   55.40   1
   3   9  -2   97.20   55.40   1
   3   9   3   19.20   32.40   1
  -3  -9  -3   22.80   32.30   1
   3  -9  -3   32.00   32.40   1
  -3   9   3   36.70   32.30   1
  -3   9  -3    0.00   32.10   1
   3  -9   3   45.00   32.40   1
  -3  -9   3   26.30   32.20   1
   3   9  -3   35.10   32.20   1
   3   9   4   48.70   51.30   1
  -3  -9  -4   67.00   51.30   1
   3  -9  -4   56.20   51.20   1
  -3   9   4   65.50   51.10   1
  -3   9  -4  111.00   51.20   1
   3  -9   4  267.70   51.80   1
  -3  -9   4   37.20   51.10   1
   3   9  -4   28.30   51.00   1
   3   9   5   32.60   39.20   1
  -3  -9  -5   63.40   39.40   1
   3  -9  -5   28.80   39.10   1
  -3   9   5   33.30   39.20   1
  -3   9  -5   69.00   39.10   1
   3  -9   5   60.00   39.20   1
  -3  -9   5   37.00   39.00   1
   3   9  -5   11.70   38.80   1
   3   9   6  156.70   76.10   1
  -3  -9  -6  155.70   76.10   1
   3  -9  -6  120.40   76.00   1
  -3   9   6  141.80   76.10   1
  -3   9  -6  152.10   76.00   1
   3  -9   6  128.00   76.00   1
  -3  -9   6  134.40   75.90   1
   3   9  -6  131.10   75.90   1
   3   9   7   59.00   28.80   1
  -3  -9  -7   29.90   28.70   1
  -3   9   7   38.20   28.90   1
  -3   9  -7   14.00   28.30   1
   3  -9   7    7.20   28.20   1
  -3  -9   7   11.70   28.10   1
   3   9  -7   12.10   28.10   1
   3   9   8   17.70   31.70   1
  -3  -9  -8   25.70   31.90   1
   3  -9  -8   71.70   32.20   1
  -3   9   8  102.20   32.50   1
  -3   9  -8    8.70   31.60   1
   3  -9   8    0.00   31.30   1
  -3  -9   8   21.20   31.50   1
   3   9  -8   38.50   31.60   1
   3   9   9   42.70   36.30   1
  -3  -9  -9   31.50   36.50   1
   3  -9  -9   44.80   36.60   1
  -3   9   9   60.30   37.00   1
  -3   9  -9   34.00   36.20   1
   3  -9   9   23.80   35.90   1
  -3  -9   9    7.60   36.10   1
   3   9  -9   44.10   36.20   1
   3   9  10   36.10   38.50   1
  -3  -9 -10   28.40   38.70   1
   3  -9 -10   57.50   39.20   1
  -3   9  10   98.60   39.60   1
  -3   9 -10   36.20   38.40   1
   3  -9  10   40.70   38.40   1
  -3  -9  10   33.00   38.70   1
   3   9 -10   12.60   38.50   1
   3   9  11   10.50   31.00   1
  -3  -9 -11   24.60   31.20   1
   3  -9 -11   28.20   31.90   1
  -3   9  11   28.40   32.30   1
  -3   9 -11   21.10   30.90   1
   3  -9  11   36.30   31.20   1
  -3  -9  11   15.00   31.20   1
   3   9 -11   45.80   31.50   1
   3   9  12   32.30   30.60   1
  -3  -9 -12   19.90   30.30   1
   3  -9 -12   66.60   31.40   1
  -3   9  12   82.70   32.30   1
  -3   9 -12    7.60   30.20   1
   3  -9  12   17.20   30.40   1
   3   9 -12   21.30   30.40   1
   3   9  13   11.90   25.20   1
  -3  -9 -13   14.00   24.90   1
   3  -9 -13   -0.00   25.80   1
  -3   9  13   25.30   26.80   1
  -3   9 -13   24.90   24.90   1
   3  -9  13   12.10   24.80   1
   3   9  14   13.70   32.70   1
  -3  -9 -14   20.00   32.60   1
   3  -9 -14   38.30   33.50   1
  -3   9  14   45.00   34.70   1
  -3   9 -14   32.60   32.50   1
   3  -9  14   24.40   32.30   1
   3  10   0  103.50   49.50   1
  -3 -10   0  122.80   49.70   1
   3 -10   0   22.40   49.50   1
  -3  10   0   26.00   49.40   1
   3  10   1  510.00  132.10   1
  -3 -10  -1  574.50  132.20   1
   3 -10  -1  614.90  132.40   1
  -3  10   1  572.80  132.20   1
  -3  10  -1  312.10  131.60   1
   3 -10   1  280.50  131.60   1
  -3 -10   1  410.50  131.90   1
   3  10  -1  327.10  131.70   1
   3  10   2   53.20   43.10   1
  -3 -10  -2   62.80   43.00   1
   3 -10  -2   36.20   43.10   1
  -3  10   2   59.70   43.20   1
  -3  10  -2   18.50   42.90   1
   3 -10   2   33.80   43.20   1
  -3 -10   2   58.40   43.20   1
   3  10  -2   50.20   43.10   1
   3  10   3 2665.60  441.20   1
  -3 -10  -3 2936.10  442.20   1
   3 -10  -3 3607.20  445.30   1
  -3  10   3 3413.80  445.30   1
  -3  10  -3 2420.20  440.50   1
   3 -10   3 2145.20  440.20   1
  -3 -10   3 2942.50  442.90   1
   3  10  -3 3143.90  443.10   1
   3  10   4  350.60  118.70   1
  -3 -10  -4  381.60  118.80   1
   3 -10  -4  291.00  118.50   1
  -3  10   4  299.60  118.50   1
  -3  10  -4  324.70  118.60   1
   3 -10   4  539.00  119.30   1
  -3 -10   4  270.50  118.40   1
   3  10  -4  303.80  118.50   1
   3  10   5 1196.40  215.90   1
  -3 -10  -5 1000.40  215.30   1
   3 -10  -5  702.30  214.30   1
  -3  10   5  757.40  214.50   1
  -3  10  -5 1152.50  215.90   1
   3 -10   5 1130.00  215.70   1
  -3 -10   5 1004.60  214.90   1
   3  10  -5  882.10  214.50   1
   3  10   6   60.50   55.90   1
  -3 -10  -6   31.50   55.80   1
   3 -10  -6   77.90   55.80   1
  -3  10   6  125.10   56.00   1
  -3  10  -6  108.30   55.80   1
   3 -10   6  159.80   56.10   1
  -3 -10   6   54.90   55.60   1
   3  10  -6   58.60   55.60   1
   3  10   7  370.70  144.80   1
  -3 -10  -7  475.60  145.00   1
   3 -10  -7  451.00  144.90   1
  -3  10   7  677.50  145.60   1
  -3  10  -7  538.00  145.30   1
   3 -10   7  471.80  145.10   1
  -3 -10   7  498.00  144.90   1
   3  10  -7  402.10  144.70   1
   3  10   8   10.20   32.60   1
  -3 -10  -8    9.10   32.80   1
   3 -10  -8   37.50   32.90   1
  -3  10   8   15.10   33.00   1
  -3  10  -8   71.00   32.80   1
   3 -10   8   13.50   32.30   1
  -3 -10   8   56.20   32.60   1
   3  10  -8   17.90   32.40   1
   3  10   9  136.30   66.10   1
  -3 -10  -9  125.90   66.20   1
   3 -10  -9   83.60   66.00   1
  -3  10   9   73.40   66.10   1
  -3  10  -9  118.40   65.90   1
   3 -10   9   97.30   65.80   1
  -3 -10   9   93.00   65.90   1
   3  10  -9  128.10   65.90   1
   3  10  10   26.70   40.20   1
  -3 -10 -10  129.90   40.80   1
   3 -10 -10   18.50   40.40   1
  -3  10  10   13.60   40.50   1
  -3  10 -10  104.80   40.30   1
   3 -10  10   46.80   40.10   1
  -3 -10  10   33.80   40.30   1
   3  10 -10   15.20   40.10   1
   3  10  11   66.80   51.80   1
  -3 -10 -11   78.40   51.80   1
   3 -10 -11   63.10   52.20   1
  -3  10  11   84.10   52.30   1
  -3  10 -11   59.30   51.60   1
   3 -10  11   64.40   51.70   1
  -3 -10  11   44.80   51.80   1
   3  10 -11   73.40   51.90   1
   3  10  12   55.00   41.30   1
  -3 -10 -12   38.50   41.30   1
   3 -10 -12   59.50   41.80   1
  -3  10  12   51.00   41.80   1
  -3  10 -12   29.50   40.90   1
   3 -10  12   39.10   41.10   1
  -3 -10  12   44.70   41.40   1
   3  10 -12   39.10   41.20   1
   3  10  13   37.50   44.60   1
  -3 -10 -13   21.80   44.30   1
   3 -10 -13   30.20   44.70   1
  -3  10  13   58.30   45.50   1
  -3  10 -13   62.00   44.40   1
   3 -10  13   80.90   44.60   1
  -3 -10  13  195.90   50.60   1
   3  10 -13   75.20   44.90   1
   3  10  14   16.20   30.70   1
  -3 -10 -14   36.20   30.80   1
   3 -10 -14   51.70   31.50   1
  -3  10  14   17.20   31.60   1
  -3  10 -14   19.20   30.50   1
   3 -10  14   28.10   30.50   1
   3  10 -14    8.80   30.40   1
   3  11   0   96.20   51.70   1
  -3 -11   0   97.00   51.80   1
   3 -11   0   37.40   51.60   1
  -3  11   0   46.70   51.60   1
   3  11   1    9.90   52.00   1
  -3 -11  -1    8.80   51.90   1
   3 -11  -1   37.80   52.00   1
  -3  11   1   26.50   52.10   1
  -3  11  -1  101.00   52.10   1
   3 -11   1  160.40   52.40   1
  -3 -11   1  233.70   52.50   1
   3  11  -1  281.10   52.60   1
   3  11   2  193.80   90.60   1
  -3 -11  -2  153.90   90.50   1
   3 -11  -2  165.30   90.50   1
  -3  11   2  145.10   90.60   1
  -3  11  -2  387.50   91.10   1
   3 -11   2  489.10   91.60   1
  -3 -11   2  193.70   90.60   1
   3  11  -2  180.30   90.50   1
   3  11   3   15.40   44.60   1
  -3 -11  -3   48.70   44.70   1
   3 -11  -3   62.60   44.60   1
  -3  11   3   85.70   44.60   1
  -3  11  -3   61.20   44.70   1
   3 -11   3   32.20   44.50   1
  -3 -11   3   42.90   44.50   1
   3  11  -3   41.30   44.50   1
   3  11   4  123.10   87.50   1
  -3 -11  -4  128.60   87.50   1
   3 -11  -4  200.00   87.60   1
  -3  11   4  183.80   87.50   1
  -3  11  -4  155.20   87.50   1
   3 -11   4  157.50   87.60   1
  -3 -11   4  383.00   88.00   1
   3  11  -4  311.90   87.80   1
   3  11   5    9.70   39.40   1
  -3 -11  -5   23.00   39.50   1
   3 -11  -5   16.60   39.30   1
  -3  11   5   16.40   39.40   1
  -3  11  -5   17.80   39.20   1
   3 -11   5   45.00   39.50   1
  -3 -11   5  117.40   39.50   1
   3  11  -5   78.60   39.40   1
   3  11   6  107.60   67.50   1
  -3 -11  -6  162.40   67.70   1
   3 -11  -6  126.60   67.50   1
  -3  11   6  112.70   67.50   1
  -3  11  -6   81.10   67.30   1
   3 -11   6   77.20   67.40   1
  -3 -11   6  117.20   67.30   1
   3  11  -6  117.30   67.30   1
   3  11   7   21.00   35.50   1
  -3 -11  -7   43.60   36.00   1
   3 -11  -7   41.70   35.70   1
  -3  11   7  195.30   36.70   1
  -3  11  -7   44.20   35.50   1
   3 -11   7    8.70   35.20   1
  -3 -11   7   17.10   35.20   1
   3  11  -7   19.90   35.10   1
   3  11   8   15.50   41.50   1
  -3 -11  -8   32.80   41.90   1
   3 -11  -8   41.40   41.80   1
  -3  11   8   72.60   42.00   1
  -3  11  -8   43.70   41.60   1
   3 -11   8   32.30   41.40   1
  -3 -11   8   28.60   41.50   1
   3  11  -8  103.90   41.60   1
   3  11   9   91.60   48.80   1
  -3 -11  -9  124.60   49.10   1
   3 -11  -9   54.80   48.90   1
  -3  11   9   38.60   48.90   1
  -3  11  -9   93.50   48.60   1
   3 -11   9  111.00   48.60   1
  -3 -11   9   17.20   48.40   1
   3  11  -9   28.00   48.40   1
   3  11  10   45.40   38.50   1
  -3 -11 -10   17.20   38.40   1
   3 -11 -10   24.80   38.60   1
  -3  11  10  154.00   39.50   1
  -3  11 -10   16.60   38.10   1
   3 -11  10   42.80   38.20   1
  -3 -11  10   25.80   38.30   1
   3  11 -10   56.40   38.40   1
   3  11  11   17.70   27.00   1
  -3 -11 -11   30.30   27.20   1
   3 -11 -11   -0.00   27.40   1
  -3  11  11   39.60   28.00   1
  -3  11 -11   34.30   26.90   1
   3 -11  11   17.90   27.00   1
  -3 -11  11   -0.00   26.90   1
   3  11 -11   13.50   26.90   1
   3  11  12   22.80   30.90   1
  -3 -11 -12   12.90   30.80   1
   3 -11 -12   -0.90   31.10   1
  -3  11  12   24.50   31.50   1
  -3  11 -12   20.20   30.70   1
   3 -11  12    8.80   30.90   1
  -3 -11  12   50.30   31.10   1
   3  11 -12  111.90   31.60   1
   3  11  13    3.50   22.70   1
  -3 -11 -13    5.90   22.60   1
   3 -11 -13   12.20   23.30   1
  -3  11  13   22.30   23.60   1
  -3  11 -13   12.60   22.50   1
   3 -11  13    3.80   22.70   1
  -3 -11  13    8.40   22.70   1
   3  11 -13   63.60   23.40   1
   3  11  14   17.40   29.90   1
  -3 -11 -14   13.10   29.60   1
   3 -11 -14   18.10   30.20   1
  -3  11  14   12.60   30.40   1
  -3  11 -14   28.30   29.60   1
   3 -11  14   24.40   29.60   1
  -3 -11  14   29.20   29.90   1
   3  11 -14   22.20   29.60   1
   3  12   0   39.00   37.10   1
  -3 -12   0   47.60   37.20   1
   3 -12   0   16.20   37.30   1
  -3  12   0   27.50   37.20   1
   3  12   1  203.00  100.90   1
  -3 -12  -1  215.00  100.90   1
   3 -12  -1  272.30  101.10   1
  -3  12   1  194.90  100.90   1
  -3  12  -1  269.50  101.10   1
   3 -12   1  380.30  101.50   1
  -3 -12   1  248.70  101.00   1
   3  12  -1  235.70  101.00   1
   3  12   2  109.10   62.90   1
  -3 -12  -2  130.60   62.90   1
   3 -12  -2   76.70   62.50   1
  -3  12   2   69.00   62.60   1
  -3  12  -2  110.10   62.70   1
   3 -12   2   68.00   62.70   1
  -3 -12   2   71.90   62.60   1
   3  12  -2  154.90   62.60   1
   3  12   3  229.20  108.00   1
  -3 -12  -3  293.10  108.10   1
   3 -12  -3  255.80  107.90   1
  -3  12   3  269.60  108.00   1
  -3  12  -3  353.00  108.30   1
   3 -12   3  592.60  109.20   1
  -3 -12   3  236.20  107.90   1
   3  12  -3  227.40  107.90   1
   3  12   4  510.10  141.70   1
  -3 -12  -4  545.00  141.90   1
   3 -12  -4  443.20  141.40   1
  -3  12   4  369.70  141.20   1
  -3  12  -4  397.50  141.40   1
   3 -12   4  397.70  141.40   1
  -3 -12   4  567.50  141.60   1
   3  12  -4  446.30  141.40   1
   3  12   5  199.20   93.40   1
  -3 -12  -5  256.60   93.50   1
   3 -12  -5  184.80   93.20   1
  -3  12   5  181.90   93.20   1
  -3  12  -5  139.40   93.20   1
   3 -12   5  253.20   93.50   1
  -3 -12   5  285.10   93.40   1
   3  12  -5  215.40   93.20   1
   3  12   6   34.70   35.40   1
  -3 -12  -6   14.00   35.40   1
   3 -12  -6   51.90   35.20   1
  -3  12   6   97.80   35.50   1
  -3  12  -6   31.10   35.10   1
   3 -12   6   22.40   35.00   1
  -3 -12   6   26.60   34.80   1
   3  12  -6   -1.60   34.80   1
   3  12   7   13.20   39.40   1
  -3 -12  -7   25.10   39.60   1
   3 -12  -7   29.20   39.30   1
  -3  12   7   95.00   39.60   1
  -3  12  -7   17.90   39.10   1
   3 -12   7   24.10   39.00   1
  -3 -12   7   68.60   39.30   1
   3  12  -7   47.00   39.10   1
   3  12   8   43.50   51.60   1
  -3 -12  -8   50.20   51.80   1
   3 -12  -8   64.30   51.90   1
  -3  12   8   79.30   51.80   1
  -3  12  -8   99.60   51.80   1
   3 -12   8   42.70   51.40   1
  -3 -12   8   70.60   51.50   1
   3  12  -8   89.30   51.60   1
   3  12   9   23.20   29.30   1
  -3 -12  -9   19.30   29.40   1
   3 -12  -9   26.70   29.60   1
  -3  12  -9   20.50   29.00   1
   3 -12   9   18.40   28.90   1
  -3 -12   9   20.90   29.10   1
   3  12  -9   16.80   29.00   1
   3  12  10   49.20   45.50   1
  -3 -12 -10   39.60   45.60   1
   3 -12 -10   64.50   45.90   1
  -3  12  10   57.40   45.80   1
  -3  12 -10   57.90   45.40   1
   3 -12  10   39.40   45.30   1
  -3 -12  10   55.30   45.40   1
   3  12 -10   48.40   45.40   1
   3  12  11   16.60   40.40   1
  -3 -12 -11   49.00   40.70   1
   3 -12 -11   54.50   41.20   1
  -3  12  11   82.30   41.30   1
  -3  12 -11   50.80   40.50   1
   3 -12  11   38.90   40.60   1
  -3 -12  11   55.10   40.70   1
   3  12 -11   25.10   40.40   1
   3  12  12   22.40   31.20   1
  -3 -12 -12   16.20   31.00   1
   3 -12 -12   33.00   31.50   1
  -3  12  12   55.60   31.80   1
  -3  12 -12    6.30   30.80   1
   3 -12  12   55.80   31.50   1
  -3 -12  12   12.10   30.90   1
   3  12 -12   39.60   31.20   1
   3  12  13   26.30   36.70   1
  -3 -12 -13   18.00   36.50   1
   3 -12 -13   49.70   37.30   1
  -3  12  13   37.20   37.10   1
  -3  12 -13   31.50   36.50   1
   3 -12  13   52.00   36.80   1
  -3 -12  13   26.90   36.50   1
   3  12 -13   35.10   36.60   1
   3  13   0   64.70   68.90   1
  -3 -13   0   71.50   68.90   1
   3 -13   0  456.70   70.60   1
  -3  13   0  300.90   69.60   1
   3  13   1  647.00  117.80   1
  -3 -13  -1  642.40  117.80   1
   3 -13  -1  224.00  116.60   1
  -3  13   1  209.70  116.60   1
  -3  13  -1  302.70  116.80   1
   3 -13   1  324.60  117.00   1
  -3 -13   1  305.40  116.70   1
   3  13  -1  449.00  117.10   1
   3  13   2  119.80   77.50   1
  -3 -13  -2  159.20   77.60   1
   3 -13  -2  131.20   77.50   1
  -3  13   2  113.40   77.40   1
  -3  13  -2  417.40   78.70   1
  -3 -13   2  141.40   77.40   1
   3  13  -2  144.20   77.50   1
   3  13   3 1011.30  191.50   1
  -3 -13  -3 1227.00  192.50   1
   3 -13  -3  588.70  189.70   1
  -3  13   3  777.50  190.40   1
  -3  13  -3  813.50  190.70   1
   3 -13   3  720.90  190.30   1
  -3 -13   3  789.20  190.30   1
   3  13  -3  645.90  189.70   1
   3  13   4   19.20   42.10   1
  -3 -13  -4   40.50   42.20   1
   3 -13  -4   43.20   42.10   1
  -3  13   4   25.10   42.10   1
  -3  13  -4   82.70   42.30   1
   3 -13   4   60.40   42.40   1
  -3 -13   4   41.60   42.00   1
   3  13  -4   43.00   41.90   1
   3  13   5  424.10  118.70   1
  -3 -13  -5  347.00  118.40   1
   3 -13  -5  487.60  118.80   1
  -3  13   5  426.20  118.50   1
  -3  13  -5  367.00  118.50   1
   3 -13   5  358.30  118.60   1
  -3 -13   5  238.80  117.90   1
   3  13  -5  218.40  117.90   1
   3  13   6   42.30   70.40   1
  -3 -13  -6   69.80   70.60   1
   3 -13  -6  180.50   70.70   1
  -3  13   6   88.10   70.50   1
  -3  13  -6  165.00   70.70   1
   3 -13   6   85.70   70.40   1
  -3 -13   6  260.00   70.90   1
   3  13  -6  212.00   70.60   1
   3  13   7   84.50   66.50   1
  -3 -13  -7   90.70   66.70   1
   3 -13  -7  157.80   66.80   1
  -3  13   7  210.70   67.00   1
  -3  13  -7  181.40   66.90   1
   3 -13   7   86.20   66.40   1
  -3 -13   7   61.20   66.40   1
   3  13  -7  102.90   66.40   1
   3  13   8   67.60   46.00   1
  -3 -13  -8   52.50   46.40   1
   3 -13  -8   71.10   46.20   1
  -3  13   8  290.60   47.60   1
  -3  13  -8   53.60   45.90   1
   3 -13   8   34.80   45.70   1
  -3 -13   8   37.70   45.90   1
   3  13  -8   18.70   45.80   1
   3  13   9  105.20   71.10   1
  -3 -13  -9  125.50   71.20   1
   3 -13  -9  134.40   71.20   1
  -3  13   9  128.70   71.30   1
  -3  13  -9  111.10   71.00   1
   3 -13   9   85.40   70.90   1
  -3 -13   9  170.60   71.10   1
   3  13  -9  140.00   71.10   1
   3  13  10   88.00   54.30   1
  -3 -13 -10   88.30   54.30   1
   3 -13 -10   74.30   54.50   1
  -3  13  10   81.90   54.50   1
  -3  13 -10   89.10   54.10   1
   3 -13  10   64.40   54.10   1
  -3 -13  10   36.70   54.10   1
   3  13 -10   69.70   54.10   1
   3  13  11   13.10   38.70   1
  -3 -13 -11   60.00   39.00   1
   3 -13 -11   36.50   39.30   1
  -3  13  11   47.60   39.30   1
  -3  13 -11   55.90   38.80   1
   3 -13  11   27.50   38.70   1
  -3 -13  11   20.90   38.60   1
   3  13 -11   57.90   38.80   1
   3  13  12   19.00   32.90   1
  -3 -13 -12    8.30   32.70   1
   3 -13 -12  104.80   33.90   1
  -3  13  12   36.20   33.40   1
  -3  13 -12   29.50   32.70   1
   3 -13  12   29.30   33.00   1
  -3 -13  12   30.90   32.90   1
   3  13 -12   15.60   32.60   1
   3  13  13   10.50   28.00   1
  -3 -13 -13   19.70   28.00   1
   3 -13 -13   33.80   28.50   1
  -3  13  13    9.50   28.50   1
  -3  13 -13    3.40   27.70   1
   3 -13  13   14.60   28.00   1
  -3 -13  13   20.30   27.80   1
   3  13 -13   55.80   28.10   1
   3  14   0    7.10   29.90   1
  -3 -14   0   11.10   30.10   1
   3 -14   0   37.80   30.50   1
  -3  14   0   37.70   30.30   1
   3  14   1   39.90   44.80   1
  -3 -14  -1   21.70   44.80   1
   3 -14  -1  189.80   45.50   1
  -3  14   1  175.20   45.20   1
  -3  14  -1   54.80   44.90   1
   3 -14   1   63.70   45.00   1
  -3 -14   1   10.30   44.50   1
   3  14  -1    4.30   44.50   1
   3  14   2   -0.40   25.80   1
  -3 -14  -2    5.10   25.50   1
   3 -14  -2   22.00   25.80   1
  -3  14   2   -0.30   25.10   1
  -3  14  -2    9.00   25.40   1
   3 -14   2   17.60   25.60   1
  -3 -14   2   42.00   25.30   1
   3  14  -2   18.90   25.20   1
   3  14   3  144.80   49.70   1
  -3 -14  -3  162.80   49.90   1
   3 -14  -3   43.20   49.20   1
  -3  14   3   15.70   49.10   1
  -3  14  -3   65.10   49.40   1
   3 -14   3   33.60   49.20   1
  -3 -14   3   65.40   49.20   1
   3  14  -3   46.80   49.10   1
   3  14   4   29.40   37.10   1
  -3 -14  -4   18.50   37.00   1
   3 -14  -4   14.00   36.80   1
  -3  14   4   17.30   36.90   1
  -3  14  -4   40.70   37.10   1
   3 -14   4   37.20   37.10   1
  -3 -14   4   53.90   37.20   1
   3  14  -4   58.50   36.90   1
   3  14   5  223.80  100.10   1
  -3 -14  -5  291.40  100.30   1
   3 -14  -5  196.00   99.80   1
  -3  14   5  220.20  100.00   1
  -3  14  -5  270.80  100.30   1
   3 -14   5  256.80  100.20   1
  -3 -14   5  272.30  100.00   1
   3  14  -5  196.60   99.80   1
   3  14   6   32.70   29.70   1
  -3 -14  -6   21.30   29.80   1
   3 -14  -6    8.60   29.30   1
  -3  14   6    2.10   29.20   1
  -3  14  -6   22.80   29.40   1
   3 -14   6    6.70   29.00   1
  -3 -14   6   60.70   29.60   1
   3  14  -6   24.50   29.20   1
   3  14   7   23.00   34.90   1
  -3 -14  -7   23.40   35.30   1
   3 -14  -7   27.30   35.20   1
  -3  14   7   15.60   34.90   1
  -3  14  -7   27.20   34.80   1
   3 -14   7   30.40   34.70   1
  -3 -14   7  157.10   35.60   1
   3  14  -7    0.00   34.80   1
   3  14   8   16.80   35.20   1
  -3 -14  -8   31.70   35.70   1
   3 -14  -8   35.10   35.90   1
  -3  14   8   32.40   35.60   1
  -3  14  -8   43.60   35.40   1
   3 -14   8   10.70   35.00   1
  -3 -14   8   62.40   35.60   1
   3  14  -8   37.00   35.50   1
   3  14   9   26.50   38.20   1
  -3 -14  -9   27.30   38.40   1
   3 -14  -9   42.50   38.60   1
  -3  14   9   39.40   38.60   1
  -3  14  -9   32.70   38.10   1
   3 -14   9   30.70   38.00   1
  -3 -14   9   51.40   38.20   1
   3  14  -9   33.00   38.10   1
   3  14  10   27.00   29.00   1
  -3 -14 -10   19.90   29.10   1
   3 -14 -10   -0.20   29.60   1
  -3  14  10   16.90   29.50   1
  -3  14 -10   14.20   28.70   1
   3 -14  10   18.30   28.70   1
  -3 -14  10    3.80   28.80   1
   3  14 -10   77.90   29.30   1
   3  14  11   12.90   30.00   1
  -3 -14 -11   30.80   30.20   1
   3 -14 -11   15.00   30.50   1
  -3  14  11   46.70   30.90   1
  -3  14 -11   28.50   30.00   1
   3 -14  11   10.40   30.00   1
  -3 -14  11   29.60   30.10   1
   3  14 -11   14.10   30.00   1
   3  14  12    6.20   18.10   1
  -3 -14 -12    2.10   18.40   1
   3 -14 -12    2.70   19.10   1
  -3  14  12    7.60   19.20   1
  -3  14 -12    7.00   17.90   1
   3 -14  12   20.90   18.50   1
  -3 -14  12   -0.80   18.00   1
   3  14 -12   13.20   18.00   1
   3  15   0  652.20   77.80   1
  -3 -15   0  608.40   77.40   1
   3 -15   0   81.60   75.20   1
  -3  15   0   67.90   75.10   1
   3  15   1  126.80   77.50   1
  -3 -15  -1  114.80   77.50   1
   3 -15  -1  141.20   77.70   1
  -3  15   1  187.70   77.80   1
  -3  15  -1  154.10   77.70   1
   3 -15   1  138.80   77.60   1
  -3 -15   1  162.50   77.60   1
   3  15  -1  140.10   77.50   1
   3  15   2  155.30   55.60   1
  -3 -15  -2  148.50   55.60   1
   3 -15  -2  167.20   55.70   1
  -3  15   2  170.50   55.60   1
  -3  15  -2   54.30   55.20   1
   3 -15   2   71.10   55.30   1
  -3 -15   2   25.80   54.90   1
   3  15  -2   19.70   54.80   1
   3  15   3  156.40   82.10   1
  -3 -15  -3  167.40   82.20   1
   3 -15  -3  215.00   82.30   1
  -3  15   3  161.80   82.00   1
  -3  15  -3  120.30   82.00   1
   3 -15   3  114.80   82.10   1
  -3 -15   3  166.80   81.80   1
   3  15  -3  189.40   82.00   1
   3  15   4  139.10   77.80   1
  -3 -15  -4  162.10   77.90   1
   3 -15  -4  171.20   77.80   1
  -3  15   4  118.40   77.50   1
  -3  15  -4  157.90   78.00   1
   3 -15   4  128.80   77.90   1
  -3 -15   4  146.10   77.70   1
   3  15  -4  140.10   77.60   1
   3  15   5   58.60   50.80   1
  -3 -15  -5   84.20   51.10   1
   3 -15  -5   84.60   50.70   1
  -3  15   5   67.10   50.80   1
  -3  15  -5   57.80   50.90   1
   3 -15   5   37.20   50.50   1
  -3 -15   5   61.50   50.70   1
   3  15  -5   57.50   50.50   1
   3  15   6  114.30   62.20   1
  -3 -15  -6   96.60   62.20   1
   3 -15  -6   84.80   61.90   1
  -3  15   6  127.10   62.10   1
  -3  15  -6   57.20   62.00   1
   3 -15   6  104.60   61.90   1
  -3 -15   6   75.60   61.90   1
   3  15  -6   93.00   62.00   1
   3  15   7   17.50   27.40   1
  -3 -15  -7   10.80   27.90   1
   3 -15  -7    1.40   27.50   1
  -3  15   7   12.00   27.50   1
  -3  15  -7   12.30   27.30   1
   3 -15   7   39.50   27.30   1
  -3 -15   7   18.50   27.30   1
   3  15  -7   21.30   27.30   1
   3  15   8   23.50   45.80   1
  -3 -15  -8   44.80   46.20   1
   3 -15  -8   54.70   46.10   1
  -3  15   8   57.30   46.20   1
  -3  15  -8   34.80   45.80   1
   3 -15   8   31.30   45.70   1
  -3 -15   8  124.70   46.30   1
   3  15  -8  106.80   46.30   1
   3  15   9   11.30   31.80   1
  -3 -15  -9   41.40   32.30   1
   3 -15  -9   22.90   32.60   1
  -3  15   9    9.90   32.20   1
  -3  15  -9   28.40   31.70   1
   3 -15   9   31.70   31.70   1
  -3 -15   9   41.30   32.00   1
   3  15  -9    8.60   31.90   1
   3  15  10  110.40   67.60   1
  -3 -15 -10  109.00   67.60   1
   3 -15 -10  151.20   67.90   1
  -3  15  10  151.50   67.90   1
  -3  15 -10  107.40   67.30   1
   3 -15  10   87.90   67.30   1
  -3 -15  10  101.80   67.40   1
   3  15 -10   96.90   67.30   1
   3  15  11   -0.00   26.80   1
  -3 -15 -11   39.10   27.30   1
   3 -15 -11    4.50   27.60   1
  -3  15  11   28.20   27.80   1
  -3  15 -11   51.90   27.10   1
   3 -15  11   13.00   26.90   1
  -3 -15  11    8.40   26.90   1
   3  15 -11   13.70   26.90   1
   3  15  12   40.10   47.20   1
  -3 -15 -12   26.40   47.20   1
  -3  15  12  197.10   49.00   1
  -3  15 -12   40.90   47.10   1
   3 -15  12   75.60   47.60   1
  -3 -15  12   92.50   47.50   1
   3  16   0   58.60   42.20   1
  -3 -16   0  107.90   42.60   1
   3 -16   0   10.90   42.10   1
  -3  16   0   16.50   42.10   1
   3  16   1  270.80  112.80   1
  -3 -16  -1  284.90  112.90   1
   3 -16  -1  312.70  113.10   1
  -3  16   1  373.60  113.30   1
  -3  16  -1  254.20  112.80   1
   3 -16   1  232.60  112.80   1
  -3 -16   1  299.10  112.80   1
   3  16  -1  375.40  113.10   1
   3  16   2   94.70   63.60   1
  -3 -16  -2  104.50   63.60   1
   3 -16  -2  118.60   63.50   1
  -3  16   2  105.60   63.40   1
  -3  16  -2   57.50   63.30   1
   3 -16   2   55.00   63.30   1
  -3 -16   2   90.40   63.20   1
   3  16  -2  168.10   63.40   1
   3  16   3  115.30   83.50   1
  -3 -16  -3  139.60   83.50   1
   3 -16  -3  272.40   84.10   1
  -3  16   3  200.60   83.80   1
  -3  16  -3  138.70   83.70   1
   3 -16   3  117.40   83.60   1
  -3 -16   3  232.40   83.70   1
   3  16  -3  188.80   83.50   1
   3  16   4   33.70   44.20   1
  -3 -16  -4   37.90   44.40   1
   3 -16  -4   57.80   44.40   1
  -3  16   4   82.20   44.30   1
  -3  16  -4  102.00   44.70   1
   3 -16   4   37.30   44.10   1
  -3 -16   4   19.70   43.80   1
   3  16  -4   44.30   43.90   1
   3  16   5   16.60   34.10   1
  -3 -16  -5   38.20   34.30   1
   3 -16  -5   37.30   33.80   1
  -3  16   5   16.40   33.50   1
  -3  16  -5   34.40   33.80   1
   3 -16   5   18.90   33.40   1
  -3 -16   5   44.70   33.60   1
   3  16  -5   16.70   33.30   1
   3  16   6   17.00   37.00   1
  -3 -16  -6   14.30   37.30   1
   3 -16  -6   70.60   37.20   1
  -3  16   6   41.50   37.00   1
  -3  16  -6  112.20   37.70   1
   3 -16   6   10.70   36.70   1
  -3 -16   6   23.70   36.80   1
   3  16  -6   29.20   36.90   1
   3  16   7   17.30   38.00   1
  -3 -16  -7   45.50   38.60   1
   3 -16  -7    8.90   38.00   1
  -3  16   7   17.20   38.10   1
  -3  16  -7   64.70   38.20   1
   3 -16   7   61.40   38.00   1
  -3 -16   7   23.20   37.90   1
   3  16  -7   54.80   38.10   1
   3  16   8   29.10   40.30   1
  -3 -16  -8   32.80   40.80   1
   3 -16  -8   18.30   40.50   1
  -3  16   8   70.70   40.80   1
  -3  16  -8   94.80   40.70   1
   3 -16   8   21.20   40.00   1
  -3 -16   8   47.20   40.60   1
   3  16  -8   43.20   40.50   1
   3  16   9   14.40   36.90   1
  -3 -16  -9   41.00   37.00   1
   3 -16  -9   30.80   37.20   1
  -3  16   9   33.40   37.30   1
  -3  16  -9   14.80   36.70   1
   3 -16   9   34.70   36.70   1
  -3 -16   9   95.90   37.50   1
   3  16  -9   32.80   36.90   1
   3  16  10   60.40   40.80   1
  -3 -16 -10   17.10   40.60   1
   3 -16 -10   54.40   41.10   1
  -3  16  10   14.00   40.80   1
  -3  16 -10   26.50   40.30   1
   3 -16  10   31.70   40.40   1
  -3 -16  10  116.20   41.00   1
   3  16 -10   45.40   40.60   1
   3  16  11   31.20   46.80   1
  -3 -16 -11   83.70   47.20   1
   3 -16 -11   61.30   47.40   1
  -3  16  11   36.50   47.30   1
  -3  16 -11   58.80   46.90   1
   3 -16  11   84.30   47.10   1
  -3 -16  11   43.40   46.90   1
   3  17   0   11.40   21.20   1
  -3 -17   0   15.50   20.60   1
   3 -17   0   -0.00   20.40   1
  -3  17   0    8.70   20.60   1
   3  17   1   34.90   38.80   1
  -3 -17  -1   27.60   39.00   1
   3 -17  -1   -0.00   38.70   1
  -3  17   1   10.10   38.40   1
  -3  17  -1   61.50   38.70   1
   3 -17   1   50.50   39.00   1
  -3 -17   1   48.00   38.80   1
   3  17  -1   59.00   38.90   1
   3  17   2   49.60   37.60   1
  -3 -17  -2   50.30   37.80   1
   3 -17  -2   22.20   37.80   1
  -3  17   2   20.60   37.40   1
  -3  17  -2   41.70   37.60   1
   3 -17   2   30.30   37.70   1
  -3 -17   2   52.20   37.40   1
   3  17  -2    3.60   37.30   1
   3  17   3   11.20   26.20   1
  -3 -17  -3    3.20   26.50   1
   3 -17  -3   25.60   26.30   1
  -3  17   3   20.30   26.60   1
  -3  17  -3   32.70   26.80   1
   3 -17   3   14.50   26.20   1
  -3 -17   3   11.80   25.80   1
   3  17  -3    9.40   25.90   1
   3  17   4   70.70   49.90   1
  -3 -17  -4   46.40   49.70   1
   3 -17  -4  102.30   49.80   1
  -3  17   4   71.70   49.80   1
  -3  17  -4   36.90   49.40   1
   3 -17   4   31.50   49.30   1
  -3 -17   4   67.90   49.40   1
   3  17  -4   66.20   49.40   1
   3  17   5   65.00   46.70   1
  -3 -17  -5   69.50   47.00   1
   3 -17  -5   26.50   46.70   1
  -3  17   5   32.40   46.40   1
  -3  17  -5   28.20   46.40   1
   3 -17   5   36.60   46.30   1
  -3 -17   5  100.50   46.70   1
   3  17  -5   88.60   46.60   1
   3  17   6   18.80   27.20   1
  -3 -17  -6   22.30   27.70   1
   3 -17  -6   14.00   27.60   1
  -3  17   6    6.60   26.80   1
  -3  17  -6   18.00   27.10   1
   3 -17   6   21.20   26.60   1
  -3 -17   6   18.10   26.80   1
   3  17  -6   14.80   26.80   1
   3  17   7    3.10   23.50   1
  -3 -17  -7   38.70   24.40   1
   3 -17  -7    6.30   23.70   1
  -3  17   7    0.00   23.60   1
  -3  17  -7    8.20   23.10   1
   3 -17   7   15.10   22.90   1
  -3 -17   7   10.70   23.30   1
   3  17  -7   21.30   23.20   1
   3  17   8   -0.00   22.90   1
  -3 -17  -8   12.70   23.60   1
   3 -17  -8   24.00   23.40   1
  -3  17   8   16.80   23.60   1
  -3  17  -8   16.80   22.90   1
   3 -17   8    5.60   22.50   1
  -3 -17   8   11.50   23.00   1
   3  17  -8   15.70   22.90   1
   3  17   9    1.80   19.50   1
  -3 -17  -9    0.00   19.70   1
   3 -17  -9   -0.10   19.40   1
  -3  17   9   -0.00   19.90   1
  -3  17  -9   19.20   19.20   1
   3 -17   9    8.70   19.20   1
  -3 -17   9   10.70   19.60   1
   3  17  -9   20.90   19.60   1
   3  17  10   45.40   37.50   1
  -3 -17 -10   30.60   37.60   1
   3 -17 -10   26.90   37.50   1
  -3  17  10   41.10   37.70   1
  -3  17 -10   21.20   37.00   1
   3 -17  10   43.00   37.30   1
  -3 -17  10   42.00   37.50   1
   3  17 -10   26.50   37.40   1
   3  17  11   -0.00   19.30   1
  -3 -17 -11   39.50   20.10   1
   3 -17 -11   -0.00   20.20   1
  -3  17  11   -0.00   20.10   1
   3 -17  11    5.00   19.30   1
  -3 -17  11   13.50   19.80   1
   3  18   0   42.30   34.70   1
  -3 -18   0   45.20   35.20   1
   3 -18   0   13.40   34.90   1
  -3  18   0   14.20   34.70   1
   3  18   1  114.20   52.70   1
  -3 -18  -1  154.50   53.00   1
   3 -18  -1   33.70   52.10   1
  -3  18   1   53.80   52.20   1
  -3  18  -1   53.30   52.10   1
   3 -18   1   44.00   52.20   1
  -3 -18   1  105.40   52.10   1
   3  18  -1   34.60   52.00   1
   3  18   2   44.50   56.50   1
  -3 -18  -2   40.00   56.30   1
   3 -18  -2   29.40   56.20   1
  -3  18   2   19.10   56.20   1
  -3  18  -2  310.00   58.40   1
   3 -18   2  279.30   58.30   1
  -3 -18   2  169.50   56.80   1
   3  18  -2  194.90   57.10   1
   3  18   3   71.30   54.70   1
  -3 -18  -3   62.90   54.70   1
   3 -18  -3   94.10   54.80   1
  -3  18   3   75.50   54.60   1
  -3  18  -3  120.40   55.10   1
   3 -18   3  137.30   55.20   1
  -3 -18   3   65.00   54.50   1
   3  18  -3   28.60   54.20   1
   3  18   4  213.40   96.30   1
  -3 -18  -4  189.30   96.30   1
   3 -18  -4  208.70   96.30   1
  -3  18   4  195.40   96.20   1
  -3  18  -4  204.90   96.40   1
   3 -18   4  250.30   96.50   1
  -3 -18   4  231.10   96.10   1
   3  18  -4  242.50   96.20   1
   3  18   5   13.40   41.10   1
  -3 -18  -5   -0.00   41.30   1
   3 -18  -5   98.40   42.10   1
  -3  18   5   82.20   41.60   1
  -3  18  -5   40.40   41.20   1
   3 -18   5   14.10   40.80   1
  -3 -18   5   58.50   41.00   1
   3  18  -5   66.00   41.10   1
   3  18   6   35.30   36.00   1
  -3 -18  -6   42.80   36.70   1
   3 -18  -6   56.60   36.60   1
  -3  18   6   54.70   36.20   1
  -3  18  -6   22.80   35.80   1
   3 -18   6   -0.00   35.50   1
  -3 -18   6   20.90   35.70   1
   3  18  -6   51.60   35.80   1
   3  18   7   23.20   37.90   1
  -3 -18  -7   49.10   38.60   1
   3 -18  -7   58.30   38.60   1
  -3  18   7   24.20   38.10   1
  -3  18  -7   23.50   37.90   1
   3 -18   7   37.20   37.90   1
  -3 -18   7   25.50   38.00   1
   3  18  -7   53.80   38.10   1
   3  18   8   34.40   38.40   1
  -3 -18  -8   72.80   39.00   1
   3 -18  -8   20.50   38.80   1
  -3  18   8   15.20   38.50   1
  -3  18  -8   60.00   38.60   1
   3 -18   8   58.60   38.50   1
  -3 -18   8   18.80   38.40   1
   3  18  -8   24.80   38.30   1
   3  18   9   25.10   31.60   1
  -3 -18  -9    6.40   31.70   1
   3 -18  -9   66.80   32.20   1
  -3  18   9   42.50   32.00   1
  -3  18  -9   21.40   31.30   1
   3 -18   9   17.10   31.20   1
  -3 -18   9   22.80   31.60   1
   3  18  -9   11.30   31.40   1
   3  18  10  117.50   39.00   1
  -3 -18 -10   -0.00   38.10   1
   3 -18 -10   20.00   38.30   1
  -3  18  10   34.60   38.60   1
   3 -18  10   66.70   38.20   1
  -3 -18  10   27.90   38.20   1
   3  19   0   -0.00   20.90   1
  -3 -19   0   33.30   20.50   1
   3 -19   0   -0.00   20.20   1
  -3  19   0   -0.00   20.10   1
   3  19   1   -0.00   17.20   1
  -3 -19  -1   -0.10   17.70   1
   3 -19  -1    2.10   16.60   1
  -3  19   1    1.50   16.70   1
  -3  19  -1   19.70   17.00   1
   3 -19   1   10.30   17.30   1
  -3 -19   1    3.80   16.50   1
   3  19  -1   -0.00   16.90   1
   3  19   2   33.20   31.90   1
  -3 -19  -2   35.40   31.90   1
   3 -19  -2   -0.00   31.40   1
  -3  19   2   -0.00   31.60   1
  -3  19  -2   37.50   31.60   1
   3 -19   2   40.90   31.80   1
  -3 -19   2   35.10   31.60   1
   3  19  -2    8.00   31.50   1
   3  19   3   -0.10   22.80   1
  -3 -19  -3    8.60   22.40   1
   3 -19  -3   -0.00   22.30   1
  -3  19   3   11.90   22.70   1
  -3  19  -3   16.10   22.40   1
   3 -19   3   -0.00   22.00   1
  -3 -19   3   16.20   22.00   1
   3  19  -3   27.20   22.30   1
   3  19   4   27.00   37.00   1
  -3 -19  -4   24.70   36.80   1
   3 -19  -4   45.00   36.80   1
  -3  19   4   27.80   37.00   1
  -3  19  -4   23.20   36.50   1
   3 -19   4   54.80   36.70   1
  -3 -19   4   21.40   36.40   1
   3  19  -4   30.70   36.50   1
   3  19   5   -0.10   22.00   1
  -3 -19  -5    7.30   22.70   1
   3 -19  -5   14.20   22.40   1
  -3  19   5   22.80   22.30   1
  -3  19  -5   71.70   22.90   1
   3 -19   5   -0.00   21.40   1
  -3 -19   5   -0.00   21.60   1
   3  19  -5   -0.20   21.50   1
   3  19   6   10.80   30.30   1
  -3 -19  -6   13.10   30.60   1
   3 -19  -6   36.70   31.10   1
  -3  19   6   50.50   30.70   1
  -3  19  -6   17.50   30.10   1
   3 -19   6   16.90   29.90   1
  -3 -19   6   32.20   30.40   1
   3  19  -6    8.40   30.20   1
   3  19   7    7.60   25.90   1
  -3 -19  -7   30.40   26.80   1
   3 -19  -7   13.20   26.90   1
  -3  19   7   22.40   26.30   1
  -3  19  -7   25.40   25.70   1
   3 -19   7   12.80   25.40   1
  -3 -19   7    6.90   25.70   1
   3  19  -7   10.50   25.80   1
   3  19   8    5.30   20.20   1
  -3 -19  -8    6.00   21.00   1
   3 -19  -8    1.60   21.00   1
  -3  19   8    0.10   20.90   1
  -3  19  -8   21.50   20.40   1
   3 -19   8    1.70   19.90   1
  -3 -19   8   14.60   20.30   1
   3  19  -8   17.80   20.40   1
   3  19   9   63.40   31.80   1
  -3 -19  -9    5.60   31.40   1
   3 -19  -9   21.70   31.80   1
  -3  19   9   -0.20   31.50   1
   3 -19   9   58.40   31.40   1
  -3 -19   9    8.60   31.20   1
   3  20   0   36.50   33.50   1
  -3 -20   0   55.30   33.60   1
   3 -20   0    2.80   32.90   1
  -3  20   0   16.20   33.20   1
   3  20   1   20.00   44.10   1
  -3 -20  -1   35.50   44.00   1
   3 -20  -1   78.80   44.20   1
  -3  20   1   45.20   44.00   1
  -3  20  -1   86.00   44.70   1
   3 -20   1   72.70   44.30   1
  -3 -20   1   26.70   44.00   1
   3  20  -1   24.50   44.10   1
   3  20   2    9.00   26.40   1
  -3 -20  -2   -0.00   26.90   1
   3 -20  -2   10.60   26.40   1
  -3  20   2   17.50   26.70   1
  -3  20  -2   14.60   26.70   1
   3 -20   2   23.30   26.50   1
  -3 -20   2   17.80   26.30   1
   3  20  -2   28.00   26.80   1
   3  20   3   45.90   49.70   1
  -3 -20  -3   68.60   50.00   1
   3 -20  -3   45.40   49.60   1
  -3  20   3   33.60   49.80   1
  -3  20  -3   62.80   49.90   1
   3 -20   3   31.50   49.50   1
  -3 -20   3  109.40   50.00   1
   3  20  -3  115.90   50.20   1
   3  20   4   25.90   39.00   1
  -3 -20  -4   26.90   38.80   1
   3 -20  -4   38.90   39.00   1
  -3  20   4   34.50   38.60   1
  -3  20  -4   47.40   38.80   1
   3 -20   4   28.30   38.20   1
  -3 -20   4   40.20   38.40   1
   3  20  -4   35.90   38.60   1
   3  20   5   65.70   39.80   1
  -3 -20  -5   45.90   40.10   1
   3 -20  -5   75.40   40.20   1
  -3  20   5   36.30   39.70   1
  -3  20  -5   34.90   39.70   1
   3 -20   5   29.20   39.30   1
  -3 -20   5   25.70   39.40   1
   3  20  -5   17.00   39.30   1
   3  20   6   -0.30   30.40   1
  -3 -20  -6   15.30   31.00   1
   3 -20  -6    7.00   31.20   1
  -3  20   6   14.10   31.10   1
  -3  20  -6   13.50   30.40   1
   3 -20   6   33.30   30.20   1
  -3 -20   6   35.50   30.30   1
   3  20  -6   41.30   30.50   1
   3  20   7    3.70   31.60   1
  -3 -20  -7   34.70   32.20   1
   3 -20  -7   39.80   32.20   1
  -3  20   7   75.30   32.70   1
   3 -20   7   20.60   31.20   1
  -3 -20   7    7.60   31.50   1
   3  20   8   -0.00   23.10   1
  -3 -20  -8    6.90   23.70   1
   3 -20  -8   28.10   24.40   1
  -3  20   8   41.70   24.00   1
   3 -20   8    6.20   22.90   1
  -3 -20   8   11.70   23.50   1
   3  21   0   17.50   37.70   1
  -3 -21   0   24.00   37.70   1
   3 -21   0   41.30   37.50   1
  -3  21   0   43.80   37.50   1
   3  21   1   71.90   54.20   1
  -3 -21  -1   74.50   54.30   1
   3 -21  -1   -0.00   54.00   1
  -3  21   1   16.60   54.00   1
  -3  21  -1  163.40   55.10   1
   3 -21   1  113.80   54.60   1
  -3 -21   1  200.50   55.40   1
   3  21  -1  102.20   54.70   1
   3  21   2   66.40   45.40   1
  -3 -21  -2   64.60   45.10   1
   3 -21  -2   65.70   45.10   1
  -3  21   2   39.20   45.10   1
  -3  21  -2   31.50   45.00   1
   3 -21   2   42.00   44.80   1
  -3 -21   2   42.70   44.70   1
   3  21  -2   37.70   44.70   1
   3  21   3   22.50   31.10   1
  -3 -21  -3   -0.00   31.30   1
   3 -21  -3   28.00   31.20   1
  -3  21   3   32.10   31.30   1
  -3  21  -3   17.10   30.90   1
   3 -21   3   20.00   30.60   1
  -3 -21   3   23.90   30.90   1
   3  21  -3   27.20   31.20   1
   3  21   4   31.30   47.90   1
  -3 -21  -4   36.00   48.00   1
   3 -21  -4   58.10   47.90   1
  -3  21   4   73.30   48.10   1
  -3  21  -4   52.50   47.90   1
   3 -21   4   43.60   47.60   1
  -3 -21   4   52.80   47.80   1
   3  21  -4  112.60   48.50   1
   3  21   5   28.00   30.80   1
  -3 -21  -5   17.70   30.90   1
   3 -21  -5    9.50   31.00   1
  -3  21   5   26.80   30.80   1
  -3  21  -5   11.80   30.60   1
   3 -21   5   15.60   30.00   1
  -3 -21   5   27.60   30.30   1
   3  21  -5   31.10   30.50   1
   3  21   6   27.60   48.00   1
  -3 -21  -6   37.60   48.40   1
   3 -21  -6   63.20   48.30   1
  -3  21   6   42.10   48.30   1
   3 -21   6   56.80   47.90   1
  -3 -21   6  143.30   48.70   1
   3  21   7    9.00   21.20   1
  -3 -21  -7   15.30   22.40   1
   3 -21  -7    9.90   22.80   1
  -3  21   7   22.30   22.10   1
   3 -21   7   -0.10   21.00   1
  -3 -21   7   12.00   21.40   1
   3  22   0    0.30   30.10   1
  -3 -22   0   12.70   30.40   1
   3 -22   0   38.10   30.70   1
  -3  22   0   38.50   30.90   1
   3  22   1   66.30   43.50   1
  -3 -22  -1   61.80   43.40   1
   3 -22  -1   14.70   43.10   1
  -3  22   1   13.70   43.10   1
  -3  22  -1   30.60   43.20   1
   3 -22   1   43.40   43.20   1
  -3 -22   1   75.20   43.80   1
   3  22  -1   70.90   43.70   1
   3  22   2   -0.00   24.00   1
  -3 -22  -2   13.30   23.70   1
   3 -22  -2   31.40   23.80   1
  -3  22   2   31.50   23.60   1
  -3  22  -2    7.70   23.50   1
   3 -22   2    4.90   23.40   1
  -3 -22   2   -0.00   24.00   1
   3  22  -2    2.10   23.80   1
   3  22   3   15.20   24.70   1
  -3 -22  -3   13.80   24.40   1
   3 -22  -3   10.60   24.80   1
  -3  22   3    9.90   24.50   1
  -3  22  -3   24.90   24.20   1
   3 -22   3   12.70   23.70   1
  -3 -22   3    8.10   24.40   1
   3  22  -3    0.10   24.30   1
   3  22   4   14.40   29.90   1
  -3 -22  -4   21.00   30.40   1
   3 -22  -4   21.40   29.90   1
  -3  22   4   22.40   29.80   1
  -3  22  -4   23.30   29.70   1
   3 -22   4   12.50   29.30   1
  -3 -22   4   23.80   29.90   1
   3  22  -4   23.40   30.20   1
   3  22   5   14.40   22.20   1
  -3 -22  -5   13.90   23.10   1
   3 -22  -5    7.50   22.90   1
  -3  22   5   10.10   22.40   1
   3 -22   5    8.60   21.30   1
  -3 -22   5    6.80   22.00   1
   3  23   0    8.90   31.10   1
  -3 -23   0   16.60   31.10   1
   3 -23   0   27.20   31.40   1
  -3  23   0   34.60   31.40   1
   3  23   1   20.70   46.10   1
  -3 -23  -1   13.40   46.20   1
   3 -23  -1  233.40   49.10   1
  -3  23   1  169.20   47.70   1
  -3  23  -1   13.70   46.30   1
   3 -23   1   26.40   45.90   1
  -3 -23   1  128.80   47.10   1
   3  23  -1   68.00   46.80   1
   3  23   2   -0.00   41.80   1
  -3 -23  -2   22.40   41.90   1
   3 -23  -2   44.20   42.10   1
  -3  23   2   52.20   42.40   1
  -3  23  -2   45.80   42.00   1
   3 -23   2   38.30   41.60   1
  -3 -23   2   70.70   42.60   1
   3  23  -2   88.10   42.40   1
   3  23   3   47.30   45.90   1
  -3 -23  -3   38.60   45.60   1
   3 -23  -3   58.80   45.90   1
  -3  23   3   52.20   45.60   1
   3 -23   3   39.00   45.10   1
  -3 -23   3   59.40   45.70   1
   3  23  -3   50.90   45.80   1
   4   0   8   68.80   43.90   1
  -4   0  -8   31.70   43.90   1
   4   0   9 1034.40  222.40   1
  -4   0  -9  911.40  222.30   1
   4   0  10   38.70   40.20   1
  -4   0 -10   40.90   40.20   1
   4   0  11  357.70   95.40   1
  -4   0 -11  175.20   94.90   1
   4   0  12  522.10  152.20   1
  -4   0 -12  492.70  152.00   1
   4   0  13   49.80   49.80   1
  -4   0 -13   81.20   49.90   1
   4   0  14   15.00   25.80   1
  -4   0 -14   17.90   25.90   1
   4   0  15  292.20  100.60   1
  -4   0 -15  203.90  100.00   1
   4   1   6  107.40   72.90   1
  -4  -1  -6  250.30   73.60   1
   4   1   7   20.10   39.70   1
  -4  -1  -7   75.40   39.80   1
   4   1   8  125.90   61.20   1
  -4  -1  -8   73.10   61.10   1
   4   1   9   24.10   27.20   1
  -4  -1  -9   13.40   27.10   1
   4   1  10   62.20   57.80   1
  -4  -1 -10  109.30   57.90   1
  -4   1 -10   81.30   57.80   1
   4  -1  10   88.00   57.80   1
   4   1  11   58.20   49.70   1
  -4  -1 -11   51.10   49.60   1
  -4   1 -11   69.20   49.60   1
   4  -1  11   61.30   49.60   1
   4   1  12   24.40   38.20   1
  -4  -1 -12   31.20   38.10   1
  -4   1 -12   43.10   38.00   1
   4   1  13   11.50   28.30   1
  -4  -1 -13   10.80   28.50   1
  -4   1 -13   31.10   28.20   1
   4   1  14   19.00   32.80   1
  -4  -1 -14   20.50   32.90   1
  -4   1 -14   42.90   32.80   1
   4   1  15   -0.10   13.90   1
  -4  -1 -15   12.40   13.50   1
   4  -1  15    0.00   13.40   1
   4   2   4   24.70   40.60   1
  -4  -2  -4   72.60   40.70   1
   4   2   5  609.20  174.90   1
  -4  -2  -5  722.10  175.50   1
  -4  -2  -6   29.00   34.40   1
   4   2   7 1855.70  311.50   1
  -4  -2  -7 1501.60  311.00   1
   4   2   8   27.00   33.30   1
  -4  -2  -8   27.50   33.30   1
   4   2   9  262.40  108.80   1
  -4  -2  -9  294.50  108.90   1
   4   2  10   11.60   36.80   1
  -4  -2 -10   60.60   36.80   1
   4   2  11   69.50   63.00   1
  -4  -2 -11  138.40   63.10   1
   4   2  12   24.20   34.30   1
  -4  -2 -12   34.30   34.40   1
   4   2  13   35.50   35.50   1
  -4  -2 -13   24.30   35.60   1
   4   2  14   19.90   26.40   1
  -4  -2 -14   13.30   26.50   1
   4   2  15   83.70   59.20   1
  -4  -2 -15   90.50   59.10   1
   4  -2  15   82.10   58.90   1
   4  -3   0 4714.10  795.50   1
   4  -3  -1  239.90  103.70   1
  -4   3   1  245.40  104.60   1
   4   3   2 5779.30  768.60   1
  -4  -3  -2 4923.30  761.80   1
   4  -3  -2 6226.60  874.80   1
  -4   3   2 6333.60  929.90   1
   4   3   3  202.30   55.10   1
  -4  -3  -3  179.00   55.00   1
   4  -3  -3   -3.10   54.90   1
  -4   3   3   31.70   55.10   1
   4   3   4 1669.20  291.70   1
  -4  -3  -4 1461.60  290.70   1
   4  -3  -4 1228.40  300.20   1
  -4   3   4 1271.20  306.50   1
   4   3   5   32.70   40.80   1
  -4  -3  -5   53.20   40.90   1
   4  -3  -5   41.10   41.40   1
  -4   3   5   34.30   41.30   1
   4   3   6 4217.90  591.90   1
  -4  -3  -6 4023.10  591.40   1
   4  -3  -6 4578.30  659.10   1
  -4   3   6 3621.70  654.30   1
   4   3   7  113.80   63.70   1
  -4  -3  -7   88.80   63.70   1
   4  -3  -7  136.60   64.70   1
  -4   3   7   66.00   64.30   1
   4   3   8   53.00   58.00   1
  -4  -3  -8  174.50   58.20   1
   4  -3  -8   64.10   58.60   1
  -4   3   8  508.30   74.10   1
   4   3   9   31.00   36.90   1
  -4  -3  -9   61.20   37.00   1
   4  -3  -9    2.70   37.10   1
  -4   3   9   28.20   37.50   1
   4   3  10  259.50   57.60   1
  -4  -3 -10   97.20   57.00   1
   4  -3 -10    8.70   57.10   1
  -4   3  10  301.10   65.50   1
   4   3  11   58.60   36.40   1
  -4  -3 -11   28.80   36.30   1
   4  -3 -11   37.70   36.70   1
  -4   3  11   -0.40   36.60   1
   4   3  12   67.00   53.50   1
  -4  -3 -12   81.60   53.60   1
   4  -3 -12   48.50   54.00   1
  -4   3  12  522.40   85.60   1
   4   3  13   10.50   19.50   1
  -4  -3 -13   11.40   19.80   1
   4  -3 -13   -0.00   20.30   1
  -4   3  13   11.10   20.60   1
   4   3  14  109.50   71.30   1
  -4  -3 -14  205.30   71.90   1
   4  -3 -14   75.40   71.90   1
   4   3  15    0.00   19.80   1
  -4  -3 -15   22.20   19.70   1
   4  -3 -15    0.00   20.60   1
   4   4   0   46.60   47.60   1
  -4  -4   0   40.60   47.60   1
   4  -4   0   88.00   48.50   1
  -4   4   0   95.70   48.40   1
   4   4   1  108.00   73.40   1
  -4  -4  -1   82.60   73.30   1
   4  -4  -1  358.70   75.10   1
  -4   4   1  345.40   75.00   1
  -4   4  -1  310.30   74.70   1
   4  -4   1  164.10   74.10   1
   4   4   2   16.40   29.60   1
  -4  -4  -2   -1.80   29.60   1
   4  -4  -2   73.70   31.70   1
  -4   4   2   66.70   31.80   1
  -4   4  -2   51.40   30.90   1
   4  -4   2   64.30   31.00   1
   4   4   3  202.30   95.80   1
  -4  -4  -3  153.60   95.80   1
   4  -4  -3  390.80   97.20   1
  -4   4   3  502.90   98.10   1
  -4   4  -3  497.90   97.40   1
   4  -4   3  252.10   96.30   1
   4   4   4   60.10   51.20   1
  -4  -4  -4   68.50   51.20   1
   4  -4  -4   77.90   52.30   1
  -4   4   4   66.70   52.30   1
  -4   4  -4   53.10   51.70   1
   4  -4   4   66.60   51.50   1
   4   4   5  126.90   70.00   1
  -4  -4  -5  105.40   69.90   1
   4  -4  -5  235.00   71.40   1
  -4   4   5  144.90   70.90   1
  -4   4  -5   89.30   70.20   1
   4  -4   5  126.40   70.20   1
   4   4   6   80.10   64.10   1
  -4  -4  -6   78.50   64.10   1
   4  -4  -6  143.10   65.30   1
  -4   4   6  373.10   67.00   1
  -4   4  -6  232.20   64.80   1
   4  -4   6   93.10   64.20   1
   4   4   7  151.40   77.60   1
  -4  -4  -7  247.70   77.80   1
   4  -4  -7   91.80   78.40   1
  -4   4   7  130.40   78.50   1
  -4   4  -7   90.70   77.60   1
   4  -4   7  179.00   77.70   1
   4   4   8   -0.10   32.10   1
  -4  -4  -8   38.10   32.30   1
   4  -4  -8   67.10   34.60   1
  -4   4   8   81.70   34.30   1
  -4   4  -8   36.20   32.40   1
   4  -4   8   32.70   32.20   1
   4   4   9   29.30   46.30   1
  -4  -4  -9   19.60   46.20   1
   4  -4  -9  165.90   49.30   1
  -4   4   9  292.40   50.10   1
  -4   4  -9  143.00   46.70   1
   4  -4   9   76.30   46.30   1
   4   4  10   43.50   48.60   1
  -4  -4 -10   69.40   48.60   1
   4  -4 -10   97.20   50.70   1
  -4   4  10  123.50   50.20   1
  -4   4 -10   44.90   48.40   1
   4   4  11  237.30  102.60   1
  -4  -4 -11  304.50  102.70   1
   4  -4 -11  228.40  103.90   1
  -4   4  11  236.00  103.90   1
   4  -4  11  226.40  102.30   1
   4   4  12   -0.00    1.60   1
  -4  -4 -12   -0.10    1.80   1
  -4   4  12  -11.70    5.90   1
   4   4  13   33.10   33.30   1
  -4  -4 -13   15.80   33.50   1
   4  -4 -13  233.70   39.70   1
  -4   4  13   14.80   34.20   1
   4   4  14   12.70   19.70   1
  -4  -4 -14    2.40   19.90   1
   4  -4 -14   47.90   23.10   1
  -4   4  14   -0.00   21.00   1
   4   4  15   24.70   35.50   1
  -4  -4 -15   44.30   35.50   1
   4  -4 -15   59.40   37.60   1
  -4   4  15    8.00   36.00   1
   4   5   0 1571.30  316.90   1
  -4  -5   0 1542.90  317.10   1
   4  -5   0 1832.10  317.70   1
  -4   5   0 1995.50  318.40   1
   4   5   1  822.00  185.70   1
  -4  -5  -1  943.50  186.20   1
   4  -5  -1  843.40  185.90   1
  -4   5   1  823.00  186.00   1
  -4   5  -1  643.80  185.30   1
   4  -5   1  685.80  185.40   1
  -4  -5   1  572.80  185.30   1
   4   5  -1  617.50  185.40   1
   4   5   2  905.70  202.20   1
  -4  -5  -2  821.20  202.00   1
   4  -5  -2  937.70  202.90   1
  -4   5   2  938.50  203.20   1
  -4   5  -2  722.90  202.10   1
   4  -5   2  795.40  202.40   1
  -4  -5   2  858.60  206.10   1
   4   5  -2  729.70  204.20   1
   4   5   3  190.20   86.90   1
  -4  -5  -3  132.80   86.80   1
   4  -5  -3  272.10   87.50   1
  -4   5   3  437.70   88.40   1
  -4   5  -3  222.90   87.20   1
   4  -5   3  150.90   87.10   1
   4   5   4   90.20   57.30   1
  -4  -5  -4   41.60   57.20   1
   4  -5  -4   80.50   57.80   1
  -4   5   4   62.00   57.80   1
  -4   5  -4  116.70   57.50   1
   4  -5   4  169.10   57.70   1
   4   5   5  273.60   98.20   1
  -4  -5  -5  201.80   98.10   1
   4  -5  -5  196.70   98.50   1
  -4   5   5  308.50   98.90   1
  -4   5  -5  248.90   98.30   1
   4  -5   5  189.60   98.30   1
   4   5   6 1023.20  213.90   1
  -4  -5  -6  962.60  213.70   1
   4  -5  -6 1005.90  215.30   1
  -4   5   6  865.00  214.80   1
  -4   5  -6  710.30  213.20   1
   4  -5   6 1168.90  215.40   1
   4   5   7   82.60   62.40   1
  -4  -5  -7  434.60   63.50   1
   4  -5  -7   48.60   63.00   1
  -4   5   7   44.00   63.00   1
  -4   5  -7  177.90   62.80   1
   4  -5   7   61.80   62.60   1
   4   5   8   63.00   56.70   1
  -4  -5  -8  147.20   56.90   1
   4  -5  -8   12.10   57.10   1
  -4   5   8   21.50   57.10   1
  -4   5  -8   82.30   57.00   1
   4  -5   8  290.30   57.40   1
   4  -5  -9   33.00   34.80   1
  -4   5   9    0.00   34.60   1
  -4   5  -9   38.60   34.20   1
   4  -5   9   29.80   33.80   1
   4   5  10  188.20   79.40   1
  -4  -5 -10  229.10   79.50   1
   4  -5 -10   75.00   79.70   1
  -4   5  10   40.60   79.50   1
  -4   5 -10  240.40   79.40   1
   4  -5  10  158.50   79.10   1
   4   5  11  312.80  112.70   1
  -4  -5 -11  298.40  112.50   1
   4  -5 -11  322.90  113.70   1
  -4   5  11  174.30  112.80   1
  -4   5 -11  306.10  112.40   1
   4  -5  11  350.90  112.50   1
   4   5  12   88.60   71.70   1
  -4  -5 -12  130.90   71.90   1
   4  -5 -12   88.70   72.30   1
  -4   5  12  100.70   72.40   1
  -4   5 -12  178.60   71.70   1
   4  -5  12  156.10   71.70   1
   4   5  13   17.50   32.10   1
  -4  -5 -13   57.30   32.60   1
   4  -5 -13   34.00   33.00   1
  -4   5  13   -0.30   33.20   1
   4   5  14   14.50   34.70   1
  -4  -5 -14   90.50   35.20   1
   4  -5 -14   29.90   35.70   1
  -4   5  14   21.10   35.80   1
   4   5  15    6.30   25.10   1
  -4  -5 -15   32.90   25.20   1
   4  -5 -15   13.50   26.10   1
  -4   5  15    0.00   26.60   1
   4   6   0  147.50   81.60   1
  -4  -6   0  151.90   81.60   1
   4  -6   0  178.50   82.10   1
  -4   6   0  184.90   82.00   1
   4   6   1   28.80   46.10   1
  -4  -6  -1   23.10   46.00   1
   4  -6  -1  155.00   46.90   1
  -4   6   1  179.80   47.10   1
   4  -6   1  335.70   48.20   1
  -4  -6   1   49.00   46.20   1
   4   6  -1   44.20   46.10   1
   4   6   2   16.20   42.20   1
  -4  -6  -2   23.10   42.20   1
   4  -6  -2   35.30   42.70   1
  -4   6   2   16.70   42.70   1
  -4   6  -2   52.30   43.20   1
   4  -6   2   83.40   43.40   1
  -4  -6   2  262.90   43.30   1
   4   6  -2  258.90   43.20   1
   4   6   3   93.30   66.10   1
  -4  -6  -3   99.60   66.10   1
   4  -6  -3  289.90   67.10   1
  -4   6   3  206.90   66.80   1
  -4   6  -3  126.80   66.70   1
   4  -6   3   81.80   66.60   1
  -4  -6   3   54.90   66.10   1
   4   6  -3  132.80   66.30   1
   4   6   4   62.40   42.50   1
  -4  -6  -4   12.20   42.40   1
   4  -6  -4   19.20   42.90   1
  -4   6   4   45.50   43.00   1
  -4   6  -4   47.00   43.00   1
   4  -6   4  109.70   43.10   1
  -4  -6   4   56.40   42.70   1
   4   6  -4   59.90   42.70   1
   4   6   5   94.00   75.20   1
  -4  -6  -5  290.30   75.60   1
   4  -6  -5   85.30   75.50   1
  -4   6   5  110.50   75.60   1
  -4   6  -5  235.40   75.60   1
   4   6   6  108.30   50.10   1
  -4  -6  -6  243.80   50.50   1
   4  -6  -6   -0.80   50.20   1
  -4   6   6   41.00   50.40   1
  -4   6  -6   50.10   50.10   1
   4  -6   6   40.20   50.00   1
   4   6   7  300.20  118.50   1
  -4  -6  -7  291.10  118.40   1
   4  -6  -7  290.90  118.80   1
  -4   6   7  337.60  118.90   1
  -4   6  -7  296.00  118.40   1
   4  -6   7  687.80  119.50   1
   4   6   8   76.10   39.70   1
  -4  -6  -8   61.50   39.60   1
   4  -6  -8    6.90   39.70   1
  -4   6   8   19.70   39.90   1
  -4   6  -8   27.10   39.30   1
   4  -6   8   42.80   39.30   1
   4   6   9  136.40   78.30   1
  -4  -6  -9  122.60   78.30   1
   4  -6  -9  138.70   78.60   1
  -4   6   9  131.80   78.70   1
  -4   6  -9  143.20   78.10   1
   4  -6   9  197.80   78.10   1
   4   6  10   35.20   45.20   1
  -4  -6 -10   48.80   45.30   1
   4  -6 -10   30.30   45.60   1
  -4   6  10  106.00   46.30   1
  -4   6 -10   68.30   44.90   1
   4  -6  10   38.00   44.80   1
   4   6  11  121.10   80.00   1
  -4  -6 -11  151.70   80.10   1
   4  -6 -11  114.70   80.30   1
  -4   6  11  156.30   80.70   1
  -4   6 -11  161.10   79.80   1
   4  -6  11  235.00   80.10   1
   4   6  12    6.90   21.90   1
  -4  -6 -12   23.80   22.20   1
   4  -6 -12   28.70   22.90   1
  -4   6  12   28.60   23.50   1
  -4   6 -12    3.80   21.50   1
   4  -6  12   12.60   21.60   1
   4   6  13   31.60   33.50   1
  -4  -6 -13   35.10   33.80   1
   4  -6 -13    8.90   34.20   1
  -4   6  13   37.70   34.60   1
  -4   6 -13   33.70   33.30   1
   4  -6  13   22.20   33.20   1
   4   6  14   -0.00   13.80   1
  -4  -6 -14    4.90   14.20   1
   4  -6 -14    5.70   15.50   1
  -4   6  14    7.40   15.60   1
   4  -6  14    6.20   13.60   1
   4   6  15   11.40   27.30   1
  -4  -6 -15   48.80   27.60   1
   4  -6 -15   14.60   28.00   1
  -4   6  15   45.10   28.70   1
  -4   6 -15   15.30   26.90   1
   4  -6  15   16.10   27.00   1
   4   7   0 2259.70  395.10   1
  -4  -7   0 2303.20  395.30   1
   4  -7   0 2717.90  397.00   1
  -4   7   0 2277.70  395.60   1
   4   7   1   54.30   48.90   1
  -4  -7  -1   47.60   48.90   1
   4  -7  -1   27.50   49.70   1
  -4   7   1   29.00   49.60   1
  -4   7  -1  110.90   49.70   1
   4  -7   1   92.30   49.50   1
  -4  -7   1   57.90   49.00   1
   4   7  -1   69.10   48.90   1
   4   7   2 1850.70  361.20   1
  -4  -7  -2 1701.80  360.60   1
   4  -7  -2 2238.80  364.40   1
  -4   7   2 2305.10  365.10   1
  -4   7  -2 2610.80  364.60   1
   4  -7   2 2192.30  362.80   1
  -4  -7   2 2348.60  364.00   1
   4   7  -2 2153.70  363.10   1
   4   7   3   45.20   38.60   1
  -4  -7  -3   17.60   38.50   1
   4  -7  -3   40.20   39.70   1
  -4   7   3   23.30   39.60   1
  -4   7  -3   14.00   38.60   1
   4  -7   3   63.60   38.70   1
  -4  -7   3   53.00   38.60   1
   4   7  -3   39.30   38.60   1
   4   7   4  175.10   70.90   1
  -4  -7  -4  516.40   72.10   1
   4  -7  -4  101.80   71.60   1
  -4   7   4  113.20   71.60   1
   4  -7   4  126.80   70.90   1
  -4  -7   4   94.50   70.80   1
   4   7  -4   69.40   70.80   1
   4   7   5  270.10   47.70   1
  -4  -7  -5  187.80   47.50   1
   4  -7  -5   98.30   48.50   1
  -4   7   5   25.60   48.00   1
  -4   7  -5   20.40   47.20   1
   4  -7   5    8.80   47.10   1
  -4  -7   5   37.70   47.30   1
   4   7  -5   49.10   47.30   1
   4   7   6  570.30  155.20   1
  -4  -7  -6  416.80  154.80   1
   4  -7  -6  615.40  155.90   1
  -4   7   6  531.00  155.60   1
  -4   7  -6  558.10  155.10   1
   4  -7   6  719.70  155.70   1
  -4  -7   6  499.90  158.60   1
   4   7  -6  426.50  156.30   1
   4   7   7   57.90   55.90   1
  -4  -7  -7  149.70   56.20   1
   4  -7  -7   59.90   56.60   1
  -4   7   7  119.40   56.90   1
  -4   7  -7  209.80   56.20   1
   4  -7   7   27.50   55.80   1
   4   7   8  773.30  193.60   1
  -4  -7  -8  877.80  193.80   1
   4  -7  -8  549.90  193.50   1
  -4   7   8  887.40  195.00   1
  -4   7  -8  921.00  194.10   1
   4  -7   8  792.10  193.50   1
   4   7   9   28.00   34.70   1
  -4  -7  -9   24.50   34.60   1
   4  -7  -9   13.40   35.40   1
  -4   7   9   35.80   35.30   1
  -4   7  -9   29.20   34.20   1
   4  -7   9   32.50   34.20   1
   4   7  10  416.40  128.70   1
  -4  -7 -10  493.10  129.00   1
   4  -7 -10  277.90  128.70   1
  -4   7  10  268.80  128.60   1
  -4   7 -10  436.40  128.50   1
   4  -7  10  410.40  128.50   1
   4   7  11   20.90   26.00   1
  -4  -7 -11   -0.60   26.10   1
   4  -7 -11   23.40   27.20   1
  -4   7  11   62.30   27.10   1
  -4   7 -11    8.20   25.50   1
   4  -7  11   20.40   25.70   1
   4   7  12    7.80   31.60   1
  -4  -7 -12   18.50   32.00   1
   4  -7 -12  112.40   33.50   1
  -4   7  12   36.00   32.50   1
  -4   7 -12   66.80   31.70   1
   4  -7  12    9.70   31.40   1
   4   7  13   14.10   20.30   1
  -4  -7 -13    9.30   20.60   1
   4  -7 -13   18.20   21.70   1
  -4   7  13    2.10   21.50   1
  -4   7 -13    0.00   20.00   1
   4  -7  13   13.90   19.90   1
   4   7  14  120.40   83.50   1
  -4  -7 -14  154.10   83.70   1
   4  -7 -14  187.10   84.50   1
  -4   7  14  340.90   86.40   1
  -4   7 -14  160.90   83.60   1
   4  -7  14  217.20   83.80   1
   4   7  15   21.30   25.80   1
  -4  -7 -15   23.80   25.70   1
   4  -7 -15    0.00   26.70   1
  -4   7  15   -0.00   26.70   1
  -4   7 -15   15.70   25.40   1
   4  -7  15   16.00   25.40   1
   4   8   0  109.10   66.40   1
  -4  -8   0  118.90   66.40   1
   4  -8   0  105.90   66.50   1
  -4   8   0   90.30   66.50   1
   4   8   1 1642.60  295.30   1
  -4  -8  -1 1616.00  295.20   1
   4  -8  -1 1847.10  296.50   1
  -4   8   1 1888.80  296.70   1
  -4   8  -1 1256.60  294.10   1
   4  -8   1 1561.00  294.80   1
  -4  -8   1 1433.20  294.70   1
   4   8  -1 1429.90  294.50   1
   4   8   2  170.80   70.50   1
  -4  -8  -2  150.90   70.40   1
   4  -8  -2  166.40   70.80   1
  -4   8   2  209.20   70.90   1
  -4   8  -2  108.40   70.40   1
   4  -8   2  116.70   70.50   1
  -4  -8   2   85.90   70.30   1
   4   8  -2   77.10   70.30   1
   4   8   3 4711.00  653.50   1
  -4  -8  -3 4215.40  650.80   1
   4  -8  -3 4502.70  652.90   1
  -4   8   3 5066.90  655.70   1
  -4   8  -3 5091.60  653.40   1
   4  -8   3 5095.60  655.00   1
  -4  -8   3 4591.50  654.80   1
   4   8  -3 4319.90  652.00   1
   4   8   4  198.60  101.60   1
  -4  -8  -4  234.30  101.70   1
   4  -8  -4  273.90  102.20   1
  -4   8   4  256.00  102.40   1
  -4   8  -4  303.70  101.80   1
   4  -8   4  284.70  101.80   1
  -4  -8   4  225.70  101.70   1
   4   8  -4  230.20  101.70   1
   4   8   5  999.50  265.70   1
  -4  -8  -5 1358.90  266.50   1
   4  -8  -5 1058.80  266.40   1
  -4   8   5 1373.30  268.20   1
  -4   8  -5 1809.90  269.20   1
   4  -8   5 1518.10  267.40   1
  -4  -8   5 1633.00  270.30   1
   4   8  -5 2508.60  275.60   1
   4   8   6   97.90   62.40   1
  -4  -8  -6  208.90   62.70   1
   4  -8  -6   66.80   63.50   1
  -4   8   6   58.20   63.80   1
  -4   8  -6   79.00   62.30   1
   4  -8   6   87.70   62.30   1
  -4  -8   6   96.80   62.50   1
   4   8  -6   80.30   62.40   1
   4   8   7 5348.20  719.80   1
  -4  -8  -7 4811.20  717.90   1
   4  -8  -7 4901.40  724.50   1
  -4   8   7 6877.00  742.10   1
  -4   8  -7 5831.50  722.60   1
   4  -8   7 5494.30  722.70   1
  -4  -8   7 5635.20  774.20   1
   4   8  -7 4180.80  731.60   1
   4   8   8  112.30   50.20   1
  -4  -8  -8   79.50   50.10   1
   4  -8  -8  104.10   51.80   1
  -4   8   8  122.20   51.90   1
  -4   8  -8   42.00   49.70   1
   4  -8   8   73.90   49.70   1
   4   8  -8   21.50   49.80   1
   4   8   9   93.30   63.00   1
  -4  -8  -9   74.60   63.10   1
   4  -8  -9   80.00   64.40   1
  -4   8   9  153.60   64.30   1
  -4   8  -9   91.50   62.70   1
   4  -8   9  105.90   62.80   1
   4   8  10   31.90   37.50   1
  -4  -8 -10   35.80   37.50   1
   4  -8 -10   30.30   38.90   1
  -4   8  10   37.00   38.30   1
  -4   8 -10   44.80   37.10   1
   4  -8  10   21.50   37.10   1
   4   8  11   46.70   54.60   1
  -4  -8 -11   58.70   54.70   1
   4  -8 -11   63.40   56.00   1
  -4   8  11   98.90   55.50   1
  -4   8 -11  100.80   54.40   1
   4  -8  11   70.50   54.40   1
   4   8  12   20.50   32.10   1
  -4  -8 -12   24.70   32.50   1
   4  -8 -12   22.80   34.10   1
  -4   8  12   23.10   33.10   1
  -4   8 -12   42.70   32.10   1
   4  -8  12   19.50   31.90   1
   4   8  13  141.50   83.80   1
  -4  -8 -13  161.90   84.00   1
   4  -8 -13  211.80   85.30   1
  -4   8  13  201.90   84.70   1
  -4   8 -13  263.90   84.50   1
   4  -8  13  140.70   83.60   1
   4   8  14   13.50   31.20   1
  -4  -8 -14    9.10   31.30   1
   4  -8 -14   22.80   33.10   1
  -4   8  14   16.40   32.10   1
  -4   8 -14   61.70   31.20   1
   4  -8  14   23.60   31.10   1
   4   9   0  263.00   78.90   1
  -4  -9   0  268.50   78.90   1
   4  -9   0  110.30   78.50   1
  -4   9   0   95.00   78.60   1
   4   9   1   49.40   33.20   1
  -4  -9  -1   36.70   33.20   1
   4  -9  -1   76.90   33.40   1
  -4   9   1   52.70   33.50   1
  -4   9  -1    3.10   33.10   1
   4  -9   1    7.70   33.10   1
  -4  -9   1   13.90   33.00   1
   4   9  -1   11.60   33.00   1
   4   9   2  422.80   62.90   1
  -4  -9  -2  528.60   63.40   1
   4  -9  -2  298.40   62.40   1
  -4   9   2  300.00   62.40   1
  -4   9  -2   34.20   61.60   1
   4  -9   2   75.30   61.70   1
  -4  -9   2   51.00   61.60   1
   4   9  -2   48.70   61.60   1
   4   9   3   32.90   43.80   1
  -4  -9  -3   32.60   43.90   1
   4  -9  -3   56.80   44.30   1
  -4   9   3   89.00   44.30   1
  -4   9  -3   30.20   43.90   1
   4  -9   3   29.60   43.80   1
  -4  -9   3   36.70   43.80   1
   4   9  -3  119.30   44.00   1
   4   9   4  139.40   69.70   1
  -4  -9  -4  155.60   69.70   1
   4  -9  -4  205.00   70.10   1
  -4   9   4  231.60   70.30   1
  -4   9  -4   78.40   69.50   1
   4  -9   4  191.60   69.80   1
  -4  -9   4   69.60   69.60   1
   4   9  -4   74.90   69.60   1
   4   9   5   40.70   44.40   1
  -4  -9  -5   33.20   44.50   1
   4  -9  -5   66.10   44.90   1
  -4   9   5   96.10   45.20   1
  -4   9  -5   60.30   44.50   1
   4  -9   5   45.40   44.40   1
  -4  -9   5   40.30   44.40   1
   4   9  -5   42.30   44.40   1
   4   9   6   48.70   60.10   1
  -4  -9  -6   74.80   60.00   1
   4  -9  -6   60.80   60.30   1
  -4   9   6  133.40   60.70   1
  -4   9  -6  180.80   60.20   1
   4  -9   6  133.90   60.00   1
  -4  -9   6   65.40   59.90   1
   4   9  -6   67.90   59.90   1
   4   9   7  127.30   45.50   1
  -4  -9  -7   51.70   45.20   1
   4  -9  -7   19.60   45.30   1
  -4   9   7   40.00   46.10   1
  -4   9  -7   68.80   44.80   1
   4  -9   7   39.70   44.80   1
  -4  -9   7   27.10   45.00   1
   4   9  -7   40.90   45.00   1
   4   9   8   28.50   35.30   1
  -4  -9  -8   35.80   35.40   1
   4  -9  -8   19.60   36.00   1
  -4   9   8   16.60   36.50   1
  -4   9  -8   10.40   34.80   1
   4  -9   8   82.00   35.20   1
  -4  -9   8   34.50   35.20   1
   4   9  -8   21.50   35.00   1
   4   9   9   17.90   35.90   1
  -4  -9  -9   24.00   35.80   1
   4  -9  -9   32.30   36.70   1
  -4   9   9    6.50   37.40   1
  -4   9  -9   40.10   35.50   1
   4  -9   9   27.50   35.50   1
  -4  -9   9   36.00   35.90   1
   4   9  -9   44.20   35.90   1
   4   9  10   17.00   35.20   1
  -4  -9 -10   13.50   35.10   1
   4  -9 -10    0.00   36.40   1
  -4   9  10   27.70   37.50   1
  -4   9 -10  175.00   35.50   1
   4  -9  10   37.80   34.90   1
   4   9 -10    9.50   34.80   1
   4   9  11   20.90   31.10   1
  -4  -9 -11   40.90   31.60   1
   4  -9 -11   18.70   33.00   1
  -4   9  11   22.80   33.30   1
  -4   9 -11   20.80   31.00   1
   4  -9  11   20.40   30.90   1
   4   9  12   -0.00   23.30   1
  -4  -9 -12   13.50   23.80   1
   4  -9 -12  118.90   28.10   1
  -4   9 -12   19.50   23.30   1
   4  -9  12   10.40   23.00   1
   4   9  13   21.50   25.60   1
  -4  -9 -13   16.60   25.90   1
   4  -9 -13   54.70   29.00   1
  -4   9  13   34.00   28.00   1
  -4   9 -13    6.40   25.40   1
   4  -9  13   13.80   25.20   1
   4   9  14   -0.00   23.20   1
  -4  -9 -14    9.00   23.40   1
   4  -9 -14   20.80   26.50   1
  -4   9  14    9.60   24.90   1
  -4   9 -14   16.80   23.00   1
   4  -9  14   24.40   23.20   1
   4  10   0  218.60   93.50   1
  -4 -10   0  242.20   93.60   1
   4 -10   0  192.40   93.50   1
  -4  10   0  180.00   93.40   1
   4  10   1  257.00   73.30   1
  -4 -10  -1  343.60   73.60   1
   4 -10  -1   85.30   72.90   1
  -4  10   1   83.70   72.90   1
  -4  10  -1  139.70   73.00   1
   4 -10   1  100.40   72.90   1
   4  10   2   40.80   46.60   1
  -4 -10  -2   86.70   46.80   1
   4 -10  -2   21.80   46.60   1
  -4  10   2   21.10   46.70   1
  -4  10  -2   82.80   46.70   1
   4 -10   2  315.50   47.50   1
  -4 -10   2   47.30   46.60   1
   4  10  -2   30.50   46.60   1
   4  10   3  256.80  119.60   1
  -4 -10  -3  283.70  119.60   1
   4 -10  -3  325.10  119.80   1
  -4  10   3  337.10  119.80   1
  -4  10  -3  505.00  120.10   1
   4 -10   3  374.90  119.80   1
  -4 -10   3  373.50  119.80   1
   4  10  -3  324.50  119.70   1
   4  10   4   19.80   41.00   1
  -4 -10  -4  137.80   41.40   1
   4 -10  -4   14.10   41.30   1
  -4  10   4   30.40   41.40   1
  -4  10  -4   35.10   41.10   1
   4 -10   4   47.30   41.20   1
  -4 -10   4   52.20   41.10   1
   4  10  -4   31.60   41.00   1
   4  10   5  411.40  152.70   1
  -4 -10  -5  447.90  152.80   1
   4 -10  -5  409.40  152.80   1
  -4  10   5  512.20  153.10   1
  -4  10  -5  706.00  153.50   1
   4 -10   5  642.60  153.30   1
  -4 -10   5  683.20  153.50   1
   4  10  -5  626.50  153.30   1
   4  10   6  319.80   49.10   1
  -4 -10  -6  363.40   49.20   1
   4 -10  -6   59.50   48.00   1
  -4  10   6   28.10   48.00   1
  -4  10  -6   75.90   47.60   1
   4 -10   6   19.80   47.50   1
  -4 -10   6   40.10   47.70   1
   4  10  -6   28.00   47.50   1
   4  10   7   94.10   70.30   1
  -4 -10  -7  124.60   70.30   1
   4 -10  -7  149.50   70.60   1
  -4  10   7  243.20   71.00   1
  -4  10  -7   74.80   70.00   1
   4 -10   7  339.70   70.90   1
  -4 -10   7   88.60   70.10   1
   4  10  -7  117.60   70.20   1
   4  10   8   94.10   43.30   1
  -4 -10  -8   -0.40   43.00   1
   4 -10  -8   17.70   43.00   1
  -4  10   8  115.90   43.90   1
  -4  10  -8   33.10   42.80   1
   4 -10   8   48.10   42.90   1
  -4 -10   8   73.50   42.90   1
   4  10  -8   38.50   42.80   1
   4  10   9  446.60  139.70   1
  -4 -10  -9  415.40  139.60   1
   4 -10  -9  339.90  139.40   1
  -4  10   9  427.70  140.00   1
  -4  10  -9  660.10  140.60   1
   4 -10   9  477.60  139.80   1
  -4 -10   9  442.40  140.50   1
   4  10  -9  411.20  140.00   1
   4  10  10  109.40   58.20   1
  -4 -10 -10   98.80   58.30   1
   4 -10 -10   95.10   58.50   1
  -4  10  10   72.90   58.70   1
  -4  10 -10   85.90   57.70   1
   4 -10  10   57.90   57.70   1
  -4 -10  10   56.90   57.90   1
   4  10 -10   99.10   58.00   1
   4  10  11   14.30   35.10   1
  -4 -10 -11    8.40   35.30   1
   4 -10 -11   49.00   36.10   1
  -4  10  11   65.00   37.00   1
  -4  10 -11   51.20   35.20   1
   4 -10  11   12.60   34.90   1
  -4 -10  11   99.00   36.60   1
   4  10 -11  120.50   36.30   1
   4  10  12   48.40   45.50   1
  -4 -10 -12   61.10   45.90   1
   4 -10 -12   72.10   46.50   1
  -4  10  12   48.00   46.90   1
  -4  10 -12   57.40   45.40   1
   4 -10  12   44.40   45.20   1
   4  10 -12   37.70   45.50   1
   4  10  13   66.70   37.70   1
  -4 -10 -13   51.00   38.00   1
   4 -10 -13    4.60   38.50   1
  -4  10  13    7.20   39.00   1
  -4  10 -13   20.60   37.30   1
   4 -10  13   40.90   37.30   1
   4  10  14    0.00   26.20   1
  -4 -10 -14   28.20   26.60   1
   4 -10 -14   -0.50   28.50   1
  -4  10  14    5.30   29.00   1
  -4  10 -14   33.40   26.20   1
   4 -10  14   17.90   26.20   1
   4  11   0  521.40   89.90   1
  -4 -11   0  482.10   89.70   1
   4 -11   0  141.20   88.80   1
  -4  11   0  122.20   88.70   1
   4  11   1   24.80   33.40   1
  -4 -11  -1   63.70   33.70   1
   4 -11  -1   10.30   33.50   1
  -4  11   1    8.00   33.50   1
  -4  11  -1   33.60   33.50   1
   4 -11   1   18.90   33.60   1
  -4 -11   1   42.20   33.70   1
   4  11  -1   29.90   33.60   1
   4  11   2   69.00   80.10   1
  -4 -11  -2   82.70   80.10   1
   4 -11  -2  169.00   80.30   1
  -4  11   2  168.80   80.30   1
  -4  11  -2  506.10   81.20   1
   4 -11   2  336.20   80.60   1
  -4 -11   2  191.10   80.30   1
   4  11  -2  173.40   80.20   1
   4  11   3   25.00   32.10   1
  -4 -11  -3   27.20   32.10   1
   4 -11  -3   46.80   32.20   1
  -4  11   3   64.50   32.30   1
  -4  11  -3   20.60   31.90   1
   4 -11   3   29.30   32.00   1
  -4 -11   3    3.40   31.80   1
   4  11  -3    8.90   31.90   1
   4  11   4   25.50   41.50   1
  -4 -11  -4   13.50   41.40   1
   4 -11  -4   49.10   41.60   1
  -4  11   4  157.70   42.10   1
  -4  11  -4   33.80   41.50   1
   4 -11   4   18.00   41.40   1
  -4 -11   4   44.10   41.50   1
   4  11  -4   70.10   41.60   1
   4  11   5  112.40   41.30   1
  -4 -11  -5  174.40   41.30   1
   4 -11  -5    0.50   40.80   1
  -4  11   5   12.10   40.80   1
  -4  11  -5   97.10   40.70   1
   4 -11   5   35.90   40.70   1
  -4 -11   5   28.90   40.50   1
   4  11  -5    9.60   40.30   1
   4  11   6   21.80   49.90   1
  -4 -11  -6   69.00   49.80   1
   4 -11  -6   87.40   49.90   1
  -4  11   6   92.10   49.90   1
  -4  11  -6   65.80   49.60   1
   4 -11   6  116.70   49.90   1
  -4 -11   6   51.00   49.60   1
   4  11  -6   21.90   49.50   1
   4  11   7   60.70   41.10   1
  -4 -11  -7   43.80   41.00   1
   4 -11  -7   26.70   40.90   1
  -4  11   7   30.10   41.00   1
  -4  11  -7   58.10   40.70   1
   4 -11   7  105.70   41.00   1
  -4 -11   7   33.20   40.40   1
   4  11  -7   13.70   40.30   1
   4  11   8  277.00  111.00   1
  -4 -11  -8  170.90  110.70   1
   4 -11  -8  400.70  111.50   1
  -4  11   8  429.40  111.80   1
  -4  11  -8  515.70  111.90   1
   4 -11   8  316.70  111.00   1
  -4 -11   8  255.80  110.80   1
   4  11  -8  262.80  110.80   1
   4  11   9   25.00   31.70   1
  -4 -11  -9   22.00   31.50   1
   4 -11  -9   35.60   32.00   1
  -4  11   9    9.60   32.20   1
  -4  11  -9   30.20   31.40   1
   4 -11   9   -0.10   31.20   1
  -4 -11   9   34.00   31.30   1
   4  11  -9   34.30   31.30   1
   4  11  10   25.40   40.30   1
  -4 -11 -10   18.60   40.30   1
   4 -11 -10  126.80   41.20   1
  -4  11  10  135.60   41.60   1
  -4  11 -10   11.90   40.00   1
   4 -11  10    8.60   39.90   1
  -4 -11  10   97.50   40.60   1
   4  11 -10   81.30   40.30   1
   4  11  11    5.50   27.30   1
  -4 -11 -11    0.50   27.80   1
   4 -11 -11    7.60   27.90   1
  -4  11  11   33.60   28.80   1
  -4  11 -11   19.30   27.30   1
   4 -11  11   10.70   26.90   1
  -4 -11  11   31.10   27.50   1
   4  11 -11   56.00   27.60   1
   4  11  12   23.50   34.50   1
  -4 -11 -12   31.60   35.00   1
   4 -11 -12   24.50   35.10   1
  -4  11  12   82.70   36.30   1
  -4  11 -12   34.50   34.60   1
   4 -11  12   13.90   34.20   1
  -4 -11  12  166.80   38.20   1
   4  11 -12   41.40   34.70   1
   4  11  13   -0.00   22.60   1
  -4 -11 -13   14.50   23.00   1
   4 -11 -13    8.70   23.90   1
  -4  11  13   19.10   24.80   1
  -4  11 -13   42.00   22.70   1
   4 -11  13   14.50   22.30   1
  -4 -11  13   -0.90   22.70   1
   4  11 -13    5.40   22.70   1
   4  11  14   16.70   27.00   1
  -4 -11 -14   20.40   27.20   1
   4 -11 -14   18.20   28.10   1
  -4  11  14   59.30   29.30   1
  -4  11 -14   12.70   26.70   1
   4 -11  14   14.80   26.80   1
   4  11 -14   17.00   27.10   1
   4  12   0   67.60   51.00   1
  -4 -12   0   80.30   51.10   1
   4 -12   0   50.60   51.00   1
  -4  12   0   55.80   51.00   1
   4  12   1 2404.80  414.30   1
  -4 -12  -1 2582.00  415.10   1
   4 -12  -1 2671.00  415.50   1
  -4  12   1 2490.80  415.10   1
  -4  12  -1 2217.80  413.90   1
   4 -12   1 2345.30  414.80   1
  -4 -12   1 3250.10  418.80   1
   4  12  -1 2868.20  417.50   1
   4  12   2   58.20   34.00   1
  -4 -12  -2   56.70   34.00   1
   4 -12  -2    8.00   34.10   1
  -4  12   2   16.90   34.10   1
  -4  12  -2   18.10   33.90   1
   4 -12   2   21.10   33.80   1
  -4 -12   2   29.10   34.00   1
   4  12  -2   17.30   33.70   1
   4  12   3  502.00  162.90   1
  -4 -12  -3  534.80  163.00   1
   4 -12  -3  738.10  163.70   1
  -4  12   3  685.60  163.60   1
  -4  12  -3  704.50  163.60   1
   4 -12   3  615.40  163.20   1
  -4 -12   3  481.90  162.90   1
   4  12  -3  534.50  162.90   1
   4  12   4   49.50   43.50   1
  -4 -12  -4   66.70   43.60   1
   4 -12  -4   39.80   43.50   1
  -4  12   4   66.00   43.70   1
  -4  12  -4   16.90   43.40   1
   4 -12   4   41.30   43.60   1
  -4 -12   4   39.30   43.30   1
   4  12  -4   66.00   43.60   1
   4  12   5  598.10  157.60   1
  -4 -12  -5  590.10  157.50   1
   4 -12  -5  567.90  157.70   1
  -4  12   5  643.00  157.90   1
  -4  12  -5  410.60  156.90   1
   4 -12   5  475.50  157.20   1
  -4 -12   5  591.50  157.40   1
   4  12  -5  595.40  157.40   1
   4  12   6  143.00   50.00   1
  -4 -12  -6   77.20   49.70   1
   4 -12  -6  101.80   49.70   1
  -4  12   6   26.70   49.50   1
  -4  12  -6  125.10   49.60   1
   4 -12   6  110.90   49.60   1
  -4 -12   6   19.60   49.00   1
   4  12  -6   21.90   49.00   1
   4  12   7 1901.90  406.50   1
  -4 -12  -7 2427.00  409.30   1
   4 -12  -7 2782.70  412.00   1
  -4  12   7 2740.40  410.90   1
  -4  12  -7 2910.60  413.50   1
   4 -12   7 2804.60  413.00   1
  -4 -12   7 3039.80  414.60   1
   4  12  -7 2170.40  408.50   1
   4  12   8   25.80   23.30   1
  -4 -12  -8   -0.10   22.80   1
   4 -12  -8    7.60   22.80   1
  -4  12   8    2.90   23.00   1
  -4  12  -8   34.10   22.90   1
   4 -12   8   25.00   22.80   1
  -4 -12   8   -0.00   22.30   1
   4  12  -8    7.70   22.00   1
   4  12   9  289.70  108.20   1
  -4 -12  -9  253.90  108.00   1
   4 -12  -9  208.60  107.90   1
  -4  12   9  461.30  109.00   1
  -4  12  -9  275.40  108.00   1
   4 -12   9  227.80  107.80   1
  -4 -12   9  287.20  108.10   1
   4  12  -9  296.90  108.00   1
   4  12  10   13.20   20.60   1
  -4 -12 -10   -0.00   21.00   1
   4 -12 -10   17.90   21.00   1
  -4  12  10   11.20   21.10   1
  -4  12 -10    5.20   20.20   1
   4 -12  10    6.00   20.00   1
  -4 -12  10    6.50   20.00   1
   4  12 -10   16.00   20.10   1
   4  12  11    4.00   29.10   1
  -4 -12 -11   28.30   29.50   1
   4 -12 -11   18.60   29.60   1
  -4  12  11   72.50   30.40   1
  -4  12 -11   18.40   29.00   1
   4 -12  11   14.40   28.70   1
  -4 -12  11   45.80   29.30   1
   4  12 -11    8.50   28.90   1
   4  12  12   10.00   15.40   1
  -4 -12 -12   13.50   16.20   1
   4 -12 -12   10.60   16.60   1
  -4  12  12   -0.00   17.00   1
  -4  12 -12   -0.10   15.30   1
   4 -12  12   -0.00   14.80   1
  -4 -12  12   11.20   15.50   1
   4  12 -12    3.20   15.40   1
   4  12  13   73.70   63.70   1
  -4 -12 -13  116.80   64.00   1
   4 -12 -13  103.00   64.30   1
  -4  12  13  174.80   65.00   1
  -4  12 -13  108.70   63.70   1
   4 -12  13   78.60   63.40   1
  -4 -12  13  125.20   64.60   1
   4  12 -13   88.60   63.80   1
   4  13   0 3894.60  608.10   1
  -4 -13   0 4300.40  610.60   1
   4 -13   0 4664.50  613.70   1
  -4  13   0 4434.40  611.80   1
   4  13   1  106.50   69.90   1
  -4 -13  -1   85.10   69.90   1
   4 -13  -1  125.10   70.20   1
  -4  13   1   94.80   70.00   1
  -4  13  -1  144.90   70.20   1
   4 -13   1  141.00   70.00   1
  -4 -13   1  128.40   70.00   1
   4  13  -1  132.30   70.00   1
   4  13   2 4719.60  669.00   1
  -4 -13  -2 4963.70  669.80   1
   4 -13  -2 5051.60  669.50   1
  -4  13   2 5060.20  669.50   1
  -4  13  -2 4641.70  668.40   1
   4 -13   2 4698.50  667.70   1
  -4 -13   2 5508.00  672.60   1
   4  13  -2 4089.30  666.10   1
   4  13   3   93.80   48.90   1
  -4 -13  -3  148.30   49.10   1
   4 -13  -3   39.80   49.00   1
  -4  13   3   58.10   48.90   1
  -4  13  -3    0.20   48.60   1
   4 -13   3  147.70   49.10   1
  -4 -13   3   60.30   48.90   1
   4  13  -3   30.70   48.80   1
   4  13   4 1238.80  216.80   1
  -4 -13  -4 1497.60  218.10   1
   4 -13  -4 1059.10  216.20   1
  -4  13   4 1122.90  216.80   1
  -4  13  -4  759.80  215.10   1
   4 -13   4  593.90  214.80   1
  -4 -13   4 1018.60  216.10   1
   4  13  -4 1199.60  216.70   1
   4  13   5   45.40   44.20   1
  -4 -13  -5   19.70   43.90   1
   4 -13  -5   58.80   44.20   1
  -4  13   5   42.70   44.10   1
  -4  13  -5   71.20   44.30   1
   4 -13   5   51.30   44.10   1
  -4 -13   5   34.20   43.60   1
   4  13  -5   60.30   43.70   1
   4  13   6 4487.20  715.50   1
  -4 -13  -6 5553.90  721.40   1
   4 -13  -6 6268.60  730.10   1
  -4  13   6 4921.40  719.90   1
  -4  13  -6 5619.80  725.30   1
   4 -13   6 5400.00  724.40   1
  -4 -13   6 5766.80  722.20   1
   4  13  -6 4718.70  715.70   1
   4  13   7   72.00   63.80   1
  -4 -13  -7  141.50   64.10   1
   4 -13  -7   92.70   63.90   1
  -4  13   7  126.60   64.00   1
  -4  13  -7  106.40   63.70   1
   4 -13   7  195.60   64.30   1
  -4 -13   7   60.30   63.40   1
   4  13  -7   87.90   63.50   1
   4  13   8  532.50  164.90   1
  -4 -13  -8  578.80  165.10   1
   4 -13  -8  560.90  165.10   1
  -4  13   8  744.00  165.90   1
  -4  13  -8  504.70  164.80   1
   4 -13   8  576.00  165.40   1
  -4 -13   8  824.60  166.60   1
   4  13  -8  545.50  164.90   1
   4  13   9   10.20   27.10   1
  -4 -13  -9   -0.00   27.10   1
   4 -13  -9   23.30   26.80   1
  -4  13   9    4.30   26.90   1
  -4  13  -9   44.50   26.90   1
   4 -13   9   23.40   26.50   1
  -4 -13   9    9.90   26.20   1
   4  13  -9   16.50   26.30   1
   4  13  10   88.20   77.70   1
  -4 -13 -10  149.20   78.00   1
   4 -13 -10  372.50   79.20   1
  -4  13  10  206.10   78.30   1
  -4  13 -10  143.80   77.80   1
   4 -13  10  163.60   77.80   1
  -4 -13  10  171.90   77.90   1
   4  13 -10  107.30   77.50   1
   4  13  11    9.10   33.70   1
  -4 -13 -11   19.20   34.00   1
   4 -13 -11   31.30   34.10   1
  -4  13  11   52.80   34.50   1
  -4  13 -11   33.30   33.80   1
   4 -13  11   17.90   33.40   1
  -4 -13  11   33.40   33.70   1
   4  13 -11   45.70   33.80   1
   4  13  12   73.90   68.20   1
  -4 -13 -12  129.20   68.80   1
   4 -13 -12  149.10   68.90   1
  -4  13  12  123.70   68.80   1
  -4  13 -12  128.00   68.40   1
   4 -13  12   92.00   68.20   1
  -4 -13  12  115.10   68.50   1
   4  13 -12  152.10   68.70   1
   4  13  13   15.20   28.60   1
  -4 -13 -13   15.20   28.80   1
   4 -13 -13   24.40   29.30   1
  -4  13  13   31.10   29.50   1
  -4  13 -13   25.80   28.50   1
   4 -13  13   17.00   28.30   1
  -4 -13  13   25.70   28.60   1
   4  13 -13   10.80   28.50   1
   4  14   0    0.00   17.30   1
  -4 -14   0   -0.10   17.10   1
   4 -14   0    4.70   17.50   1
  -4  14   0   23.60   17.70   1
   4  14   1   19.60   42.30   1
  -4 -14  -1   13.00   42.20   1
   4 -14  -1   52.10   42.40   1
  -4  14   1   35.90   42.40   1
  -4  14  -1   43.70   42.30   1
   4 -14   1   58.00   42.30   1
  -4 -14   1   61.50   42.40   1
   4  14  -1   66.60   42.30   1
   4  14   2   69.80   39.00   1
  -4 -14  -2   91.00   39.30   1
   4 -14  -2   34.80   39.30   1
  -4  14   2   28.40   39.00   1
  -4  14  -2    2.70   38.80   1
   4 -14   2   14.40   39.10   1
  -4 -14   2   35.60   38.90   1
   4  14  -2   38.60   38.80   1
   4  14   3   25.60   56.70   1
  -4 -14  -3   54.00   56.60   1
   4 -14  -3   47.50   56.80   1
  -4  14   3   53.30   56.80   1
  -4  14  -3   82.10   56.70   1
   4 -14   3  152.50   57.00   1
  -4 -14   3  437.00   58.20   1
   4  14   4   31.80   27.90   1
  -4 -14  -4   38.10   27.80   1
   4 -14  -4   18.90   27.90   1
  -4  14   4   10.50   27.60   1
  -4  14  -4    4.80   27.30   1
   4 -14   4   13.70   27.60   1
  -4 -14   4   19.80   27.30   1
   4  14  -4    9.80   27.50   1
   4  14   5   65.50   60.00   1
  -4 -14  -5   51.40   60.00   1
   4 -14  -5   80.50   60.00   1
  -4  14   5   67.40   59.80   1
  -4  14  -5  393.40   61.50   1
   4 -14   5  133.60   60.10   1
  -4 -14   5  119.60   59.80   1
   4  14  -5   43.50   59.70   1
   4  14   6  154.00   58.90   1
  -4 -14  -6  146.30   59.10   1
   4 -14  -6   67.50   58.30   1
  -4  14   6   61.90   58.10   1
  -4  14  -6  146.00   58.50   1
   4 -14   6  167.90   58.80   1
  -4 -14   6   34.20   57.80   1
   4  14  -6   67.40   58.00   1
   4  14   7  182.30   88.30   1
  -4 -14  -7  181.40   88.30   1
   4 -14  -7  206.30   88.20   1
  -4  14   7  173.60   88.20   1
  -4  14  -7  185.10   88.20   1
   4 -14   7  139.40   88.10   1
  -4 -14   7  284.30   88.40   1
   4  14  -7  159.70   88.00   1
   4  14   8   45.00   25.10   1
  -4 -14  -8   11.60   24.40   1
   4 -14  -8   15.90   24.40   1
  -4  14   8   35.20   24.60   1
  -4  14  -8   -0.90   24.00   1
   4 -14   8   10.20   24.10   1
  -4 -14   8    9.10   23.60   1
   4  14  -8    5.80   23.70   1
   4  14   9   46.50   46.30   1
  -4 -14  -9   51.40   46.30   1
   4 -14  -9   59.70   46.20   1
  -4  14   9   57.90   46.30   1
  -4  14  -9   61.20   46.20   1
   4 -14   9   32.50   45.80   1
  -4 -14   9   64.20   45.90   1
   4  14  -9   45.20   45.80   1
   4  14  10   22.40   22.50   1
  -4 -14 -10   -0.10   23.00   1
   4 -14 -10    8.10   22.50   1
  -4  14  10   21.00   22.80   1
  -4  14 -10   16.70   22.50   1
   4 -14  10   -0.00   21.90   1
  -4 -14  10    3.40   21.90   1
   4  14 -10   22.70   21.90   1
   4  14  11   14.60   29.80   1
  -4 -14 -11   26.50   30.40   1
   4 -14 -11   46.90   30.40   1
  -4  14  11   35.00   30.60   1
  -4  14 -11   25.80   29.90   1
   4 -14  11   11.90   29.50   1
  -4 -14  11   15.80   29.70   1
   4  14 -11   20.60   29.70   1
   4  14  12    0.00   11.60   1
  -4 -14 -12    7.80   12.30   1
   4 -14 -12   -0.00   12.20   1
  -4  14  12   -0.00   13.20   1
  -4  14 -12    3.30   11.40   1
   4 -14  12   -0.20   10.60   1
  -4 -14  12    4.20   11.00   1
   4  14 -12    3.00   10.90   1
   4  15   0 1106.90  207.70   1
  -4 -15   0 1113.90  207.60   1
   4 -15   0  854.60  206.60   1
  -4  15   0  661.10  206.00   1
   4  15   1  101.10   48.20   1
  -4 -15  -1  114.80   48.20   1
   4 -15  -1   18.70   47.90   1
  -4  15   1   45.70   48.10   1
  -4  15  -1   16.50   47.80   1
   4 -15   1    0.00   47.90   1
  -4 -15   1   92.50   48.10   1
   4  15  -1  109.50   47.90   1
   4  15   2  109.50   73.00   1
  -4 -15  -2   94.90   72.90   1
   4 -15  -2  131.60   73.10   1
  -4  15   2  156.70   73.30   1
   4 -15   2  358.40   74.10   1
  -4 -15   2  124.10   73.00   1
   4  15  -2  105.00   72.90   1
   4  15   3  118.10   50.40   1
  -4 -15  -3  124.30   50.30   1
   4 -15  -3   41.70   50.00   1
  -4  15   3   36.90   49.90   1
  -4  15  -3   16.70   49.80   1
   4 -15   3   49.80   50.00   1
  -4 -15   3   72.10   50.00   1
   4  15  -3   75.20   49.90   1
   4  15   4   25.00   59.40   1
  -4 -15  -4   23.30   59.50   1
   4 -15  -4  160.10   60.00   1
  -4  15   4   47.80   59.50   1
  -4  15  -4  195.50   60.20   1
   4 -15   4   46.80   59.50   1
  -4 -15   4  280.70   60.30   1
   4  15  -4  216.00   60.00   1
   4  15   5   81.10   57.40   1
  -4 -15  -5   94.00   57.60   1
   4 -15  -5   53.90   57.30   1
  -4  15   5   54.00   57.10   1
  -4  15  -5   92.60   57.40   1
   4 -15   5   90.60   57.50   1
  -4 -15   5  109.70   57.30   1
   4  15  -5   70.30   57.00   1
   4  15   6  446.50  147.60   1
  -4 -15  -6  665.70  148.70   1
   4 -15  -6  401.00  147.30   1
  -4  15   6  660.90  148.50   1
  -4  15  -6  398.70  147.50   1
   4 -15   6  348.70  147.40   1
  -4 -15   6  642.70  148.30   1
   4  15  -6  606.30  148.00   1
   4  15   7   21.80   37.20   1
  -4 -15  -7   10.50   37.00   1
   4 -15  -7   13.00   37.00   1
  -4  15   7   15.30   37.00   1
  -4  15  -7   47.10   37.10   1
   4 -15   7   37.60   37.20   1
  -4 -15   7   81.70   37.00   1
   4  15  -7   36.20   36.80   1
   4  15   8   50.70   56.20   1
  -4 -15  -8   92.90   56.40   1
   4 -15  -8   62.50   56.20   1
  -4  15   8   91.10   56.30   1
  -4  15  -8  106.00   56.30   1
   4 -15   8   57.10   56.10   1
  -4 -15   8   79.40   55.90   1
   4  15  -8   76.30   56.00   1
   4  15   9   15.30   36.50   1
  -4 -15  -9   -0.10   36.70   1
   4 -15  -9   27.90   36.60   1
  -4  15   9   45.40   36.70   1
  -4  15  -9   35.80   36.40   1
   4 -15   9   38.80   36.30   1
  -4 -15   9   31.40   36.30   1
   4  15  -9   51.80   36.40   1
   4  15  10   31.80   39.00   1
  -4 -15 -10   20.40   39.30   1
   4 -15 -10   51.40   39.20   1
  -4  15  10   27.80   39.10   1
  -4  15 -10   53.80   39.00   1
   4 -15  10   18.50   38.50   1
  -4 -15  10   53.40   38.80   1
   4  15 -10   41.90   38.70   1
   4  15  11   18.90   27.50   1
  -4 -15 -11   31.10   28.30   1
   4 -15 -11   20.70   27.90   1
  -4  15  11   21.00   28.20   1
  -4  15 -11    9.40   27.30   1
   4 -15  11   19.60   27.10   1
  -4 -15  11   11.70   27.20   1
   4  15 -11   18.00   27.20   1
   4  15  12    4.90   25.80   1
  -4 -15 -12   16.70   26.30   1
   4 -15 -12   14.50   26.50   1
  -4  15  12   26.60   26.50   1
  -4  15 -12   31.60   25.90   1
   4 -15  12   10.80   25.50   1
  -4 -15  12   13.70   25.70   1
   4  16   0  279.70  103.70   1
  -4 -16   0  299.30  103.80   1
   4 -16   0  248.60  103.70   1
  -4  16   0  197.80  103.50   1
   4  16   1  829.30  202.80   1
  -4 -16  -1  877.00  203.10   1
   4 -16  -1 1003.50  203.70   1
  -4  16   1  805.60  202.90   1
  -4  16  -1  614.00  202.20   1
   4 -16   1  858.60  203.40   1
  -4 -16   1 1016.40  203.60   1
   4  16  -1  941.40  203.40   1
   4  16   2  104.20   48.30   1
  -4 -16  -2  108.40   48.20   1
   4 -16  -2   28.50   47.80   1
  -4  16   2   53.60   48.10   1
  -4  16  -2   27.20   47.90   1
   4 -16   2   28.80   48.00   1
  -4 -16   2   57.10   47.90   1
   4  16  -2   63.30   47.80   1
   4  16   3  671.30  181.00   1
  -4 -16  -3  619.70  180.70   1
   4 -16  -3  555.40  180.60   1
  -4  16   3  721.80  181.30   1
  -4  16  -3  923.10  182.60   1
   4 -16   3  839.30  182.30   1
  -4 -16   3  881.70  181.90   1
   4  16  -3  624.30  180.60   1
   4  16   4   73.60   37.70   1
  -4 -16  -4   42.10   37.30   1
   4 -16  -4   56.60   37.40   1
  -4  16   4   46.60   37.50   1
  -4  16  -4   13.90   37.10   1
   4 -16   4   18.70   37.50   1
  -4 -16   4   22.50   37.00   1
   4  16  -4   16.00   36.90   1
   4  16   5   10.10   46.00   1
  -4 -16  -5   30.70   46.20   1
   4 -16  -5  162.70   46.40   1
  -4  16   5   32.50   45.90   1
  -4  16  -5   13.30   45.60   1
   4 -16   5   34.20   45.70   1
   4  16  -5  214.50   46.50   1
   4  16   6   15.10   33.60   1
  -4 -16  -6   15.90   33.90   1
   4 -16  -6   81.50   34.20   1
  -4  16   6   24.50   33.80   1
  -4  16  -6   13.50   33.30   1
   4 -16   6   22.90   33.60   1
  -4 -16   6   43.20   33.70   1
   4  16  -6   16.80   33.40   1
   4  16   7   38.30   63.90   1
  -4 -16  -7   59.60   63.80   1
   4 -16  -7  458.20   66.50   1
  -4  16   7  125.80   64.10   1
  -4  16  -7   58.50   63.80   1
   4 -16   7   86.10   63.90   1
  -4 -16   7  252.90   64.60   1
   4  16  -7  123.40   63.90   1
   4  16   8   24.10   26.30   1
  -4 -16  -8   39.20   26.70   1
   4 -16  -8    0.00   26.10   1
  -4  16   8   19.20   26.10   1
  -4  16  -8   18.80   25.80   1
   4 -16   8   12.30   25.50   1
  -4 -16   8   18.40   25.30   1
   4  16  -8   -0.00   25.50   1
   4  16   9   56.30   31.00   1
  -4 -16  -9   23.20   31.00   1
   4 -16  -9    0.00   30.50   1
  -4  16   9   51.30   30.90   1
  -4  16  -9   41.40   30.70   1
   4 -16   9   16.40   30.20   1
  -4 -16   9    8.80   30.10   1
   4  16  -9   13.40   30.20   1
   4  16  10   -0.00   19.90   1
  -4 -16 -10    4.70   20.30   1
   4 -16 -10    7.40   19.90   1
  -4  16  10    4.30   19.80   1
  -4  16 -10   -0.00   19.50   1
   4 -16  10   17.50   19.00   1
  -4 -16  10   12.20   19.20   1
   4  16 -10    9.30   19.10   1
   4  16  11    7.00   23.60   1
  -4 -16 -11   18.40   24.60   1
   4 -16 -11   -0.00   24.00   1
  -4  16  11   18.20   24.60   1
  -4  16 -11   17.10   23.60   1
   4 -16  11   -0.00   23.10   1
  -4 -16  11   43.80   23.70   1
   4  17   0   18.70   50.90   1
  -4 -17   0   22.40   50.90   1
   4 -17   0  387.80   53.50   1
  -4  17   0  208.90   51.80   1
   4  17   1   30.60   31.50   1
  -4 -17  -1    5.10   31.00   1
   4 -17  -1    9.80   31.50   1
  -4  17   1   28.00   30.90   1
  -4  17  -1   21.70   31.20   1
   4 -17   1   20.60   31.40   1
  -4 -17   1   28.00   31.10   1
   4  17  -1   31.30   30.90   1
   4  17   2  183.20   62.00   1
  -4 -17  -2  204.30   62.10   1
   4 -17  -2   32.40   61.40   1
  -4  17   2   28.30   61.10   1
  -4  17  -2  146.20   61.80   1
   4 -17   2   65.60   61.50   1
  -4 -17   2  118.30   61.50   1
   4  17  -2  117.10   61.50   1
   4  17   3    9.30   25.50   1
  -4 -17  -3    2.80   25.00   1
   4 -17  -3   24.60   24.90   1
  -4  17   3   -0.30   24.80   1
  -4  17  -3   10.20   25.20   1
   4 -17   3    9.60   25.20   1
  -4 -17   3   17.50   24.80   1
   4  17  -3   32.40   24.90   1
   4  17   4   42.60   32.70   1
  -4 -17  -4   44.50   32.80   1
   4 -17  -4   -0.00   32.00   1
  -4  17   4    9.50   32.10   1
  -4  17  -4   23.90   32.10   1
   4 -17   4   15.80   32.30   1
  -4 -17   4   17.60   32.10   1
   4  17  -4   61.30   32.30   1
   4  17   5   19.60   30.20   1
  -4 -17  -5   37.10   30.40   1
   4 -17  -5   14.60   29.70   1
  -4  17   5   -0.10   29.50   1
  -4  17  -5   24.00   29.80   1
   4 -17   5  105.00   30.70   1
  -4 -17   5    1.80   29.50   1
   4  17  -5   16.70   29.40   1
   4  17   6  140.90   79.00   1
  -4 -17  -6  208.90   79.40   1
   4 -17  -6  103.00   78.70   1
  -4  17   6  123.40   78.90   1
  -4  17  -6  127.40   79.00   1
   4 -17   6   84.30   78.80   1
  -4 -17   6  477.60   80.70   1
   4  17  -6  307.30   79.60   1
   4  17   7   31.70   26.40   1
  -4 -17  -7   21.60   26.20   1
   4 -17  -7   26.20   26.50   1
  -4  17   7   18.60   26.10   1
  -4  17  -7   17.10   25.80   1
   4 -17   7    4.30   25.70   1
  -4 -17   7   -0.60   25.30   1
   4  17  -7   17.40   25.60   1
   4  17   8   19.80   39.40   1
  -4 -17  -8   17.10   39.40   1
   4 -17  -8   58.80   39.70   1
  -4  17   8   42.50   39.30   1
  -4  17  -8   26.00   39.10   1
   4 -17   8   11.70   38.80   1
  -4 -17   8  153.50   39.90   1
   4  17  -8   38.90   39.00   1
   4  17   9    9.30   21.10   1
  -4 -17  -9   -0.00   21.70   1
   4 -17  -9   28.80   21.80   1
  -4  17   9   21.10   21.50   1
  -4  17  -9    6.50   21.00   1
   4 -17   9   -0.30   20.40   1
  -4 -17   9   11.20   20.40   1
   4  17  -9    8.00   20.60   1
   4  17  10   42.00   43.70   1
  -4 -17 -10   43.40   44.10   1
   4 -17 -10  262.10   46.20   1
  -4  17  10  166.70   45.30   1
  -4  17 -10   39.40   43.90   1
   4 -17  10   36.40   43.50   1
  -4 -17  10   17.80   43.50   1
   4  18   0   67.60   51.00   1
  -4 -18   0   75.10   50.90   1
   4 -18   0   59.30   51.10   1
  -4  18   0   45.10   51.00   1
   4  18   1  770.80  144.80   1
  -4 -18  -1  721.90  144.50   1
   4 -18  -1  394.10  143.10   1
  -4  18   1  306.50  142.70   1
  -4  18  -1  444.10  143.30   1
   4 -18   1  388.90  143.20   1
  -4 -18   1  530.80  143.50   1
   4  18  -1  543.00  143.50   1
   4  18   2   17.60   39.30   1
  -4 -18  -2   19.20   39.20   1
   4 -18  -2   14.80   39.20   1
  -4  18   2   10.20   39.00   1
  -4  18  -2   19.90   39.30   1
   4 -18   2   23.50   39.40   1
  -4 -18   2  100.70   39.40   1
   4  18  -2  145.40   39.60   1
   4  18   3   96.10   75.20   1
  -4 -18  -3  139.80   75.30   1
   4 -18  -3  130.80   75.40   1
  -4  18   3  115.80   75.10   1
  -4  18  -3  156.10   75.40   1
   4 -18   3   93.30   75.20   1
  -4 -18   3  175.20   75.20   1
   4  18  -3  191.30   75.30   1
   4  18   4   41.30   36.30   1
  -4 -18  -4   57.70   36.60   1
   4 -18  -4   62.10   36.30   1
  -4  18   4   32.90   36.10   1
  -4  18  -4   27.20   36.00   1
   4 -18   4   16.30   36.10   1
  -4 -18   4   11.60   35.70   1
   4  18  -4   20.40   35.60   1
   4  18   5  179.90   97.70   1
  -4 -18  -5  268.50   98.00   1
   4 -18  -5  214.00   97.50   1
  -4  18   5  231.50   97.70   1
  -4  18  -5  207.60   97.70   1
   4 -18   5  209.70   97.80   1
  -4 -18   5  275.20   97.80   1
   4  18  -5  213.20   97.40   1
   4  18   6    4.70   27.50   1
  -4 -18  -6    2.80   27.40   1
   4 -18  -6   -0.10   26.90   1
  -4  18   6    0.00   26.90   1
  -4  18  -6  109.30   28.00   1
   4 -18   6   49.50   27.30   1
  -4 -18   6   -0.00   26.70   1
   4  18  -6   15.00   26.60   1
   4  18   7  857.90  197.10   1
  -4 -18  -7  963.10  197.60   1
   4 -18  -7  734.80  195.80   1
  -4  18   7  863.90  196.70   1
  -4  18  -7  517.90  195.10   1
   4 -18   7  770.00  197.40   1
  -4 -18   7  963.20  196.90   1
   4  18  -7  822.80  196.30   1
   4  18   8   15.80   28.50   1
  -4 -18  -8   14.60   28.70   1
   4 -18  -8   24.40   28.30   1
  -4  18   8   28.00   28.50   1
  -4  18  -8   38.90   28.40   1
   4 -18   8    9.90   27.80   1
  -4 -18   8   10.80   27.80   1
   4  18  -8   12.20   27.90   1
   4  18   9  101.30   68.30   1
  -4 -18  -9  106.30   68.50   1
   4 -18  -9  193.10   69.00   1
  -4  18   9  142.80   68.60   1
  -4  18  -9   64.50   68.10   1
   4 -18   9   87.10   68.00   1
  -4 -18   9  162.80   68.50   1
   4  18  10   -0.00   21.30   1
  -4 -18 -10   18.60   22.80   1
   4 -18 -10   18.30   22.40   1
  -4  18  10   -0.00   22.00   1
   4 -18  10   14.70   20.80   1
  -4 -18  10   10.20   21.20   1
   4  19   0   57.50   46.80   1
  -4 -19   0   49.70   46.90   1
   4 -19   0   31.90   46.60   1
  -4  19   0   72.30   46.90   1
   4  19   1   28.10   22.50   1
  -4 -19  -1   27.10   22.00   1
   4 -19  -1    4.10   21.90   1
  -4  19   1    8.10   21.70   1
  -4  19  -1    2.70   22.00   1
   4 -19   1    8.80   22.10   1
  -4 -19   1   -0.00   21.50   1
   4  19  -1    6.60   21.60   1
   4  19   2   -0.00   32.10   1
  -4 -19  -2    0.00   32.10   1
   4 -19  -2  136.00   33.60   1
  -4  19   2  123.90   32.90   1
  -4  19  -2   -0.10   32.10   1
   4 -19   2   19.90   32.30   1
  -4 -19   2   19.20   31.80   1
   4  19  -2    7.10   32.10   1
   4  19   3   12.40   17.40   1
  -4 -19  -3   13.20   17.70   1
   4 -19  -3    8.90   17.60   1
  -4  19   3    9.50   16.50   1
  -4  19  -3    0.10   16.60   1
   4 -19   3    0.00   16.80   1
  -4 -19   3   -0.00   16.60   1
   4  19  -3   -0.10   16.50   1
   4  19   4   17.50   35.70   1
  -4 -19  -4   41.90   36.20   1
   4 -19  -4   29.30   35.50   1
  -4  19   4   11.40   35.40   1
  -4  19  -4   18.10   35.40   1
   4 -19   4   48.20   35.70   1
  -4 -19   4   42.70   35.50   1
   4  19  -4   32.70   35.30   1
   4  19   5   18.20   22.10   1
  -4 -19  -5   -0.40   22.60   1
   4 -19  -5   -0.00   22.30   1
  -4  19   5   -0.00   21.60   1
  -4  19  -5    7.80   22.30   1
   4 -19   5   11.00   22.40   1
  -4 -19   5   -0.00   21.80   1
   4  19  -5   35.90   21.50   1
   4  19   6   63.80   47.60   1
  -4 -19  -6   34.50   47.40   1
   4 -19  -6   84.20   47.50   1
  -4  19   6   54.00   47.30   1
  -4  19  -6   46.50   47.60   1
   4 -19   6   52.20   47.40   1
  -4 -19   6   61.80   47.40   1
   4  19  -6   40.50   47.00   1
   4  19   7   15.60   17.30   1
  -4 -19  -7    4.90   18.10   1
   4 -19  -7    1.00   16.30   1
  -4  19   7    0.00   17.10   1
  -4  19  -7   26.50   17.40   1
   4 -19   7   -0.00   16.20   1
  -4 -19   7    1.00   16.50   1
   4  19  -7    0.00   16.10   1
   4  19   8   25.10   41.90   1
  -4 -19  -8   23.60   41.80   1
   4 -19  -8   45.50   42.00   1
  -4  19   8   47.60   42.00   1
   4 -19   8   24.70   41.40   1
  -4 -19   8  137.40   42.50   1
   4  19   9   -0.00   11.50   1
  -4 -19  -9   -0.10   12.80   1
   4 -19  -9    6.10   11.80   1
  -4  19   9   -0.00   12.20   1
   4 -19   9    0.90    9.80   1
  -4 -19   9    0.30   10.80   1
   4  20   0   54.00   42.90   1
  -4 -20   0   44.60   42.40   1
   4 -20   0   38.90   42.50   1
  -4  20   0   34.50   42.50   1
   4  20   1   36.00   47.30   1
  -4 -20  -1   43.40   47.10   1
   4 -20  -1   57.60   47.30   1
  -4  20   1   54.80   47.40   1
  -4  20  -1   45.40   47.00   1
   4 -20   1  102.10   47.60   1
  -4 -20   1   52.90   47.00   1
   4  20  -1   46.20   47.30   1
   4  20   2   22.00   19.20   1
  -4 -20  -2   11.20   18.50   1
   4 -20  -2    0.00   18.10   1
  -4  20   2   -0.00   18.50   1
  -4  20  -2   -0.00   18.00   1
   4 -20   2    0.60   17.60   1
  -4 -20   2    0.30   17.40   1
   4  20  -2   16.00   17.40   1
   4  20   3  158.50   76.70   1
  -4 -20  -3  215.80   77.30   1
   4 -20  -3  136.20   76.70   1
  -4  20   3  128.90   76.40   1
  -4  20  -3   75.60   76.30   1
   4 -20   3  146.40   76.70   1
  -4 -20   3  178.80   76.50   1
   4  20  -3  131.60   76.30   1
   4  20   4   18.20   22.30   1
  -4 -20  -4   25.50   22.70   1
   4 -20  -4   11.20   22.20   1
  -4  20   4   14.50   22.30   1
  -4  20  -4    4.30   22.00   1
   4 -20   4    0.90   22.10   1
  -4 -20   4    0.00   21.50   1
   4  20  -4   11.10   21.50   1
   4  20   5   91.00   67.40   1
  -4 -20  -5  101.40   67.30   1
   4 -20  -5  122.60   67.50   1
  -4  20   5   88.20   67.10   1
  -4  20  -5  137.50   67.60   1
   4 -20   5  166.10   68.00   1
  -4 -20   5   91.70   67.10   1
   4  20  -5  110.00   67.10   1
   4  20   6   -0.00   27.10   1
  -4 -20  -6   -0.00   26.90   1
   4 -20  -6   -0.00   26.60   1
  -4  20   6    2.50   26.20   1
  -4  20  -6   17.00   26.60   1
   4 -20   6   20.90   26.20   1
  -4 -20   6   15.00   26.40   1
   4  20  -6   63.10   26.40   1
   4  20   7   28.30   43.90   1
  -4 -20  -7   44.40   44.20   1
   4 -20  -7   78.00   44.00   1
  -4  20   7   34.70   44.00   1
   4 -20   7   50.10   43.70   1
  -4 -20   7   40.30   43.80   1
   4  20   8   16.40   15.50   1
  -4 -20  -8   -0.20   15.70   1
   4 -20  -8    0.40   13.90   1
  -4  20   8   -0.00   14.50   1
   4 -20   8    6.70   13.50   1
  -4 -20   8   -2.70   14.10   1
   4  21   0   87.10   48.50   1
  -4 -21   0   67.30   48.30   1
   4 -21   0   52.20   48.50   1
  -4  21   0   20.40   48.30   1
   4  21   1   -0.00   27.20   1
  -4 -21  -1    7.90   26.70   1
   4 -21  -1   -0.00   27.00   1
  -4  21   1   15.60   27.20   1
  -4  21  -1   -0.00   26.50   1
   4 -21   1   14.10   26.90   1
  -4 -21   1   38.90   26.60   1
   4  21  -1   50.20   27.10   1
   4  21   2  513.20   88.70   1
  -4 -21  -2  547.20   88.90   1
   4 -21  -2  167.50   85.80   1
  -4  21   2  160.20   85.70   1
  -4  21  -2  114.10   85.50   1
   4 -21   2  102.90   85.60   1
  -4 -21   2  282.30   86.20   1
   4  21  -2  151.40   85.60   1
   4  21   3   19.90   24.90   1
  -4 -21  -3   43.30   25.30   1
   4 -21  -3   -0.20   25.00   1
  -4  21   3    0.30   25.00   1
  -4  21  -3   -0.00   24.50   1
   4 -21   3   -1.10   24.90   1
  -4 -21   3   32.60   24.30   1
   4  21  -3    8.60   24.20   1
   4  21   4   31.10   58.30   1
  -4 -21  -4   34.30   58.30   1
   4 -21  -4  176.20   59.20   1
  -4  21   4  155.10   58.80   1
  -4  21  -4   47.70   58.20   1
   4 -21   4   62.10   58.30   1
  -4 -21   4  107.60   58.20   1
   4  21  -4  132.50   58.40   1
   4  21   5   14.90   21.40   1
  -4 -21  -5    0.30   21.30   1
   4 -21  -5   13.00   21.80   1
  -4  21   5   10.50   21.30   1
  -4  21  -5   27.40   21.10   1
   4 -21   5   -0.10   20.60   1
  -4 -21   5   -0.30   20.40   1
   4  21  -5   10.10   20.40   1
   4  21   6   54.50   35.70   1
  -4 -21  -6   17.30   35.40   1
   4 -21  -6    5.20   35.30   1
  -4  21   6    6.80   34.80   1
   4 -21   6   63.20   35.20   1
  -4 -21   6   38.20   34.80   1
   4  22   0   -0.10   17.20   1
  -4 -22   0   -0.00   16.90   1
   4 -22   0   21.10   17.50   1
  -4  22   0   -0.00   17.10   1
   4  22   1   19.50   37.30   1
  -4 -22  -1   24.70   37.60   1
   4 -22  -1   75.30   37.60   1
  -4  22   1   39.30   37.30   1
  -4  22  -1   14.40   36.90   1
   4 -22   1   -0.00   37.10   1
  -4 -22   1   45.00   37.40   1
   4  22  -1   65.90   38.00   1
   4  22   2    6.10   25.60   1
  -4 -22  -2   20.00   25.90   1
   4 -22  -2    0.00   25.70   1
  -4  22   2   15.80   25.30   1
  -4  22  -2   15.20   25.10   1
   4 -22   2   22.90   25.50   1
  -4 -22   2   -0.00   25.10   1
   4  22  -2   24.70   25.10   1
   4  22   3   46.30   51.50   1
  -4 -22  -3   39.10   51.80   1
   4 -22  -3   68.10   51.60   1
  -4  22   3   83.10   51.90   1
  -4  22  -3   65.90   51.70   1
   4 -22   3   57.40   51.70   1
  -4 -22   3   90.50   51.50   1
   4  22  -3   56.00   51.40   1
   4  22   4   21.10   19.90   1
  -4 -22  -4   16.40   19.70   1
   4 -22  -4   -0.00   20.20   1
  -4  22   4   -0.00   19.70   1
  -4  22  -4   -0.20   20.30   1
   4 -22   4   15.80   19.70   1
  -4 -22   4   -0.00   19.10   1
   4  22  -4    3.90   19.30   1
   4  22   5   52.00   44.00   1
  -4 -22  -5   23.20   43.40   1
   4 -22  -5   81.80   44.00   1
  -4  22   5   88.00   44.00   1
   4 -22   5   23.10   43.20   1
  -4 -22   5   35.80   43.20   1
   4  23   0  194.40   91.30   1
  -4 -23   0  215.60   91.50   1
   4 -23   0  178.10   91.50   1
  -4  23   0  185.00   91.40   1
   4  23   1   43.80   28.30   1
  -4 -23  -1   43.40   27.90   1
   4 -23  -1   13.40   27.20   1
  -4  23   1    9.80   27.50   1
  -4  23  -1   -0.00   27.30   1
   4 -23   1   20.30   27.50   1
  -4 -23   1   12.60   26.90   1
   4  23  -1   -0.00   27.10   1
   4  23   2  259.60  102.00   1
  -4 -23  -2  294.70  102.40   1
   4 -23  -2  303.10  102.60   1
  -4  23   2  309.70  102.40   1
  -4  23  -2  188.90  101.70   1
   4 -23   2  236.20  102.00   1
  -4 -23   2  214.20  101.50   1
   4  23  -2  193.00  101.60   1
   5   0   9 5569.60  811.10   1
   5   0  10   23.10   26.90   1
  -5   0 -10   12.70   26.90   1
   5   0  11 3818.10  509.60   1
  -5   0 -11 2864.80  505.40   1
   5   0  12   69.00   54.10   1
  -5   0 -12   74.50   54.10   1
   5   0  13  376.20  123.50   1
  -5   0 -13  323.70  123.30   1
   5   0  14   20.50   31.40   1
  -5   0 -14   27.70   31.30   1
   5   0  15  113.60   68.90   1
  -5   0 -15  115.60   68.90   1
   5   1   7   13.60   23.70   1
   5   1   8   45.40   49.70   1
  -5  -1  -8  130.80   50.10   1
   5   1   9   25.50   34.00   1
  -5  -1  -9   31.90   34.00   1
   5   1  10 1176.20  250.80   1
  -5  -1 -10 1183.30  251.30   1
   5   1  11   52.70   43.80   1
  -5  -1 -11   59.10   43.80   1
   5  -1  11   31.50   43.70   1
   5   1  12   86.00   54.60   1
  -5  -1 -12   59.30   54.50   1
  -5   1 -12   68.60   54.60   1
   5  -1  12   81.70   54.50   1
   5   1  13   12.70   27.90   1
  -5  -1 -13   16.70   27.90   1
  -5   1 -13   21.10   27.80   1
   5  -1  13   22.80   27.80   1
   5   1  14   34.30   32.50   1
  -5  -1 -14   48.60   32.40   1
  -5   1 -14   16.60   32.20   1
   5  -1  14   25.30   32.20   1
   5   1  15   28.30   19.40   1
  -5  -1 -15   13.60   19.30   1
  -5   1 -15    5.60   19.00   1
   5  -1  15    0.20   19.10   1
   5   2   6   95.90   53.20   1
  -5  -2  -6   48.70   53.10   1
   5   2   7  205.00   90.80   1
  -5  -2  -7  185.20   90.80   1
   5   2   8   40.40   44.30   1
  -5  -2  -8   58.80   44.40   1
   5   2   9  103.40   61.50   1
  -5  -2  -9   83.20   61.40   1
   5   2  10   42.20   38.90   1
  -5  -2 -10   32.80   38.90   1
   5   2  11  778.50  180.00   1
  -5  -2 -11  615.20  179.30   1
   5   2  12   19.70   27.50   1
  -5  -2 -12   17.00   27.50   1
   5   2  13   88.90   59.20   1
  -5  -2 -13   82.00   59.20   1
   5   2  14    3.10   18.00   1
  -5  -2 -14   12.10   17.80   1
   5  -2  14    7.10   17.50   1
   5   2  15   38.10   47.30   1
  -5  -2 -15   60.60   47.40   1
  -5   2 -15   65.50   47.20   1
   5   3   4 1367.30  267.90   1
  -5  -3  -4 1212.50  268.10   1
   5   3   5   57.50   49.50   1
  -5  -3  -5   62.50   49.50   1
   5   3   6 1999.20  330.50   1
  -5  -3  -6 1678.70  328.70   1
   5   3   7   59.20   58.70   1
  -5  -3  -7  141.40   58.90   1
   5   3   8   59.40   56.60   1
  -5  -3  -8  109.80   56.70   1
   5   3   9   40.40   36.90   1
  -5  -3  -9   27.20   36.90   1
   5   3  10  477.00  149.00   1
  -5  -3 -10  500.90  149.00   1
   5   3  11   39.40   41.50   1
  -5  -3 -11   45.40   41.60   1
   5   3  12   75.00   53.10   1
  -5  -3 -12   62.70   53.10   1
   5   3  13   15.20   25.70   1
  -5  -3 -13   15.90   25.40   1
   5   3  14   13.50   24.50   1
  -5  -3 -14   14.80   24.40   1
   5   3  15    5.40   24.00   1
  -5  -3 -15   27.40   24.20   1
   5  -3 -15   12.10   24.60   1
   5  -4   0   -0.20    1.90   1
  -5   4   0   -7.20    2.20   1
   5  -4  -1  717.50  188.90   1
  -5   4   1  664.60  188.60   1
  -5   4  -1  802.10  191.50   1
   5  -4   1  705.20  188.90   1
   5   4   2   44.80   26.80   1
  -5  -4  -2   34.70   26.60   1
   5  -4  -2    1.40   26.60   1
  -5   4   2   -0.00   26.60   1
  -5   4  -2   13.40   26.60   1
   5  -4   2   17.10   26.60   1
   5   4   3   74.20   45.40   1
  -5  -4  -3   44.30   45.30   1
   5  -4  -3   25.60   45.60   1
  -5   4   3   23.00   45.70   1
  -5   4  -3  105.50   46.20   1
   5  -4   3   70.30   45.70   1
   5   4   4   22.60   28.20   1
  -5  -4  -4   27.90   28.10   1
   5  -4  -4   16.10   28.50   1
  -5   4   4    1.50   28.40   1
   5  -4   4   20.30   28.20   1
   5   4   5  276.00  105.50   1
  -5  -4  -5  352.90  105.70   1
   5  -4  -5  143.60  105.80   1
  -5   4   5  266.10  106.80   1
   5  -4   5  284.40  107.00   1
   5   4   6   27.90   24.60   1
  -5  -4  -6    8.40   24.50   1
   5  -4  -6   10.50   25.00   1
  -5   4   6    4.50   25.20   1
   5  -4   6   15.70   24.80   1
   5   4   7   61.20   45.90   1
  -5  -4  -7   34.70   45.80   1
   5  -4  -7   35.20   46.30   1
  -5   4   7   76.40   46.80   1
   5  -4   7  114.10   46.60   1
   5   4   8   12.20   16.70   1
  -5  -4  -8    5.40   16.60   1
   5  -4  -8    5.70   17.50   1
  -5   4   8    0.10   17.70   1
   5  -4   8    4.80   16.60   1
   5   4   9  134.20   52.00   1
  -5  -4  -9   51.60   51.80   1
   5  -4  -9   19.90   52.10   1
  -5   4   9   90.80   53.00   1
   5   4  10  110.30   52.40   1
  -5  -4 -10   62.30   52.30   1
   5  -4 -10   34.90   52.90   1
  -5   4  10   31.70   52.90   1
   5   4  11  131.80   73.10   1
  -5  -4 -11  202.40   73.30   1
   5  -4 -11   49.90   73.40   1
  -5   4  11  148.00   74.90   1
   5   4  12   18.50   18.10   1
  -5  -4 -12    1.10   17.80   1
   5  -4 -12   -0.00   18.80   1
  -5   4  12   13.10   18.90   1
   5   4  13   83.30   54.20   1
  -5  -4 -13   90.70   54.10   1
   5  -4 -13   33.60   54.40   1
  -5   4  13   53.10   54.80   1
   5   4  14    9.00   23.00   1
  -5  -4 -14   12.10   22.90   1
   5  -4 -14   54.90   24.70   1
  -5   4  14    2.20   23.40   1
   5   4  15    3.90   21.00   1
  -5  -4 -15   15.80   21.30   1
   5  -4 -15   29.10   22.60   1
  -5   4  15    6.30   21.80   1
   5   5   0  357.70   61.30   1
  -5  -5   0  339.40   61.40   1
   5  -5   0   33.80   59.50   1
  -5   5   0   36.80   59.80   1
   5   5   1   59.70   64.80   1
  -5  -5  -1  124.30   64.90   1
   5  -5  -1  124.40   65.70   1
  -5   5   1  122.70   65.80   1
  -5   5  -1  151.60   65.80   1
   5  -5   1  142.50   65.80   1
   5   5   2 3336.80  547.80   1
  -5  -5  -2 3159.80  547.90   1
   5  -5  -2 4102.00  557.50   1
  -5   5   2 4413.00  561.90   1
  -5   5  -2 4192.20  557.50   1
   5  -5   2 4191.30  555.90   1
   5   5   3   64.70   59.00   1
  -5  -5  -3  112.60   59.10   1
   5  -5  -3   93.40   60.10   1
  -5   5   3   73.00   60.00   1
  -5   5  -3   91.80   59.70   1
   5  -5   3   84.40   59.60   1
   5   5   4  544.60  158.40   1
  -5  -5  -4  580.30  158.60   1
   5  -5  -4  765.10  160.90   1
  -5   5   4  808.50  161.40   1
  -5   5  -4  652.30  159.70   1
   5  -5   4  381.20  158.50   1
   5   5   5  107.60   53.50   1
  -5  -5  -5   67.20   53.40   1
   5  -5  -5   89.80   54.90   1
  -5   5   5   55.90   54.70   1
  -5   5  -5   43.90   53.80   1
   5  -5   5   43.00   53.70   1
   5   5   6   63.50   55.10   1
  -5  -5  -6   66.40   55.10   1
   5  -5  -6  213.10   57.00   1
  -5   5   6  138.00   56.80   1
  -5   5  -6  110.60   55.60   1
   5  -5   6   44.10   55.30   1
   5   5   7  286.00   73.00   1
  -5  -5  -7  120.40   72.60   1
   5  -5  -7  144.10   74.10   1
  -5   5   7  107.90   73.70   1
  -5   5  -7   69.60   72.90   1
   5  -5   7  115.20   72.80   1
   5   5   8  208.40   72.60   1
  -5  -5  -8  145.50   72.40   1
   5  -5  -8  624.40   79.10   1
  -5   5   8  105.00   73.40   1
  -5   5  -8  228.40   73.10   1
   5  -5   8   50.20   72.40   1
   5   5   9    6.00   42.30   1
  -5  -5  -9   44.90   42.50   1
   5  -5  -9  104.50   44.90   1
  -5   5   9  177.90   45.40   1
  -5   5  -9   66.60   42.80   1
   5  -5   9  171.80   43.10   1
   5   5  10 6227.00  752.70   1
  -5  -5 -10 6115.90  750.10   1
   5  -5 -10 4636.80  768.70   1
  -5   5  10 7368.00  847.70   1
  -5   5 -10 3654.40  748.80   1
   5  -5  10 7547.50  785.00   1
   5   5  11    6.90   42.80   1
  -5  -5 -11   51.70   43.00   1
   5  -5 -11  145.50   46.80   1
  -5   5  11  113.50   45.40   1
  -5   5 -11   31.40   43.00   1
   5  -5  11  139.40   43.20   1
   5   5  12  214.00  103.10   1
  -5  -5 -12  264.60  103.10   1
   5  -5 -12  209.40  104.60   1
  -5   5  12  370.60  107.10   1
  -5   5 -12  484.70  106.30   1
   5  -5  12  238.60  103.10   1
   5   5  13   60.20   35.90   1
  -5  -5 -13   21.50   35.60   1
   5  -5 -13   70.40   37.70   1
  -5   5  13   27.10   36.50   1
  -5   5 -13   20.70   35.40   1
   5  -5  13   30.10   35.40   1
   5   5  14   50.00   51.90   1
  -5  -5 -14   91.00   52.10   1
   5  -5 -14   83.30   53.70   1
  -5   5  14   35.10   52.40   1
  -5   5 -14   81.90   52.00   1
   5   5  15   11.20   18.00   1
  -5  -5 -15   -0.40   18.20   1
   5  -5 -15   35.70   21.50   1
  -5   5  15    2.50   19.30   1
   5   6   0   89.10   55.60   1
  -5  -6   0   84.20   55.70   1
   5  -6   0   78.70   56.10   1
  -5   6   0   40.20   55.90   1
   5   6   1  923.10  213.00   1
  -5  -6  -1  975.50  213.20   1
   5  -6  -1  966.60  213.80   1
  -5   6   1 1118.30  214.80   1
  -5   6  -1 1134.10  214.30   1
   5  -6   1 1061.90  213.80   1
  -5  -6   1  757.00  213.40   1
   5   6  -1  646.70  212.70   1
   5   6   2   21.80   34.60   1
  -5  -6  -2   17.30   34.60   1
   5  -6  -2   26.20   35.40   1
  -5   6   2   33.50   35.70   1
  -5   6  -2   22.70   35.10   1
   5  -6   2   66.80   35.20   1
  -5  -6   2   37.50   34.80   1
   5   6  -2   30.70   34.80   1
   5   6   3  242.10   99.60   1
  -5  -6  -3  237.60   99.60   1
   5  -6  -3  198.20  100.10   1
  -5   6   3  253.90  100.30   1
  -5   6  -3  194.00   99.80   1
   5  -6   3  296.70  100.00   1
   5   6   4   24.90   33.60   1
  -5  -6  -4   -0.00   33.50   1
   5  -6  -4   84.70   34.90   1
  -5   6   4   72.20   34.70   1
  -5   6  -4   59.60   34.10   1
   5  -6   4   36.90   34.10   1
   5   6   5   78.60   54.40   1
  -5  -6  -5   55.90   54.30   1
   5  -6  -5   82.00   55.10   1
  -5   6   5   45.80   54.90   1
  -5   6  -5  129.00   54.60   1
   5  -6   5   63.30   54.40   1
   5   6   6   37.90   34.00   1
  -5  -6  -6   52.10   34.10   1
   5  -6  -6   25.50   34.80   1
  -5   6   6    6.50   34.90   1
  -5   6  -6   19.80   34.10   1
   5  -6   6   11.80   34.10   1
   5   6   7  232.20   80.90   1
  -5  -6  -7  197.10   80.80   1
   5  -6  -7  125.20   81.20   1
  -5   6   7  113.20   81.10   1
  -5   6  -7  145.60   80.70   1
   5  -6   7  119.90   80.80   1
   5   6   8   27.20   26.40   1
  -5  -6  -8   20.90   26.50   1
   5  -6  -8   39.80   27.50   1
  -5   6   8   -0.00   27.30   1
  -5   6  -8    0.00   26.30   1
   5  -6   8   23.00   26.90   1
   5   6   9   67.60   52.00   1
  -5  -6  -9  101.10   52.10   1
   5  -6  -9   44.30   52.70   1
  -5   6   9   -0.00   52.40   1
  -5   6  -9   76.40   52.00   1
   5  -6   9   79.30   52.30   1
   5   6  10  137.90   59.00   1
  -5  -6 -10  106.00   59.00   1
   5  -6 -10   47.30   59.50   1
  -5   6  10   33.00   59.50   1
  -5   6 -10   83.50   59.00   1
   5  -6  10   72.20   58.90   1
   5   6  11  545.20  126.80   1
  -5  -6 -11  442.10  126.40   1
   5  -6 -11  241.50  126.50   1
  -5   6  11  241.90  126.60   1
  -5   6 -11  378.70  126.30   1
   5  -6  11  365.20  126.00   1
   5   6  12   -0.80   21.40   1
  -5  -6 -12   18.40   21.40   1
   5  -6 -12    0.00   22.40   1
  -5   6  12   -0.00   22.80   1
  -5   6 -12    7.70   21.50   1
   5  -6  12   16.20   20.70   1
   5   6  13  133.20   70.50   1
  -5  -6 -13  124.10   70.50   1
   5  -6 -13   82.10   70.90   1
  -5   6  13   88.30   71.00   1
  -5   6 -13  133.30   70.40   1
   5  -6  13  122.90   70.10   1
   5   6  14   28.50   23.00   1
  -5  -6 -14    7.30   22.80   1
   5  -6 -14    9.10   23.70   1
  -5   6  14    7.30   24.20   1
  -5   6 -14    9.20   22.40   1
   5   6  15    7.80   24.60   1
  -5  -6 -15   10.50   24.80   1
   5  -6 -15   12.40   25.80   1
  -5   6  15   -1.60   26.30   1
  -5   6 -15   21.70   24.20   1
   5   7   0   41.10   45.40   1
  -5  -7   0   46.20   45.50   1
   5  -7   0   70.20   46.10   1
  -5   7   0   64.70   46.00   1
   5   7   1   20.40   42.90   1
  -5  -7  -1   32.10   42.90   1
   5  -7  -1   44.70   43.50   1
  -5   7   1   28.40   43.30   1
  -5   7  -1   43.60   43.30   1
   5  -7   1   45.50   43.50   1
  -5  -7   1   90.40   43.20   1
   5   7  -1   92.10   43.20   1
   5   7   2  281.30   96.00   1
  -5  -7  -2  304.80   96.00   1
   5  -7  -2  175.10   96.10   1
  -5   7   2  197.50   96.10   1
  -5   7  -2  286.50   96.30   1
   5  -7   2  121.10   96.00   1
  -5  -7   2  220.70   96.00   1
   5   7  -2  216.70   96.00   1
   5   7   3  171.90   81.00   1
  -5  -7  -3  164.90   81.00   1
   5  -7  -3  116.50   81.30   1
  -5   7   3  125.90   81.20   1
  -5   7  -3  305.40   81.80   1
   5  -7   3  215.50   81.70   1
  -5  -7   3  128.80   81.10   1
   5   7  -3  131.10   81.10   1
   5   7   4   96.90   64.30   1
  -5  -7  -4  110.50   64.20   1
   5  -7  -4   85.50   64.60   1
  -5   7   4   93.20   64.60   1
  -5   7  -4   78.60   64.80   1
   5  -7   4  173.10   65.20   1
  -5  -7   4   79.80   64.50   1
   5   7  -4  112.10   64.60   1
   5   7   5   71.90   53.30   1
  -5  -7  -5   24.60   53.30   1
   5  -7  -5  105.70   53.90   1
  -5   7   5  162.50   54.10   1
  -5   7  -5   91.40   53.90   1
   5  -7   5   79.50   54.10   1
   5   7   6  258.20   79.60   1
  -5  -7  -6  161.70   79.40   1
   5  -7  -6  121.50   79.70   1
  -5   7   6  126.50   79.80   1
  -5   7  -6  185.60   79.90   1
   5  -7   6   93.50   79.50   1
   5   7   7   34.90   37.80   1
  -5  -7  -7   26.80   37.80   1
   5  -7  -7   38.50   38.70   1
  -5   7   7   38.00   38.70   1
  -5   7  -7   44.20   38.50   1
   5  -7   7   34.70   38.10   1
   5   7   8  356.70  125.70   1
  -5  -7  -8  280.40  125.60   1
   5  -7  -8  306.20  126.10   1
  -5   7   8  604.00  127.90   1
  -5   7  -8  450.60  126.30   1
   5  -7   8  453.60  126.10   1
   5   7   9   50.30   38.30   1
  -5  -7  -9   60.30   38.30   1
   5  -7  -9   20.60   38.90   1
  -5   7   9  212.80   40.80   1
  -5   7  -9   28.50   38.30   1
   5  -7   9   10.30   37.90   1
   5   7  10   76.00   68.30   1
  -5  -7 -10   84.50   68.30   1
   5  -7 -10  232.00   69.60   1
  -5   7  10  137.20   69.30   1
  -5   7 -10  159.90   68.40   1
   5  -7  10  113.80   68.10   1
   5   7  11  125.10   54.20   1
  -5  -7 -11  190.20   54.40   1
   5  -7 -11   58.30   54.30   1
  -5   7  11  130.70   55.20   1
  -5   7 -11   33.50   53.60   1
   5  -7  11   60.80   53.60   1
   5   7  12   92.30   60.70   1
  -5  -7 -12   46.40   60.50   1
   5  -7 -12   76.80   61.10   1
  -5   7  12   79.80   61.40   1
  -5   7 -12  144.30   60.50   1
   5  -7  12   96.10   60.30   1
   5   7  13   15.70   28.10   1
  -5  -7 -13   24.90   28.20   1
   5  -7 -13   48.00   29.00   1
  -5   7  13   10.90   28.80   1
  -5   7 -13   22.20   27.60   1
   5  -7  13   11.10   27.50   1
   5   7  14   33.10   47.10   1
  -5  -7 -14   31.70   47.20   1
   5  -7 -14   54.50   47.80   1
  -5   7  14   39.70   47.60   1
  -5   7 -14   62.60   46.80   1
   5  -7  14   98.40   47.00   1
   5   7  15    4.60   20.40   1
  -5  -7 -15    0.00   20.80   1
   5  -7 -15   16.70   21.70   1
  -5   7  15   16.00   21.70   1
  -5   7 -15   13.40   19.90   1
   5  -7  15    8.30   20.00   1
   5   8   0   26.10   29.80   1
  -5  -8   0   23.00   29.80   1
   5  -8   0    9.00   31.40   1
  -5   8   0    7.30   31.60   1
   5   8   1  655.80  131.70   1
  -5  -8  -1  616.00  131.60   1
   5  -8  -1  415.10  131.80   1
  -5   8   1  417.20  131.70   1
  -5   8  -1  459.30  131.80   1
   5  -8   1  399.80  131.50   1
  -5  -8   1  300.40  130.80   1
   5   8  -1  283.50  130.80   1
   5   8   2  156.10   74.80   1
  -5  -8  -2  183.60   74.90   1
   5  -8  -2  130.90   75.70   1
  -5   8   2  105.70   75.60   1
  -5   8  -2  130.10   75.50   1
   5  -8   2  149.70   75.40   1
  -5  -8   2  107.50   74.80   1
   5   8  -2  112.90   74.80   1
   5   8   3  606.70  178.00   1
  -5  -8  -3  552.20  177.90   1
   5  -8  -3  532.70  178.40   1
  -5   8   3  707.00  178.80   1
  -5   8  -3  737.40  178.90   1
   5  -8   3  979.70  179.50   1
  -5  -8   3  902.60  179.90   1
   5   8  -3  981.40  179.90   1
   5   8   4   97.30   62.20   1
  -5  -8  -4   81.10   62.20   1
   5  -8  -4   91.00   63.10   1
  -5   8   4   87.50   62.90   1
  -5   8  -4  169.80   62.80   1
   5  -8   4  175.60   62.70   1
  -5  -8   4   73.20   62.20   1
   5   8  -4   65.90   62.20   1
   5   8   5 1963.60  355.80   1
  -5  -8  -5 1969.70  355.50   1
   5  -8  -5 1612.80  355.70   1
  -5   8   5 2036.80  358.10   1
  -5   8  -5 2999.90  361.80   1
   5  -8   5 2265.00  358.00   1
  -5  -8   5 2046.10  366.20   1
   5   8  -5 2266.80  364.60   1
   5   8   6   21.80   32.60   1
  -5  -8  -6    6.70   32.60   1
   5  -8  -6   -0.10   33.60   1
  -5   8   6   12.60   33.50   1
  -5   8  -6   46.30   32.90   1
   5  -8   6   22.60   32.70   1
  -5  -8   6   43.50   32.90   1
   5   8  -6   70.30   33.10   1
   5   8   7  476.10  118.10   1
  -5  -8  -7  409.70  118.00   1
   5  -8  -7  237.00  118.10   1
  -5   8   7  260.50  118.00   1
  -5   8  -7  273.40  117.60   1
   5  -8   7  325.00  117.70   1
   5   8   8   60.90   72.60   1
  -5  -8  -8  198.50   72.80   1
   5  -8  -8  419.30   74.80   1
  -5   8   8  204.50   73.40   1
  -5   8  -8   99.40   72.50   1
   5  -8   8  147.40   72.60   1
   5   8   9  883.90  189.20   1
  -5  -8  -9  870.90  189.30   1
   5  -8  -9  558.80  188.90   1
  -5   8   9  665.80  189.40   1
  -5   8  -9  737.70  188.70   1
   5  -8   9  770.50  189.00   1
   5  -8 -10   49.20   56.60   1
  -5   8  10   63.10   56.80   1
  -5   8 -10   70.60   55.90   1
   5  -8  10  101.50   56.00   1
   5   8  11   26.90   40.10   1
  -5  -8 -11   35.50   40.20   1
   5  -8 -11    9.20   40.50   1
  -5   8  11    3.90   40.40   1
  -5   8 -11   36.30   39.80   1
   5  -8  11  204.50   40.50   1
   5   8  12   15.20   33.30   1
  -5  -8 -12   22.00   33.40   1
   5  -8 -12    4.60   33.80   1
  -5   8  12   42.40   34.10   1
  -5   8 -12   29.00   32.90   1
   5  -8  12   37.20   33.00   1
   5   8  13   97.10   67.80   1
  -5  -8 -13  109.70   67.80   1
   5  -8 -13   87.20   68.20   1
  -5   8  13  128.80   68.40   1
  -5   8 -13  149.70   67.50   1
   5  -8  13   96.10   67.40   1
   5   8  14    8.70   13.50   1
  -5  -8 -14    3.30   13.70   1
   5  -8 -14   17.20   14.70   1
  -5   8  14   19.80   15.80   1
  -5   8 -14   -0.70   12.50   1
   5  -8  14   -0.30   12.60   1
   5   9   0   72.50   64.30   1
  -5  -9   0   62.60   64.30   1
   5  -9   0  453.20   66.10   1
  -5   9   0  226.70   65.40   1
   5   9   1   24.30   36.20   1
  -5  -9  -1   40.50   36.20   1
   5  -9  -1  130.80   37.50   1
  -5   9   1  137.40   38.10   1
  -5   9  -1   51.40   37.20   1
   5  -9   1   56.70   36.90   1
  -5  -9   1    8.80   36.10   1
   5   9  -1    7.90   36.00   1
   5   9   2   54.20   56.90   1
  -5  -9  -2   30.50   56.80   1
   5  -9  -2   71.80   57.60   1
  -5   9   2  118.30   58.10   1
  -5   9  -2   90.70   57.30   1
   5  -9   2  412.10   58.50   1
  -5  -9   2   92.70   56.90   1
   5   9  -2   90.60   56.90   1
   5   9   3   23.90   31.00   1
  -5  -9  -3   27.20   31.10   1
   5  -9  -3   31.70   32.60   1
  -5   9   3   42.50   33.30   1
  -5   9  -3   19.70   31.40   1
   5  -9   3   35.70   31.30   1
  -5  -9   3   15.70   31.00   1
   5   9  -3   14.60   31.00   1
   5   9   4  527.20  147.20   1
  -5  -9  -4  498.10  147.10   1
   5  -9  -4  715.40  148.90   1
  -5   9   4  900.90  150.10   1
  -5   9  -4  387.00  146.90   1
   5  -9   4  548.80  147.30   1
  -5  -9   4  385.20  147.00   1
   5   9  -4  419.60  147.00   1
   5   9   5   16.30   35.50   1
  -5  -9  -5   19.20   35.70   1
   5  -9  -5   17.80   37.70   1
  -5   9   5    7.50   37.30   1
  -5   9  -5   52.30   35.70   1
   5  -9   5   12.40   35.50   1
  -5  -9   5   54.10   35.90   1
   5   9  -5   75.90   35.90   1
   5   9   6   43.80   45.40   1
  -5  -9  -6   42.80   45.40   1
   5  -9  -6   26.90   46.80   1
  -5   9   6   70.90   46.80   1
  -5   9  -6  123.40   45.60   1
   5  -9   6  188.10   45.70   1
  -5  -9   6   33.40   45.40   1
   5   9  -6   -1.70   45.20   1
   5   9   7   47.50   47.20   1
  -5  -9  -7   70.60   47.30   1
   5  -9  -7   36.40   48.50   1
  -5   9   7   58.00   48.30   1
  -5   9  -7   61.50   47.20   1
   5  -9   7   30.10   47.00   1
  -5  -9   7   91.50   47.90   1
   5   9  -7   71.70   47.50   1
   5   9   8   21.90   40.20   1
  -5  -9  -8   37.10   40.30   1
   5  -9  -8   43.20   42.00   1
  -5   9   8   51.50   41.30   1
  -5   9  -8   29.20   40.10   1
   5  -9   8  102.80   40.30   1
  -5  -9   8   24.00   40.10   1
   5   9  -8   35.00   40.30   1
   5   9   9    0.60   28.30   1
  -5  -9  -9   10.50   28.30   1
   5  -9  -9   31.90   29.80   1
  -5   9   9    2.00   29.30   1
  -5   9  -9   23.60   27.90   1
   5  -9   9   31.50   27.90   1
   5   9  10  224.70   93.80   1
  -5  -9 -10  187.40   93.50   1
   5  -9 -10   98.40   94.00   1
  -5   9  10  203.50   94.20   1
  -5   9 -10  221.30   93.40   1
   5  -9  10  417.70   94.20   1
   5   9  11    7.60   27.00   1
  -5  -9 -11   -0.40   27.10   1
   5  -9 -11   45.40   28.70   1
  -5   9  11   22.90   28.00   1
  -5   9 -11   59.70   26.70   1
   5  -9  11    0.20   26.40   1
   5   9  12   35.10   37.60   1
  -5  -9 -12   94.90   38.10   1
   5  -9 -12   15.00   38.40   1
  -5   9  12   28.10   38.10   1
  -5   9 -12   25.70   37.20   1
   5  -9  12   30.70   37.20   1
   5   9  13   17.60   19.50   1
  -5  -9 -13    0.00   19.40   1
   5  -9 -13   49.50   22.10   1
  -5   9  13   -0.00   20.30   1
  -5   9 -13   -0.00   18.60   1
   5  -9  13   14.50   18.80   1
   5   9  14   33.00   48.50   1
  -5  -9 -14   88.80   49.00   1
   5  -9 -14   68.50   49.70   1
  -5   9  14   35.40   49.10   1
  -5   9 -14   63.50   48.40   1
   5  -9  14   68.10   48.50   1
   5  10   0   30.10   37.20   1
  -5 -10   0   33.50   37.20   1
   5 -10   0   58.40   37.80   1
  -5  10   0   17.90   37.60   1
   5  10   1 2217.90  362.30   1
  -5 -10  -1 2281.50  362.40   1
   5 -10  -1 2374.30  363.60   1
  -5  10   1 2425.20  363.90   1
  -5  10  -1 1761.00  360.70   1
   5 -10   1 1797.30  360.50   1
  -5 -10   1 2121.70  362.10   1
   5  10  -1 2113.90  361.60   1
   5  10   2   56.50   48.80   1
  -5 -10  -2   62.20   48.80   1
   5 -10  -2  104.40   49.30   1
  -5  10   2  129.70   49.80   1
  -5  10  -2  124.10   49.10   1
   5 -10   2  103.00   49.00   1
  -5 -10   2   10.90   48.60   1
   5  10  -2   24.90   48.70   1
   5  10   3  581.90  168.30   1
  -5 -10  -3  671.50  168.40   1
   5 -10  -3  521.20  168.50   1
  -5  10   3  598.80  168.80   1
  -5  10  -3  641.80  168.40   1
   5 -10   3  592.60  168.30   1
  -5 -10   3  693.70  168.60   1
   5  10  -3  588.80  168.30   1
   5  10   4   55.90   48.90   1
  -5 -10  -4   67.80   49.00   1
   5 -10  -4  102.40   50.00   1
  -5  10   4  104.10   50.30   1
  -5  10  -4   45.10   48.90   1
   5 -10   4   41.80   48.90   1
  -5 -10   4   65.60   48.90   1
   5  10  -4   48.90   48.90   1
   5  10   5   28.60   36.20   1
  -5 -10  -5   24.80   36.30   1
   5 -10  -5   40.40   37.50   1
  -5  10   5   33.90   37.50   1
  -5  10  -5   26.10   36.30   1
   5 -10   5   79.10   36.40   1
  -5 -10   5   16.20   36.20   1
   5  10  -5   26.80   36.20   1
   5  10   6   45.00   59.50   1
  -5 -10  -6   52.40   59.40   1
   5 -10  -6  167.90   61.00   1
  -5  10   6  125.10   61.00   1
  -5  10  -6  292.10   60.20   1
   5 -10   6   88.70   59.50   1
  -5 -10   6   54.70   59.60   1
   5  10  -6  131.60   59.70   1
   5  10   7  151.60   74.10   1
  -5 -10  -7  162.40   74.10   1
   5 -10  -7   78.70   74.90   1
  -5  10   7  118.60   75.30   1
  -5  10  -7  135.30   74.00   1
   5 -10   7  122.60   73.90   1
  -5 -10   7  118.50   74.10   1
   5  10  -7  130.20   74.10   1
   5  10   8   26.20   39.40   1
  -5 -10  -8   38.80   39.30   1
   5 -10  -8   98.30   41.90   1
  -5  10   8   78.80   41.90   1
  -5  10  -8   23.30   39.20   1
   5 -10   8   77.90   39.40   1
  -5 -10   8   23.80   39.30   1
   5  10  -8   21.00   39.20   1
   5  10   9 2498.30  395.30   1
  -5 -10  -9 2530.50  395.40   1
   5 -10  -9 2888.70  403.00   1
  -5  10   9 3295.50  407.90   1
  -5  10  -9 2389.20  394.80   1
   5 -10   9 1882.80  392.40   1
  -5 -10   9 1949.70  415.10   1
   5  10  -9 1871.80  403.50   1
   5  10  10   16.00   30.20   1
  -5 -10 -10   10.40   30.20   1
   5 -10 -10   65.30   33.20   1
  -5  10  10   47.30   32.30   1
  -5  10 -10   32.00   29.90   1
   5 -10  10    9.00   29.70   1
   5  10 -10   28.20   30.00   1
   5  10  11  261.90  101.10   1
  -5 -10 -11  288.50  101.10   1
   5 -10 -11  180.80  101.90   1
  -5  10  11  187.60  101.40   1
  -5  10 -11  281.50  100.80   1
   5 -10  11  250.80  100.70   1
   5  10 -11  139.40  101.40   1
   5  10  12   17.70   27.70   1
  -5 -10 -12   71.50   28.50   1
   5 -10 -12   23.80   29.70   1
  -5  10  12    9.90   28.60   1
  -5  10 -12    4.50   26.90   1
   5 -10  12   23.30   27.20   1
   5  10  13   28.30   36.30   1
  -5 -10 -13   13.80   36.10   1
   5 -10 -13   50.10   38.10   1
  -5  10  13   30.90   37.20   1
  -5  10 -13   27.00   35.70   1
   5 -10  13   50.60   35.90   1
   5  10  14   10.00   23.20   1
  -5 -10 -14   15.90   23.70   1
   5 -10 -14    7.90   26.10   1
  -5  10  14   15.30   24.50   1
  -5  10 -14   32.30   23.00   1
   5 -10  14    0.90   22.70   1
   5  11   0   99.80   59.50   1
  -5 -11   0  112.90   59.60   1
   5 -11   0   56.50   59.50   1
  -5  11   0   79.80   59.60   1
   5  11   1   34.00   37.30   1
  -5 -11  -1   32.90   37.30   1
   5 -11  -1   49.80   37.70   1
  -5  11   1   51.50   37.60   1
  -5  11  -1   48.60   37.60   1
   5 -11   1   25.80   37.40   1
  -5 -11   1   17.30   37.20   1
   5  11  -1   28.10   37.20   1
   5  11   2  286.00   89.50   1
  -5 -11  -2  221.50   89.30   1
   5 -11  -2  587.00   90.80   1
  -5  11   2  499.80   90.50   1
  -5  11  -2  139.00   89.20   1
   5 -11   2  106.60   89.10   1
  -5 -11   2  198.40   89.20   1
   5  11  -2  150.90   89.10   1
   5  11   3   14.50   37.20   1
  -5 -11  -3   25.20   37.30   1
   5 -11  -3   28.70   37.50   1
  -5  11   3   40.30   37.70   1
  -5  11  -3   53.00   37.30   1
   5 -11   3   68.20   37.20   1
  -5 -11   3   29.20   37.00   1
   5  11  -3   22.10   36.90   1
   5  11   4  103.60   82.10   1
  -5 -11  -4  170.30   82.30   1
   5 -11  -4  156.70   82.40   1
  -5  11   4  288.10   82.90   1
  -5  11  -4  196.10   82.30   1
   5 -11   4  253.50   82.50   1
  -5 -11   4  146.50   82.20   1
   5  11  -4  132.00   82.20   1
   5  11   5   31.50   38.70   1
  -5 -11  -5   56.70   38.80   1
   5 -11  -5   32.20   39.10   1
  -5  11   5   67.90   39.60   1
  -5  11  -5   29.80   38.60   1
   5 -11   5   42.70   38.70   1
  -5 -11   5   31.80   38.60   1
   5  11  -5   22.90   38.50   1
   5  11   6   51.70   48.10   1
  -5 -11  -6   92.40   48.20   1
   5 -11  -6   88.60   48.80   1
  -5  11   6   91.20   49.10   1
  -5  11  -6   52.60   48.00   1
   5 -11   6   58.60   48.10   1
  -5 -11   6   40.20   48.00   1
   5  11  -6   30.80   47.90   1
   5  11   7   12.80   28.00   1
  -5 -11  -7    3.00   28.00   1
   5 -11  -7   18.20   28.80   1
  -5  11   7   75.80   30.10   1
  -5  11  -7   22.70   27.80   1
   5 -11   7   20.20   27.90   1
  -5 -11   7   10.40   27.80   1
   5  11  -7   23.60   27.90   1
   5  11   8  313.80  103.30   1
  -5 -11  -8  414.30  103.60   1
   5 -11  -8  120.80  103.10   1
  -5  11   8  217.60  103.60   1
  -5  11  -8  276.20  102.90   1
   5 -11   8  193.40  102.70   1
  -5 -11   8  526.60  105.60   1
   5  11  -8  402.90  104.00   1
   5  11   9   77.80   26.30   1
  -5 -11  -9    7.70   25.60   1
   5 -11  -9    6.50   26.40   1
  -5  11   9   -0.30   27.40   1
  -5  11  -9    4.50   24.70   1
   5 -11   9   22.80   24.80   1
  -5 -11   9   11.50   25.00   1
   5  11  -9    8.30   24.80   1
   5  11  10   81.10   44.20   1
  -5 -11 -10   55.60   44.00   1
   5 -11 -10   38.70   44.90   1
  -5  11  10   34.60   45.50   1
  -5  11 -10   12.30   43.40   1
   5 -11  10   61.40   43.70   1
  -5 -11  10  113.90   44.70   1
   5  11 -10   77.40   44.00   1
   5  11  11   21.90   24.50   1
  -5 -11 -11   25.80   24.60   1
   5 -11 -11    1.60   26.20   1
  -5  11  11   23.30   27.00   1
  -5  11 -11   14.90   23.70   1
   5 -11  11    4.80   23.80   1
  -5 -11  11   28.80   24.40   1
   5  11 -11   -0.00   24.00   1
   5  11  12  103.30   60.80   1
  -5 -11 -12  100.60   60.80   1
   5 -11 -12   83.70   61.70   1
  -5  11  12   92.20   62.10   1
  -5  11 -12   69.20   60.40   1
   5 -11  12  126.20   60.70   1
   5  11 -12   60.60   60.60   1
   5  11  13    7.30   21.10   1
  -5 -11 -13    6.00   21.20   1
   5 -11 -13   60.70   24.50   1
  -5  11  13    8.40   23.70   1
  -5  11 -13   31.70   20.70   1
   5 -11  13   -1.40   20.50   1
   5  11 -13   -0.30   20.40   1
   5  12   0   20.70   22.60   1
  -5 -12   0   20.00   22.80   1
   5 -12   0    6.40   22.80   1
  -5  12   0   -0.40   22.70   1
   5  12   1  206.60   86.90   1
  -5 -12  -1  192.30   86.80   1
   5 -12  -1  202.30   86.90   1
  -5  12   1  189.10   86.80   1
  -5  12  -1  138.30   86.70   1
   5 -12   1  169.30   86.80   1
  -5 -12   1  198.20   86.80   1
   5  12  -1  153.50   86.70   1
   5  12   2   95.90   59.90   1
  -5 -12  -2  106.60   59.90   1
   5 -12  -2   78.90   59.90   1
  -5  12   2   77.30   59.90   1
  -5  12  -2  110.20   59.90   1
   5 -12   2   87.10   59.90   1
  -5 -12   2   72.00   59.80   1
   5  12  -2   72.10   59.80   1
   5  12   3  821.80  219.00   1
  -5 -12  -3 1129.60  220.20   1
   5 -12  -3  903.60  219.30   1
  -5  12   3  937.20  219.50   1
  -5  12  -3 1044.70  220.00   1
   5 -12   3  871.00  219.10   1
  -5 -12   3 1008.00  219.70   1
   5  12  -3 1086.50  219.80   1
   5  12   4  137.40   75.80   1
  -5 -12  -4  173.00   75.90   1
   5 -12  -4  132.70   76.10   1
  -5  12   4  116.10   76.00   1
  -5  12  -4  160.30   75.90   1
   5 -12   4  135.20   75.80   1
  -5 -12   4  155.90   75.80   1
   5  12  -4  107.40   75.60   1
   5  12   5   90.90   61.60   1
  -5 -12  -5   92.30   61.60   1
   5 -12  -5  199.00   62.20   1
  -5  12   5  246.40   62.50   1
  -5  12  -5   86.70   61.50   1
   5 -12   5   98.40   61.70   1
  -5 -12   5   69.40   61.50   1
   5  12  -5   43.90   61.40   1
   5  12   6   35.60   46.50   1
  -5 -12  -6   90.20   46.70   1
   5 -12  -6   32.10   46.80   1
  -5  12   6   55.70   47.10   1
  -5  12  -6   54.90   46.50   1
   5 -12   6   90.60   46.60   1
  -5 -12   6   49.80   46.50   1
   5  12  -6   31.90   46.30   1
   5  12   7   81.10   68.50   1
  -5 -12  -7   67.30   68.40   1
   5 -12  -7  115.30   68.70   1
  -5  12   7  189.10   69.20   1
  -5  12  -7  125.90   68.40   1
   5 -12   7  115.20   68.20   1
  -5 -12   7  128.80   68.40   1
   5  12  -7  119.70   68.40   1
   5  12   8  122.30   48.30   1
  -5 -12  -8   61.00   47.70   1
   5 -12  -8   39.00   47.90   1
  -5  12   8   88.20   48.40   1
  -5  12  -8   49.60   47.50   1
   5 -12   8   31.90   47.40   1
  -5 -12   8   54.10   47.50   1
   5  12  -8   52.60   47.50   1
   5  12   9   23.10   32.50   1
  -5 -12  -9    2.80   32.40   1
   5 -12  -9   22.00   32.60   1
  -5  12   9   36.60   33.20   1
  -5  12  -9    0.40   31.80   1
   5 -12   9  117.70   32.50   1
  -5 -12   9   41.30   32.20   1
   5  12  -9   15.80   31.90   1
   5  12  10   44.30   41.90   1
  -5 -12 -10   82.90   42.00   1
   5 -12 -10   29.40   42.10   1
  -5  12  10   51.20   42.60   1
  -5  12 -10   34.70   41.20   1
   5 -12  10   63.30   41.60   1
  -5 -12  10   27.20   41.30   1
   5  12 -10   29.60   41.30   1
   5  12  11  104.70   62.60   1
  -5 -12 -11   88.70   62.50   1
   5 -12 -11   80.60   62.70   1
  -5  12  11   79.80   63.20   1
  -5  12 -11  118.20   62.20   1
  -5 -12  11  111.50   62.70   1
   5  12 -11   71.80   62.10   1
   5  12  12   16.80   30.40   1
  -5 -12 -12    8.80   30.40   1
   5 -12 -12   21.00   31.20   1
  -5  12  12    8.80   32.30   1
  -5  12 -12   43.00   30.10   1
   5 -12  12   13.90   29.90   1
  -5 -12  12   28.30   30.20   1
   5  12 -12   20.50   29.90   1
   5  12  13   21.60   23.20   1
  -5 -12 -13    9.90   23.40   1
   5 -12 -13   38.00   24.60   1
  -5  12  13   11.60   25.50   1
  -5  12 -13   14.90   22.80   1
   5 -12  13    3.50   22.60   1
  -5 -12  13    9.30   22.90   1
   5  12 -13    8.10   22.80   1
   5  13   0  161.10   62.70   1
  -5 -13   0  125.60   62.70   1
   5 -13   0   54.20   62.60   1
  -5  13   0   69.20   62.50   1
   5  13   1  296.10   71.20   1
  -5 -13  -1  284.80   71.20   1
   5 -13  -1   77.00   70.60   1
  -5  13   1   77.30   70.60   1
  -5  13  -1   83.90   70.60   1
   5 -13   1   77.50   70.50   1
  -5 -13   1  185.00   70.70   1
   5  13  -1  132.00   70.70   1
   5  13   2   23.80   55.90   1
  -5 -13  -2   50.90   56.10   1
   5 -13  -2   51.80   56.10   1
  -5  13   2   49.70   56.00   1
  -5  13  -2   43.90   56.00   1
   5 -13   2  191.40   56.50   1
  -5 -13   2  307.70   57.00   1
   5  13  -2  374.40   57.20   1
   5  13   3  458.90  124.60   1
  -5 -13  -3  387.20  124.50   1
   5 -13  -3  308.00  124.40   1
  -5  13   3  318.80  124.40   1
  -5  13  -3  361.70  124.40   1
   5 -13   3  357.50  124.40   1
  -5 -13   3  313.10  124.30   1
   5  13  -3  355.30  124.40   1
   5  13   4  765.40  142.80   1
  -5 -13  -4  560.00  142.00   1
   5 -13  -4  368.30  141.50   1
  -5  13   4  430.00  141.70   1
  -5  13  -4  730.00  142.70   1
   5 -13   4  491.60  141.90   1
  -5 -13   4  335.70  141.40   1
   5  13  -4  381.60  141.50   1
   5  13   5  141.50   66.60   1
  -5 -13  -5  405.80   67.90   1
   5 -13  -5   63.70   66.70   1
  -5  13   5   73.40   66.70   1
  -5  13  -5  120.80   66.70   1
   5 -13   5   99.30   66.70   1
  -5 -13   5   97.40   66.50   1
   5  13  -5   87.70   66.50   1
   5  13   6 1732.00  319.50   1
  -5 -13  -6 1871.80  320.70   1
   5 -13  -6 1968.70  321.40   1
  -5  13   6 1876.30  321.10   1
  -5  13  -6 1850.50  320.70   1
   5 -13   6 1569.10  319.00   1
  -5 -13   6 1736.50  320.80   1
   5  13  -6 1405.20  318.90   1
   5  13   7   89.20   48.50   1
  -5 -13  -7  167.90   48.80   1
   5 -13  -7  105.70   48.70   1
  -5  13   7   54.00   48.60   1
  -5  13  -7  134.60   48.40   1
   5 -13   7   27.80   47.90   1
  -5 -13   7   20.50   48.00   1
   5  13  -7   24.30   47.80   1
   5  13   8   60.20   61.80   1
  -5 -13  -8   78.10   61.80   1
   5 -13  -8  232.80   62.60   1
  -5  13   8  286.90   63.10   1
  -5  13  -8   52.50   61.50   1
   5 -13   8  121.40   61.80   1
  -5 -13   8   93.90   61.70   1
   5  13  -8   76.00   61.60   1
   5  13   9  201.70   57.70   1
  -5 -13  -9  288.40   58.10   1
   5 -13  -9   59.50   56.90   1
  -5  13   9   71.60   57.20   1
  -5  13  -9   49.00   56.50   1
   5 -13   9   66.00   56.70   1
  -5 -13   9   75.80   56.60   1
   5  13  -9   58.50   56.60   1
   5  13  10  210.20   85.00   1
  -5 -13 -10  216.20   85.10   1
   5 -13 -10  128.80   84.80   1
  -5  13  10  159.60   85.00   1
  -5  13 -10  142.00   84.50   1
  -5 -13  10  186.00   84.80   1
   5  13 -10  183.60   84.70   1
   5  13  11   66.80   63.20   1
  -5 -13 -11   80.50   63.10   1
   5 -13 -11   73.00   63.20   1
  -5  13  11  115.20   63.80   1
  -5  13 -11  150.90   63.10   1
   5 -13  11   82.50   62.90   1
  -5 -13  11   98.20   63.10   1
   5  13 -11  119.50   63.00   1
   5  13  12   47.60   51.60   1
  -5 -13 -12   28.90   51.50   1
   5 -13 -12   59.20   51.90   1
  -5  13  12   85.40   52.30   1
  -5  13 -12   60.90   51.40   1
   5 -13  12  122.00   51.70   1
  -5 -13  12   54.10   51.50   1
   5  13 -12  134.80   52.20   1
   5  13  13   11.30   22.90   1
  -5 -13 -13    2.40   23.30   1
   5 -13 -13    7.50   23.50   1
  -5  13  13   76.70   25.50   1
  -5  13 -13   17.70   22.50   1
   5 -13  13    0.00   22.10   1
  -5 -13  13   15.80   22.70   1
   5  14   0   37.20   31.50   1
  -5 -14   0   27.20   31.50   1
   5 -14   0   17.80   31.50   1
  -5  14   0   11.90   31.30   1
   5  14   1    7.30   35.50   1
  -5 -14  -1    8.10   35.50   1
   5 -14  -1   14.90   35.50   1
  -5  14   1   18.90   35.50   1
  -5  14  -1   22.80   35.70   1
   5 -14   1   32.20   35.70   1
  -5 -14   1   74.60   35.80   1
   5  14  -1   89.90   35.70   1
   5  14   2  252.90   41.10   1
  -5 -14  -2  276.10   41.40   1
   5 -14  -2    7.50   40.00   1
  -5  14   2   20.00   40.00   1
  -5  14  -2   -0.00   39.90   1
   5 -14   2   19.20   40.00   1
  -5 -14   2   21.50   39.90   1
   5  14  -2   40.70   40.00   1
   5  14   3  111.80   80.40   1
  -5 -14  -3  123.90   80.40   1
   5 -14  -3  187.40   80.70   1
  -5  14   3  171.10   80.60   1
  -5  14  -3  199.70   80.70   1
   5 -14   3  193.70   80.70   1
  -5 -14   3  138.50   80.50   1
   5  14  -3  161.90   80.60   1
   5  14   4   77.60   26.70   1
  -5 -14  -4   11.20   26.30   1
   5 -14  -4   26.70   26.50   1
  -5  14   4   37.70   26.30   1
  -5  14  -4    5.70   26.10   1
   5 -14   4   14.10   25.80   1
  -5 -14   4   -0.00   25.60   1
   5  14  -4   -4.80   25.80   1
   5  14   5 1051.90  247.80   1
  -5 -14  -5 1079.70  248.00   1
   5 -14  -5 1205.10  249.00   1
  -5  14   5 1273.60  249.20   1
  -5  14  -5 1194.90  248.60   1
   5 -14   5 1066.20  247.90   1
  -5 -14   5 1385.40  249.40   1
   5  14  -5 1182.30  248.30   1
   5  14   6   28.70   26.70   1
  -5 -14  -6   25.00   26.50   1
   5 -14  -6   24.80   26.60   1
  -5  14   6   10.30   26.50   1
  -5  14  -6   30.70   26.10   1
   5 -14   6    5.10   25.90   1
  -5 -14   6    6.40   25.70   1
   5  14  -6    9.00   25.70   1
   5  14   7   59.30   45.50   1
  -5 -14  -7   60.40   45.30   1
   5 -14  -7   37.00   45.20   1
  -5  14   7   24.20   45.20   1
  -5  14  -7   31.90   44.80   1
   5 -14   7   82.60   45.20   1
  -5 -14   7   61.60   45.00   1
   5  14  -7   45.70   44.80   1
   5  14   8   -0.00   21.80   1
  -5 -14  -8    5.60   21.60   1
   5 -14  -8   -0.00   21.20   1
  -5  14   8   16.70   21.20   1
  -5  14  -8   19.60   20.50   1
   5 -14   8    0.00   20.70   1
  -5 -14   8    9.50   20.40   1
   5  14  -8   14.10   20.30   1
   5  14   9   61.20   63.20   1
  -5 -14  -9   97.00   63.40   1
   5 -14  -9   85.10   63.20   1
  -5  14   9  161.20   63.70   1
  -5  14  -9  132.70   63.20   1
   5 -14   9  242.70   64.00   1
  -5 -14   9   76.30   62.90   1
   5  14  -9   67.10   62.70   1
   5  14  10   16.90   28.40   1
  -5 -14 -10    2.20   28.20   1
   5 -14 -10   17.40   28.20   1
  -5  14  10   26.10   28.40   1
  -5  14 -10   80.20   28.40   1
   5 -14  10   13.70   27.90   1
  -5 -14  10    2.70   27.50   1
   5  14 -10   17.20   27.50   1
   5  14  11   21.40   27.40   1
  -5 -14 -11   13.40   27.30   1
   5 -14 -11   37.20   27.80   1
  -5  14  11   47.70   28.30   1
  -5  14 -11   -0.00   26.90   1
   5 -14  11   36.40   27.20   1
  -5 -14  11    9.80   26.70   1
   5  14 -11    8.90   26.70   1
   5  14  12   -0.00   15.50   1
  -5 -14 -12    8.50   15.20   1
   5 -14 -12   12.50   15.90   1
  -5  14  12    3.20   16.70   1
  -5  14 -12   14.10   14.60   1
   5 -14  12   -0.20   14.60   1
  -5 -14  12   -0.00   14.40   1
   5  14 -12   -0.00   14.20   1
   5  15   0   49.10   50.40   1
  -5 -15   0   63.90   50.60   1
   5 -15   0   73.60   50.80   1
  -5  15   0   63.80   50.70   1
   5  15   1  258.60   57.30   1
  -5 -15  -1  268.20   57.50   1
   5 -15  -1   38.90   56.70   1
  -5  15   1   40.30   56.70   1
  -5  15  -1   59.80   56.70   1
   5 -15   1   48.10   56.80   1
  -5 -15   1   72.20   56.90   1
   5  15  -1   54.90   56.70   1
   5  15   2   78.10   67.70   1
  -5 -15  -2  113.50   67.80   1
   5 -15  -2  103.80   68.00   1
  -5  15   2   90.60   67.90   1
  -5  15  -2   92.20   67.90   1
   5 -15   2   92.20   67.90   1
  -5 -15   2  173.50   68.00   1
   5  15  -2  185.30   68.10   1
   5  15   3   15.50   38.40   1
  -5 -15  -3   24.20   38.50   1
   5 -15  -3   15.90   38.60   1
  -5  15   3   29.50   38.90   1
  -5  15  -3   58.70   38.80   1
   5 -15   3    7.10   38.40   1
  -5 -15   3   47.10   38.60   1
   5  15  -3  225.80   39.60   1
   5  15   4 2058.50  347.50   1
  -5 -15  -4 2043.30  347.60   1
   5 -15  -4 2028.60  348.00   1
  -5  15   4 1880.90  347.60   1
  -5  15  -4 1871.70  346.80   1
   5 -15   4 1639.40  345.30   1
  -5 -15   4 2068.10  347.90   1
   5  15  -4 2135.50  347.90   1
   5  15   5   10.70   31.70   1
  -5 -15  -5   16.00   31.80   1
   5 -15  -5  106.80   32.70   1
  -5  15   5  211.60   33.40   1
  -5  15  -5    7.80   31.20   1
   5 -15   5   11.70   31.50   1
  -5 -15   5   -0.00   31.30   1
   5  15  -5   15.40   31.30   1
   5  15   6  350.70   77.30   1
   5 -15  -6  135.80   76.40   1
  -5  15   6  172.10   76.50   1
  -5  15  -6  108.20   76.00   1
   5 -15   6   89.30   76.10   1
  -5 -15   6  202.90   76.30   1
   5  15  -6  107.60   76.10   1
   5  15   7    6.90   26.90   1
  -5 -15  -7    2.00   26.90   1
   5 -15  -7   51.40   27.30   1
  -5  15   7   13.80   27.30   1
  -5  15  -7   16.70   26.50   1
   5 -15   7   30.60   26.80   1
  -5 -15   7   12.00   26.40   1
   5  15  -7    9.60   26.40   1
   5  15   8  136.50   66.30   1
  -5 -15  -8  107.00   66.10   1
   5 -15  -8  122.80   66.00   1
  -5  15   8  135.10   66.20   1
  -5  15  -8   92.70   65.80   1
   5 -15   8  122.60   66.00   1
  -5 -15   8  297.30   66.90   1
   5  15  -8   48.50   65.40   1
   5  15   9   32.60   37.30   1
  -5 -15  -9   28.40   37.40   1
   5 -15  -9   38.40   37.30   1
  -5  15   9   53.40   37.60   1
  -5  15  -9  113.50   37.70   1
   5 -15   9   58.80   37.50   1
  -5 -15   9   15.30   36.70   1
   5  15  -9    8.00   36.60   1
   5  15  10   15.30   32.00   1
  -5 -15 -10  110.80   32.90   1
   5 -15 -10   26.00   31.70   1
  -5  15  10    4.00   31.70   1
  -5  15 -10    5.00   31.30   1
   5 -15  10  110.20   32.40   1
  -5 -15  10   11.40   31.20   1
   5  15 -10   16.20   31.00   1
   5  15  11    9.90   27.20   1
  -5 -15 -11   10.50   27.20   1
   5 -15 -11   11.50   27.10   1
  -5  15  11    4.10   27.60   1
  -5  15 -11   21.30   26.60   1
   5 -15  11   28.30   26.60   1
  -5 -15  11   21.50   26.40   1
   5  15 -11   12.90   26.30   1
   5  16   0   40.20   42.50   1
  -5 -16   0   53.10   42.80   1
   5 -16   0   50.30   43.00   1
  -5  16   0   31.40   42.80   1
   5  16   1 2224.20  419.30   1
  -5 -16  -1 2521.60  420.60   1
   5 -16  -1 2543.90  421.70   1
  -5  16   1 2759.10  422.50   1
  -5  16  -1 2617.90  422.10   1
   5 -16   1 2612.40  422.20   1
  -5 -16   1 3323.40  427.40   1
   5  16  -1 2458.30  420.80   1
   5  16   2   46.50   45.00   1
  -5 -16  -2   45.00   45.20   1
   5 -16  -2   58.10   45.40   1
  -5  16   2   45.90   45.20   1
  -5  16  -2   36.00   45.10   1
   5 -16   2   21.90   44.90   1
  -5 -16   2   76.90   45.20   1
   5  16  -2   73.00   45.30   1
   5  16   3  156.00   96.00   1
  -5 -16  -3  248.60   96.40   1
   5 -16  -3  210.80   96.10   1
  -5  16   3  211.10   96.20   1
  -5  16  -3  625.30   98.30   1
   5 -16   3  588.70   97.90   1
  -5 -16   3  168.80   96.00   1
   5  16  -3  186.20   96.10   1
   5  16   4   30.10   33.50   1
  -5 -16  -4  106.70   33.90   1
   5 -16  -4    3.70   33.60   1
  -5  16   4    0.00   33.40   1
  -5  16  -4    0.00   33.10   1
   5 -16   4   27.10   33.70   1
  -5 -16   4   38.50   33.50   1
   5  16  -4   47.80   33.60   1
   5  16   5  156.20   52.70   1
  -5 -16  -5  128.20   52.50   1
   5 -16  -5   17.60   51.90   1
  -5  16   5   40.20   52.00   1
  -5  16  -5   52.30   51.90   1
   5 -16   5   69.90   52.10   1
  -5 -16   5   99.00   52.10   1
   5  16  -5   52.10   51.90   1
   5  16   6   77.20   31.20   1
  -5 -16  -6   79.60   30.80   1
   5 -16  -6    0.60   30.50   1
  -5  16   6   15.50   30.50   1
  -5  16  -6   12.20   30.10   1
   5 -16   6   16.40   30.20   1
  -5 -16   6    7.90   29.80   1
   5  16  -6   13.50   30.00   1
   5  16   7   11.70   47.30   1
  -5 -16  -7   36.60   47.40   1
   5 -16  -7   64.30   47.50   1
  -5  16   7   33.00   47.10   1
  -5  16  -7   58.70   47.30   1
   5 -16   7  124.20   47.90   1
  -5 -16   7   64.10   47.10   1
   5  16  -7   67.00   47.10   1
   5  16   8   11.70   33.50   1
  -5 -16  -8   26.70   33.80   1
   5 -16  -8   22.60   33.50   1
  -5  16   8   36.80   33.50   1
  -5  16  -8  124.00   34.10   1
   5 -16   8   32.10   33.40   1
  -5 -16   8   13.40   32.80   1
   5  16  -8   11.20   32.80   1
   5  16   9  145.40   51.00   1
  -5 -16  -9   75.10   50.70   1
   5 -16  -9   28.90   50.30   1
  -5  16   9   33.20   50.40   1
  -5  16  -9   50.80   50.20   1
   5 -16   9   33.90   50.10   1
  -5 -16   9   83.50   50.20   1
   5  16  -9   89.40   50.10   1
   5  16  10   -0.00   21.90   1
  -5 -16 -10    8.00   21.40   1
   5 -16 -10    8.50   21.30   1
  -5  16  10   23.30   21.70   1
  -5  16 -10   11.30   21.10   1
   5 -16  10    1.10   21.00   1
  -5 -16  10   14.30   20.50   1
   5  16 -10    8.60   20.50   1
   5  16  11   32.00   46.50   1
  -5 -16 -11   83.30   46.90   1
   5 -16 -11   44.60   46.50   1
  -5  16  11   79.40   46.80   1
  -5  16 -11   30.20   46.10   1
   5 -16  11   61.60   46.30   1
  -5 -16  11   53.60   46.10   1
   5  17   0   27.40   28.20   1
  -5 -17   0   36.00   28.50   1
   5 -17   0   13.30   28.00   1
  -5  17   0   -0.00   28.10   1
   5  17   1   34.60   28.00   1
  -5 -17  -1   38.30   28.50   1
   5 -17  -1   13.40   28.20   1
  -5  17   1   20.20   28.50   1
  -5  17  -1   -0.00   28.00   1
   5 -17   1   22.40   27.90   1
  -5 -17   1   -0.90   28.20   1
   5  17  -1   17.40   28.10   1
   5  17   2   -0.00   46.40   1
  -5 -17  -2   31.00   46.40   1
   5 -17  -2  186.80   47.30   1
  -5  17   2  142.00   47.20   1
  -5  17  -2   22.90   46.30   1
   5 -17   2   47.10   46.50   1
  -5 -17   2   60.30   46.60   1
   5  17  -2   61.80   46.50   1
   5  17   3   -1.00   35.60   1
  -5 -17  -3   10.40   35.50   1
   5 -17  -3   19.20   36.00   1
  -5  17   3   24.50   35.60   1
  -5  17  -3   -0.10   35.50   1
   5 -17   3    6.20   35.50   1
  -5 -17   3  175.60   36.50   1
   5  17  -3  142.50   36.30   1
   5  17   4    3.10   38.40   1
  -5 -17  -4    1.00   38.30   1
   5 -17  -4   70.50   38.80   1
  -5  17   4   90.70   39.00   1
  -5  17  -4   45.90   38.50   1
   5 -17   4  131.80   39.40   1
  -5 -17   4   21.20   38.40   1
   5  17  -4   13.50   38.30   1
   5  17   5   -0.00   32.30   1
  -5 -17  -5   29.90   31.90   1
   5 -17  -5   20.70   31.90   1
  -5  17   5   61.20   32.30   1
  -5  17  -5   11.10   31.70   1
   5 -17   5   16.30   31.80   1
  -5 -17   5   32.40   31.90   1
   5  17  -5   22.00   31.90   1
   5  17   6   14.30   43.00   1
  -5 -17  -6    6.00   43.10   1
   5 -17  -6   42.30   43.20   1
  -5  17   6  115.20   43.40   1
  -5  17  -6   61.30   43.20   1
   5 -17   6   24.60   43.00   1
  -5 -17   6   75.20   43.10   1
   5  17  -6   45.60   43.00   1
   5  17   7   73.60   29.90   1
  -5 -17  -7   29.80   29.60   1
   5 -17  -7    6.30   28.80   1
  -5  17   7    0.00   28.90   1
  -5  17  -7   81.10   29.40   1
   5 -17   7   12.00   28.80   1
  -5 -17   7    5.10   28.20   1
   5  17  -7    9.80   28.50   1
   5  17   8   52.10   56.00   1
   5 -17  -8   76.90   55.90   1
  -5  17   8   99.90   55.90   1
  -5  17  -8   62.10   55.80   1
   5 -17   8   97.80   56.00   1
  -5 -17   8   53.00   55.50   1
   5  17  -8   91.70   55.70   1
   5  17   9    8.90   19.50   1
  -5 -17  -9   -0.00   19.60   1
   5 -17  -9    6.50   19.00   1
  -5  17   9    7.40   19.00   1
  -5  17  -9   -0.00   18.30   1
   5 -17   9   -0.00   18.60   1
  -5 -17   9    6.40   18.00   1
   5  17  -9   18.50   17.80   1
   5  17  10   22.60   33.70   1
  -5 -17 -10   15.20   33.50   1
   5 -17 -10   15.80   33.50   1
  -5  17  10   24.30   33.60   1
   5 -17  10   79.60   33.90   1
  -5 -17  10   21.30   33.00   1
   5  18   0   31.20   52.90   1
  -5 -18   0   37.70   53.00   1
   5 -18   0  116.40   53.40   1
  -5  18   0  202.40   54.00   1
   5 -18  -1  248.70  109.70   1
  -5  18   1  243.20  109.80   1
  -5  18  -1  338.40  110.20   1
   5 -18   1  475.40  110.90   1
  -5 -18   1  265.90  109.80   1
   5  18  -1  244.30  109.70   1
   5  18   2   33.00   40.00   1
  -5 -18  -2   70.20   40.20   1
   5 -18  -2   39.60   40.40   1
  -5  18   2   37.90   40.40   1
  -5  18  -2    9.80   40.00   1
   5 -18   2   44.60   40.20   1
  -5 -18   2   46.70   40.10   1
   5  18  -2   33.20   39.90   1
   5  18   3   77.60   60.10   1
  -5 -18  -3   33.60   59.80   1
   5 -18  -3  442.40   62.70   1
  -5  18   3  524.60   63.50   1
  -5  18  -3  151.60   60.30   1
   5 -18   3  246.30   61.00   1
  -5 -18   3   47.10   59.90   1
   5  18  -3   38.70   59.80   1
   5  18   4  134.20   52.50   1
  -5 -18  -4  166.70   52.60   1
   5 -18  -4   31.70   52.00   1
  -5  18   4   31.70   51.70   1
  -5  18  -4   15.80   51.60   1
   5 -18   4   16.60   51.50   1
  -5 -18   4  259.10   53.00   1
   5  18  -4  151.10   52.20   1
   5  18   5   55.50   38.90   1
  -5 -18  -5   16.80   38.80   1
  -5  18  -5   36.90   38.80   1
   5 -18   5   77.70   39.20   1
  -5 -18   5   15.50   38.70   1
   5  18  -5   27.40   38.50   1
   5  18   6   20.50   40.40   1
  -5 -18  -6   26.20   40.50   1
   5 -18  -6  193.90   41.50   1
  -5  18   6   53.30   40.40   1
  -5  18  -6   37.10   40.20   1
   5 -18   6   23.40   40.20   1
  -5 -18   6   34.20   40.20   1
   5  18  -6   21.10   40.00   1
   5  18   7  249.60   51.80   1
  -5 -18  -7  139.60   50.90   1
   5 -18  -7   48.20   50.00   1
  -5  18   7   56.40   50.10   1
  -5  18  -7    7.80   49.50   1
   5 -18   7   55.20   50.00   1
  -5 -18   7  101.00   50.00   1
   5  18  -7   42.60   49.80   1
   5  18   8   46.00   36.10   1
  -5 -18  -8   47.60   36.50   1
   5 -18  -8   23.60   35.70   1
  -5  18   8   33.90   35.90   1
  -5  18  -8   15.20   35.30   1
   5 -18   8   25.70   35.50   1
  -5 -18   8   33.70   35.20   1
   5  18  -8   26.20   35.30   1
   5  18   9   33.80   53.50   1
  -5 -18  -9  138.60   54.10   1
   5 -18  -9   71.30   53.50   1
  -5  18   9   46.20   53.50   1
   5 -18   9   79.70   53.60   1
  -5 -18   9   73.20   53.20   1
   5  19   0   23.00   29.80   1
  -5 -19   0   36.50   29.90   1
   5 -19   0   15.30   30.00   1
  -5  19   0   10.20   29.30   1
   5  19   1    2.50   20.10   1
  -5 -19  -1    6.20   20.70   1
   5 -19  -1   23.90   20.40   1
  -5  19   1   -0.10   20.80   1
  -5  19  -1    5.80   20.10   1
   5 -19   1    2.70   20.60   1
  -5 -19   1    8.50   20.10   1
   5  19  -1   16.50   20.40   1
   5  19   2   42.20   40.30   1
  -5 -19  -2   33.70   40.10   1
   5 -19  -2    8.80   40.00   1
  -5  19   2   18.90   40.30   1
  -5  19  -2   40.60   40.40   1
   5 -19   2  109.10   41.10   1
  -5 -19   2   19.30   40.20   1
   5  19  -2   84.90   40.40   1
   5  19   3   28.10   20.30   1
  -5 -19  -3   24.80   19.90   1
   5 -19  -3    0.00   19.90   1
  -5  19   3    0.00   19.60   1
  -5  19  -3   -0.00   19.70   1
   5 -19   3   -0.00   19.90   1
  -5 -19   3   -0.00   19.30   1
   5  19  -3   13.80   19.40   1
   5  19   4   82.00   54.90   1
  -5 -19  -4   92.20   55.00   1
   5 -19  -4   72.10   54.60   1
  -5  19   4   69.60   54.60   1
  -5  19  -4   71.20   54.60   1
   5 -19   4   60.10   54.60   1
  -5 -19   4   54.00   54.40   1
   5  19  -4   76.00   54.40   1
   5  19   5   -0.00   25.70   1
  -5 -19  -5    1.20   25.80   1
   5 -19  -5    3.90   25.30   1
  -5  19   5   -0.00   25.20   1
  -5  19  -5   27.80   25.40   1
   5 -19   5   -0.10   25.30   1
  -5 -19   5   32.60   25.10   1
   5  19  -5   38.90   25.20   1
   5  19   6   64.40   54.10   1
  -5 -19  -6   74.20   54.30   1
   5 -19  -6   70.40   53.90   1
  -5  19   6  188.60   54.60   1
  -5  19  -6   48.00   53.90   1
   5 -19   6   40.60   53.70   1
  -5 -19   6   74.20   53.80   1
   5  19  -6   63.20   53.80   1
   5  19   7   16.60   25.10   1
  -5 -19  -7   47.60   25.70   1
   5 -19  -7    3.70   24.90   1
  -5  19   7   -0.00   24.80   1
  -5  19  -7   17.60   24.40   1
   5 -19   7   -0.00   24.80   1
  -5 -19   7   27.80   24.20   1
   5  19  -7   -0.00   24.10   1
   5  19   8   35.20   34.90   1
  -5 -19  -8   19.80   34.70   1
   5 -19  -8   18.50   34.70   1
  -5  19   8   13.40   34.40   1
   5 -19   8   16.10   34.50   1
  -5 -19   8   63.60   34.40   1
   5  20   0   27.60   27.90   1
  -5 -20   0   25.00   27.90   1
   5 -20   0    0.20   28.10   1
  -5  20   0   15.00   27.90   1
   5  20   1  186.30   88.30   1
  -5 -20  -1  218.50   88.40   1
   5 -20  -1  237.30   88.60   1
  -5  20   1  156.50   88.30   1
  -5  20  -1  181.60   88.50   1
   5 -20   1  178.10   88.60   1
  -5 -20   1  171.20   88.20   1
   5  20  -1  163.10   88.20   1
   5  20   2   15.50   30.30   1
  -5 -20  -2   18.60   30.10   1
   5 -20  -2   34.00   30.50   1
  -5  20   2   34.20   30.30   1
  -5  20  -2   11.60   30.30   1
   5 -20   2   -0.00   30.30   1
  -5 -20   2   43.70   30.20   1
   5  20  -2   10.30   30.10   1
   5  20   3  126.40   65.20   1
  -5 -20  -3  139.80   65.00   1
   5 -20  -3   61.60   64.50   1
  -5  20   3  105.10   64.90   1
  -5  20  -3   98.40   64.80   1
   5 -20   3   69.30   64.60   1
  -5 -20   3   90.50   64.60   1
   5  20  -3  164.20   64.90   1
   5  20   4    0.00   29.00   1
  -5 -20  -4   18.40   28.30   1
   5 -20  -4   11.70   28.10   1
  -5  20   4    5.90   28.40   1
  -5  20  -4   35.10   28.70   1
   5 -20   4   33.40   28.50   1
  -5 -20   4   26.20   28.40   1
   5  20  -4   14.50   28.00   1
   5  20   5  288.70  118.50   1
  -5 -20  -5  288.90  118.40   1
   5 -20  -5  300.60  118.40   1
  -5  20   5  337.80  118.60   1
  -5  20  -5  469.60  119.90   1
   5 -20   5  270.40  118.50   1
  -5 -20   5  410.90  118.90   1
   5  20  -5  298.10  118.20   1
   5  20   6   14.80   29.00   1
  -5 -20  -6   23.20   28.80   1
   5 -20  -6   25.90   28.70   1
  -5  20   6   12.00   28.10   1
  -5  20  -6    2.30   27.90   1
   5 -20   6   12.40   28.00   1
  -5 -20   6   22.30   28.20   1
   5  20  -6   31.10   27.90   1
   5  20   7   40.50   56.30   1
  -5 -20  -7   75.80   56.70   1
   5 -20  -7  137.30   57.10   1
  -5  20   7  133.30   56.80   1
   5 -20   7  200.00   57.70   1
  -5 -20   7   34.40   55.90   1
   5  21   0   20.60   44.80   1
  -5 -21   0   15.40   44.70   1
   5 -21   0  244.20   46.90   1
  -5  21   0   92.70   45.30   1
   5  21   1   19.50   30.60   1
  -5 -21  -1   11.90   30.40   1
   5 -21  -1    6.80   30.40   1
  -5  21   1    1.50   30.10   1
  -5  21  -1   16.00   30.50   1
   5 -21   1   18.90   30.60   1
  -5 -21   1   38.00   30.20   1
   5  21  -1   53.00   30.30   1
   5  21   2  129.20   59.70   1
  -5 -21  -2  145.90   59.60   1
   5 -21  -2   75.50   59.10   1
  -5  21   2   60.90   58.80   1
  -5  21  -2   45.40   58.90   1
   5 -21   2   64.10   59.10   1
  -5 -21   2  100.90   59.00   1
   5  21  -2   97.00   59.00   1
   5  21   3   29.20   33.10   1
  -5 -21  -3   24.40   32.90   1
   5 -21  -3   58.70   33.40   1
  -5  21   3   47.70   33.20   1
  -5  21  -3   20.80   32.90   1
   5 -21   3   -0.20   33.00   1
  -5 -21   3   13.90   32.80   1
   5  21  -3   17.50   32.70   1
   5  21   4  125.40   84.90   1
  -5 -21  -4  138.60   85.00   1
   5 -21  -4  405.70   86.70   1
  -5  21   4  484.40   87.70   1
  -5  21  -4  242.30   85.60   1
   5 -21   4  178.10   85.30   1
  -5 -21   4  140.00   84.80   1
   5  21  -4  128.50   84.60   1
   5  21   5   81.90   26.70   1
  -5 -21  -5   56.10   25.90   1
   5 -21  -5    1.50   24.60   1
  -5  21   5   -0.50   25.50   1
  -5  21  -5   -0.00   25.30   1
   5 -21   5    5.70   24.90   1
  -5 -21   5   -0.00   24.80   1
   5  21  -5   12.40   24.40   1
   5  21   6   17.50   40.50   1
  -5 -21  -6   32.20   40.90   1
   5 -21  -6   32.20   40.20   1
  -5  21   6   90.50   41.00   1
   5 -21   6   46.30   40.60   1
  -5 -21   6   29.80   40.40   1
   5  22   0   -0.20   15.60   1
  -5 -22   0   11.40   14.90   1
   5 -22   0   -0.00   16.70   1
  -5  22   0   -0.00   15.60   1
   5  22   1    9.40   32.60   1
  -5 -22  -1   26.90   32.40   1
   5 -22  -1   69.40   33.00   1
  -5  22   1   36.90   32.60   1
  -5  22  -1   19.70   32.50   1
   5 -22   1   13.80   32.60   1
  -5 -22   1   14.70   32.40   1
   5  22  -1   15.00   32.10   1
   5  22   2   20.60   27.70   1
  -5 -22  -2   17.30   27.30   1
   5 -22  -2   -0.20   27.20   1
  -5  22   2    3.00   26.90   1
  -5  22  -2   26.20   27.00   1
   5 -22   2    2.30   26.60   1
  -5 -22   2   39.70   26.80   1
   5  22  -2   16.90   26.50   1
   5  22   3   18.70   34.40   1
  -5 -22  -3   21.80   34.30   1
   5 -22  -3   27.80   34.40   1
  -5  22   3   23.10   33.80   1
  -5  22  -3   40.30   34.50   1
   5 -22   3   50.30   34.60   1
  -5 -22   3   21.40   34.10   1
   5  22  -3   18.50   34.00   1
   5  22   4    8.90   17.00   1
  -5 -22  -4   -0.20   15.90   1
   5 -22  -4    7.70   15.80   1
  -5  22   4   -0.10   15.10   1
   5 -22   4   10.70   15.70   1
  -5 -22   4    0.90   15.20   1
   5  22  -4   -0.00   15.30   1
   5  23   0    2.20   23.80   1
  -5 -23   0   10.50   23.90   1
   5 -23   0   18.30   23.90   1
  -5  23   0   17.90   24.50   1
   5  23   1   44.10   23.10   1
  -5 -23  -1   43.10   22.30   1
   5 -23  -1   -0.00   22.50   1
  -5  23   1   -0.00   21.90   1
  -5  23  -1   -0.30   22.10   1
   5 -23   1   -0.00   22.40   1
  -5 -23   1    4.30   21.40   1
   5  23  -1   -0.00   21.90   1
   6   0  11  347.80  124.80   1
   6   0  12  293.90  108.10   1
  -6   0 -12  232.30  108.60   1
   6   0  13  229.40   98.00   1
  -6   0 -13  218.90   98.30   1
   6   0  14  131.20   69.10   1
  -6   0 -14  100.10   69.00   1
   6   0  15   31.80   32.70   1
  -6   0 -15   22.30   32.60   1
   6   1   9   29.30   34.90   1
   6   1  10  112.20   66.20   1
  -6  -1 -10   97.90   66.30   1
   6   1  11   47.30   47.30   1
  -6  -1 -11   66.80   47.40   1
   6   1  12  149.50   54.20   1
  -6  -1 -12   45.40   54.00   1
   6   1  13   33.10   40.80   1
  -6  -1 -13   63.10   40.80   1
   6  -1  13   33.00   40.70   1
   6   1  14   21.20   30.20   1
  -6  -1 -14   15.00   30.10   1
  -6   1 -14   27.60   30.10   1
   6  -1  14   26.80   30.00   1
   6   1  15   14.80   22.50   1
  -6  -1 -15   10.70   22.50   1
  -6   1 -15   18.40   22.40   1
   6  -1  15    7.70   22.40   1
   6   2   7  272.90  109.30   1
   6   2   8   87.10   48.70   1
  -6  -2  -8   39.00   48.60   1
   6   2   9  100.70   58.40   1
  -6  -2  -9   68.10   58.40   1
   6   2  10   25.70   43.80   1
  -6  -2 -10  103.60   44.00   1
   6   2  11  113.90   52.40   1
  -6  -2 -11   44.40   52.20   1
   6   2  12   87.30   48.70   1
  -6  -2 -12   41.60   48.50   1
   6   2  13   84.30   56.90   1
  -6  -2 -13   74.50   56.80   1
   6   2  14   23.50   27.80   1
  -6  -2 -14   14.90   27.70   1
   6   2  15   47.20   33.50   1
  -6  -2 -15   14.60   33.40   1
   6   3   5  165.00   83.70   1
   6   3   6  630.10  161.10   1
  -6  -3  -6  486.10  160.90   1
   6   3   7  252.40  106.70   1
  -6  -3  -7  281.20  106.80   1
   6   3   8  255.70  114.50   1
  -6  -3  -8  416.30  115.00   1
   6   3   9   30.50   42.30   1
  -6  -3  -9   66.10   42.40   1
   6   3  10   97.00   53.00   1
  -6  -3 -10   51.30   52.90   1
   6   3  11   79.80   59.30   1
  -6  -3 -11   91.20   59.20   1
   6   3  12   87.00   45.40   1
  -6  -3 -12   31.10   45.30   1
   6   3  13   16.20   36.80   1
  -6  -3 -13   62.00   37.00   1
   6   3  14  114.00   48.40   1
  -6  -3 -14   32.80   48.20   1
   6   3  15    8.90   23.70   1
  -6  -3 -15   17.50   23.70   1
   6   4   3   12.20   22.60   1
   6   4   4   72.00   62.60   1
  -6  -4  -4  152.40   62.90   1
   6   4   5   49.50   39.60   1
  -6  -4  -5   29.10   39.60   1
   6   4   6   58.50   54.20   1
  -6  -4  -6   87.30   54.30   1
   6   4   7   11.20   20.00   1
  -6  -4  -7    7.80   20.00   1
   6   4   8   34.30   31.00   1
  -6  -4  -8   13.50   30.90   1
   6   4   9   42.70   42.70   1
  -6  -4  -9   46.30   42.70   1
   6   4  10   86.30   47.80   1
  -6  -4 -10   37.80   47.60   1
   6   4  11  159.40   64.50   1
  -6  -4 -11   78.60   64.30   1
   6  -4 -11   60.00   65.10   1
   6   4  12   14.60   26.90   1
  -6  -4 -12   19.00   26.90   1
   6  -4 -12   20.90   27.70   1
   6   4  13   17.10   28.10   1
  -6  -4 -13   34.10   28.40   1
   6  -4 -13    2.20   28.70   1
   6   4  14    8.70   32.00   1
  -6  -4 -14   74.40   32.30   1
   6  -4 -14    9.00   32.50   1
   6   4  15   20.00   18.50   1
  -6  -4 -15    0.00   18.10   1
   6  -4 -15    7.90   19.00   1
   6  -5   0 2346.20  396.50   1
  -6   5   0 2113.30  394.20   1
   6   5   1  404.50  117.40   1
   6  -5  -1  255.10  114.50   1
  -6   5   1  286.60  114.90   1
  -6   5  -1  513.80  117.70   1
   6  -5   1  269.40  114.70   1
   6   5   2 2524.40  373.50   1
  -6  -5  -2 2213.00  371.80   1
   6  -5  -2 2027.90  373.30   1
  -6   5   2 1812.80  371.40   1
  -6   5  -2 2390.10  383.70   1
   6  -5   2 1699.20  368.60   1
   6   5   3  234.20   77.00   1
  -6  -5  -3  263.90   77.20   1
   6  -5  -3   97.80   77.00   1
  -6   5   3  102.80   77.10   1
  -6   5  -3   86.90   76.90   1
   6  -5   3  141.30   77.20   1
   6   5   4  691.00  114.40   1
  -6  -5  -4  403.90  113.20   1
   6  -5  -4  235.20  113.40   1
  -6   5   4  734.10  121.20   1
  -6   5  -4  137.50  112.80   1
   6  -5   4 1041.30  127.90   1
   6   5   5   99.30   54.80   1
  -6  -5  -5   81.70   54.80   1
   6  -5  -5   92.30   55.50   1
  -6   5   5  106.80   55.70   1
  -6   5  -5   27.20   54.80   1
   6  -5   5   76.80   55.10   1
   6   5   6   88.80   58.80   1
  -6  -5  -6   82.40   58.80   1
   6  -5  -6   91.90   59.40   1
  -6   5  -6   70.80   59.00   1
   6   5   7  283.30  109.00   1
  -6  -5  -7  282.50  109.00   1
   6  -5  -7  193.00  109.60   1
  -6   5   7  384.60  112.20   1
  -6   5  -7  284.40  111.30   1
   6  -5   7  343.80  111.00   1
   6   5   8   41.00   44.30   1
  -6  -5  -8   49.80   44.30   1
   6  -5  -8   31.70   45.00   1
   6  -5   8  194.40   46.30   1
   6   5   9   72.80   46.10   1
  -6  -5  -9   19.40   45.90   1
   6  -5  -9  106.60   47.40   1
  -6   5   9  127.40   47.90   1
   6  -5   9   89.60   46.50   1
   6   5  10  230.50   78.80   1
  -6  -5 -10  157.20   78.60   1
   6  -5 -10   57.10   79.00   1
  -6   5  10  578.70   94.40   1
   6  -5  10  123.50   78.90   1
   6   5  11  545.90  142.70   1
  -6  -5 -11  409.00  142.10   1
   6  -5 -11  412.30  145.70   1
  -6   5  11  401.40  147.20   1
   6  -5  11  449.30  145.50   1
   6   5  12  191.10   92.90   1
  -6  -5 -12  237.10   93.20   1
   6  -5 -12  162.80   94.30   1
  -6   5  12  195.80   95.60   1
   6  -5  12  217.10   94.20   1
   6   5  13  102.90   65.10   1
  -6  -5 -13  369.00   66.60   1
   6  -5 -13  153.90   67.40   1
  -6   5  13   59.40   65.70   1
   6  -5  13   63.90   65.10   1
   6   5  14   70.30   46.90   1
  -6  -5 -14   47.90   46.80   1
   6  -5 -14   82.20   48.50   1
  -6   5  14   37.90   47.40   1
   6  -5  14   45.50   46.80   1
   6   5  15   45.30   28.70   1
  -6  -5 -15   32.40   28.40   1
   6  -5 -15   34.00   29.60   1
  -6   5  15   -2.20   28.80   1
   6  -5  15    7.20   28.10   1
   6   6   0   95.30   66.50   1
  -6  -6   0   91.90   66.50   1
   6  -6   0  132.60   67.50   1
  -6   6   0  143.10   67.60   1
   6   6   1   54.60   49.30   1
  -6  -6  -1   76.10   49.30   1
   6  -6  -1  116.20   50.90   1
  -6   6   1  126.20   51.00   1
  -6   6  -1  144.90   50.90   1
   6  -6   1   90.50   50.50   1
   6   6  -1   16.40   49.10   1
   6   6   2   39.20   48.70   1
  -6  -6  -2   48.40   48.70   1
   6  -6  -2   81.60   50.20   1
  -6   6   2   85.20   50.20   1
  -6   6  -2  114.70   50.10   1
   6  -6   2   72.80   49.60   1
   6   6   3  141.70   84.70   1
  -6  -6  -3  121.30   84.70   1
   6  -6  -3  408.30   86.90   1
  -6   6   3  373.50   86.80   1
  -6   6  -3  447.20   86.80   1
   6  -6   3  207.20   85.60   1
   6   6   4   28.40   43.70   1
  -6  -6  -4   19.60   43.60   1
   6  -6  -4  126.30   45.80   1
  -6   6   4  145.90   45.80   1
  -6   6  -4  148.30   45.20   1
   6  -6   4   65.80   44.60   1
   6   6   5   13.20   34.20   1
  -6  -6  -5    8.40   34.30   1
   6  -6  -5   98.50   36.80   1
  -6   6   5   65.80   36.50   1
  -6   6  -5   74.90   35.70   1
   6  -6   5   96.00   35.30   1
   6   6   6   39.00   36.90   1
  -6  -6  -6   20.30   36.90   1
   6  -6  -6  138.10   39.70   1
  -6   6   6   60.50   39.10   1
  -6   6  -6   85.00   38.00   1
   6  -6   6    1.00   37.20   1
   6   6   7  136.40   67.50   1
  -6  -6  -7   76.50   67.40   1
   6  -6  -7  256.20   69.90   1
  -6   6   7  130.80   68.90   1
  -6   6  -7  111.70   68.00   1
   6  -6   7  105.40   67.70   1
   6   6   8   32.50   29.20   1
  -6  -6  -8    4.60   28.90   1
   6  -6  -8   79.90   31.90   1
  -6   6   8    8.50   30.80   1
  -6   6  -8   30.20   29.80   1
   6  -6   8   21.40   29.30   1
   6   6   9  120.00   52.00   1
  -6  -6  -9   30.80   51.80   1
   6  -6  -9  162.40   54.40   1
  -6   6   9   52.10   53.30   1
  -6   6  -9   64.00   52.30   1
   6  -6   9   64.30   52.00   1
   6   6  10   31.20   53.50   1
  -6  -6 -10   62.50   53.60   1
   6  -6 -10   96.70   55.70   1
  -6   6  10  137.40   56.00   1
  -6   6 -10   86.90   54.10   1
   6  -6  10  192.00   54.40   1
   6   6  11  112.10   71.40   1
  -6  -6 -11  106.60   71.40   1
   6  -6 -11  113.20   73.20   1
  -6   6 -11  189.00   72.30   1
   6  -6  11  145.80   71.70   1
   6   6  12   15.00   36.20   1
  -6  -6 -12   29.50   36.30   1
   6  -6 -12   74.20   39.10   1
  -6   6  12   56.40   38.00   1
  -6   6 -12   38.90   36.60   1
   6  -6  12   35.90   36.20   1
   6   6  13   30.50   37.00   1
  -6  -6 -13   20.50   36.90   1
   6  -6 -13   69.10   39.60   1
  -6   6  13   45.00   38.40   1
  -6   6 -13   51.10   37.20   1
   6  -6  13   31.60   36.80   1
   6   6  14   67.20   41.50   1
  -6  -6 -14   22.10   41.10   1
   6  -6 -14   60.80   43.30   1
  -6   6  14   31.50   42.00   1
  -6   6 -14   45.50   41.20   1
   6  -6  14   45.90   41.20   1
   6   6  15    0.00   27.00   1
  -6  -6 -15   15.30   26.90   1
   6  -6 -15   40.20   29.40   1
  -6   6  15   23.10   28.00   1
  -6   6 -15   33.00   27.00   1
   6  -6  15   15.00   26.80   1
   6   7   0   96.00   61.90   1
  -6  -7   0  108.60   61.90   1
   6  -7   0   83.60   62.40   1
  -6   7   0   68.10   62.50   1
   6   7   1  209.80   57.70   1
  -6  -7  -1  361.70   58.50   1
   6  -7  -1   47.80   57.80   1
  -6   7   1   45.00   57.80   1
  -6   7  -1  145.80   58.10   1
   6  -7   1  119.30   57.90   1
  -6  -7   1   25.90   57.40   1
   6   7  -1   36.20   57.40   1
   6   7   2  361.90  131.10   1
  -6  -7  -2  350.70  131.00   1
   6  -7  -2  451.80  132.00   1
  -6   7   2  374.30  131.70   1
  -6   7  -2  448.70  131.80   1
   6  -7   2  417.80  131.60   1
  -6  -7   2  322.80  131.90   1
   6   7  -2  529.40  133.40   1
   6   7   3   16.10   31.00   1
  -6  -7  -3   11.30   31.00   1
   6  -7  -3   57.80   32.50   1
  -6   7   3   31.90   32.00   1
  -6   7  -3   69.40   32.00   1
   6  -7   3   51.20   31.90   1
   6   7  -3    6.80   31.10   1
   6   7   4   87.90   65.60   1
  -6  -7  -4   87.90   65.60   1
   6  -7  -4   92.40   66.50   1
  -6   7   4   76.90   66.30   1
  -6   7  -4  178.70   66.20   1
   6  -7   4  168.50   66.20   1
   6   7   5   38.30   40.40   1
  -6  -7  -5   38.50   40.40   1
   6  -7  -5  150.00   42.30   1
  -6   7   5    9.00   41.20   1
  -6   7  -5   29.50   40.80   1
   6  -7   5   44.10   40.80   1
   6   7   6   83.70   48.50   1
  -6  -7  -6   59.00   48.40   1
   6  -7  -6  148.30   49.80   1
  -6   7   6   24.10   49.20   1
  -6   7  -6   29.70   48.60   1
   6  -7   6   45.70   48.60   1
   6   7   7  118.60   56.70   1
  -6  -7  -7   78.70   56.60   1
   6  -7  -7   66.40   57.40   1
  -6   7   7   22.20   57.10   1
  -6   7  -7   75.70   56.70   1
   6  -7   7   79.00   56.80   1
   6   7   8  290.40   71.20   1
  -6  -7  -8  121.50   70.80   1
   6  -7  -8  125.40   71.50   1
  -6   7   8   48.80   71.10   1
  -6   7  -8  117.50   70.80   1
   6  -7   8   99.80   70.80   1
   6   7   9  107.10   60.30   1
  -6  -7  -9   99.10   60.30   1
   6  -7  -9   51.80   60.80   1
  -6   7   9   48.60   60.80   1
  -6   7  -9  103.30   60.30   1
   6  -7   9   87.50   60.40   1
   6   7  10   53.80   52.70   1
  -6  -7 -10  152.30   53.10   1
   6  -7 -10   84.60   53.80   1
  -6   7  10   56.90   53.60   1
  -6   7 -10   36.60   52.70   1
   6  -7  10   88.40   53.10   1
   6   7  11   17.50   24.50   1
   6  -7 -11   32.60   26.00   1
  -6   7  11   -0.00   26.70   1
  -6   7 -11   12.40   24.50   1
   6  -7  11    7.90   25.10   1
   6   7  12   57.80   38.80   1
  -6  -7 -12   18.20   38.60   1
   6  -7 -12   33.70   39.90   1
  -6   7  12   48.50   39.90   1
  -6   7 -12   31.30   38.50   1
   6  -7  12   44.80   38.80   1
   6   7  13   11.70   23.30   1
  -6  -7 -13    7.70   23.10   1
   6  -7 -13   -0.20   24.80   1
  -6   7  13   -0.10   24.80   1
  -6   7 -13    0.00   22.90   1
   6  -7  13   47.10   23.10   1
   6   7  14   34.40   45.50   1
  -6  -7 -14   38.50   45.30   1
   6  -7 -14   23.60   45.90   1
  -6   7  14   23.10   46.30   1
  -6   7 -14   74.80   45.40   1
   6  -7  14   81.30   45.20   1
   6   8   0  235.60  102.20   1
  -6  -8   0  245.20  102.20   1
   6  -8   0  222.30  102.40   1
  -6   8   0  285.80  102.50   1
   6   8   1   68.60   60.70   1
  -6  -8  -1   74.40   60.80   1
   6  -8  -1  114.80   61.30   1
  -6   8   1  120.30   61.20   1
  -6   8  -1  138.10   61.20   1
   6  -8   1   74.10   61.10   1
   6   8   2   41.90   45.10   1
  -6  -8  -2   56.90   45.20   1
   6  -8  -2   60.20   45.90   1
  -6   8   2   40.80   45.80   1
  -6   8  -2   37.50   45.50   1
   6  -8   2   64.10   45.80   1
  -6  -8   2   55.80   45.30   1
   6   8  -2   48.70   45.30   1
   6   8   3  535.50  174.40   1
  -6  -8  -3  583.40  174.50   1
   6  -8  -3  656.00  175.10   1
  -6   8   3  800.70  175.70   1
  -6   8  -3  790.10  175.70   1
   6  -8   3  670.50  175.20   1
  -6  -8   3  687.30  176.60   1
   6   8  -3  775.60  176.60   1
   6   8   4  185.90   88.10   1
  -6  -8  -4  182.50   88.20   1
   6  -8  -4  189.70   88.70   1
  -6   8   4  296.00   89.00   1
  -6   8  -4  188.20   88.50   1
   6  -8   4  157.30   88.50   1
  -6  -8   4  131.40   88.50   1
   6   8  -4  196.10   88.80   1
   6   8   5  188.20   94.70   1
  -6  -8  -5  191.40   94.70   1
   6  -8  -5  178.80   95.10   1
  -6   8   5  281.50   95.40   1
  -6   8  -5  208.20   95.10   1
   6  -8   5  524.70   96.40   1
   6   8  -5  189.10   95.80   1
   6   8   6  215.10   61.00   1
  -6  -8  -6   64.10   60.60   1
   6  -8  -6   57.80   61.10   1
  -6   8   6   87.40   61.30   1
  -6   8  -6   74.40   61.00   1
   6  -8   6   85.20   61.50   1
   6   8   7 2267.50  415.80   1
  -6  -8  -7 2812.60  418.70   1
   6  -8  -7 2820.30  423.10   1
  -6   8   7 2971.80  426.50   1
  -6   8  -7 2199.20  417.50   1
   6  -8   7 2968.20  423.70   1
   6   8   8  142.70   61.60   1
  -6  -8  -8   63.90   61.40   1
   6  -8  -8   73.10   62.20   1
  -6   8   8  116.00   62.60   1
  -6   8  -8   99.50   62.10   1
   6  -8   8   73.60   61.80   1
   6   8   9  597.30  184.70   1
  -6  -8  -9  650.50  185.00   1
   6  -8  -9  722.40  186.60   1
  -6   8   9 1117.00  191.30   1
  -6   8  -9  906.60  187.10   1
   6  -8   9  821.70  185.90   1
   6   8  10  172.00   79.30   1
  -6  -8 -10  141.70   79.30   1
   6  -8 -10   86.10   79.70   1
  -6   8  10  194.00   80.50   1
  -6   8 -10  132.20   79.60   1
   6  -8  10  188.00   79.40   1
   6   8  11  340.70  119.80   1
  -6  -8 -11  315.60  119.70   1
   6  -8 -11  351.20  120.90   1
  -6   8  11  382.60  121.70   1
  -6   8 -11  381.70  120.40   1
   6  -8  11  279.80  119.60   1
   6   8  12   37.80   28.10   1
  -6  -8 -12   24.70   27.80   1
   6  -8 -12   -0.00   28.60   1
  -6   8  12   12.30   28.90   1
  -6   8 -12   41.20   28.30   1
   6  -8  12    6.50   27.40   1
   6   8  13  130.60   69.50   1
  -6  -8 -13  154.40   69.50   1
   6  -8 -13   96.80   69.80   1
  -6   8  13   77.50   69.80   1
  -6   8 -13  107.70   69.20   1
   6  -8  13  115.80   69.00   1
   6   8  14   47.60   46.40   1
  -6  -8 -14   57.60   46.50   1
   6  -8 -14   51.80   47.00   1
  -6   8  14   27.60   46.80   1
  -6   8 -14   53.50   46.20   1
   6  -8  14   58.50   46.00   1
   6   9   0   80.20   59.60   1
  -6  -9   0   81.80   59.60   1
   6  -9   0   96.70   60.40   1
  -6   9   0  105.90   60.40   1
   6   9   1   24.30   26.10   1
  -6  -9  -1   20.80   26.00   1
   6  -9  -1   11.30   27.50   1
  -6   9   1    8.40   26.90   1
  -6   9  -1   64.50   28.20   1
  -6  -9   1    7.90   26.10   1
   6   9  -1    5.20   26.00   1
   6   9   2   73.10   56.20   1
  -6  -9  -2   97.30   56.30   1
   6  -9  -2   93.20   57.10   1
  -6   9   2  120.00   56.90   1
  -6   9  -2  218.70   57.70   1
   6  -9   2   65.00   57.20   1
  -6  -9   2   62.70   56.30   1
   6   9  -2   33.60   56.20   1
   6   9   3   10.70   23.30   1
  -6  -9  -3   16.10   23.20   1
   6  -9  -3   -2.90   24.90   1
  -6   9   3    2.10   24.10   1
  -6   9  -3   -1.20   25.20   1
   6  -9   3   15.20   25.00   1
  -6  -9   3   17.90   23.50   1
   6   9  -3   21.80   23.40   1
   6   9   4   20.50   35.30   1
  -6  -9  -4   25.10   35.30   1
   6  -9  -4   67.40   36.30   1
  -6   9   4   27.10   36.00   1
  -6   9  -4   59.90   36.80   1
   6  -9   4   40.90   36.40   1
  -6  -9   4   30.10   35.50   1
   6   9  -4   21.60   35.30   1
   6   9   5   86.30   59.60   1
  -6  -9  -5  256.10   60.00   1
   6  -9  -5   73.50   60.20   1
  -6   9   5   58.10   60.00   1
  -6   9  -5   70.30   60.20   1
   6  -9   5   42.30   59.90   1
  -6  -9   5   49.10   59.70   1
   6   9  -5  124.30   59.90   1
   6   9   6  229.60   47.30   1
  -6  -9  -6   50.20   46.70   1
   6  -9  -6   39.70   47.20   1
  -6   9   6   54.10   47.20   1
  -6   9  -6   61.30   47.40   1
   6  -9   6   76.30   47.10   1
  -6  -9   6   10.60   46.50   1
   6   9  -6   34.30   46.70   1
   6   9   7   42.50   38.50   1
  -6  -9  -7   13.30   38.30   1
   6  -9  -7   29.20   39.00   1
  -6   9   7   24.20   39.10   1
  -6   9  -7   72.70   39.10   1
   6  -9   7   56.50   38.60   1
   6   9  -7   31.70   38.40   1
   6   9   8   23.80   46.60   1
  -6  -9  -8   80.40   46.80   1
   6  -9  -8   16.40   47.10   1
  -6   9   8   13.70   47.10   1
  -6   9  -8   78.60   47.20   1
   6  -9   8  182.00   47.20   1
   6   9   9   36.10   43.10   1
  -6  -9  -9   71.00   43.30   1
   6  -9  -9   36.70   43.70   1
  -6   9   9   19.60   43.50   1
  -6   9  -9   97.00   43.50   1
   6  -9   9   30.40   43.00   1
   6   9  10   30.40   40.10   1
  -6  -9 -10   32.90   40.00   1
   6  -9 -10   24.00   40.40   1
  -6   9  10   41.40   40.80   1
  -6   9 -10   53.70   40.00   1
   6  -9  10   43.60   39.80   1
   6   9  11    0.00   24.80   1
  -6  -9 -11    7.80   24.80   1
   6  -9 -11   -0.00   25.60   1
  -6   9  11   19.00   26.00   1
  -6   9 -11   37.00   24.90   1
   6  -9  11   20.40   24.60   1
   6   9  12   36.60   39.60   1
  -6  -9 -12   36.70   39.40   1
   6  -9 -12   34.90   39.80   1
  -6   9  12   22.70   40.10   1
  -6   9 -12   34.00   39.10   1
   6  -9  12   47.00   39.10   1
   6   9  13   54.00   37.80   1
  -6  -9 -13   58.90   37.60   1
   6  -9 -13    6.70   37.80   1
  -6   9  13    3.20   37.90   1
  -6   9 -13   36.90   37.00   1
   6  -9  13   32.50   37.00   1
   6   9  14   -0.00   25.80   1
  -6  -9 -14    2.60   25.80   1
   6  -9 -14   11.40   26.50   1
  -6   9  14   11.20   26.70   1
  -6   9 -14    9.10   25.20   1
   6  -9  14   51.70   25.40   1
   6  10   0  387.20  133.30   1
  -6 -10   0  444.60  133.40   1
   6 -10   0  354.50  133.80   1
  -6  10   0  413.70  134.20   1
   6  10   1   41.10   35.90   1
  -6 -10  -1   36.30   35.90   1
   6 -10  -1  134.20   38.20   1
  -6  10   1  102.40   38.10   1
  -6  10  -1   22.70   37.40   1
   6 -10   1   38.40   37.20   1
  -6 -10   1   17.20   35.90   1
   6  10  -1    6.20   35.80   1
   6  10   2   36.30   47.50   1
  -6 -10  -2   26.80   47.40   1
   6 -10  -2    9.10   48.80   1
  -6  10   2   27.60   48.50   1
  -6  10  -2  233.90   49.50   1
   6 -10   2  235.30   49.10   1
  -6 -10   2   51.70   47.50   1
   6  10  -2   66.40   47.60   1
   6  10   3   32.00   38.40   1
  -6 -10  -3   22.70   38.30   1
   6 -10  -3   34.80   40.40   1
  -6  10   3   55.90   40.20   1
  -6  10  -3   55.80   39.30   1
   6 -10   3   36.10   38.80   1
  -6 -10   3   40.60   38.40   1
   6  10  -3   38.40   38.40   1
   6  10   4  171.50   85.00   1
  -6 -10  -4  135.80   84.90   1
   6 -10  -4  210.30   86.20   1
  -6  10   4  203.20   85.90   1
  -6  10  -4  186.90   85.60   1
   6 -10   4  187.60   85.40   1
  -6 -10   4  183.40   85.20   1
   6  10  -4  165.70   85.00   1
   6  10   5  199.70   70.90   1
  -6 -10  -5   83.60   70.70   1
   6 -10  -5   65.80   71.60   1
  -6  10   5   50.50   71.20   1
  -6  10  -5  170.40   71.20   1
   6 -10   5  183.40   71.00   1
  -6 -10   5  137.80   70.90   1
   6  10  -5  105.60   70.80   1
   6  10   6   22.20   36.10   1
  -6 -10  -6   14.50   35.90   1
   6 -10  -6   37.70   37.50   1
  -6  10   6   41.00   37.00   1
  -6  10  -6   20.90   36.10   1
   6 -10   6   39.70   36.20   1
  -6 -10   6   41.90   36.30   1
   6  10  -6   52.00   36.20   1
   6  10   7  215.00   99.80   1
  -6 -10  -7  210.60   99.80   1
   6 -10  -7  167.30  100.50   1
  -6  10   7  226.90  100.40   1
  -6  10  -7  255.20  100.00   1
   6 -10   7  269.20   99.90   1
  -6 -10   7  574.00  106.50   1
   6  10  -7  328.90  101.20   1
   6  10   8   33.10   38.30   1
  -6 -10  -8    5.30   38.30   1
   6 -10  -8   23.60   39.90   1
  -6  10   8   84.20   40.00   1
  -6  10  -8  104.40   38.50   1
   6 -10   8   36.50   38.30   1
  -6 -10   8   17.00   38.20   1
   6  10  -8   31.20   38.30   1
  -6 -10  -9  306.70  102.20   1
   6 -10  -9   85.60  102.50   1
  -6  10   9  386.40  103.60   1
  -6  10  -9  269.00  102.10   1
   6 -10   9  283.00  102.10   1
   6  10  -9  259.00  104.70   1
   6  10  10  169.20   89.20   1
  -6 -10 -10  163.80   89.20   1
   6 -10 -10  231.70   90.30   1
  -6  10  10  222.50   90.10   1
  -6  10 -10  260.00   89.40   1
   6 -10  10  163.00   89.10   1
   6  10  11    1.70   34.10   1
  -6 -10 -11    9.00   34.10   1
   6 -10 -11   12.80   35.60   1
  -6  10  11   27.90   34.90   1
  -6  10 -11   74.20   34.10   1
   6 -10  11   37.90   33.90   1
   6  10  12  286.90   54.30   1
  -6 -10 -12  248.20   53.70   1
   6 -10 -12   31.60   53.30   1
  -6  10  12   56.60   53.10   1
  -6  10 -12   40.10   52.20   1
   6 -10  12   56.20   52.30   1
   6  10  13   23.50   38.00   1
  -6 -10 -13   12.50   37.90   1
   6 -10 -13   72.00   39.20   1
  -6  10  13   27.60   38.50   1
  -6  10 -13   23.80   37.60   1
   6 -10  13  199.60   38.80   1
   6  10  14   33.20   37.00   1
  -6 -10 -14   36.70   37.10   1
   6 -10 -14   31.00   37.80   1
  -6  10  14   51.90   37.60   1
  -6  10 -14   33.40   36.60   1
   6 -10  14   24.10   36.50   1
   6  11   0   41.50   44.30   1
  -6 -11   0   38.90   44.30   1
   6 -11   0   90.60   45.50   1
  -6  11   0   56.30   45.30   1
   6  11   1   50.30   49.70   1
  -6 -11  -1   57.90   49.80   1
   6 -11  -1  116.30   50.90   1
  -6  11   1   79.40   51.00   1
  -6  11  -1   73.50   50.50   1
   6 -11   1  122.60   50.50   1
  -6 -11   1   40.70   49.60   1
   6  11  -1   43.60   49.70   1
   6  11   2   69.40   54.40   1
  -6 -11  -2   55.10   54.40   1
   6 -11  -2   75.10   55.20   1
  -6  11   2   47.80   55.20   1
  -6  11  -2   88.40   54.80   1
   6 -11   2  284.90   55.50   1
  -6 -11   2   60.30   54.30   1
   6  11  -2   56.00   54.30   1
   6  11   3   20.70   45.10   1
  -6 -11  -3   56.10   45.30   1
   6 -11  -3   82.60   46.30   1
  -6  11   3   90.20   46.80   1
  -6  11  -3   12.90   45.20   1
   6 -11   3   30.50   45.20   1
  -6 -11   3  132.70   45.40   1
   6  11  -3   57.10   45.10   1
   6  11   4  178.80   63.30   1
  -6 -11  -4   80.90   63.00   1
   6 -11  -4   39.70   64.00   1
  -6  11   4   48.20   64.30   1
  -6  11  -4  146.70   63.40   1
   6 -11   4  247.90   63.70   1
  -6 -11   4   54.90   63.00   1
   6  11  -4   66.00   63.00   1
   6  11   5   43.00   42.40   1
  -6 -11  -5   38.30   42.40   1
   6 -11  -5   36.10   44.20   1
  -6  11   5   33.30   44.00   1
  -6  11  -5   74.70   42.70   1
   6 -11   5   60.50   42.50   1
  -6 -11   5   48.70   42.40   1
   6  11  -5   19.00   42.30   1
   6  11   6   41.10   59.40   1
  -6 -11  -6   84.10   59.60   1
   6 -11  -6  138.10   61.20   1
  -6  11   6  298.60   62.50   1
  -6  11  -6   72.90   59.60   1
   6 -11   6   51.00   59.60   1
  -6 -11   6  206.00   60.40   1
   6  11  -6  175.20   60.00   1
   6  11   7   61.50   41.70   1
  -6 -11  -7   37.70   41.60   1
   6 -11  -7   46.80   44.00   1
  -6  11   7   16.90   43.30   1
  -6  11  -7  103.40   41.80   1
   6 -11   7   90.40   41.70   1
  -6 -11   7   27.50   41.50   1
   6  11  -7   -0.00   41.30   1
   6  11   8  114.60   70.20   1
  -6 -11  -8  116.20   70.20   1
   6 -11  -8   74.70   71.30   1
  -6  11   8  153.20   71.60   1
  -6  11  -8  108.90   70.10   1
   6 -11   8  149.30   70.10   1
  -6 -11   8  161.10   70.90   1
   6  11  -8   91.50   70.20   1
   6  11   9   24.80   34.90   1
  -6 -11  -9   -0.00   34.70   1
   6 -11  -9   30.50   37.20   1
  -6  11   9   10.50   36.30   1
  -6  11  -9   51.60   34.90   1
   6 -11   9   38.00   34.70   1
  -6 -11   9   50.20   35.40   1
   6  11  -9   33.10   35.00   1
   6  11  10   85.90   29.30   1
  -6 -11 -10    8.80   28.70   1
   6 -11 -10    2.50   31.60   1
  -6  11  10   25.70   30.10   1
  -6  11 -10   16.40   28.40   1
   6 -11  10   10.80   28.50   1
   6  11 -10   11.20   28.60   1
   6  11  11   48.60   27.20   1
  -6 -11 -11   21.60   26.50   1
   6 -11 -11   22.60   29.10   1
  -6  11  11    5.10   27.40   1
  -6  11 -11   18.30   25.90   1
   6 -11  11   16.30   26.00   1
   6  11 -11   -0.00   26.00   1
   6  11  12   21.50   39.30   1
  -6 -11 -12   24.20   39.20   1
   6 -11 -12   18.20   40.90   1
  -6  11  12   24.50   40.10   1
  -6  11 -12   44.80   38.90   1
   6 -11  12   58.30   38.90   1
   6  11  13   22.90   29.80   1
  -6 -11 -13   16.80   29.70   1
   6 -11 -13   -0.00   32.10   1
  -6  11  13    4.50   30.40   1
  -6  11 -13   36.90   29.20   1
   6 -11  13   16.10   29.10   1
   6  12   0   96.40   65.30   1
  -6 -12   0   91.20   65.30   1
   6 -12   0   93.60   65.70   1
  -6  12   0  164.50   66.00   1
   6  12   1  204.10   99.30   1
  -6 -12  -1  170.20   99.20   1
   6 -12  -1  236.80   99.60   1
  -6  12   1  271.70   99.80   1
  -6  12  -1  577.50  100.80   1
   6 -12   1  426.80  100.10   1
  -6 -12   1  208.60   99.30   1
   6  12  -1  197.50   99.30   1
   6  12   2  108.50   78.10   1
  -6 -12  -2   94.00   78.10   1
   6 -12  -2  221.50   78.90   1
  -6  12   2  244.00   78.90   1
  -6  12  -2  121.00   78.40   1
   6 -12   2   95.10   78.30   1
  -6 -12   2  268.50   78.50   1
   6  12  -2  249.80   78.40   1
   6  12   3  200.10   54.00   1
  -6 -12  -3  111.50   53.90   1
   6 -12  -3   26.90   54.00   1
  -6  12   3   24.00   54.40   1
  -6  12  -3  108.30   53.90   1
   6 -12   3   38.90   53.80   1
  -6 -12   3   63.20   53.60   1
   6  12  -3   43.10   53.50   1
   6  12   4   49.70   51.20   1
  -6 -12  -4   58.80   51.30   1
   6 -12  -4  136.10   52.00   1
  -6  12   4  194.90   52.70   1
  -6  12  -4   73.00   51.40   1
   6 -12   4   46.80   51.20   1
  -6 -12   4   45.10   51.10   1
   6  12  -4   47.00   51.00   1
   6  12   5  101.80   65.00   1
  -6 -12  -5  124.20   65.10   1
   6 -12  -5   81.90   65.60   1
  -6  12   5  102.10   66.00   1
  -6  12  -5   57.80   64.90   1
   6 -12   5  110.40   65.00   1
  -6 -12   5  154.60   65.10   1
   6  12  -5  101.10   64.90   1
   6  12   6   35.20   39.90   1
  -6 -12  -6   71.40   40.10   1
   6 -12  -6   29.20   41.20   1
  -6  12   6   19.80   41.60   1
  -6  12  -6   25.10   39.90   1
   6 -12   6   53.10   39.90   1
  -6 -12   6   39.80   39.90   1
   6  12  -6   23.70   39.80   1
   6  12   7  553.70  156.90   1
  -6 -12  -7  798.20  157.90   1
   6 -12  -7  664.90  158.10   1
  -6  12   7  659.90  158.60   1
  -6  12  -7  708.10  157.80   1
   6 -12   7  649.70  157.40   1
  -6 -12   7  492.40  157.40   1
   6  12  -7  299.90  156.30   1
   6  12   8   -0.00   31.00   1
  -6 -12  -8   52.90   31.20   1
   6 -12  -8   10.90   32.90   1
  -6  12   8   18.60   34.30   1
  -6  12  -8   34.70   31.10   1
   6 -12   8   70.70   31.30   1
  -6 -12   8    1.10   31.10   1
   6  12  -8    4.10   31.00   1
   6  12   9   53.00   32.40   1
  -6 -12  -9    9.70   32.00   1
   6 -12  -9   45.20   34.70   1
  -6  12   9   56.50   35.80   1
  -6  12  -9   22.40   31.90   1
   6 -12   9   11.00   31.90   1
  -6 -12   9   39.10   32.20   1
   6  12  -9   18.00   31.90   1
   6  12  10   14.30   30.60   1
  -6 -12 -10   20.40   30.20   1
   6 -12 -10   27.10   32.60   1
  -6  12  10   16.10   33.20   1
  -6  12 -10   10.30   29.90   1
   6 -12  10   51.70   30.20   1
  -6 -12  10    4.30   30.20   1
   6  12 -10   32.30   30.20   1
   6  12  11   62.40   55.40   1
  -6 -12 -11   73.10   55.30   1
   6 -12 -11   57.20   56.70   1
  -6  12  11  104.90   57.30   1
  -6  12 -11   60.10   54.90   1
   6 -12  11  112.60   55.10   1
  -6 -12  11   62.40   55.50   1
   6  12 -11   67.20   55.30   1
   6  12  12   13.60   29.50   1
  -6 -12 -12   12.30   29.30   1
   6 -12 -12   55.20   32.70   1
  -6  12  12   40.90   31.90   1
  -6  12 -12   29.70   29.00   1
   6 -12  12   16.70   28.80   1
   6  12 -12   13.20   29.00   1
   6  12  13    8.50   24.90   1
  -6 -12 -13   22.50   24.90   1
   6 -12 -13   43.40   28.50   1
  -6  12  13   -0.20   26.50   1
  -6  12 -13   22.50   24.10   1
   6 -12  13   16.90   24.10   1
   6  12 -13   -0.00   24.10   1
   6  13   0  768.60  201.30   1
  -6 -13   0  785.20  201.30   1
   6 -13   0  899.00  201.70   1
  -6  13   0  871.00  201.70   1
   6  13   1   41.60   45.50   1
  -6 -13  -1   29.70   45.50   1
   6 -13  -1   95.50   45.90   1
  -6  13   1  101.30   46.10   1
  -6  13  -1   35.00   45.60   1
   6 -13   1   28.70   45.60   1
  -6 -13   1   43.80   45.40   1
   6  13  -1   64.40   45.50   1
   6  13   2 2539.00  413.80   1
  -6 -13  -2 2782.40  415.10   1
   6 -13  -2 1939.80  412.00   1
  -6  13   2 2220.00  413.80   1
  -6  13  -2 2985.00  416.70   1
   6 -13   2 3044.60  418.00   1
  -6 -13   2 2520.30  414.70   1
   6  13  -2 2916.10  415.90   1
   6  13   3   73.80   60.70   1
  -6 -13  -3   84.80   60.80   1
   6 -13  -3   72.00   60.90   1
  -6  13   3   84.30   61.20   1
  -6  13  -3  106.10   60.80   1
   6 -13   3   64.00   60.60   1
  -6 -13   3   96.40   60.60   1
   6  13  -3  129.00   60.60   1
   6  13   4  399.10  131.50   1
  -6 -13  -4  362.70  131.40   1
   6 -13  -4  394.90  131.70   1
  -6  13   4  565.80  132.50   1
  -6  13  -4  459.90  131.80   1
   6 -13   4  270.00  131.20   1
  -6 -13   4  480.30  131.80   1
   6  13  -4  400.00  131.60   1
   6  13   5  114.70   70.60   1
  -6 -13  -5  148.90   70.80   1
   6 -13  -5  105.80   71.00   1
  -6  13   5  132.70   71.40   1
  -6  13  -5  226.40   71.00   1
   6 -13   5  100.90   70.60   1
  -6 -13   5   96.40   70.50   1
   6  13  -5  103.30   70.50   1
   6  13   6  500.70  157.80   1
  -6 -13  -6  717.30  158.70   1
   6 -13  -6  579.70  158.70   1
  -6  13   6  565.70  158.70   1
  -6  13  -6  489.30  157.90   1
   6 -13   6  546.70  158.00   1
  -6 -13   6  498.40  158.30   1
   6  13  -6  509.70  158.20   1
   6  13   7  200.80  106.80   1
  -6 -13  -7  254.70  106.90   1
   6 -13  -7  230.00  107.30   1
  -6  13   7  277.40  107.70   1
  -6  13  -7  297.00  107.00   1
   6 -13   7  356.10  107.20   1
  -6 -13   7  368.10  107.70   1
   6  13  -7  247.90  107.00   1
   6  13   8   38.70   39.40   1
  -6 -13  -8   60.00   39.50   1
   6 -13  -8   33.90   40.30   1
  -6  13   8   36.00   40.80   1
  -6  13  -8   29.00   39.30   1
   6 -13   8   32.00   39.40   1
  -6 -13   8   35.50   39.40   1
   6  13  -8   34.20   39.20   1
   6  13   9   67.80   52.60   1
  -6 -13  -9  139.50   52.80   1
   6 -13  -9   31.80   52.90   1
  -6  13   9   21.70   53.30   1
  -6  13  -9  165.20   52.80   1
   6 -13   9   68.60   52.40   1
  -6 -13   9   67.20   52.50   1
   6  13  -9   30.60   52.20   1
   6  13  10  325.10   89.40   1
  -6 -13 -10  268.80   88.90   1
   6 -13 -10  104.70   88.90   1
  -6  13  10  103.20   89.10   1
  -6  13 -10  194.80   88.40   1
   6 -13  10  225.40   88.50   1
  -6 -13  10  126.30   88.40   1
   6  13 -10  243.00   89.20   1
   6  13  11  113.80   56.50   1
  -6 -13 -11  100.30   56.30   1
   6 -13 -11  102.00   57.20   1
  -6  13  11   53.20   57.50   1
  -6  13 -11   77.40   56.00   1
   6 -13  11   77.10   56.00   1
  -6 -13  11   50.60   56.10   1
   6  13 -11   52.40   55.90   1
   6  13  12   56.40   42.60   1
  -6 -13 -12   18.20   42.40   1
   6 -13 -12   17.10   43.80   1
  -6  13  12   24.40   44.60   1
  -6  13 -12   46.80   42.00   1
   6 -13  12   37.90   42.20   1
  -6 -13  12   80.30   43.20   1
   6  13 -12   72.60   42.60   1
   6  14   0   98.20   60.30   1
  -6 -14   0   82.50   60.20   1
   6 -14   0   96.90   60.30   1
  -6  14   0   74.20   60.30   1
   6  14   1  188.30   44.10   1
  -6 -14  -1  199.90   44.10   1
   6 -14  -1   17.30   43.60   1
  -6  14   1   18.10   43.60   1
  -6  14  -1   10.40   43.40   1
   6 -14   1   16.40   43.30   1
  -6 -14   1   37.50   43.40   1
   6  14  -1   45.70   43.40   1
   6  14   2   24.60   26.30   1
  -6 -14  -2   22.60   26.30   1
   6 -14  -2   -0.00   26.30   1
  -6  14   2   16.90   26.40   1
  -6  14  -2   23.50   26.30   1
   6 -14   2   30.80   26.40   1
  -6 -14   2    2.30   25.90   1
   6  14  -2   12.10   26.00   1
   6  14   3   22.40   40.90   1
  -6 -14  -3   41.40   41.10   1
   6 -14  -3  111.00   41.80   1
  -6  14   3   91.50   41.70   1
  -6  14  -3   22.40   41.00   1
   6 -14   3   28.00   40.90   1
  -6 -14   3   28.60   41.00   1
   6  14  -3   43.20   41.10   1
   6  14   4   42.00   30.30   1
  -6 -14  -4   55.30   30.40   1
   6 -14  -4   29.90   30.60   1
  -6  14   4   24.90   30.70   1
  -6  14  -4   12.60   30.00   1
   6 -14   4    9.40   30.10   1
  -6 -14   4   14.10   29.90   1
   6  14  -4    5.20   29.90   1
   6  14   5  105.40   69.10   1
  -6 -14  -5   78.00   69.20   1
   6 -14  -5  266.30   70.00   1
  -6  14   5  317.80   70.50   1
  -6  14  -5   88.10   69.10   1
   6 -14   5   81.20   69.10   1
  -6 -14   5   90.10   69.10   1
   6  14  -5  169.50   69.30   1
   6  14   6   51.30   53.50   1
  -6 -14  -6   63.10   53.60   1
   6 -14  -6   67.00   53.80   1
  -6  14   6  131.10   54.30   1
  -6  14  -6   70.00   53.70   1
   6 -14   6   59.00   53.60   1
  -6 -14   6   80.00   53.50   1
   6  14  -6   63.20   53.40   1
   6  14   7  105.80   72.10   1
  -6 -14  -7  102.10   72.10   1
   6 -14  -7  156.60   72.50   1
  -6  14   7  200.60   73.10   1
  -6  14  -7  124.70   72.10   1
   6 -14   7  117.70   72.20   1
  -6 -14   7  144.40   72.20   1
   6  14  -7  109.70   72.00   1
   6  14   8   20.00   34.30   1
  -6 -14  -8  116.80   35.00   1
   6 -14  -8    6.90   34.80   1
  -6  14   8   49.70   35.50   1
  -6  14  -8   23.80   34.20   1
   6 -14   8   51.70   34.50   1
  -6 -14   8    6.70   34.20   1
   6  14  -8   15.10   34.00   1
   6  14   9   43.90   36.50   1
  -6 -14  -9   28.00   36.30   1
   6 -14  -9   23.30   36.50   1
  -6  14   9   80.30   37.80   1
  -6  14  -9   18.80   35.90   1
   6 -14   9   88.70   36.30   1
  -6 -14   9    5.30   35.90   1
   6  14  -9   23.30   35.80   1
   6  14  10   -0.00   29.70   1
  -6 -14 -10   34.70   29.60   1
   6 -14 -10   28.10   30.20   1
  -6  14  10   35.50   30.80   1
  -6  14 -10   43.30   29.00   1
   6 -14  10    2.40   28.90   1
  -6 -14  10   25.30   29.20   1
   6  14 -10    9.50   28.90   1
   6  14  11   -0.00   22.90   1
  -6 -14 -11    3.00   22.70   1
   6 -14 -11   14.80   23.40   1
  -6  14  11   21.90   25.40   1
  -6  14 -11    0.00   21.90   1
   6 -14  11   26.90   22.30   1
  -6 -14  11   19.80   22.30   1
   6  14 -11   12.20   22.30   1
   6  14  12   -0.00   16.50   1
  -6 -14 -12   15.00   16.60   1
   6 -14 -12   11.10   17.80   1
  -6  14  12   18.80   19.70   1
  -6  14 -12   -0.00   15.20   1
   6 -14  12    0.00   15.50   1
  -6 -14  12    6.90   15.50   1
   6  15   0  252.30   95.70   1
  -6 -15   0  293.30   95.90   1
   6 -15   0  189.60   95.70   1
  -6  15   0  162.50   95.50   1
   6  15   1   49.30   41.70   1
  -6 -15  -1   54.30   41.70   1
   6 -15  -1   -0.00   41.40   1
  -6  15   1    5.30   41.70   1
  -6  15  -1   78.30   41.80   1
   6 -15   1   52.40   41.70   1
  -6 -15   1   70.50   41.60   1
   6  15  -1   39.40   41.60   1
   6  15   2   55.80   60.90   1
  -6 -15  -2   72.60   61.10   1
   6 -15  -2   83.70   61.00   1
  -6  15   2   86.80   61.00   1
  -6  15  -2   87.90   61.00   1
   6 -15   2   55.30   61.00   1
  -6 -15   2  204.00   61.40   1
   6  15  -2  130.80   61.10   1
   6  15   3   31.60   50.10   1
  -6 -15  -3   45.30   50.40   1
   6 -15  -3   61.20   50.50   1
  -6  15   3   73.20   50.70   1
  -6  15  -3   67.10   50.40   1
   6 -15   3  273.50   51.30   1
  -6 -15   3   49.30   50.20   1
   6  15  -3   51.50   50.20   1
   6  15   4  146.20   59.70   1
  -6 -15  -4  171.40   59.90   1
   6 -15  -4   55.10   59.60   1
  -6  15   4   74.90   59.70   1
  -6  15  -4   57.60   59.50   1
   6 -15   4   62.10   59.60   1
  -6 -15   4   81.40   59.50   1
   6  15  -4   81.20   59.50   1
   6  15   5   71.40   66.20   1
  -6 -15  -5  102.00   66.30   1
   6 -15  -5  124.00   66.60   1
  -6  15   5  142.80   66.80   1
  -6  15  -5   91.90   66.20   1
   6 -15   5   83.00   66.30   1
  -6 -15   5  139.10   66.40   1
   6  15  -5  123.50   66.20   1
   6  15   6   52.70   51.10   1
  -6 -15  -6   78.20   51.20   1
   6 -15  -6   87.20   51.60   1
  -6  15   6   63.80   51.60   1
  -6  15  -6   66.30   51.20   1
   6 -15   6   79.70   51.30   1
  -6 -15   6   53.30   51.10   1
   6  15  -6   41.60   50.90   1
   6  15   7   62.40   51.10   1
  -6 -15  -7  274.20   52.30   1
   6 -15  -7  118.30   51.70   1
  -6  15   7   98.70   51.70   1
  -6  15  -7   36.50   50.90   1
   6 -15   7   78.00   51.10   1
  -6 -15   7   30.10   50.80   1
   6  15  -7   35.40   50.80   1
   6  15   8    0.00   28.60   1
  -6 -15  -8   -0.00   28.60   1
   6 -15  -8   35.40   29.20   1
  -6  15   8  129.60   30.60   1
  -6  15  -8   20.00   28.50   1
   6 -15   8   89.20   29.00   1
  -6 -15   8    4.30   28.20   1
   6  15  -8    1.50   28.10   1
   6  15   9  122.70   51.90   1
  -6 -15  -9   72.40   51.50   1
   6 -15  -9   52.60   51.60   1
  -6  15   9   37.00   51.80   1
  -6  15  -9   74.80   51.30   1
   6 -15   9   43.50   51.20   1
  -6 -15   9   54.30   51.10   1
   6  15  -9   71.40   51.20   1
   6  15  10   69.60   34.10   1
  -6 -15 -10    8.70   33.60   1
   6 -15 -10   39.60   34.20   1
  -6  15  10   39.10   34.50   1
  -6  15 -10    8.00   33.20   1
   6 -15  10   65.60   33.70   1
  -6 -15  10   17.70   33.20   1
   6  15 -10   17.30   33.20   1
   6  15  11   15.10   28.90   1
  -6 -15 -11   14.10   28.60   1
   6 -15 -11   27.00   29.00   1
  -6  15  11   98.80   30.70   1
  -6  15 -11    1.30   28.00   1
   6 -15  11   20.10   28.40   1
  -6 -15  11   20.40   28.10   1
   6  16   0  254.50  113.00   1
  -6 -16   0  262.00  112.90   1
   6 -16   0  334.40  113.20   1
  -6  16   0  372.30  113.40   1
   6  16   1  284.10  121.00   1
  -6 -16  -1  340.60  121.20   1
   6 -16  -1  351.10  121.30   1
  -6  16   1  329.50  121.20   1
  -6  16  -1  344.60  121.20   1
   6 -16   1  306.40  121.00   1
  -6 -16   1  362.30  121.20   1
   6  16  -1  377.40  121.20   1
   6  16   2   50.00   55.80   1
  -6 -16  -2   76.40   55.90   1
   6 -16  -2   50.90   55.90   1
  -6  16   2   62.90   56.10   1
  -6  16  -2   68.30   55.80   1
   6 -16   2  102.50   56.10   1
  -6 -16   2   98.30   56.00   1
   6  16  -2  105.00   55.90   1
   6  16   3  734.50  159.90   1
  -6 -16  -3  676.00  159.80   1
   6 -16  -3  435.70  159.00   1
  -6  16   3  471.50  159.00   1
  -6  16  -3  569.90  159.20   1
   6 -16   3  473.50  158.90   1
  -6 -16   3  547.10  159.10   1
   6  16  -3  661.00  159.60   1
   6  16   4    6.70   33.30   1
  -6 -16  -4   21.90   33.50   1
   6 -16  -4   60.40   33.90   1
  -6  16   4   48.90   33.90   1
  -6  16  -4   25.20   33.20   1
   6 -16   4   19.70   33.20   1
  -6 -16   4   18.30   33.00   1
   6  16  -4   29.60   33.20   1
   6  16   5  132.10   83.50   1
  -6 -16  -5  133.50   83.50   1
   6 -16  -5  190.10   83.80   1
  -6  16   5  202.30   83.90   1
  -6  16  -5  209.10   83.70   1
   6 -16   5  146.20   83.60   1
  -6 -16   5  188.10   83.60   1
   6  16  -5  166.30   83.50   1
   6  16   6    9.60   28.40   1
  -6 -16  -6   27.00   28.70   1
   6 -16  -6   43.30   28.90   1
  -6  16   6   20.00   28.80   1
  -6  16  -6   71.70   29.20   1
   6 -16   6    0.00   28.30   1
  -6 -16   6    6.20   28.20   1
   6  16  -6   12.40   28.20   1
   6  16   7   72.90   67.40   1
  -6 -16  -7   69.70   67.40   1
   6 -16  -7   97.20   67.70   1
  -6  16   7  120.20   67.80   1
  -6  16  -7  158.90   67.70   1
   6 -16   7  173.90   67.70   1
  -6 -16   7  128.50   67.40   1
   6  16  -7  101.70   67.20   1
   6  16   8   55.20   32.80   1
  -6 -16  -8   46.40   32.50   1
   6 -16  -8   45.60   32.60   1
  -6  16   8    8.10   32.50   1
  -6  16  -8   29.50   32.00   1
   6 -16   8    0.90   31.90   1
  -6 -16   8   19.90   31.80   1
   6  16  -8   17.20   31.70   1
   6  16   9   26.70   46.70   1
  -6 -16  -9   47.30   46.30   1
   6 -16  -9  204.30   47.90   1
  -6  16   9   83.50   47.00   1
  -6  16  -9   47.70   46.00   1
   6 -16   9   58.10   46.30   1
  -6 -16   9   28.40   45.90   1
   6  16  -9   47.40   45.90   1
   6  16  10    7.60   27.80   1
  -6 -16 -10   11.50   28.10   1
   6 -16 -10   29.20   28.60   1
  -6  16  10   55.90   28.80   1
  -6  16 -10   20.30   27.10   1
   6 -16  10   30.30   27.50   1
  -6 -16  10   15.90   27.20   1
   6  16 -10   -0.20   27.10   1
   6  16  11   43.00   46.30   1
  -6 -16 -11   67.00   46.40   1
   6 -16 -11   53.10   46.40   1
  -6  16  11   35.50   46.50   1
   6 -16  11   52.30   45.90   1
  -6 -16  11   50.60   45.80   1
   6  17   0   84.30   56.90   1
  -6 -17   0   91.40   57.20   1
   6 -17   0   88.70   57.10   1
  -6  17   0   52.60   56.90   1
   6  17   1   15.70   32.40   1
  -6 -17  -1   15.80   32.50   1
   6 -17  -1   45.30   32.60   1
  -6  17   1   14.10   32.40   1
  -6  17  -1   23.00   32.50   1
   6 -17   1   18.50   32.70   1
  -6 -17   1   30.80   32.80   1
   6  17  -1   41.90   32.80   1
   6  17   2   83.80   55.30   1
  -6 -17  -2   87.40   55.30   1
   6 -17  -2   41.30   55.10   1
  -6  17   2   41.80   55.20   1
  -6  17  -2   53.80   55.30   1
   6 -17   2   85.50   55.40   1
  -6 -17   2  107.10   55.40   1
   6  17  -2  104.30   55.40   1
   6  17   3   55.00   37.20   1
  -6 -17  -3  102.80   37.40   1
   6 -17  -3   21.70   36.90   1
  -6  17   3   23.30   37.00   1
  -6  17  -3   28.40   37.00   1
   6 -17   3   20.20   37.10   1
  -6 -17   3   21.20   36.90   1
   6  17  -3   14.20   37.00   1
   6  17   4  107.80   39.90   1
  -6 -17  -4   27.30   39.50   1
   6 -17  -4   32.00   40.00   1
  -6  17   4   31.00   39.90   1
  -6  17  -4   30.10   39.60   1
   6 -17   4   49.40   39.70   1
  -6 -17   4   26.40   39.50   1
   6  17  -4   20.30   39.50   1
   6  17   5   20.20   30.80   1
  -6 -17  -5   24.50   30.90   1
   6 -17  -5   27.10   31.20   1
  -6  17   5   46.00   31.10   1
  -6  17  -5   26.30   31.00   1
   6 -17   5   31.60   30.90   1
  -6 -17   5    1.80   30.60   1
   6  17  -5   12.10   30.70   1
   6  17   6  129.90   52.50   1
  -6 -17  -6  111.30   52.40   1
   6 -17  -6   27.80   52.10   1
  -6  17   6   34.30   52.00   1
  -6  17  -6   88.50   52.20   1
   6 -17   6  137.30   52.40   1
  -6 -17   6   25.90   51.70   1
   6  17  -6   65.10   52.10   1
   6  17   7   -0.00   29.10   1
  -6 -17  -7   20.10   28.90   1
   6 -17  -7   26.70   29.20   1
  -6  17   7   26.10   29.20   1
  -6  17  -7   14.00   28.40   1
   6 -17   7    5.70   28.60   1
  -6 -17   7   45.50   28.60   1
   6  17  -7   15.20   28.40   1
   6  17   8   30.40   27.80   1
  -6 -17  -8   24.10   27.20   1
   6 -17  -8    9.30   27.40   1
  -6  17   8   23.00   27.40   1
  -6  17  -8    5.00   26.50   1
   6 -17   8   76.50   27.50   1
  -6 -17   8    8.70   26.60   1
   6  17  -8   -0.00   26.60   1
   6  17   9   20.20   28.90   1
  -6 -17  -9   26.30   28.70   1
   6 -17  -9   22.10   29.00   1
  -6  17   9   23.20   29.00   1
  -6  17  -9   24.40   28.30   1
   6 -17   9   10.80   28.50   1
  -6 -17   9   30.00   28.10   1
   6  17  -9   -1.50   28.10   1
   6  17  10    0.00   21.10   1
  -6 -17 -10   29.10   20.60   1
   6 -17 -10   24.30   20.60   1
  -6  17  10    0.00   20.50   1
   6 -17  10   -0.00   19.90   1
  -6 -17  10    3.60   19.20   1
   6  18   0  219.90   93.40   1
  -6 -18   0  217.10   93.50   1
   6 -18   0  148.70   93.30   1
  -6  18   0  266.90   93.70   1
   6  18   1   46.70   45.00   1
  -6 -18  -1   64.40   45.20   1
   6 -18  -1   31.90   45.40   1
  -6  18   1   18.70   45.20   1
  -6  18  -1  149.40   46.00   1
   6 -18   1   81.50   45.70   1
  -6 -18   1   28.10   45.10   1
   6  18  -1   36.00   45.10   1
   6  18   2   22.10   43.40   1
  -6 -18  -2   14.90   43.50   1
   6 -18  -2   61.50   43.60   1
  -6  18   2   34.70   43.50   1
  -6  18  -2  182.30   44.20   1
   6 -18   2   73.60   43.80   1
  -6 -18   2   27.30   43.50   1
   6  18  -2   33.30   43.50   1
   6  18   3   73.30   49.40   1
  -6 -18  -3   91.50   49.60   1
   6 -18  -3   18.60   49.40   1
  -6  18   3   35.60   49.50   1
  -6  18  -3   15.40   49.30   1
   6 -18   3   72.70   49.50   1
  -6 -18   3  101.60   49.70   1
   6  18  -3   94.20   49.50   1
   6  18   4   23.70   41.80   1
  -6 -18  -4  124.30   42.20   1
   6 -18  -4    6.70   41.80   1
  -6  18   4    0.90   41.60   1
  -6  18  -4   93.00   42.10   1
   6 -18   4   64.80   41.80   1
  -6 -18   4   14.10   41.50   1
   6  18  -4   74.30   41.80   1
   6  18   5   26.50   56.60   1
  -6 -18  -5   46.80   56.60   1
   6 -18  -5  138.40   57.20   1
  -6  18   5  119.10   57.00   1
  -6  18  -5  149.50   57.20   1
   6 -18   5  221.80   57.60   1
  -6 -18   5   67.30   56.70   1
   6  18  -5   42.80   56.50   1
   6  18   6    9.20   24.90   1
  -6 -18  -6   11.80   24.80   1
  -6  18   6   69.60   25.80   1
  -6  18  -6    5.60   24.60   1
   6 -18   6   18.10   24.90   1
  -6 -18   6    3.70   24.30   1
   6  18  -6    9.20   24.40   1
   6  18   7  212.20   91.00   1
  -6 -18  -7  420.00   92.20   1
   6 -18  -7  213.70   91.10   1
  -6  18   7  217.50   91.10   1
  -6  18  -7  112.10   90.40   1
   6 -18   7  178.40   90.70   1
  -6 -18   7  191.70   90.60   1
   6  18  -7  231.40   90.80   1
   6  18   8   -0.00   26.90   1
  -6 -18  -8   26.10   26.80   1
   6 -18  -8   39.10   26.90   1
  -6  18   8   -0.00   26.50   1
  -6  18  -8   16.10   26.30   1
   6 -18   8    8.80   26.50   1
  -6 -18   8   16.80   25.90   1
   6  18  -8   19.00   26.00   1
   6  18   9   70.00   58.00   1
  -6 -18  -9   63.00   57.80   1
   6 -18  -9   56.60   57.80   1
  -6  18   9  115.90   58.30   1
   6 -18   9   78.50   57.90   1
  -6 -18   9  109.60   57.70   1
   6  19   0   23.40   36.10   1
  -6 -19   0   33.70   36.50   1
   6 -19   0   34.00   36.50   1
  -6  19   0   34.30   36.50   1
   6  19   1   26.40   24.30   1
  -6 -19  -1   -0.00   24.80   1
   6 -19  -1   10.10   24.80   1
  -6  19   1   17.70   24.90   1
  -6  19  -1   11.70   24.70   1
   6 -19   1   12.50   24.30   1
  -6 -19   1   11.00   24.30   1
   6  19  -1   11.00   24.20   1
   6  19   2   29.60   36.70   1
  -6 -19  -2   30.60   36.80   1
   6 -19  -2   61.20   37.40   1
  -6  19   2   68.30   37.10   1
  -6  19  -2   16.80   36.90   1
   6 -19   2    8.80   36.70   1
  -6 -19   2   20.50   36.90   1
   6  19  -2   36.70   36.80   1
   6  19   3   23.70   33.10   1
  -6 -19  -3   18.50   32.80   1
   6 -19  -3   18.10   33.00   1
  -6  19   3    8.60   33.00   1
  -6  19  -3   34.50   33.00   1
   6 -19   3   32.20   32.90   1
  -6 -19   3   25.70   32.80   1
   6  19  -3   35.50   32.70   1
   6  19   4   14.40   33.50   1
  -6 -19  -4   -0.00   33.20   1
   6 -19  -4   17.20   33.40   1
  -6  19   4   15.20   33.40   1
  -6  19  -4    9.20   33.40   1
   6 -19   4   50.30   33.50   1
  -6 -19   4   77.50   33.90   1
   6  19  -4   46.40   33.40   1
   6  19   5    8.10   14.70   1
  -6 -19  -5   13.60   14.70   1
   6 -19  -5    1.00   14.70   1
  -6  19   5    5.00   14.40   1
  -6  19  -5   -0.00   13.60   1
   6 -19   5    0.70   14.10   1
  -6 -19   5   -0.00   14.10   1
   6  19  -5   -0.00   14.20   1
   6  19   6   30.90   43.90   1
  -6 -19  -6   33.80   43.80   1
   6 -19  -6   28.00   43.70   1
  -6  19   6   22.80   43.60   1
  -6  19  -6   30.50   43.30   1
   6 -19   6   73.10   43.80   1
  -6 -19   6   72.00   43.50   1
   6  19  -6   74.10   43.60   1
   6  19   7   20.70   19.30   1
  -6 -19  -7   11.70   18.20   1
   6 -19  -7    5.80   17.90   1
  -6  19   7   -0.00   18.30   1
  -6  19  -7   -0.00   17.10   1
   6 -19   7    1.00   18.10   1
  -6 -19   7   -0.10   17.00   1
   6  19  -7   14.20   17.20   1
   6  19   8   13.70   31.40   1
  -6 -19  -8   12.10   31.10   1
   6 -19  -8   18.20   31.00   1
  -6  19   8   18.90   31.10   1
   6 -19   8   29.20   30.90   1
  -6 -19   8   30.90   30.50   1
   6  20   0   50.00   46.30   1
  -6 -20   0   53.40   46.20   1
   6 -20   0   49.70   46.30   1
  -6  20   0   49.00   46.30   1
   6  20   1   44.50   37.40   1
  -6 -20  -1   43.50   37.20   1
   6 -20  -1   37.70   37.70   1
  -6  20   1   40.20   37.50   1
  -6  20  -1   36.80   37.50   1
   6 -20   1    4.00   37.20   1
  -6 -20   1   45.00   37.50   1
   6  20  -1   15.80   37.20   1
   6  20   2   16.00   26.00   1
  -6 -20  -2   -0.00   25.60   1
   6 -20  -2   12.50   26.00   1
  -6  20   2   -0.00   26.50   1
  -6  20  -2   34.60   25.90   1
   6 -20   2   51.10   26.10   1
  -6 -20   2   -0.10   26.00   1
   6  20  -2    7.10   25.70   1
   6  20   3   44.30   47.10   1
  -6 -20  -3   49.30   47.10   1
   6 -20  -3   73.70   47.30   1
  -6  20   3   63.80   47.20   1
  -6  20  -3   34.50   46.90   1
   6 -20   3   58.60   47.30   1
  -6 -20   3   47.80   47.00   1
   6  20  -3   59.00   47.20   1
   6  20   4   14.30   24.50   1
  -6 -20  -4   26.50   24.60   1
   6 -20  -4   12.40   24.50   1
  -6  20   4   14.60   24.60   1
  -6  20  -4    7.90   24.20   1
   6 -20   4    6.60   24.90   1
  -6 -20   4   10.80   24.40   1
   6  20  -4    9.90   24.50   1
   6  20   5   78.40   49.60   1
  -6 -20  -5   53.10   49.10   1
   6 -20  -5   34.90   49.10   1
  -6  20   5   36.10   49.20   1
  -6  20  -5   85.50   49.20   1
   6 -20   5   73.90   49.40   1
  -6 -20   5   43.00   49.00   1
   6  20  -5   70.50   49.20   1
   6  20   6   25.50   28.90   1
  -6 -20  -6   27.60   28.80   1
   6 -20  -6    8.20   28.40   1
  -6  20   6    6.10   28.70   1
   6 -20   6   16.20   28.60   1
  -6 -20   6   15.50   28.20   1
   6  20  -6   29.70   28.60   1
   6  20   7   51.30   55.70   1
  -6 -20  -7   49.50   55.70   1
   6 -20  -7  105.40   55.90   1
  -6  20   7  109.60   56.00   1
   6 -20   7   97.80   56.00   1
  -6 -20   7   58.70   55.50   1
   6  21   0  422.40  102.30   1
  -6 -21   0  594.30  103.80   1
   6 -21   0  166.50  100.90   1
  -6  21   0  185.90  101.10   1
   6  21   1   36.60   45.20   1
  -6 -21  -1   30.70   45.20   1
   6 -21  -1  127.90   45.70   1
  -6  21   1   97.40   45.50   1
  -6  21  -1   66.90   45.50   1
   6 -21   1   42.40   45.10   1
  -6 -21   1   28.10   45.00   1
   6  21  -1   22.50   44.90   1
   6  21   2  117.70   81.90   1
  -6 -21  -2  120.50   81.90   1
   6 -21  -2  255.90   82.70   1
  -6  21   2  282.80   82.80   1
  -6  21  -2  138.30   81.90   1
   6 -21   2  125.30   82.00   1
  -6 -21   2  206.80   82.20   1
   6  21  -2  164.00   81.90   1
   6  21   3   35.00   32.10   1
  -6 -21  -3   32.90   32.20   1
   6 -21  -3   17.40   32.60   1
  -6  21   3    0.00   32.50   1
  -6  21  -3    0.50   31.80   1
   6 -21   3    0.00   32.10   1
  -6 -21   3  131.40   33.10   1
   6  21  -3   28.80   32.00   1
   6  21   4  119.40   62.10   1
  -6 -21  -4   62.20   61.80   1
   6 -21  -4   79.00   62.20   1
  -6  21   4   58.00   62.10   1
  -6  21  -4   95.70   62.00   1
   6 -21   4  112.10   62.30   1
  -6 -21   4  147.30   62.40   1
   6  21  -4   90.90   62.00   1
   6  21   5   48.00   39.00   1
  -6 -21  -5   75.50   38.90   1
   6 -21  -5   36.40   38.90   1
  -6  21   5   38.90   38.60   1
   6 -21   5    9.20   38.20   1
  -6 -21   5   38.30   38.30   1
   6  21  -5   17.90   38.20   1
   6  21   6   82.90   50.60   1
  -6 -21  -6   50.80   50.20   1
   6 -21  -6   62.90   50.30   1
  -6  21   6   42.60   49.90   1
   6 -21   6   46.00   49.80   1
  -6 -21   6   80.40   50.00   1
   6  22   0    8.80   24.70   1
  -6 -22   0    9.80   25.30   1
   6 -22   0   21.50   25.10   1
  -6  22   0   13.60   25.20   1
   6  22   1   19.60   32.40   1
  -6 -22  -1   35.60   32.40   1
   6 -22  -1   35.00   32.50   1
  -6  22   1   76.70   33.00   1
  -6  22  -1    0.10   32.00   1
   6 -22   1    6.10   32.40   1
  -6 -22   1   22.40   32.10   1
   6  22  -1   19.70   32.20   1
   6  22   2   -0.50   13.50   1
  -6 -22  -2   -0.00   13.10   1
   6 -22  -2    0.00   13.10   1
  -6  22   2   -0.00   14.10   1
  -6  22  -2   -0.00   13.00   1
   6 -22   2   -0.10   14.20   1
  -6 -22   2   -0.00   13.40   1
   6  22  -2   22.70   13.90   1
   6  22   3    8.10   29.90   1
  -6 -22  -3   14.70   30.00   1
   6 -22  -3   16.00   29.80   1
  -6  22   3   -0.00   30.20   1
  -6  22  -3   27.80   29.90   1
   6 -22   3   57.10   30.40   1
  -6 -22   3   23.50   29.80   1
   6  22  -3   20.70   29.60   1
   6  22   4    6.20   20.70   1
  -6 -22  -4   11.80   19.60   1
   6 -22  -4   13.20   19.60   1
  -6  22   4   12.90   20.30   1
   6 -22   4    4.10   19.80   1
  -6 -22   4    4.40   19.50   1
   6  22  -4   -0.00   19.10   1
   7   0  13  385.70  132.70   1
   7   0  14   23.40   30.10   1
  -7   0 -14   20.40   30.10   1
   7   0  15   25.30   34.90   1
  -7   0 -15   38.90   35.10   1
   7   1  11   93.40   62.30   1
   7   1  12    9.30   17.80   1
  -7  -1 -12    5.80   17.70   1
   7   1  13    9.30   23.10   1
  -7  -1 -13   17.60   23.10   1
   7   1  14   21.20   26.90   1
  -7  -1 -14   13.90   27.00   1
   7   1  15   27.20   30.20   1
  -7  -1 -15   18.40   30.10   1
   7  -1  15   21.80   30.00   1
   7   2   9  248.90  104.10   1
   7   2  10  604.90   49.30   1
  -7  -2 -10   28.10   39.80   1
   7   2  11   12.20   23.30   1
  -7  -2 -11   14.10   23.40   1
   7   2  12   23.20   41.20   1
  -7  -2 -12  133.10   41.80   1
   7   2  13   36.70   42.50   1
  -7  -2 -13   56.00   42.60   1
   7   2  14   26.60   41.30   1
  -7  -2 -14   67.50   41.30   1
   7   2  15   15.80   22.00   1
  -7  -2 -15    8.50   21.90   1
   7   3   7  116.00   69.60   1
   7   3   8  196.30   96.80   1
  -7  -3  -8  293.80   97.80   1
   7   3   9  110.50   70.70   1
  -7  -3  -9  135.00   70.90   1
   7   3  10  161.00   65.70   1
  -7  -3 -10   77.20   65.40   1
   7   3  11   23.50   40.30   1
  -7  -3 -11   74.10   40.50   1
   7   3  12   16.90   23.00   1
  -7  -3 -12    9.10   22.90   1
   7   3  13   22.00   32.70   1
  -7  -3 -13   30.00   32.70   1
   7   3  14   70.90   43.00   1
  -7  -3 -14   32.40   42.70   1
   7   3  15   41.80   39.00   1
  -7  -3 -15   33.10   39.00   1
   7   4   5   26.90   33.40   1
   7   4   6   58.00   58.00   1
  -7  -4  -6  153.40   58.50   1
   7   4   7   69.20   46.70   1
  -7  -4  -7   38.60   46.70   1
   7   4   8  187.10   86.20   1
  -7  -4  -8  165.50   86.20   1
   7   4   9   -0.40   24.00   1
  -7  -4  -9   34.10   24.20   1
   7   4  10   24.90   40.00   1
  -7  -4 -10   61.20   40.10   1
   7   4  11    5.90   23.20   1
  -7  -4 -11   20.90   23.30   1
   7   4  12   45.20   47.90   1
  -7  -4 -12   67.60   47.90   1
   7   4  13   11.00   15.60   1
  -7  -4 -13    1.70   15.20   1
   7   4  14    8.90   26.60   1
  -7  -4 -14   25.10   26.60   1
   7   4  15    3.50   19.80   1
  -7  -4 -15   14.80   19.80   1
   7   5   3  245.10  101.60   1
  -7  -5  -3  226.70  101.90   1
   7   5   4   43.70   41.20   1
  -7  -5  -4   38.50   41.10   1
   7   5   5  759.80  196.70   1
  -7  -5  -5  826.60  197.30   1
   7   5   6  597.70  131.10   1
  -7  -5  -6  314.00  130.10   1
   7  -5  -6  301.30  133.60   1
   7   5   7  127.20   64.70   1
  -7  -5  -7   98.90   64.70   1
   7  -5  -7   56.20   65.20   1
   7   5   8  970.10  210.40   1
  -7  -5  -8  928.50  210.60   1
   7  -5  -8  515.00  214.60   1
   7   5   9  109.00   62.00   1
  -7  -5  -9  105.90   62.00   1
   7  -5  -9   39.50   62.40   1
   7   5  10   86.60   54.80   1
  -7  -5 -10   62.10   54.70   1
   7  -5 -10   74.00   55.80   1
   7   5  11  163.70   55.10   1
  -7  -5 -11   62.10   54.80   1
   7  -5 -11   23.80   55.20   1
   7   5  12   38.00   35.20   1
  -7  -5 -12   22.50   35.10   1
   7  -5 -12   35.10   35.90   1
   7   5  13   62.90   51.00   1
  -7  -5 -13   62.30   50.90   1
   7  -5 -13   67.20   52.10   1
   7   5  14  124.80   69.50   1
  -7  -5 -14  120.30   69.50   1
   7  -5 -14   74.40   70.30   1
   7   5  15  231.30   79.80   1
  -7  -5 -15  138.30   79.40   1
   7  -5 -15   77.00   80.20   1
   7  -6   0   15.70   18.40   1
  -7   6   0    0.00   18.00   1
   7   6   1   37.10   32.30   1
  -7  -6  -1   28.30   32.10   1
   7  -6  -1   28.10   32.80   1
  -7   6   1   24.70   32.90   1
  -7   6  -1    4.90   32.30   1
   7  -6   1   34.00   32.70   1
   7   6   2   46.40   42.50   1
  -7  -6  -2   57.90   42.60   1
   7  -6  -2   27.90   43.00   1
  -7   6   2   31.80   42.80   1
  -7   6  -2   60.10   42.70   1
   7  -6   2   32.60   42.60   1
   7   6   3   36.50   42.60   1
  -7  -6  -3   64.40   42.80   1
   7  -6  -3   35.00   43.20   1
  -7   6   3   28.90   43.10   1
  -7   6  -3   40.70   42.90   1
   7  -6   3   63.20   43.30   1
   7   6   4   52.00   32.40   1
  -7  -6  -4   40.90   32.40   1
   7  -6  -4    4.10   32.90   1
  -7   6   4    6.40   32.90   1
  -7   6  -4   11.30   32.40   1
   7  -6   4   20.70   32.80   1
   7   6   5   43.00   32.60   1
  -7  -6  -5   13.90   32.40   1
   7  -6  -5   15.00   33.10   1
  -7   6   5   11.40   33.00   1
  -7   6  -5   32.70   32.70   1
   7  -6   5   41.60   33.20   1
   7   6   6  127.70   42.10   1
  -7  -6  -6   78.20   42.00   1
   7  -6  -6   12.50   42.50   1
  -7   6   6   32.40   42.60   1
  -7   6  -6    6.90   41.80   1
   7  -6   6   25.10   42.30   1
   7   6   7   74.80   49.70   1
  -7  -6  -7   58.50   49.70   1
   7  -6  -7   52.40   50.50   1
  -7   6   7   27.30   50.20   1
  -7   6  -7   60.80   49.90   1
   7  -6   7   73.30   50.20   1
   7   6   8  152.00   73.30   1
  -7  -6  -8  156.00   73.30   1
   7  -6  -8  126.60   74.20   1
  -7   6   8  115.20   74.10   1
  -7   6  -8   70.70   73.30   1
   7  -6   8  142.30   73.80   1
   7   6   9   52.20   41.00   1
  -7  -6  -9   38.60   40.90   1
   7  -6  -9   39.70   42.10   1
  -7   6   9   56.60   42.00   1
  -7   6  -9   27.30   41.00   1
   7  -6   9   37.80   41.40   1
   7   6  10   48.30   35.10   1
  -7  -6 -10   26.50   34.90   1
   7  -6 -10   68.80   36.60   1
  -7   6  10    3.20   35.60   1
  -7   6 -10   19.40   34.90   1
   7  -6  10   35.40   35.40   1
   7   6  11   28.10   34.70   1
  -7  -6 -11   26.60   34.70   1
   7  -6 -11   18.90   35.70   1
  -7   6  11   26.70   35.70   1
   7  -6  11   46.80   35.20   1
   7   6  12   15.70   30.20   1
  -7  -6 -12   25.20   30.30   1
   7  -6 -12   24.50   32.00   1
  -7   6  12   10.90   30.90   1
   7  -6  12   37.60   30.60   1
   7   6  13    0.00   23.60   1
  -7  -6 -13   16.90   23.80   1
   7  -6 -13   19.50   25.40   1
  -7   6  13   26.10   24.70   1
   7  -6  13   20.40   23.90   1
   7   6  14   26.60   30.10   1
  -7  -6 -14   31.40   30.30   1
   7  -6 -14   51.00   32.10   1
  -7   6  14   27.10   30.90   1
   7  -6  14    1.90   30.10   1
   7   7   0   34.00   39.90   1
  -7  -7   0   43.00   39.90   1
   7  -7   0   44.30   41.20   1
  -7   7   0   33.30   41.10   1
   7   7   1  424.00  132.80   1
  -7  -7  -1  513.70  133.50   1
   7  -7  -1  422.40  133.50   1
  -7   7   1  451.70  133.80   1
  -7   7  -1  407.70  133.40   1
   7  -7   1  271.50  132.80   1
   7   7  -1  456.40  135.70   1
   7   7   2   40.80   43.70   1
  -7  -7  -2   27.30   43.70   1
   7  -7   2  232.10   46.20   1
   7   7   3  217.30   89.90   1
  -7  -7  -3  297.20   90.20   1
   7  -7  -3  141.70   90.80   1
  -7   7   3  138.90   90.70   1
  -7   7  -3  154.70   90.60   1
   7  -7   3  169.20   90.50   1
   7   7   4  152.30   80.70   1
  -7  -7  -4  118.70   80.60   1
   7  -7  -4  210.00   82.10   1
  -7   7   4  255.70   82.40   1
  -7   7  -4  227.60   81.80   1
   7  -7   4  151.50   81.40   1
   7   7   5  611.70  132.90   1
  -7  -7  -5  485.10  132.50   1
   7  -7  -5  337.00  133.10   1
  -7   7   5  432.30  133.80   1
  -7   7  -5  317.20  132.70   1
   7  -7   5  291.00  132.50   1
   7   7   6   45.30   46.70   1
  -7  -7  -6   57.70   46.80   1
   7  -7  -6   84.50   48.70   1
  -7   7   6   92.80   48.80   1
  -7   7  -6   62.80   47.70   1
   7  -7   6   32.00   47.20   1
   7   7   7   85.50   49.90   1
  -7  -7  -7   83.20   49.90   1
   7  -7  -7   77.50   51.60   1
  -7   7   7   42.00   51.20   1
  -7   7  -7   61.80   50.70   1
   7  -7   7    9.60   50.00   1
   7   7   8   32.90   30.90   1
  -7  -7  -8    8.40   30.70   1
   7  -7  -8   70.90   33.70   1
  -7   7   8   35.80   33.10   1
  -7   7  -8   56.20   32.10   1
   7  -7   8    5.40   31.10   1
   7   7   9   87.30   42.90   1
  -7  -7  -9   24.60   42.60   1
   7  -7  -9   71.30   45.00   1
  -7   7   9   24.50   44.40   1
  -7   7  -9   37.80   43.40   1
   7  -7   9   42.80   43.10   1
   7   7  10   37.90   43.80   1
  -7  -7 -10   45.90   43.70   1
   7  -7 -10   91.40   46.40   1
  -7   7  10   61.20   45.60   1
  -7   7 -10   56.30   44.50   1
   7  -7  10   38.20   43.90   1
   7   7  11   81.00   54.10   1
  -7  -7 -11   70.20   54.10   1
   7  -7 -11  106.20   56.30   1
  -7   7  11   58.90   55.50   1
  -7   7 -11   60.50   54.50   1
   7  -7  11   62.90   54.20   1
   7   7  12   36.00   46.50   1
  -7  -7 -12   56.40   46.70   1
   7  -7 -12   89.90   49.00   1
  -7   7  12  118.50   49.40   1
  -7   7 -12   53.00   47.10   1
   7  -7  12   54.60   46.70   1
   7   7  13   97.80   63.60   1
  -7  -7 -13   84.40   63.60   1
   7  -7 -13  115.20   65.80   1
  -7   7  13  123.80   65.50   1
  -7   7 -13  102.50   64.10   1
   7  -7  13   99.50   63.60   1
   7   7  14   16.70   26.60   1
  -7  -7 -14   12.40   26.60   1
   7  -7 -14   40.40   29.70   1
  -7   7  14    6.20   28.00   1
  -7   7 -14   37.40   27.00   1
   7  -7  14   11.10   26.30   1
   7   8   0   99.60   60.30   1
  -7  -8   0  167.50   60.50   1
   7  -8   0   33.90   60.60   1
  -7   8   0   56.00   60.90   1
   7   8   1  576.40  172.40   1
  -7  -8  -1  540.70  172.50   1
   7  -8  -1  750.00  174.00   1
  -7   8   1  547.70  172.90   1
  -7   8  -1  804.50  174.20   1
   7  -8   1  860.70  174.30   1
  -7  -8   1  658.00  173.90   1
   7   8  -1  615.90  173.20   1
   7   8   2  210.80   88.50   1
  -7  -8  -2  192.80   88.50   1
   7  -8  -2  172.20   89.20   1
  -7   8   2  157.50   88.90   1
  -7   8  -2  200.00   89.00   1
   7  -8   2  206.50   89.00   1
  -7  -8   2  155.20   88.80   1
   7   8  -2  163.50   88.80   1
   7   8   3 1017.90  223.20   1
  -7  -8  -3  976.70  223.10   1
   7  -8  -3 1045.60  224.80   1
  -7   8   3  739.60  223.10   1
  -7   8  -3 1104.00  224.80   1
   7  -8   3 1191.40  224.60   1
   7   8  -3  892.60  230.40   1
   7   8   4 1029.60  231.80   1
  -7  -8  -4 1074.70  232.20   1
   7  -8  -4 1164.30  234.70   1
  -7   8   4  802.30  232.40   1
  -7   8  -4 1019.40  233.10   1
   7  -8   4 1440.10  234.80   1
   7   8   5  304.20  107.70   1
  -7  -8  -5  246.00  107.50   1
   7  -8  -5  280.90  108.40   1
  -7   8   5  163.40  107.90   1
  -7   8  -5  344.40  108.30   1
   7  -8   5  381.90  108.30   1
   7   8   6   62.80   41.80   1
  -7  -8  -6   47.80   41.70   1
   7  -8  -6   26.80   42.70   1
  -7   8   6    5.80   42.50   1
  -7   8  -6   30.40   42.20   1
   7  -8   6   47.60   42.20   1
   7   8   7   37.20   41.70   1
  -7  -8  -7   50.50   41.60   1
   7  -8  -7   22.60   42.60   1
  -7   8   7   17.90   42.60   1
  -7   8  -7   13.60   41.80   1
   7  -8   7  144.00   42.40   1
   7   8   8  208.80   88.00   1
  -7  -8  -8  163.70   87.90   1
   7  -8  -8  120.80   88.60   1
  -7   8   8  153.90   88.80   1
  -7   8  -8  269.80   88.60   1
   7  -8   8  216.40   88.30   1
   7   8   9   31.80   33.00   1
  -7  -8  -9   32.00   33.00   1
   7  -8  -9   18.70   34.00   1
  -7   8   9   22.00   34.40   1
  -7   8  -9   11.30   33.10   1
   7  -8   9   34.50   33.30   1
   7   8  10  574.40  163.90   1
  -7  -8 -10  666.60  164.20   1
   7  -8 -10  488.70  165.20   1
  -7   8  10  410.00  164.80   1
  -7   8 -10  778.10  166.40   1
   7  -8  10  607.60  164.70   1
   7   8  11   35.00   45.40   1
  -7  -8 -11   54.70   45.50   1
   7  -8 -11   29.30   46.30   1
  -7   8  11   32.00   46.40   1
  -7   8 -11   69.50   45.60   1
   7  -8  11   74.60   45.90   1
   7   8  12   14.30   30.80   1
  -7  -8 -12   45.40   31.20   1
   7  -8 -12   31.10   32.10   1
  -7   8  12   13.70   32.30   1
  -7   8 -12   12.50   30.80   1
   7  -8  12   40.80   31.60   1
   7   8  13  337.80   91.70   1
  -7  -8 -13  145.70   90.80   1
   7  -8 -13  136.80   91.60   1
  -7   8  13  168.90   92.20   1
  -7   8 -13  229.50   91.40   1
   7  -8  13  278.80   91.80   1
   7   8  14   21.90   29.80   1
  -7  -8 -14   39.00   29.90   1
   7  -8 -14   20.50   31.50   1
  -7   8  14   15.90   31.70   1
  -7   8 -14   21.80   29.50   1
   7  -8  14    4.30   29.80   1
   7   9   0   16.40   26.60   1
  -7  -9   0   16.00   26.60   1
   7  -9   0   15.80   27.20   1
  -7   9   0   19.50   27.40   1
   7   9   1  101.70   58.70   1
  -7  -9  -1   94.70   58.60   1
   7  -9  -1   82.80   59.20   1
  -7   9   1  109.90   59.10   1
  -7   9  -1  124.90   59.20   1
   7  -9   1  132.50   59.20   1
  -7  -9   1   35.00   58.60   1
   7   9  -1   64.10   58.60   1
   7   9   2   24.70   30.40   1
  -7  -9  -2   43.20   30.40   1
   7  -9  -2   -0.00   30.90   1
  -7   9   2   -0.10   31.00   1
  -7   9  -2   28.10   30.90   1
   7  -9   2   71.50   31.30   1
  -7  -9   2    6.40   30.50   1
   7   9  -2   13.00   30.50   1
   7   9   3   22.70   46.70   1
  -7  -9  -3   30.50   46.80   1
   7  -9  -3   63.60   47.60   1
  -7   9   3   80.30   47.60   1
  -7   9  -3   60.40   47.50   1
   7  -9   3   47.80   47.30   1
  -7  -9   3  111.80   47.40   1
   7   9  -3  119.40   47.30   1
   7   9   4   68.80   45.00   1
  -7  -9  -4   96.80   45.10   1
   7  -9  -4  112.60   46.20   1
  -7   9   4   52.40   46.00   1
  -7   9  -4   -0.00   45.10   1
   7  -9   4   51.90   45.60   1
  -7  -9   4   23.50   45.00   1
   7   9  -4   36.00   45.10   1
   7   9   5   77.30   44.60   1
  -7  -9  -5   48.40   44.50   1
   7  -9  -5   33.80   45.30   1
  -7   9   5  227.80   46.50   1
  -7   9  -5   33.10   44.80   1
   7  -9   5   70.70   45.20   1
   7   9  -5    5.70   44.50   1
   7   9   6    9.30   31.10   1
  -7  -9  -6   13.40   31.00   1
   7  -9  -6   48.60   32.80   1
  -7   9  -6   86.70   31.90   1
   7  -9   6   14.00   31.70   1
   7   9   7   23.00   28.40   1
  -7  -9  -7    7.20   28.30   1
   7  -9  -7  100.40   30.60   1
  -7   9   7   55.70   30.60   1
  -7   9  -7    7.30   28.60   1
   7  -9   7    3.10   29.00   1
   7   9   8   49.20   42.50   1
  -7  -9  -8   21.30   42.40   1
   7  -9  -8   63.80   43.60   1
  -7   9   8  154.50   44.50   1
  -7   9  -8   33.30   42.70   1
   7  -9   8   45.70   43.40   1
   7   9   9   82.80   41.90   1
  -7  -9  -9   28.30   41.60   1
   7  -9  -9  139.90   43.50   1
  -7   9   9   32.90   42.70   1
  -7   9  -9    8.70   41.90   1
   7  -9   9   33.60   42.50   1
   7   9  10   22.30   40.70   1
  -7  -9 -10   26.00   40.70   1
   7  -9 -10   -0.20   41.40   1
  -7   9  10   34.60   41.80   1
  -7   9 -10  200.90   42.20   1
   7  -9  10  120.70   41.90   1
   7   9  11   17.30   30.70   1
  -7  -9 -11   12.70   30.80   1
   7  -9 -11   61.70   32.30   1
  -7   9  11    0.00   31.80   1
  -7   9 -11   57.60   31.60   1
   7  -9  11   19.70   31.30   1
   7   9  12   38.20   48.50   1
  -7  -9 -12   60.10   48.70   1
   7  -9 -12   29.10   49.20   1
  -7   9  12   45.00   49.50   1
  -7   9 -12   98.10   49.20   1
   7  -9  12   84.70   48.70   1
   7   9  13   11.70   31.20   1
  -7  -9 -13   24.30   31.30   1
   7  -9 -13   23.00   32.20   1
  -7   9  13    7.30   32.30   1
  -7   9 -13   23.40   31.80   1
   7  -9  13   42.90   31.20   1
   7   9  14   -0.00   19.90   1
  -7  -9 -14   -0.00   19.90   1
   7  -9 -14    1.30   21.20   1
  -7   9  14   -0.00   21.00   1
  -7   9 -14   26.60   21.00   1
   7  -9  14   23.50   19.70   1
   7  10   0  103.50   55.10   1
  -7 -10   0  121.90   55.20   1
   7 -10   0   35.50   55.60   1
  -7  10   0   13.00   55.40   1
   7  10   1   80.60   52.40   1
  -7 -10  -1   86.80   52.40   1
   7 -10  -1  125.70   53.50   1
  -7  10   1  156.90   53.30   1
  -7  10  -1   69.00   53.00   1
   7 -10   1   40.30   53.00   1
  -7 -10   1   43.20   52.40   1
   7  10  -1   31.10   52.30   1
   7  10   2   47.30   53.80   1
  -7 -10  -2   43.60   53.80   1
   7 -10  -2   66.70   54.60   1
  -7  10   2   82.10   54.60   1
  -7  10  -2   52.90   54.50   1
   7 -10   2   34.30   54.50   1
  -7 -10   2  201.90   54.50   1
   7  10  -2  299.50   54.90   1
   7  10   3  368.60  109.80   1
  -7 -10  -3  390.30  109.80   1
   7 -10  -3  363.60  110.30   1
  -7  10   3  430.90  110.50   1
  -7  10  -3  180.10  109.80   1
   7 -10   3  187.20  110.00   1
  -7 -10   3  314.40  109.90   1
   7  10  -3  208.20  109.50   1
   7  10   4  199.20   86.70   1
  -7 -10  -4  158.50   86.60   1
   7 -10  -4  178.30   87.20   1
  -7  10   4  178.60   87.10   1
  -7  10  -4  184.40   87.30   1
   7 -10   4  304.90   88.20   1
  -7 -10   4  133.80   86.80   1
   7  10  -4  184.00   86.90   1
   7  10   5   -0.00   34.10   1
  -7 -10  -5   17.00   34.10   1
   7 -10  -5    8.00   35.00   1
  -7  10   5   50.60   35.10   1
  -7  10  -5   76.50   35.90   1
   7 -10   5   53.30   36.20   1
  -7 -10   5   50.10   34.70   1
   7  10  -5   72.30   34.80   1
   7  10   6  143.80   74.80   1
  -7 -10  -6  128.10   74.70   1
   7 -10  -6  115.90   75.10   1
  -7  10   6  183.80   75.40   1
  -7  10  -6  115.00   75.40   1
   7 -10   6  121.00   75.60   1
  -7 -10   6  123.00   75.30   1
   7  10  -6  147.80   75.30   1
   7  10   7  193.50   82.10   1
  -7 -10  -7  197.60   82.20   1
   7 -10  -7   99.70   82.40   1
  -7  10   7  165.70   82.60   1
  -7  10  -7  178.60   82.90   1
   7 -10   7  131.20   82.60   1
   7  10  -7  132.80   82.70   1
   7  10   8  109.70   50.20   1
  -7 -10  -8   53.70   50.00   1
   7 -10  -8   46.80   50.70   1
  -7  10   8   31.40   50.50   1
  -7  10  -8   31.80   50.70   1
   7 -10   8   76.40   50.40   1
   7  10   9   23.30   33.50   1
  -7 -10  -9   40.30   33.70   1
   7 -10  -9   19.00   34.40   1
  -7  10   9   21.80   34.30   1
  -7  10  -9   26.30   34.50   1
   7 -10   9   24.90   33.80   1
   7  10  10   58.50   38.00   1
  -7 -10 -10   25.90   38.00   1
   7 -10 -10   21.10   38.80   1
  -7  10  10   28.70   38.90   1
  -7  10 -10   13.10   38.60   1
   7 -10  10   44.10   38.10   1
   7  10  11   42.80   40.40   1
  -7 -10 -11   50.90   40.70   1
   7 -10 -11   10.60   41.00   1
  -7  10  11   25.60   41.20   1
  -7  10 -11   55.80   41.10   1
   7 -10  11   42.10   40.40   1
   7  10  12  101.00   33.00   1
  -7 -10 -12   20.10   32.30   1
   7 -10 -12   14.90   32.80   1
  -7  10  12   16.10   33.20   1
  -7  10 -12   24.00   32.60   1
   7 -10  12   12.60   32.00   1
   7  10  13   73.90   53.90   1
  -7 -10 -13   44.90   53.70   1
   7 -10 -13   38.90   54.10   1
  -7  10  13  129.40   55.50   1
  -7  10 -13   86.00   54.00   1
   7 -10  13   92.60   53.70   1
   7  11   0    7.60   30.60   1
  -7 -11   0   14.20   30.80   1
   7 -11   0   64.30   33.10   1
  -7  11   0  109.40   33.30   1
   7  11   1   24.70   43.20   1
  -7 -11  -1   28.50   43.30   1
   7 -11  -1   64.20   44.80   1
  -7  11   1   77.20   45.00   1
  -7  11  -1   33.30   44.80   1
   7 -11   1   56.20   45.00   1
  -7 -11   1   84.40   43.50   1
   7  11  -1   51.50   43.30   1
   7  11   2   52.30   47.50   1
  -7 -11  -2   43.90   47.60   1
   7 -11  -2   59.00   49.10   1
  -7  11   2   48.40   48.90   1
  -7  11  -2   65.50   48.90   1
   7 -11   2   25.50   48.50   1
  -7 -11   2   93.50   47.80   1
   7  11  -2   53.90   47.70   1
   7  11   3   21.40   35.40   1
  -7 -11  -3   32.70   35.40   1
   7 -11  -3   82.10   37.30   1
  -7  11   3   44.90   36.80   1
  -7  11  -3   48.20   37.20   1
   7 -11   3   28.50   36.50   1
  -7 -11   3   16.70   35.30   1
   7  11  -3   26.80   35.30   1
   7  11   4   21.50   47.40   1
  -7 -11  -4   24.60   47.50   1
   7 -11  -4   23.50   48.90   1
  -7  11   4   39.20   48.30   1
  -7  11  -4   72.80   49.00   1
   7 -11   4  139.20   48.90   1
  -7 -11   4  106.00   47.90   1
   7  11  -4  160.20   48.10   1
   7  11   5  105.30   52.90   1
  -7 -11  -5   77.70   52.90   1
   7 -11  -5   59.20   53.80   1
  -7  11   5   56.60   53.40   1
  -7  11  -5   31.50   53.50   1
   7 -11   5   75.90   53.60   1
  -7 -11   5   57.10   52.90   1
   7  11  -5   58.10   52.90   1
   7  11   6   31.90   34.00   1
  -7 -11  -6   29.70   33.90   1
   7 -11  -6   50.90   35.60   1
  -7  11   6   23.90   34.90   1
  -7  11  -6   12.90   34.80   1
   7 -11   6   34.20   34.50   1
  -7 -11   6   24.20   33.90   1
   7  11  -6   20.20   34.00   1
   7  11   7   99.00   49.10   1
  -7 -11  -7   48.00   48.90   1
   7 -11  -7   15.60   49.90   1
  -7  11   7   21.30   49.40   1
  -7  11  -7   81.20   49.70   1
   7 -11   7   79.40   49.20   1
  -7 -11   7   57.80   49.40   1
   7  11  -7   50.70   49.00   1
   7  11   8   49.00   42.90   1
  -7 -11  -8   61.40   42.90   1
   7 -11  -8   37.80   44.20   1
  -7  11   8   30.50   43.40   1
  -7  11  -8   35.40   43.20   1
   7 -11   8  156.50   43.50   1
  -7 -11   8    9.60   42.70   1
   7  11  -8   36.50   42.90   1
   7  11   9    6.50   25.20   1
  -7 -11  -9   16.00   25.50   1
   7 -11  -9   36.20   27.30   1
  -7  11   9   13.30   26.80   1
  -7  11  -9   34.70   25.70   1
   7 -11   9   10.70   25.20   1
   7  11  -9    7.50   25.20   1
   7  11  10   34.20   45.80   1
  -7 -11 -10   54.70   46.10   1
   7 -11 -10   60.40   46.90   1
  -7  11  10   71.90   46.80   1
  -7  11 -10   38.70   45.90   1
   7 -11  10   64.50   45.90   1
   7  11  11   29.10   35.20   1
  -7 -11 -11   53.50   35.40   1
   7 -11 -11   48.30   36.30   1
  -7  11  11   44.90   36.00   1
  -7  11 -11   15.80   35.00   1
   7 -11  11   18.70   34.90   1
   7  11  12   -0.00   26.90   1
  -7 -11 -12   12.40   26.80   1
   7 -11 -12   59.40   28.60   1
  -7  11  12   22.30   27.80   1
  -7  11 -12   18.50   26.80   1
   7 -11  12   19.90   26.70   1
   7  11  13   23.10   32.40   1
  -7 -11 -13   16.10   32.30   1
   7 -11 -13   26.10   33.20   1
  -7  11  13   25.90   33.40   1
  -7  11 -13   42.70   32.30   1
   7 -11  13   19.90   31.90   1
   7  12   0   68.90   48.30   1
  -7 -12   0   42.90   48.20   1
   7 -12   0   50.30   49.10   1
  -7  12   0   81.50   50.00   1
   7  12   1  213.90  103.80   1
  -7 -12  -1  230.80  103.90   1
   7 -12  -1  197.00  104.60   1
  -7  12   1  254.10  105.00   1
  -7  12  -1  288.60  104.80   1
   7 -12   1  362.10  104.90   1
  -7 -12   1  288.00  104.10   1
   7  12  -1  267.90  103.90   1
   7  12   2  148.30   74.40   1
  -7 -12  -2  145.70   74.40   1
   7 -12  -2   89.50   75.20   1
  -7  12   2  115.80   75.60   1
  -7  12  -2  151.60   75.20   1
   7 -12   2  164.40   75.00   1
  -7 -12   2  125.30   74.40   1
   7  12  -2  114.40   74.40   1
   7  12   3   36.30   47.10   1
  -7 -12  -3   37.40   47.10   1
   7 -12  -3  124.90   49.50   1
  -7  12   3  156.20   49.70   1
  -7  12  -3   94.90   48.30   1
   7 -12   3   75.00   47.80   1
  -7 -12   3   57.40   47.30   1
   7  12  -3   33.40   47.10   1
   7  12   4 1225.20  206.10   1
  -7 -12  -4 1196.40  206.00   1
   7 -12  -4  790.60  205.50   1
  -7  12   4 1089.70  207.10   1
  -7  12  -4  993.00  205.50   1
   7 -12   4  533.90  203.70   1
  -7 -12   4  874.10  205.20   1
   7  12  -4  887.40  205.30   1
   7  12   5   76.30   42.70   1
  -7 -12  -5   37.10   42.50   1
   7 -12  -5   16.50   44.70   1
  -7  12   5   21.70   44.50   1
  -7  12  -5   -0.00   42.80   1
   7 -12   5  103.70   43.10   1
  -7 -12   5  110.30   43.00   1
   7  12  -5   15.30   42.30   1
   7  12   6  109.60   46.60   1
  -7 -12  -6   71.30   46.40   1
   7 -12  -6  152.50   49.60   1
  -7  12   6   37.40   47.70   1
  -7  12  -6   35.80   46.40   1
   7 -12   6   95.10   46.60   1
  -7 -12   6   35.90   46.20   1
   7  12  -6    8.70   46.00   1
   7  12   7   23.90   34.50   1
  -7 -12  -7   61.90   34.60   1
   7 -12  -7   28.90   37.10   1
  -7  12   7    9.00   35.70   1
  -7  12  -7   26.90   34.60   1
   7 -12   7   34.00   34.50   1
  -7 -12   7   19.80   34.40   1
   7  12  -7   19.40   34.30   1
   7  12   8   43.30   49.80   1
  -7 -12  -8   35.40   49.70   1
   7 -12  -8  138.50   52.40   1
  -7  12   8   71.50   50.90   1
  -7  12  -8   78.20   50.00   1
   7 -12   8   59.20   49.90   1
  -7 -12   8   45.40   49.90   1
   7  12  -8  144.00   50.70   1
   7  12   9   37.90   41.10   1
  -7 -12  -9   40.40   41.20   1
   7 -12  -9   79.90   43.40   1
  -7  12   9   33.00   42.00   1
  -7  12  -9   43.70   41.20   1
   7 -12   9   38.40   41.00   1
  -7 -12   9   93.20   42.30   1
   7  12  -9   22.00   41.10   1
   7  12  10  100.40   76.50   1
  -7 -12 -10  193.10   76.80   1
   7 -12 -10  126.20   77.60   1
  -7  12  10  106.40   77.20   1
  -7  12 -10  167.40   76.70   1
   7 -12  10  193.50   76.70   1
  -7 -12  10  134.10   78.00   1
   7  12 -10  107.60   77.00   1
   7  12  11   33.50   24.80   1
  -7 -12 -11    6.20   24.40   1
   7 -12 -11   17.90   27.10   1
  -7  12  11    5.50   25.80   1
  -7  12 -11   53.50   24.80   1
   7 -12  11   -0.00   24.20   1
   7  12 -11    4.00   24.30   1
   7  12  12   25.50   35.90   1
  -7 -12 -12   25.50   36.00   1
   7 -12 -12   33.40   37.70   1
  -7  12  12    9.70   36.80   1
  -7  12 -12   41.80   35.80   1
   7 -12  12   38.00   35.80   1
   7  12  13   31.70   35.80   1
  -7 -12 -13   42.10   35.80   1
   7 -12 -13   34.30   37.10   1
  -7  12  13   43.70   36.50   1
  -7  12 -13   39.00   35.40   1
   7 -12  13   12.10   35.20   1
   7  13   0   38.80   38.80   1
  -7 -13   0   36.20   38.80   1
   7 -13   0   37.30   39.80   1
  -7  13   0   27.60   40.10   1
   7  13   1 1412.70  285.40   1
  -7 -13  -1 1574.60  286.20   1
   7 -13  -1 1636.70  287.50   1
  -7  13   1 2056.80  290.00   1
  -7  13  -1 2046.40  289.90   1
   7 -13   1 1831.80  288.70   1
  -7 -13   1 1162.90  285.00   1
   7  13  -1 1089.40  284.70   1
   7  13   2  353.80  122.30   1
  -7 -13  -2  256.10  122.00   1
   7 -13  -2  425.40  123.20   1
  -7  13   2  365.00  123.10   1
  -7  13  -2  357.00  122.70   1
   7 -13   2  337.00  122.50   1
  -7 -13   2  390.30  122.50   1
   7  13  -2  369.00  122.40   1
   7  13   3  189.80   80.90   1
  -7 -13  -3  148.30   80.80   1
   7 -13  -3  131.40   81.60   1
  -7  13   3  144.60   82.00   1
  -7  13  -3  146.70   81.10   1
   7 -13   3  172.90   81.00   1
  -7 -13   3  164.40   80.80   1
   7  13  -3  137.60   80.70   1
   7  13   4  595.40  152.10   1
  -7 -13  -4  635.30  152.40   1
   7 -13  -4  529.00  152.80   1
  -7  13   4  603.30  153.50   1
  -7  13  -4  453.70  151.90   1
   7 -13   4  374.90  151.60   1
  -7 -13   4  495.80  152.20   1
   7  13  -4  534.40  152.20   1
   7  13   5  535.20  151.40   1
  -7 -13  -5  538.60  151.40   1
   7 -13  -5  513.90  152.20   1
  -7  13   5  553.20  152.90   1
  -7  13  -5  349.80  151.00   1
   7 -13   5  676.20  152.00   1
  -7 -13   5  512.20  151.80   1
   7  13  -5  532.20  151.80   1
   7  13   6  195.70   89.90   1
  -7 -13  -6  197.20   89.90   1
   7 -13  -6  230.90   91.40   1
  -7  13   6  288.10   92.00   1
  -7  13  -6  197.10   89.90   1
   7 -13   6  186.70   90.00   1
  -7 -13   6  185.10   89.90   1
   7  13  -6  144.00   89.80   1
   7  13   7   12.60   41.90   1
  -7 -13  -7   40.10   42.10   1
   7 -13  -7   26.40   44.60   1
  -7  13   7   24.70   44.60   1
  -7  13  -7   36.30   42.10   1
  -7 -13   7  256.50   44.30   1
   7  13  -7   82.30   42.40   1
   7  13   8  263.40  103.50   1
  -7 -13  -8  284.20  103.70   1
   7 -13  -8  294.70  105.30   1
  -7  13   8  251.80  105.10   1
  -7  13  -8  266.00  103.60   1
   7 -13   8  236.20  103.50   1
  -7 -13   8  222.90  103.90   1
   7  13  -8  192.20  103.60   1
   7  13   9  218.40   90.10   1
  -7 -13  -9  265.80   90.30   1
   7 -13  -9  186.10   91.80   1
  -7  13   9  392.70   92.90   1
  -7  13  -9  222.70   90.10   1
   7 -13   9  131.20   89.70   1
  -7 -13   9  164.90   90.40   1
   7  13  -9  150.20   90.10   1
   7  13  10  192.10   66.10   1
  -7 -13 -10   73.70   65.60   1
   7 -13 -10   94.50   67.30   1
  -7  13  10   74.10   66.90   1
  -7  13 -10   97.90   65.50   1
   7 -13  10   89.80   65.50   1
  -7 -13  10  124.70   66.50   1
   7  13 -10  164.80   66.60   1
   7  13  11   53.40   48.90   1
  -7 -13 -11   65.70   48.80   1
   7 -13 -11   35.00   50.30   1
  -7  13  11   31.50   49.90   1
  -7  13 -11   37.90   48.50   1
   7 -13  11  186.20   49.20   1
  -7 -13  11  100.80   50.00   1
   7  13 -11   35.90   48.70   1
   7  13  12   13.00   23.00   1
  -7 -13 -12    6.00   22.90   1
   7 -13 -12   34.10   26.70   1
  -7  13  12   -0.00   24.40   1
  -7  13 -12   13.30   22.40   1
   7 -13  12   12.10   22.40   1
   7  14   0   51.70   44.20   1
  -7 -14   0   65.80   44.30   1
   7 -14   0   38.60   44.40   1
  -7  14   0   29.40   44.30   1
   7  14   1    6.50   40.90   1
  -7 -14  -1    5.10   40.80   1
   7 -14  -1   79.90   41.80   1
  -7  14   1   50.50   41.90   1
  -7  14  -1  160.20   42.20   1
   7 -14   1  222.80   42.30   1
  -7 -14   1   30.10   41.00   1
   7  14  -1   27.80   41.10   1
   7  14   2   32.20   52.00   1
  -7 -14  -2   35.50   52.10   1
   7 -14  -2   80.60   52.80   1
  -7  14   2  123.20   53.20   1
  -7  14  -2   90.90   52.50   1
   7 -14   2   62.90   52.40   1
  -7 -14   2  105.70   52.20   1
   7  14  -2   59.50   52.00   1
   7  14   3  136.30   82.60   1
  -7 -14  -3  172.20   82.60   1
   7 -14  -3  154.60   83.00   1
  -7  14   3  167.80   83.20   1
  -7  14  -3  166.00   82.80   1
   7 -14   3  160.20   82.70   1
  -7 -14   3  212.50   82.70   1
   7  14  -3  142.30   82.40   1
   7  14   4  118.10   45.80   1
  -7 -14  -4   61.90   45.70   1
   7 -14  -4  147.00   47.10   1
  -7  14   4  240.90   47.90   1
  -7  14  -4   23.50   45.40   1
   7 -14   4   32.90   45.60   1
  -7 -14   4   20.60   45.30   1
   7  14  -4   24.10   45.30   1
   7  14   5   22.30   35.40   1
  -7 -14  -5   46.60   35.60   1
   7 -14  -5   -0.00   36.60   1
  -7  14   5    6.20   36.80   1
  -7  14  -5   60.90   35.80   1
   7 -14   5  104.20   35.80   1
  -7 -14   5   18.90   35.20   1
   7  14  -5    3.40   35.10   1
   7  14   6   10.10   40.30   1
  -7 -14  -6   30.40   40.50   1
   7 -14  -6  145.20   42.10   1
  -7  14   6  254.70   44.00   1
  -7  14  -6   62.20   40.50   1
   7 -14   6   32.90   40.30   1
  -7 -14   6    0.00   40.20   1
   7  14  -6   57.80   40.50   1
   7  14   7   16.20   21.70   1
  -7 -14  -7   18.80   22.10   1
   7 -14  -7   14.70   24.20   1
  -7  14   7    6.60   24.80   1
  -7  14  -7    5.40   21.80   1
   7 -14   7   18.10   21.70   1
  -7 -14   7   -5.90   21.70   1
   7  14  -7   11.00   21.60   1
   7  14   8   34.40   45.70   1
  -7 -14  -8   26.70   45.60   1
   7 -14  -8   73.10   47.30   1
  -7  14   8  116.30   47.90   1
  -7  14  -8   71.70   45.70   1
   7 -14   8  101.30   45.80   1
  -7 -14   8   57.30   45.80   1
   7  14  -8   15.50   45.50   1
   7  14   9   -0.00   24.90   1
  -7 -14  -9   15.10   24.80   1
   7 -14  -9   24.30   27.50   1
  -7  14   9   -0.00   28.20   1
  -7  14  -9    7.30   24.50   1
   7 -14   9   10.20   24.50   1
  -7 -14   9   26.60   24.90   1
   7  14  -9   31.00   24.90   1
   7  14  10   12.30   31.60   1
  -7 -14 -10   29.10   31.60   1
   7 -14 -10   62.30   34.90   1
  -7  14  10   22.80   34.30   1
  -7  14 -10   30.90   31.40   1
   7 -14  10   13.20   31.30   1
  -7 -14  10   28.90   31.60   1
   7  14 -10   19.40   31.50   1
   7  14  11   15.30   32.40   1
  -7 -14 -11   38.50   32.60   1
   7 -14 -11   38.20   35.00   1
  -7  14  11   17.90   35.00   1
  -7  14 -11   33.90   32.20   1
   7 -14  11   16.30   32.10   1
  -7 -14  11   31.60   32.40   1
   7  14 -11   16.90   32.20   1
   7  14  12   20.00   28.10   1
  -7 -14 -12   17.50   27.70   1
   7 -14 -12   18.00   30.50   1
  -7  14  12   -0.00   30.30   1
  -7  14 -12    9.20   27.30   1
   7 -14  12   33.00   27.40   1
  -7 -14  12   13.50   27.60   1
   7  15   0   -0.00   22.90   1
  -7 -15   0   -0.00   22.90   1
   7 -15   0   23.30   23.40   1
  -7  15   0   43.90   24.10   1
   7  15   1  198.20   85.20   1
  -7 -15  -1  174.10   85.00   1
   7 -15  -1  177.20   85.20   1
  -7  15   1  194.90   85.50   1
  -7  15  -1  170.40   85.20   1
   7 -15   1  227.40   85.30   1
  -7 -15   1  137.10   84.90   1
   7  15  -1  140.00   84.90   1
   7  15   2   96.60   68.40   1
  -7 -15  -2  123.80   68.50   1
   7 -15  -2  250.40   69.40   1
  -7  15   2  372.50   70.20   1
  -7  15  -2   93.00   68.60   1
   7 -15   2   87.40   68.50   1
  -7 -15   2   67.20   68.30   1
   7  15  -2  115.00   68.50   1
   7  15   3  231.10   81.30   1
  -7 -15  -3  201.40   81.20   1
   7 -15  -3  120.40   81.30   1
  -7  15   3  183.60   81.50   1
  -7  15  -3  159.80   81.10   1
   7 -15   3  155.90   81.10   1
  -7 -15   3  129.30   80.90   1
   7  15  -3  124.40   80.80   1
   7  15   4   64.80   45.10   1
  -7 -15  -4   87.00   45.20   1
   7 -15  -4   38.10   45.30   1
  -7  15   4   77.20   45.60   1
  -7  15  -4   18.90   44.70   1
   7 -15   4    6.60   44.70   1
  -7 -15   4   39.40   44.70   1
   7  15  -4  110.30   45.00   1
   7  15   5   24.60   36.10   1
  -7 -15  -5   38.00   36.20   1
   7 -15  -5   25.90   36.90   1
  -7  15   5   60.60   37.50   1
  -7  15  -5   16.30   36.00   1
   7 -15   5   36.90   36.10   1
  -7 -15   5   29.80   35.90   1
   7  15  -5   31.60   35.90   1
   7  15   6   91.70   65.60   1
  -7 -15  -6  109.60   65.80   1
   7 -15  -6   78.30   66.00   1
  -7  15   6  132.40   66.70   1
  -7  15  -6  131.90   65.90   1
   7 -15   6  101.10   65.70   1
  -7 -15   6  101.00   65.60   1
   7  15  -6  100.00   65.60   1
   7  15   7   32.30   41.10   1
  -7 -15  -7   43.30   41.20   1
   7 -15  -7   56.00   41.90   1
  -7  15   7  121.50   43.20   1
  -7  15  -7   22.60   41.00   1
   7 -15   7   12.00   41.00   1
  -7 -15   7   79.30   41.20   1
   7  15  -7   43.10   41.10   1
   7  15   8  163.20   43.80   1
  -7 -15  -8   22.70   42.90   1
   7 -15  -8   63.70   44.10   1
  -7  15   8   47.30   44.50   1
  -7  15  -8   33.20   42.90   1
   7 -15   8   21.60   42.80   1
  -7 -15   8   43.90   43.00   1
   7  15  -8   56.50   42.90   1
   7  15   9   33.00   34.20   1
  -7 -15  -9   42.70   34.30   1
   7 -15  -9   20.30   35.20   1
  -7  15   9   -0.00   35.80   1
  -7  15  -9    9.20   33.90   1
   7 -15   9   20.60   34.00   1
  -7 -15   9   40.40   34.10   1
   7  15  -9   40.50   34.00   1
   7  15  10   26.00   31.30   1
  -7 -15 -10    0.00   31.10   1
   7 -15 -10    8.70   32.60   1
  -7  15  10    3.70   33.20   1
  -7  15 -10   10.20   31.00   1
   7 -15  10   28.80   31.10   1
  -7 -15  10   33.10   31.20   1
   7  15 -10   97.10   31.90   1
   7  15  11   40.00   43.50   1
  -7 -15 -11   62.40   43.50   1
   7 -15 -11   71.60   44.70   1
  -7  15  11   33.00   45.20   1
  -7  15 -11   40.10   43.20   1
   7 -15  11  106.00   43.60   1
  -7 -15  11   10.80   43.00   1
   7  16   0   27.90   45.50   1
  -7 -16   0   41.60   45.70   1
   7 -16   0   83.90   46.00   1
  -7  16   0   69.20   46.10   1
   7  16   1  352.90   92.90   1
  -7 -16  -1  360.20   93.00   1
   7 -16  -1  191.30   92.40   1
  -7  16   1  227.60   92.70   1
  -7  16  -1  191.80   92.40   1
   7 -16   1  209.30   92.40   1
  -7 -16   1  122.90   92.10   1
   7  16  -1  165.50   92.20   1
   7  16   2   80.20   30.90   1
  -7 -16  -2   65.70   31.10   1
   7 -16  -2   18.10   30.70   1
  -7  16   2   23.70   30.80   1
  -7  16  -2   -0.20   30.50   1
   7 -16   2    3.50   30.60   1
  -7 -16   2   15.70   30.40   1
   7  16  -2    5.40   30.20   1
   7  16   3  250.60   97.80   1
  -7 -16  -3  170.60   97.60   1
   7 -16  -3  261.80   98.00   1
  -7  16   3  235.80   98.00   1
  -7  16  -3  336.70   98.20   1
   7 -16   3  223.30   97.70   1
  -7 -16   3  225.60   97.60   1
   7  16  -3  182.40   97.40   1
   7  16   4  177.70   81.50   1
  -7 -16  -4  143.20   81.50   1
   7 -16  -4  138.40   81.70   1
  -7  16   4  153.20   81.90   1
  -7  16  -4  191.50   81.70   1
   7 -16   4  124.20   81.50   1
  -7 -16   4  192.90   81.60   1
   7  16  -4  157.00   81.40   1
   7  16   5   29.90   40.20   1
  -7 -16  -5   37.30   40.40   1
   7 -16  -5  218.20   42.10   1
  -7  16  -5   57.10   40.60   1
   7 -16   5   10.20   40.20   1
  -7 -16   5   38.70   40.30   1
   7  16  -5   29.70   40.20   1
   7  16   6   81.10   60.70   1
  -7 -16  -6   81.20   60.90   1
   7 -16  -6   70.80   61.00   1
  -7  16   6   75.80   61.40   1
  -7  16  -6  110.80   60.90   1
   7 -16   6  119.30   61.00   1
  -7 -16   6   77.10   60.70   1
   7  16  -6   96.50   60.70   1
   7  16   7   39.60   36.50   1
  -7 -16  -7    8.60   36.30   1
   7 -16  -7  108.70   37.70   1
  -7  16   7  172.30   38.70   1
  -7  16  -7   16.60   36.20   1
   7 -16   7   29.20   36.40   1
  -7 -16   7   12.30   36.00   1
   7  16  -7   33.40   36.00   1
   7  16   8   70.90   43.80   1
  -7 -16  -8   81.00   44.00   1
   7 -16  -8   38.10   44.10   1
  -7  16   8   74.10   44.60   1
  -7  16  -8   39.30   43.60   1
   7 -16   8   64.90   43.70   1
  -7 -16   8   25.20   43.20   1
   7  16  -8   27.30   43.20   1
   7  16   9    8.90   25.80   1
  -7 -16  -9   12.60   25.80   1
   7 -16  -9    6.50   26.70   1
  -7  16   9   60.50   28.10   1
  -7  16  -9   48.80   26.10   1
   7 -16   9   23.60   25.80   1
  -7 -16   9    7.00   25.40   1
   7  16  -9   -1.20   25.40   1
   7  16  10   58.80   50.20   1
  -7 -16 -10   48.60   49.80   1
   7 -16 -10   68.90   50.50   1
  -7  16  10  104.00   51.20   1
  -7  16 -10   84.50   49.90   1
   7 -16  10   54.70   49.70   1
  -7 -16  10   38.90   49.60   1
   7  17   0   20.90   26.50   1
  -7 -17   0   26.80   26.40   1
   7 -17   0    7.70   26.50   1
  -7  17   0    6.20   26.50   1
   7  17   1  123.10   59.10   1
  -7 -17  -1  107.20   59.10   1
   7 -17  -1   81.60   59.00   1
  -7  17   1   57.60   58.90   1
  -7  17  -1   41.90   58.90   1
   7 -17   1   45.60   58.90   1
  -7 -17   1  126.90   59.10   1
   7  17  -1  127.80   59.10   1
   7  17   2   28.60   32.80   1
  -7 -17  -2   37.50   33.00   1
   7 -17  -2   26.90   33.20   1
  -7  17   2   25.30   32.90   1
  -7  17  -2   26.50   33.00   1
   7 -17   2   27.30   32.90   1
  -7 -17   2   19.00   32.60   1
   7  17  -2   15.70   32.70   1
   7  17   3   27.10   32.00   1
  -7 -17  -3   20.80   32.00   1
   7 -17  -3   23.80   32.50   1
  -7  17   3   26.60   32.50   1
  -7  17  -3   75.00   32.30   1
   7 -17   3   27.30   32.00   1
  -7 -17   3   14.20   31.70   1
   7  17  -3   -0.00   31.80   1
   7  17   4    8.50   23.40   1
  -7 -17  -4   10.40   23.60   1
   7 -17  -4   11.40   24.00   1
  -7  17   4    8.60   24.00   1
  -7  17  -4    9.80   23.20   1
   7 -17   4   17.50   23.60   1
  -7 -17   4   17.70   23.20   1
   7  17  -4   10.70   23.00   1
   7  17   5   35.60   49.50   1
  -7 -17  -5  141.20   50.20   1
   7 -17  -5   25.10   49.90   1
  -7  17   5   61.80   50.10   1
  -7  17  -5   67.40   49.70   1
   7 -17   5  161.40   50.20   1
  -7 -17   5   34.20   49.40   1
   7  17  -5   47.90   49.50   1
   7  17   6  143.80   44.90   1
  -7 -17  -6   55.90   44.30   1
   7 -17  -6   54.30   44.60   1
  -7  17   6   11.70   44.40   1
  -7  17  -6   32.60   44.10   1
   7 -17   6   57.90   44.40   1
  -7 -17   6   64.90   44.20   1
   7  17  -6   18.20   44.00   1
   7  17   7   15.40   36.00   1
  -7 -17  -7   21.00   36.00   1
   7 -17  -7   30.50   36.50   1
  -7  17   7   59.20   36.90   1
  -7  17  -7   24.60   36.00   1
   7 -17   7  118.50   36.70   1
  -7 -17   7   27.20   35.80   1
   7  17  -7   11.60   35.80   1
   7  17   8    7.50   23.60   1
  -7 -17  -8   11.90   23.60   1
   7 -17  -8   18.70   24.60   1
  -7  17   8   93.50   25.60   1
  -7  17  -8    8.70   23.50   1
   7 -17   8   28.20   23.40   1
  -7 -17   8   -4.50   23.10   1
   7  17  -8   -0.00   22.90   1
   7  17   9    6.90   20.40   1
  -7 -17  -9   10.40   20.50   1
   7 -17  -9   20.30   21.30   1
  -7  17   9   14.80   22.10   1
  -7  17  -9   -0.20   20.50   1
   7 -17   9    6.60   20.20   1
  -7 -17   9    8.90   19.90   1
   7  17  10   24.60   38.60   1
  -7 -17 -10   13.40   38.70   1
   7 -17 -10  102.00   39.70   1
  -7  17  10   45.30   39.40   1
   7 -17  10   37.20   38.30   1
  -7 -17  10   28.30   38.20   1
   7  18   0   59.30   57.60   1
  -7 -18   0   57.90   57.60   1
   7 -18   0   64.30   57.70   1
  -7  18   0  324.30   59.30   1
   7  18   1   75.90   59.70   1
  -7 -18  -1   67.20   59.70   1
   7 -18  -1   88.50   59.60   1
  -7  18   1  100.60   59.80   1
  -7  18  -1   46.50   59.50   1
   7 -18   1   64.70   59.50   1
  -7 -18   1  134.70   59.80   1
   7  18  -1  137.90   59.80   1
   7  18   2   68.60   61.10   1
  -7 -18  -2   67.10   61.20   1
   7 -18  -2   58.60   61.00   1
  -7  18   2   64.50   61.10   1
  -7  18  -2   72.00   61.20   1
   7 -18   2  135.10   61.40   1
  -7 -18   2  148.20   61.40   1
   7  18  -2  192.50   61.70   1
   7  18   3   93.90   69.00   1
  -7 -18  -3  138.40   69.20   1
   7 -18  -3   99.60   69.20   1
  -7  18   3   94.90   69.30   1
  -7  18  -3  108.00   69.20   1
   7 -18   3   92.40   69.10   1
  -7 -18   3  143.70   69.20   1
   7  18  -3  160.40   69.20   1
   7  18   4  125.40   96.50   1
  -7 -18  -4  227.50   96.80   1
   7 -18  -4  253.30   97.10   1
  -7  18   4  237.60   97.10   1
  -7  18  -4  318.90   97.30   1
   7 -18   4  412.40   97.90   1
  -7 -18   4  197.00   96.60   1
   7  18  -4  220.00   96.70   1
   7  18   5   56.00   44.90   1
  -7 -18  -5   54.30   44.90   1
   7 -18  -5   37.80   45.00   1
  -7  18   5   46.20   45.30   1
  -7  18  -5   80.00   45.30   1
   7 -18   5   32.30   45.00   1
  -7 -18   5   56.90   44.90   1
   7  18  -5   30.60   44.80   1
   7  18   6  138.10   43.70   1
  -7 -18  -6  116.00   43.60   1
   7 -18  -6   20.90   43.00   1
  -7  18   6   -0.00   43.20   1
  -7  18  -6   47.90   43.10   1
   7 -18   6   51.60   43.20   1
  -7 -18   6   62.00   42.90   1
   7  18  -6   13.00   42.70   1
   7  18   7   22.40   25.20   1
  -7 -18  -7   17.60   25.40   1
   7 -18  -7   -0.00   25.70   1
  -7  18   7    3.00   25.70   1
  -7  18  -7   11.30   25.00   1
   7 -18   7   37.50   25.40   1
  -7 -18   7   15.20   24.70   1
   7  18  -7    5.40   24.80   1
   7  18   8   41.10   51.00   1
  -7 -18  -8  127.10   51.60   1
   7 -18  -8   28.60   51.20   1
  -7  18   8   49.40   51.40   1
  -7  18  -8   47.90   51.10   1
   7 -18   8   86.80   51.20   1
  -7 -18   8   87.20   51.10   1
   7  18   9   26.70   37.10   1
  -7 -18  -9   20.20   36.70   1
   7 -18  -9   26.70   37.10   1
  -7  18   9   13.40   37.20   1
   7 -18   9   37.60   36.40   1
  -7 -18   9   55.80   36.60   1
   7  19   0   40.70   29.90   1
  -7 -19   0   32.10   29.70   1
   7 -19   0    3.60   30.00   1
  -7  19   0    1.10   30.00   1
   7  19   1   -0.00   25.60   1
  -7 -19  -1   10.80   25.50   1
   7 -19  -1   23.00   25.70   1
  -7  19   1   18.80   25.80   1
  -7  19  -1    1.60   25.40   1
   7 -19   1   12.60   25.70   1
  -7 -19   1   24.30   25.90   1
   7  19  -1   27.90   25.60   1
   7  19   2   -0.00   29.40   1
  -7 -19  -2   14.70   29.60   1
   7 -19  -2   22.40   29.80   1
  -7  19   2   22.50   29.80   1
  -7  19  -2    2.70   29.80   1
   7 -19   2   13.80   29.80   1
  -7 -19   2   67.20   30.00   1
   7  19  -2   35.40   30.00   1
   7  19   3   71.80   41.20   1
  -7 -19  -3   90.70   41.50   1
   7 -19  -3   34.30   41.20   1
  -7  19   3   37.60   41.10   1
  -7  19  -3   37.90   41.00   1
   7 -19   3   17.90   41.10   1
  -7 -19   3   30.10   40.90   1
   7  19  -3   23.50   40.90   1
   7  19   4   49.80   47.90   1
  -7 -19  -4   84.40   48.30   1
   7 -19  -4   44.70   48.10   1
  -7  19   4   35.30   47.90   1
  -7  19  -4   37.10   47.80   1
   7 -19   4   41.30   47.80   1
  -7 -19   4   99.70   48.10   1
   7  19  -4   66.20   47.90   1
   7  19   5   10.20   26.70   1
  -7 -19  -5   26.30   26.90   1
   7 -19  -5   23.90   26.90   1
  -7  19   5   37.60   27.10   1
  -7  19  -5   15.60   26.80   1
   7 -19   5   28.00   26.70   1
  -7 -19   5    1.00   26.30   1
   7  19  -5   -0.00   26.40   1
   7  19   6   18.10   28.60   1
  -7 -19  -6   30.90   28.50   1
   7 -19  -6   -0.10   28.40   1
  -7  19   6   25.20   28.70   1
  -7  19  -6   13.00   28.40   1
   7 -19   6   29.70   28.30   1
  -7 -19   6   11.80   28.00   1
   7  19  -6   20.70   28.20   1
   7  19   7    7.20   18.70   1
  -7 -19  -7   -0.00   18.60   1
   7 -19  -7   -0.00   19.10   1
  -7  19   7   32.00   19.30   1
   7 -19   7    4.90   18.00   1
  -7 -19   7    8.30   17.90   1
   7  19  -7   -0.30   18.30   1
   7  19   8   -0.00   26.80   1
  -7 -19  -8   -0.80   26.60   1
   7 -19  -8   26.30   26.90   1
  -7  19   8    4.30   26.80   1
   7 -19   8   29.00   26.40   1
  -7 -19   8   25.90   25.90   1
   7  20   0   28.00   35.80   1
  -7 -20   0   22.10   35.90   1
   7 -20   0   25.70   35.90   1
  -7  20   0   43.20   36.00   1
   7  20   1   37.40   43.40   1
  -7 -20  -1   47.10   43.60   1
   7 -20  -1   35.30   43.60   1
  -7  20   1   52.90   43.60   1
  -7  20  -1   48.40   43.60   1
   7 -20   1   47.70   43.50   1
  -7 -20   1   48.60   43.70   1
   7  20  -1   41.00   43.50   1
   7  20   2   67.50   44.30   1
  -7 -20  -2   64.70   44.30   1
   7 -20  -2   38.30   44.10   1
  -7  20   2   38.10   44.20   1
  -7  20  -2   73.90   44.20   1
   7 -20   2   35.00   44.10   1
  -7 -20   2   37.40   44.00   1
   7  20  -2   25.90   44.00   1
   7  20   3  127.40   75.00   1
  -7 -20  -3  174.90   75.30   1
   7 -20  -3  111.90   75.00   1
  -7  20   3  124.60   75.10   1
  -7  20  -3  151.40   75.20   1
   7 -20   3  143.00   75.20   1
  -7 -20   3  116.80   74.90   1
   7  20  -3  135.70   75.10   1
   7  20   4   14.70   44.50   1
  -7 -20  -4   24.40   44.70   1
   7 -20  -4  137.00   45.50   1
  -7  20   4  184.20   45.90   1
  -7  20  -4   56.90   44.80   1
   7 -20   4   47.50   44.70   1
  -7 -20   4   74.00   44.90   1
   7  20  -4    6.90   44.40   1
   7  20   5   24.90   29.60   1
  -7 -20  -5   24.60   29.30   1
   7 -20  -5   18.70   29.50   1
  -7  20   5   10.50   29.60   1
  -7  20  -5    8.60   29.60   1
   7 -20   5   12.70   29.20   1
  -7 -20   5   29.70   29.20   1
   7  20  -5   24.20   29.40   1
   7  20   6  133.00   51.20   1
  -7 -20  -6  140.60   51.30   1
   7 -20  -6   51.50   50.90   1
  -7  20   6   69.70   50.80   1
   7 -20   6   64.50   50.60   1
  -7 -20   6   28.90   50.30   1
   7  20  -6   36.60   50.40   1
   7  20   7   24.60   40.70   1
  -7 -20  -7   40.00   40.70   1
   7 -20  -7   31.00   40.90   1
  -7  20   7   28.50   40.90   1
   7 -20   7   48.90   40.80   1
  -7 -20   7   56.60   40.50   1
   7  21   0   -0.00   29.50   1
  -7 -21   0    8.10   29.80   1
   7 -21   0   64.00   30.60   1
  -7  21   0   36.60   30.30   1
   7  21   1  122.10   67.50   1
  -7 -21  -1  137.40   67.70   1
   7 -21  -1  120.00   67.80   1
  -7  21   1  101.90   67.60   1
  -7  21  -1   69.50   67.60   1
   7 -21   1   73.90   67.50   1
  -7 -21   1  156.60   67.80   1
   7  21  -1  110.70   67.60   1
   7  21   2   47.30   44.40   1
  -7 -21  -2   44.60   44.50   1
   7 -21  -2   38.80   44.50   1
  -7  21   2   15.60   44.40   1
  -7  21  -2   59.90   44.90   1
   7 -21   2   64.60   44.90   1
  -7 -21   2   65.20   44.70   1
   7  21  -2   54.30   44.70   1
   7  21   3   35.60   49.40   1
  -7 -21  -3   56.80   49.70   1
   7 -21  -3   39.90   49.30   1
  -7  21   3   42.80   49.30   1
  -7  21  -3   80.60   49.70   1
   7 -21   3  151.60   50.20   1
  -7 -21   3   67.90   49.50   1
   7  21  -3   49.10   49.50   1
   7  21   4   35.00   36.50   1
  -7 -21  -4   28.40   36.30   1
   7 -21  -4    6.20   36.20   1
  -7  21   4    6.30   36.20   1
  -7  21  -4   35.20   36.40   1
   7 -21   4    0.00   36.00   1
  -7 -21   4   97.20   36.90   1
   7  21  -4  120.90   37.10   1
   7  21   5   82.00   61.10   1
  -7 -21  -5  111.20   61.40   1
   7 -21  -5   61.20   61.20   1
  -7  21   5   64.20   61.00   1
   7 -21   5  129.30   61.40   1
  -7 -21   5  101.90   61.20   1
   7  21  -5   92.70   61.20   1
   7  22   0    2.90   17.90   1
  -7 -22   0   11.80   18.70   1
   7 -22   0   -0.00   18.30   1
  -7  22   0   11.10   18.70   1
   7  22   1   23.70   24.30   1
  -7 -22  -1   15.70   23.90   1
   7 -22  -1   18.50   24.10   1
  -7  22   1   33.20   24.50   1
  -7  22  -1   13.50   24.10   1
   7 -22   1   -0.00   24.00   1
  -7 -22   1   -0.00   24.20   1
   7  22  -1   -0.00   23.40   1
   7  22   2   40.90   31.50   1
  -7 -22  -2   44.20   31.70   1
   7 -22  -2   15.70   31.60   1
  -7  22   2   12.60   31.90   1
  -7  22  -2    5.40   31.40   1
   7 -22   2    8.30   31.40   1
  -7 -22   2   30.20   31.70   1
   7  22  -2   25.40   31.50   1
   7  22   3    1.20   22.70   1
  -7 -22  -3   -0.00   22.20   1
   7 -22  -3   11.90   22.90   1
  -7  22   3   16.40   23.30   1
   7 -22   3    5.90   22.40   1
  -7 -22   3   21.40   22.90   1
   7  22  -3   21.80   22.80   1
   8   0  14  354.60  130.10   1
   8   0  15   39.20   40.10   1
   8   1  13  156.90   81.70   1
   8   1  14    0.80    8.70   1
  -8  -1 -14    2.10    8.70   1
   8   1  15   40.60   37.50   1
  -8  -1 -15   28.40   37.50   1
   8   2  11   41.40   41.40   1
   8   2  12  300.00   73.40   1
  -8  -2 -12   86.50   71.60   1
   8   2  13    1.00   13.60   1
  -8  -2 -13    7.80   13.70   1
   8   2  14   55.60   52.80   1
  -8  -2 -14  105.50   53.20   1
   8   2  15   19.80   24.80   1
  -8  -2 -15   10.30   24.70   1
   8   3   9  159.00   82.20   1
   8   3  10   93.90   43.30   1
  -8  -3 -10   24.00   42.90   1
   8   3  11   34.40   40.30   1
  -8  -3 -11   46.30   40.40   1
   8   3  12   14.90   29.40   1
  -8  -3 -12   28.80   29.50   1
   8   3  13   54.70   54.00   1
  -8  -3 -13  116.70   54.30   1
   8   3  14   57.90   44.20   1
  -8  -3 -14   39.00   44.20   1
   8   3  15   54.20   32.80   1
  -8  -3 -15   13.60   32.50   1
   8   4   7   51.60   44.40   1
  -8  -4  -7   43.80   44.20   1
   8   4   8  146.10   81.10   1
  -8  -4  -8  175.00   81.50   1
   8   4   9    6.60   25.70   1
  -8  -4  -9   29.90   26.00   1
   8   4  10   49.20   48.40   1
  -8  -4 -10   67.20   48.50   1
   8   4  11    5.70   17.30   1
  -8  -4 -11    8.10   17.40   1
   8   4  12   24.00   37.90   1
  -8  -4 -12   53.70   38.10   1
   8   4  13    7.90   16.40   1
  -8  -4 -13    4.40   16.40   1
   8   4  14   30.80   27.20   1
  -8  -4 -14    9.80   27.00   1
   8   5   5 2308.30  367.50   1
  -8  -5  -5 1621.00  362.30   1
   8   5   6  683.50  157.50   1
  -8  -5  -6  431.90  156.10   1
   8   5   7 5592.10  751.90   1
  -8  -5  -7 5155.00  751.50   1
   8   5   8   85.40   58.90   1
  -8  -5  -8   82.30   59.00   1
   8   5   9 1234.70  246.90   1
  -8  -5  -9 1058.60  246.00   1
   8   5  10   99.60   65.20   1
  -8  -5 -10  106.80   65.30   1
   8   5  11   96.20   54.40   1
  -8  -5 -11   54.40   54.30   1
   8   5  12   20.60   29.40   1
  -8  -5 -12   21.20   29.40   1
   8   5  13  576.80  165.30   1
  -8  -5 -13  590.50  165.80   1
   8   5  14   43.80   44.10   1
  -8  -5 -14   50.20   44.00   1
   8  -6   0  487.90  155.60   1
   8  -6  -1   66.90   52.20   1
   8  -6   1   61.20   52.10   1
   8  -6  -2  524.90  161.10   1
   8   6   3   32.70   36.20   1
  -8  -6  -3   27.30   36.10   1
   8  -6  -3   38.10   36.80   1
   8   6   4  122.10   81.50   1
  -8  -6  -4  239.60   82.30   1
   8  -6  -4  179.10   82.80   1
  -8   6   4  197.00   84.40   1
   8   6   5    5.70    7.50   1
  -8  -6  -5   -5.00    7.80   1
   8  -6  -5   -0.00    9.90   1
  -8   6   5   -0.00    9.80   1
   8   6   6   42.80   48.00   1
  -8  -6  -6   57.20   48.00   1
   8  -6  -6  476.50   62.90   1
  -8   6   6  243.30   55.60   1
   8   6   7   68.00   41.00   1
  -8  -6  -7   34.80   40.90   1
   8  -6  -7   14.80   41.30   1
  -8   6   7   35.80   41.80   1
   8   6   8  529.20  144.20   1
  -8  -6  -8  437.50  143.80   1
   8  -6  -8  322.90  146.00   1
  -8   6   8 1641.70  239.80   1
   8   6   9   30.50   39.60   1
  -8  -6  -9   41.00   39.80   1
   8  -6  -9   44.40   40.40   1
  -8   6   9   52.70   40.90   1
   8   6  10  212.60   84.40   1
  -8  -6 -10  186.90   84.40   1
   8  -6 -10   77.10   84.80   1
  -8   6  10  529.90  110.40   1
   8   6  11   -0.20   15.90   1
  -8  -6 -11    9.10   15.80   1
   8  -6 -11    9.10   17.30   1
  -8   6  11    9.50   17.90   1
   8   6  12   39.20   34.70   1
  -8  -6 -12   30.60   34.70   1
   8  -6 -12    8.80   35.20   1
   8   6  13   11.30   18.80   1
  -8  -6 -13    8.20   18.50   1
   8  -6 -13    1.30   19.50   1
   8   6  14   85.30   42.10   1
  -8  -6 -14   33.40   41.70   1
   8  -6 -14   18.30   42.20   1
   8  -7   0  110.00   67.10   1
  -8   7   0  103.30   67.10   1
   8   7   1  175.10   98.70   1
  -8  -7  -1  168.80   98.90   1
   8  -7  -1  324.00   99.80   1
  -8   7   1  329.60  100.10   1
  -8   7  -1  234.40   99.20   1
   8  -7   1  229.90   99.10   1
   8   7   2  174.50   52.70   1
  -8  -7  -2  139.00   52.50   1
   8  -7  -2   76.50   52.60   1
  -8   7   2   65.30   52.50   1
  -8   7  -2   23.90   52.00   1
   8  -7   2   27.10   52.20   1
   8   7   3  234.40   79.00   1
  -8  -7  -3  144.60   78.70   1
   8  -7  -3  110.30   79.20   1
  -8   7   3   97.70   79.10   1
  -8   7  -3  139.40   79.20   1
   8  -7   3  185.20   79.60   1
   8   7   4   51.80   40.80   1
  -8  -7  -4   30.30   40.90   1
   8  -7  -4   36.10   41.70   1
  -8   7   4   15.00   41.40   1
  -8   7  -4   58.00   41.50   1
   8  -7   4   52.20   41.60   1
   8   7   5  636.00  152.80   1
  -8  -7  -5  469.10  152.30   1
   8  -7  -5  551.40  154.70   1
  -8   7   5  461.80  154.30   1
  -8   7  -5  407.70  153.70   1
   8  -7   5  498.60  153.80   1
   8   7   6   34.20   28.70   1
  -8  -7  -6    0.00   28.50   1
   8  -7  -6   45.50   30.20   1
  -8   7   6   12.30   29.70   1
  -8   7  -6   15.70   28.80   1
   8  -7   6   43.60   29.60   1
   8   7   7  144.90   83.50   1
  -8  -7  -7  152.70   83.50   1
   8  -7  -7  184.70   84.80   1
  -8   7   7  217.10   85.30   1
  -8   7  -7  185.30   84.60   1
   8  -7   7  253.30   85.00   1
   8   7   8   17.40   29.70   1
  -8  -7  -8   14.50   29.70   1
   8  -7  -8   41.60   31.90   1
  -8   7   8   17.60   30.70   1
  -8   7  -8   12.00   30.00   1
   8  -7   8  180.80   32.80   1
   8   7   9  151.00   79.90   1
  -8  -7  -9  195.30   80.10   1
   8  -7  -9  130.00   81.00   1
  -8   7   9   93.40   80.60   1
  -8   7  -9  118.50   80.40   1
   8  -7   9  277.10   82.00   1
   8   7  10   36.80   34.30   1
  -8  -7 -10   30.80   34.20   1
   8  -7 -10   33.00   35.90   1
  -8   7  10   10.70   35.30   1
  -8   7 -10   12.30   34.30   1
   8  -7  10   68.10   35.50   1
   8   7  11  169.20   80.20   1
  -8  -7 -11  140.00   80.10   1
   8  -7 -11  184.90   82.20   1
  -8   7  11  201.30   82.80   1
  -8   7 -11  111.60   80.80   1
   8  -7  11  160.90   81.00   1
   8   7  12   -0.00   19.70   1
  -8  -7 -12    0.00   19.60   1
   8  -7 -12   55.90   23.10   1
  -8   7  12    7.30   21.10   1
  -8   7 -12   11.10   19.60   1
   8  -7  12   41.10   21.00   1
   8   7  13   59.30   49.30   1
  -8  -7 -13   75.20   49.20   1
   8  -7 -13   82.00   51.10   1
  -8   7  13   77.20   50.80   1
   8  -7  13   28.30   49.40   1
   8   7  14   31.60   36.80   1
  -8  -7 -14   32.50   36.80   1
   8  -7 -14   88.80   40.00   1
  -8   7  14   30.20   37.60   1
   8  -7  14   25.50   37.10   1
   8   8   0 1489.70  297.00   1
  -8  -8   0 1484.50  298.90   1
   8  -8   0 1618.60  293.80   1
  -8   8   0 1386.00  292.80   1
   8   8   1   51.70   47.80   1
  -8  -8  -1   55.60   47.70   1
   8  -8  -1   90.80   49.50   1
  -8   8   1   81.90   49.70   1
  -8   8  -1   83.60   49.30   1
   8  -8   1   74.10   49.10   1
  -8  -8   1   45.00   47.70   1
   8   8  -1   36.50   47.60   1
   8   8   2  553.20   79.10   1
  -8  -8  -2  696.60   80.70   1
   8  -8  -2   98.50   77.60   1
  -8   8   2   83.90   77.40   1
  -8   8  -2  132.50   77.50   1
   8  -8   2   67.30   77.20   1
   8   8   3  533.50  160.40   1
  -8  -8  -3  474.10  160.30   1
   8  -8  -3  626.10  162.00   1
  -8   8   3  705.80  162.80   1
  -8   8  -3  669.90  162.30   1
   8  -8   3  523.70  161.10   1
   8   8   4  601.60  121.10   1
  -8  -8  -4  514.30  120.80   1
   8  -8  -4  228.90  120.90   1
  -8   8   4  339.10  121.60   1
  -8   8  -4  211.70  120.50   1
   8  -8   4  294.80  120.70   1
   8   8   5  687.80  150.40   1
  -8  -8  -5  688.40  150.40   1
   8  -8  -5  283.20  149.80   1
  -8   8   5  766.00  153.50   1
  -8   8  -5  380.10  149.90   1
   8  -8   5  579.30  150.80   1
   8   8   6  502.70  138.60   1
  -8  -8  -6  502.50  138.70   1
   8  -8  -6  315.90  139.20   1
  -8   8   6  585.40  141.40   1
  -8   8  -6  364.00  139.10   1
   8  -8   6  373.00  138.90   1
   8   8   7  115.00   56.40   1
  -8  -8  -7   50.00   56.20   1
   8  -8  -7  148.90   58.50   1
  -8   8   7   97.50   58.10   1
  -8   8  -7  136.20   57.60   1
   8  -8   7   38.70   56.60   1
   8   8   8  496.70  140.90   1
  -8  -8  -8  497.20  141.00   1
   8  -8  -8  372.00  142.30   1
  -8   8   8  591.40  144.90   1
  -8   8  -8  354.60  141.50   1
   8  -8   8  382.00  141.30   1
   8   8   9   22.90   39.50   1
  -8  -8  -9   46.30   39.70   1
   8  -8  -9  106.10   43.00   1
  -8   8   9   52.70   41.60   1
  -8   8  -9   76.30   41.00   1
   8  -8   9   20.40   39.90   1
   8   8  10   49.70   39.90   1
  -8  -8 -10   27.30   39.70   1
   8  -8 -10  112.10   43.30   1
  -8   8  10   31.90   41.80   1
  -8   8 -10   83.50   41.20   1
   8  -8  10   17.40   40.00   1
   8   8  11   49.50   41.90   1
  -8  -8 -11   22.50   41.70   1
   8  -8 -11  167.40   46.20   1
  -8   8  11   34.00   43.40   1
  -8   8 -11  110.30   43.20   1
   8  -8  11   36.10   41.90   1
   8   8  12  124.30   76.40   1
  -8  -8 -12  156.30   76.50   1
   8  -8 -12   97.40   77.70   1
  -8   8  12  232.80   79.80   1
  -8   8 -12  128.40   77.10   1
   8  -8  12  163.50   76.90   1
   8   8  13   -0.90   34.10   1
  -8  -8 -13   31.40   34.20   1
   8  -8 -13   76.20   37.50   1
  -8   8  13  128.40   38.70   1
  -8   8 -13   58.60   35.10   1
   8  -8  13   38.10   34.40   1
   8   8  14   69.00   57.10   1
  -8  -8 -14   59.60   57.20   1
   8  -8 -14  158.10   60.80   1
  -8   8  14   69.00   58.60   1
  -8   8 -14  139.90   58.70   1
   8  -8  14  103.50   57.40   1
   8   9   0   27.50   39.20   1
  -8  -9   0   32.60   39.20   1
   8  -9   0   45.00   39.90   1
  -8   9   0   62.30   40.10   1
   8   9   1   80.50   81.40   1
  -8  -9  -1  109.60   81.50   1
   8  -9  -1  218.90   82.40   1
  -8   9   1  197.50   82.30   1
  -8   9  -1  367.00   83.20   1
   8  -9   1  280.40   82.60   1
  -8  -9   1  262.30   82.50   1
   8   9  -1  326.80   82.70   1
   8   9   2   11.10   29.40   1
  -8  -9  -2    5.90   29.50   1
   8  -9  -2   38.20   30.90   1
  -8   9   2   25.90   30.70   1
  -8   9  -2   12.80   30.60   1
   8  -9   2   18.30   30.30   1
  -8  -9   2   35.20   29.90   1
   8   9  -2   47.80   30.00   1
   8   9   3  218.40  102.60   1
  -8  -9  -3  207.60  102.60   1
   8  -9  -3  307.70  103.70   1
  -8   9   3  218.50  103.20   1
  -8   9  -3  323.70  103.70   1
   8  -9   3  360.60  103.70   1
   8   9  -3  253.10  103.90   1
   8   9   4   12.40   25.90   1
  -8  -9  -4    4.00   25.80   1
   8  -9  -4   20.20   27.90   1
  -8   9   4   21.00   27.60   1
  -8   9  -4   54.10   27.70   1
   8  -9   4   19.90   27.10   1
   8   9   5   54.00   48.90   1
  -8  -9  -5   33.20   48.80   1
   8  -9  -5   38.20   49.60   1
  -8   9   5   27.70   49.70   1
  -8   9  -5  166.60   50.30   1
   8  -9   5  197.80   50.30   1
   8   9   6   24.80   40.10   1
  -8  -9  -6   31.60   40.00   1
   8  -9  -6   36.20   41.30   1
  -8   9   6    8.70   41.10   1
  -8   9  -6  131.10   41.30   1
   8  -9   6   64.90   40.80   1
   8   9   7   44.70   59.40   1
  -8  -9  -7  110.80   59.40   1
   8  -9  -7   81.90   60.40   1
  -8   9   7   73.20   60.40   1
  -8   9  -7  145.00   60.20   1
   8  -9   7  114.60   60.00   1
   8   9   8   21.30   27.20   1
  -8  -9  -8    4.50   27.00   1
   8  -9  -8   23.80   28.70   1
  -8   9   8   21.10   28.80   1
  -8   9  -8   34.30   27.90   1
   8  -9   8   15.70   27.50   1
   8   9   9   42.90   37.70   1
  -8  -9  -9   22.60   37.60   1
   8  -9  -9   28.80   38.80   1
  -8   9   9   67.40   39.30   1
  -8   9  -9   34.00   38.00   1
   8  -9   9   31.80   37.90   1
   8   9  10    9.70   18.60   1
  -8  -9 -10    6.60   18.30   1
   8  -9 -10   22.10   21.10   1
  -8   9  10   -0.00   21.10   1
  -8   9 -10    3.30   19.00   1
   8  -9  10    7.90   19.10   1
   8   9  11  115.40   68.70   1
  -8  -9 -11  118.20   68.60   1
   8  -9 -11   78.20   69.30   1
  -8   9  11  101.00   69.70   1
  -8   9 -11  136.60   69.00   1
   8  -9  11  116.30   68.80   1
   8   9  12   -0.20   15.00   1
  -8  -9 -12   -0.10   14.90   1
   8  -9 -12   15.50   17.70   1
  -8   9  12   -0.00   18.70   1
  -8   9 -12    8.70   15.00   1
   8  -9  12    7.90   15.20   1
   8   9  13    7.10   20.20   1
  -8  -9 -13   12.80   20.40   1
   8  -9 -13   -0.00   22.30   1
  -8   9  13   -0.00   23.10   1
  -8   9 -13    5.10   20.20   1
   8  -9  13   23.00   20.80   1
   8  10   0 1065.80  237.30   1
  -8 -10   0 1091.10  237.80   1
   8  10   1  104.90   73.90   1
  -8 -10  -1  126.00   74.00   1
   8 -10  -1  172.30   74.70   1
  -8  10   1  219.50   74.70   1
  -8  10  -1  223.60   74.70   1
   8 -10   1  114.00   74.40   1
  -8 -10   1  101.30   73.90   1
   8  10  -1  119.50   74.00   1
   8  10   2  406.30  138.70   1
  -8 -10  -2  408.40  138.80   1
   8 -10  -2  471.50  139.30   1
  -8  10   2  522.90  139.70   1
  -8  10  -2  483.70  139.30   1
   8 -10   2  307.80  138.70   1
  -8 -10   2  720.60  141.50   1
   8  10  -2  486.90  139.50   1
   8  10   3   24.80   42.20   1
  -8 -10  -3   21.90   42.30   1
   8 -10  -3   59.40   43.30   1
  -8  10   3  109.20   43.60   1
  -8  10  -3   64.00   43.00   1
   8 -10   3   43.80   42.90   1
  -8 -10   3   61.50   42.80   1
   8  10  -3   48.50   42.50   1
   8  10   4 2399.50  366.20   1
  -8 -10  -4 2060.00  364.40   1
   8 -10  -4 2496.10  370.00   1
  -8  10   4 2572.30  372.60   1
  -8  10  -4 2075.80  366.30   1
   8 -10   4 1733.30  364.40   1
  -8 -10   4 2138.60  387.60   1
   8  10  -4 1592.70  371.40   1
   8  10   5  241.90  104.10   1
  -8 -10  -5  238.00  104.10   1
   8 -10  -5  276.20  104.90   1
  -8  10   5  269.70  105.20   1
  -8  10  -5  353.10  105.00   1
   8 -10   5  209.90  104.40   1
   8  10  -5  261.70  105.80   1
   8  10   6 2024.60  363.90   1
  -8 -10  -6 1846.10  363.60   1
   8 -10  -6 2544.70  372.70   1
  -8  10   6 2826.90  379.00   1
  -8  10  -6 2225.20  368.30   1
   8 -10   6 1934.60  365.80   1
   8  10   7   25.40   34.30   1
  -8 -10  -7   25.30   34.30   1
   8 -10  -7   27.80   35.70   1
  -8  10   7   46.00   36.30   1
  -8  10  -7   26.90   35.00   1
   8 -10   7   35.90   35.30   1
   8  10   8  970.20  206.20   1
  -8 -10  -8  724.40  205.00   1
   8 -10  -8  926.00  208.50   1
  -8  10   8 1053.90  210.80   1
  -8  10  -8  932.00  207.50   1
   8 -10   8  796.70  206.20   1
   8  10   9   26.10   32.80   1
  -8 -10  -9   27.40   32.80   1
   8 -10  -9   26.30   34.10   1
  -8  10   9   39.70   34.40   1
  -8  10  -9   31.70   33.30   1
   8 -10   9    5.30   33.60   1
   8  10  10   85.10   39.80   1
  -8 -10 -10   37.10   39.40   1
   8 -10 -10   14.50   40.20   1
  -8  10  10    8.90   40.00   1
  -8  10 -10   15.80   39.40   1
   8 -10  10   92.00   40.60   1
   8  10  11    3.80   25.20   1
  -8 -10 -11   32.40   25.30   1
   8 -10 -11   12.20   26.60   1
  -8  10  11   12.90   26.70   1
  -8  10 -11    2.10   25.30   1
   8 -10  11   33.80   26.30   1
   8  10  12  139.10   72.10   1
  -8 -10 -12  114.00   72.00   1
   8 -10 -12  138.90   73.00   1
  -8  10  12   92.20   72.70   1
  -8  10 -12  123.40   72.10   1
   8 -10  12  138.10   72.60   1
   8  10  13    9.70   20.30   1
  -8 -10 -13   22.90   20.60   1
   8 -10 -13    7.10   22.10   1
  -8  10  13    6.30   21.80   1
  -8  10 -13    3.60   20.50   1
   8 -10  13    1.00   21.10   1
   8  11   0   89.10   53.10   1
  -8 -11   0   63.90   53.20   1
   8 -11   0   36.90   53.50   1
  -8  11   0   74.20   53.70   1
   8  11   1  119.10   71.50   1
  -8 -11  -1  102.00   71.40   1
   8 -11  -1  157.20   71.90   1
  -8  11   1  137.50   71.80   1
  -8  11  -1  348.60   73.00   1
   8 -11   1  194.90   72.20   1
  -8 -11   1   81.50   71.40   1
   8  11  -1  101.50   71.30   1
   8  11   2    8.00   33.70   1
  -8 -11  -2    4.40   33.80   1
   8 -11  -2   15.00   34.60   1
  -8  11   2    2.00   34.80   1
  -8  11  -2   28.50   34.40   1
   8 -11   2   10.20   34.50   1
  -8 -11   2  193.60   35.20   1
   8  11  -2  143.10   34.70   1
   8  11   3   31.90   45.40   1
  -8 -11  -3   19.80   45.50   1
   8 -11  -3   82.40   46.60   1
  -8  11   3   61.00   46.10   1
  -8  11  -3   25.70   46.10   1
   8 -11   3   74.40   46.50   1
  -8 -11   3  127.80   46.00   1
   8  11  -3   58.70   45.60   1
   8  11   4   27.80   31.60   1
  -8 -11  -4   41.20   31.70   1
   8 -11  -4    6.80   32.40   1
  -8  11   4    7.50   32.70   1
  -8  11  -4   13.00   32.40   1
   8 -11   4   25.80   32.80   1
  -8 -11   4   24.50   31.80   1
   8  11  -4   23.00   31.80   1
   8  11   5   98.20   68.20   1
  -8 -11  -5  110.80   68.30   1
   8 -11  -5   80.70   68.80   1
  -8  11   5  135.60   68.90   1
  -8  11  -5  138.60   69.00   1
   8 -11   5  121.00   69.20   1
   8  11  -5  130.60   68.70   1
   8  11   6   10.50   32.00   1
  -8 -11  -6   17.20   32.00   1
   8 -11  -6   -0.40   33.00   1
  -8  11   6   64.90   33.50   1
  -8  11  -6   78.20   33.80   1
   8 -11   6   24.30   34.00   1
  -8 -11   6   27.10   32.40   1
   8  11  -6   32.00   32.40   1
   8  11   7   86.60   54.40   1
  -8 -11  -7   39.20   54.10   1
   8 -11  -7  112.30   55.00   1
  -8  11   7   55.60   54.90   1
  -8  11  -7  155.90   55.60   1
   8 -11   7  115.50   55.70   1
   8  11  -7   48.10   54.40   1
   8  11   8    8.70   29.00   1
  -8 -11  -8   10.90   29.00   1
   8 -11  -8   13.30   30.10   1
  -8  11   8   29.90   30.50   1
  -8  11  -8   87.90   30.80   1
   8 -11   8   21.80   30.60   1
   8  11   9   94.90   60.90   1
  -8 -11  -9   67.90   60.80   1
   8 -11  -9   97.10   61.50   1
  -8  11   9   79.20   61.60   1
  -8  11  -9  144.70   61.90   1
   8 -11   9   87.70   61.60   1
   8  11  10   13.80   23.40   1
  -8 -11 -10    6.50   23.20   1
   8 -11 -10   -0.00   24.50   1
  -8  11  10   17.80   25.20   1
  -8  11 -10   -0.10   24.50   1
   8 -11  10   44.10   24.40   1
   8  11  11   20.80   33.10   1
  -8 -11 -11   33.10   33.30   1
   8 -11 -11    7.80   34.10   1
  -8  11  11   59.40   34.90   1
  -8  11 -11   28.80   34.20   1
   8 -11  11   22.30   33.60   1
   8  11  12   26.60   24.40   1
  -8 -11 -12    0.00   24.30   1
   8 -11 -12    3.40   25.40   1
  -8  11  12   52.80   26.60   1
  -8  11 -12    0.00   25.40   1
   8 -11  12   15.10   24.40   1
   8  11  13   17.20   37.70   1
  -8 -11 -13   74.60   38.40   1
   8 -11 -13    8.10   38.40   1
  -8  11  13   40.80   39.00   1
  -8  11 -13   11.90   38.40   1
   8 -11  13   74.40   38.10   1
   8  12   0 1333.50  221.60   1
  -8 -12   0 1278.20  221.80   1
   8 -12   0 1242.20  222.00   1
  -8  12   0  645.20  219.00   1
   8  12   1   47.10   37.20   1
  -8 -12  -1   38.40   37.30   1
   8 -12  -1   14.50   38.60   1
  -8  12   1   21.10   38.10   1
  -8  12  -1   22.30   38.70   1
   8 -12   1   88.30   39.90   1
  -8 -12   1   24.10   37.20   1
   8  12  -1   28.00   37.40   1
   8  12   2  140.00   58.90   1
  -8 -12  -2  274.20   59.40   1
   8 -12  -2   72.90   59.50   1
  -8  12   2   96.60   59.60   1
  -8  12  -2   39.90   59.70   1
   8 -12   2  216.60   61.40   1
  -8 -12   2   61.80   58.70   1
   8  12  -2   29.40   58.50   1
   8  12   3   71.10   58.10   1
  -8 -12  -3   74.40   58.10   1
   8 -12  -3   66.90   59.40   1
  -8  12   3   75.80   58.80   1
  -8  12  -3  109.30   59.80   1
   8 -12   3   97.70   59.70   1
  -8 -12   3   97.20   58.40   1
   8  12  -3   89.40   58.20   1
   8  12   4   58.00   41.90   1
  -8 -12  -4   20.00   41.70   1
   8 -12  -4   42.60   43.10   1
  -8  12   4   25.60   42.70   1
  -8  12  -4   44.70   43.40   1
   8 -12   4   -0.00   43.30   1
  -8 -12   4   67.30   42.10   1
   8  12  -4   64.00   42.00   1
   8  12   5  138.20   70.20   1
  -8 -12  -5  123.60   70.20   1
   8 -12  -5  100.80   71.00   1
  -8  12   5  157.30   71.20   1
  -8  12  -5  106.60   71.30   1
   8 -12   5   98.80   71.20   1
  -8 -12   5  102.30   70.30   1
   8  12  -5  107.80   70.30   1
   8  12   6  143.40   85.60   1
  -8 -12  -6  186.30   85.60   1
   8 -12  -6  378.70   87.80   1
  -8  12   6  159.80   86.30   1
  -8  12  -6  149.80   86.60   1
   8 -12   6  140.00   86.30   1
  -8 -12   6  155.00   86.10   1
   8  12  -6  474.90   89.10   1
   8  12   7   48.80   45.60   1
  -8 -12  -7   39.30   45.40   1
   8 -12  -7   76.90   47.00   1
  -8  12   7   39.20   46.30   1
  -8  12  -7   68.50   46.80   1
   8 -12   7   78.80   46.40   1
  -8 -12   7   48.40   45.70   1
   8  12  -7   37.60   45.60   1
   8  12   8   62.30   53.90   1
  -8 -12  -8   72.40   53.80   1
   8 -12  -8  341.60   57.20   1
  -8  12   8   69.80   54.50   1
  -8  12  -8  129.80   55.10   1
   8 -12   8   58.90   54.10   1
  -8 -12   8   60.10   54.10   1
   8  12  -8   37.70   53.70   1
   8  12   9   22.20   30.70   1
  -8 -12  -9   21.90   30.70   1
   8 -12  -9   -0.00   31.70   1
  -8  12   9   18.90   31.40   1
  -8  12  -9   28.20   31.60   1
   8 -12   9   57.90   31.30   1
   8  12  -9   12.70   30.40   1
   8  12  10   23.60   39.70   1
  -8 -12 -10   45.30   39.90   1
   8 -12 -10   12.20   40.30   1
  -8  12  10   -0.00   40.20   1
  -8  12 -10  137.10   41.30   1
   8 -12  10   77.20   40.10   1
   8  12  11   10.70   22.10   1
  -8 -12 -11   -0.00   22.10   1
   8 -12 -11    1.90   23.60   1
  -8  12  11   34.70   23.70   1
  -8  12 -11   23.50   22.90   1
   8 -12  11    9.20   22.00   1
   8  12  12    0.00   28.30   1
  -8 -12 -12   37.20   28.90   1
   8 -12 -12    9.90   29.60   1
  -8  12  12   22.00   29.70   1
  -8  12 -12   63.00   29.40   1
   8 -12  12   11.60   28.40   1
   8  13   0  705.60  176.60   1
  -8 -13   0  686.40  176.50   1
   8 -13   0  536.70  176.80   1
  -8  13   0  730.80  177.80   1
   8  13   1   89.30   57.60   1
  -8 -13  -1   96.00   57.70   1
   8 -13  -1  106.80   59.40   1
  -8  13   1  143.60   59.90   1
  -8  13  -1   46.00   58.90   1
   8 -13   1   55.90   59.10   1
  -8 -13   1   61.50   57.60   1
   8  13  -1   74.60   57.60   1
   8  13   2   22.80   28.50   1
  -8 -13  -2   21.10   28.40   1
   8 -13  -2   23.80   32.50   1
  -8  13   2   62.70   32.10   1
  -8  13  -2   47.80   31.40   1
   8 -13   2   31.10   30.70   1
  -8 -13   2    3.60   28.40   1
   8  13  -2   10.40   28.40   1
   8  13   3 1503.40  274.60   1
  -8 -13  -3 1292.10  273.90   1
   8 -13  -3 1116.70  274.50   1
  -8  13   3 1216.50  274.70   1
  -8  13  -3 1549.40  277.00   1
   8 -13   3 1448.70  275.40   1
  -8 -13   3 1492.30  276.60   1
   8  13  -3 1454.40  276.30   1
   8  13   4   31.90   41.20   1
  -8 -13  -4   22.60   41.20   1
   8 -13  -4   49.00   43.90   1
  -8  13   4   47.90   42.80   1
  -8  13  -4   64.90   43.20   1
   8 -13   4   60.10   42.30   1
  -8 -13   4   48.00   41.30   1
   8  13  -4   42.90   41.30   1
   8  13   5   70.50   63.60   1
  -8 -13  -5   74.70   63.50   1
   8 -13  -5  172.60   65.60   1
  -8  13   5  174.90   65.10   1
  -8  13  -5   56.60   64.30   1
   8 -13   5   47.80   64.00   1
  -8 -13   5  387.30   66.30   1
   8  13  -5  182.60   64.20   1
   8  13   6  451.80  133.00   1
  -8 -13  -6  362.80  132.70   1
   8 -13  -6  392.80  134.00   1
  -8  13   6  367.50  133.60   1
  -8  13  -6  446.50  133.60   1
   8 -13   6  497.60  133.60   1
  -8 -13   6  345.90  133.40   1
   8  13  -6  328.60  133.10   1
   8  13   7  223.50  104.90   1
  -8 -13  -7  436.60  105.70   1
   8 -13  -7  276.20  106.20   1
  -8  13   7  269.00  105.70   1
  -8  13  -7  248.50  105.40   1
   8 -13   7  216.20  105.00   1
  -8 -13   7  185.70  105.20   1
   8  13  -7  375.40  106.60   1
   8  13   8   57.50   47.00   1
  -8 -13  -8   27.70   46.70   1
   8 -13  -8   52.40   48.40   1
  -8  13   8   36.90   47.60   1
  -8  13  -8   60.30   47.40   1
   8 -13   8   80.60   47.10   1
  -8 -13   8   55.70   47.10   1
   8  13  -8   67.10   47.20   1
   8  13   9  261.30   89.80   1
  -8 -13  -9  170.10   89.40   1
   8 -13  -9  188.60   90.50   1
  -8  13   9  230.30   90.40   1
  -8  13  -9  222.60   89.80   1
   8 -13   9  163.50   89.30   1
  -8 -13   9  261.90   92.70   1
   8  13  -9  121.40   89.60   1
   8  13  10   33.90   38.90   1
  -8 -13 -10   33.10   39.10   1
   8 -13 -10   26.00   41.10   1
  -8  13  10   41.20   39.90   1
  -8  13 -10   51.20   39.30   1
   8 -13  10   50.40   39.00   1
  -8 -13  10   23.80   38.90   1
   8  13 -10   29.40   38.90   1
   8  13  11   32.80   41.40   1
  -8 -13 -11   68.40   41.90   1
  -8  13  11  181.30   44.00   1
  -8  13 -11   23.60   41.40   1
   8 -13  11   33.30   41.30   1
   8  13 -11   36.80   41.50   1
   8  13  12  106.00   36.70   1
  -8 -13 -12   27.20   35.90   1
   8 -13 -12   14.20   37.30   1
  -8  13  12   43.60   36.90   1
  -8  13 -12   21.10   35.80   1
   8 -13  12   17.80   35.70   1
   8  14   0  162.70   70.30   1
  -8 -14   0  170.30   70.30   1
   8 -14   0   50.40   70.90   1
  -8  14   0   44.60   71.20   1
   8  14   1    7.20   25.10   1
  -8 -14  -1   10.60   25.00   1
   8 -14  -1   56.60   27.70   1
  -8  14   1   78.80   29.00   1
  -8  14  -1   29.20   27.70   1
   8 -14   1   46.90   27.20   1
  -8 -14   1   -0.20   24.90   1
   8  14  -1    0.00   24.90   1
   8  14   2  829.40  196.90   1
  -8 -14  -2  822.30  197.00   1
   8 -14  -2  684.80  197.20   1
  -8  14   2  854.10  198.70   1
  -8  14  -2  719.50  197.30   1
   8 -14   2  783.30  197.40   1
  -8 -14   2  903.10  197.80   1
   8  14  -2  794.70  197.10   1
   8  14   3   28.10   39.30   1
  -8 -14  -3   31.20   39.20   1
   8 -14  -3   43.20   41.30   1
  -8  14   3   76.70   42.00   1
  -8  14  -3   60.70   40.70   1
   8 -14   3   16.60   39.80   1
  -8 -14   3   36.40   39.40   1
   8  14  -3   43.40   39.20   1
   8  14   4   32.90   35.30   1
  -8 -14  -4   35.00   35.30   1
   8 -14  -4   -0.00   38.10   1
  -8  14   4   19.20   37.50   1
  -8  14  -4   34.90   36.10   1
   8 -14   4  234.80   37.30   1
  -8 -14   4    5.30   35.10   1
   8  14  -4   12.30   35.00   1
   8  14   5   16.40   30.00   1
  -8 -14  -5   17.40   30.00   1
   8 -14  -5   56.90   33.10   1
  -8  14   5   58.20   33.70   1
  -8  14  -5   18.10   30.60   1
   8 -14   5   54.50   30.50   1
  -8 -14   5   12.90   29.70   1
   8  14  -5    5.10   29.70   1
   8  14   6  163.80   85.20   1
  -8 -14  -6  160.10   85.20   1
   8 -14  -6  155.90   86.90   1
  -8  14   6  162.20   86.70   1
  -8  14  -6  205.90   85.60   1
   8 -14   6  143.30   85.30   1
  -8 -14   6  212.10   85.60   1
   8  14  -6  196.60   85.40   1
   8  14   7    1.90   24.60   1
  -8 -14  -7    9.90   24.60   1
   8 -14  -7   -0.00   28.50   1
  -8  14   7    4.30   27.10   1
  -8  14  -7    1.70   24.80   1
   8 -14   7   24.50   24.70   1
  -8 -14   7   26.80   24.60   1
   8  14  -7   23.30   24.70   1
   8  14   8   41.60   47.70   1
  -8 -14  -8   58.90   47.80   1
   8 -14  -8   45.20   49.50   1
  -8  14   8   39.10   49.30   1
  -8  14  -8   79.40   47.90   1
   8 -14   8   91.00   47.90   1
  -8 -14   8   70.50   48.00   1
   8  14  -8   24.70   47.50   1
   8  14   9    8.30   21.80   1
  -8 -14  -9   22.00   22.00   1
   8 -14  -9   10.90   26.10   1
  -8  14   9   14.10   24.40   1
  -8  14  -9   10.20   22.00   1
   8 -14   9    2.20   21.70   1
  -8 -14   9    0.70   22.00   1
   8  14  -9   20.60   21.80   1
   8  14  10   26.90   38.50   1
  -8 -14 -10   29.70   38.60   1
   8 -14 -10   17.80   41.00   1
  -8  14  10   49.50   40.00   1
  -8  14 -10   54.20   38.60   1
   8 -14  10   33.50   38.40   1
  -8 -14  10   25.90   38.60   1
   8  14 -10   43.10   38.70   1
   8  14  11   19.50   20.40   1
  -8 -14 -11   17.80   20.50   1
   8 -14 -11   14.10   24.50   1
  -8  14  11   11.70   22.20   1
  -8  14 -11    6.90   20.30   1
   8 -14  11    2.70   19.90   1
  -8 -14  11   -0.20   20.30   1
   8  15   0   16.50   29.10   1
  -8 -15   0   20.80   29.10   1
   8 -15   0   30.10   31.20   1
  -8  15   0   17.80   31.10   1
   8  15   1 1321.70  287.00   1
  -8 -15  -1 1497.10  287.90   1
   8 -15  -1 2027.10  292.80   1
  -8  15   1 2435.30  296.40   1
  -8  15  -1 1371.30  288.20   1
   8 -15   1 1322.10  287.90   1
  -8 -15   1 1428.10  288.40   1
   8  15  -1 1316.00  287.40   1
   8  15   2   11.90   25.80   1
  -8 -15  -2    0.00   25.70   1
   8 -15  -2   50.70   28.60   1
  -8  15   2   68.40   29.20   1
  -8  15  -2   -0.30   27.20   1
   8 -15   2   42.50   27.20   1
  -8 -15   2   25.80   25.90   1
   8  15  -2   -0.00   25.90   1
   8  15   3  650.20  149.50   1
  -8 -15  -3  980.80  151.60   1
   8 -15  -3  663.80  150.40   1
  -8  15   3  700.40  150.90   1
  -8  15  -3  480.30  149.20   1
   8 -15   3  282.50  148.30   1
  -8 -15   3  490.60  149.00   1
   8  15  -3  476.60  148.90   1
   8  15   4   63.90   53.00   1
  -8 -15  -4   64.80   53.10   1
   8 -15  -4   57.20   54.00   1
  -8  15   4   64.20   54.50   1
  -8  15  -4   68.10   53.50   1
   8 -15   4   79.80   53.50   1
  -8 -15   4   68.70   53.00   1
   8  15  -4   69.70   52.90   1
   8  15   5   63.50   56.00   1
  -8 -15  -5   49.70   56.00   1
   8 -15  -5  195.00   58.20   1
  -8  15   5  209.40   58.80   1
  -8  15  -5   84.10   56.40   1
   8 -15   5   90.10   56.20   1
  -8 -15   5   60.80   55.90   1
   8  15  -5   60.30   55.80   1
   8  15   6   22.90   37.60   1
  -8 -15  -6   17.50   37.40   1
   8 -15  -6   31.50   39.10   1
  -8  15   6   28.80   40.00   1
  -8  15  -6   -3.50   37.70   1
   8 -15   6   43.70   37.70   1
  -8 -15   6   75.70   37.70   1
   8  15  -6   56.30   37.50   1
   8  15   7  145.60   83.60   1
  -8 -15  -7  131.00   83.60   1
   8 -15  -7  127.80   84.80   1
  -8  15   7  243.00   85.60   1
  -8  15  -7  176.90   83.80   1
   8 -15   7  173.10   83.70   1
  -8 -15   7  213.90   84.10   1
   8  15  -7  194.50   83.90   1
   8  15   8   -0.00   20.80   1
  -8 -15  -8   13.30   20.90   1
   8 -15  -8   13.40   25.10   1
  -8  15   8   -0.00   25.40   1
  -8  15  -8    0.00   21.20   1
   8 -15   8    9.30   20.80   1
  -8 -15   8   20.70   21.10   1
   8  15  -8   16.10   20.90   1
   8  15   9   31.40   30.50   1
  -8 -15  -9    7.10   30.40   1
   8 -15  -9   -0.00   33.70   1
  -8  15   9   52.80   34.00   1
  -8  15  -9   43.40   30.70   1
   8 -15   9   86.40   30.80   1
  -8 -15   9   -0.00   30.30   1
   8  15  -9   -0.10   30.30   1
   8  15  10    8.90   25.10   1
  -8 -15 -10   44.20   25.60   1
   8 -15 -10   42.50   29.60   1
  -8  15  10   23.80   28.80   1
  -8  15 -10   20.30   25.10   1
   8 -15  10   -0.00   24.80   1
  -8 -15  10   20.00   25.30   1
   8  15 -10   -0.00   25.00   1
   8  15  11  126.10   55.40   1
  -8 -15 -11   29.00   55.00   1
   8 -15 -11   76.50   57.00   1
  -8  15  11  310.40   59.90   1
  -8  15 -11   39.40   54.80   1
   8 -15  11  134.60   55.30   1
  -8 -15  11   92.30   55.90   1
   8  16   0  517.00  127.90   1
  -8 -16   0  648.80  128.60   1
   8 -16   0  244.50  127.20   1
  -8  16   0  325.20  127.50   1
   8  16   1   48.60   51.70   1
  -8 -16  -1   60.30   51.80   1
   8 -16  -1   67.10   52.40   1
  -8  16   1   48.50   52.60   1
  -8  16  -1  209.60   53.20   1
   8 -16   1  122.20   52.50   1
  -8 -16   1   44.40   51.70   1
   8  16  -1   50.20   51.90   1
   8  16   2  366.30  111.00   1
  -8 -16  -2  307.40  110.70   1
   8 -16  -2  272.30  111.00   1
  -8  16   2  280.70  111.20   1
  -8  16  -2  258.20  110.80   1
   8 -16   2  273.50  110.80   1
  -8 -16   2  271.10  110.60   1
   8  16  -2  252.60  110.50   1
   8  16   3   12.70   27.70   1
  -8 -16  -3    6.70   27.30   1
   8 -16  -3   20.40   28.90   1
  -8  16   3   34.70   29.50   1
  -8  16  -3    9.20   27.90   1
   8 -16   3   10.50   27.70   1
  -8 -16   3    9.30   27.30   1
   8  16  -3   50.40   27.60   1
   8  16   4  308.10  129.90   1
  -8 -16  -4  381.10  130.20   1
   8 -16  -4  353.30  130.50   1
  -8  16   4  436.00  131.10   1
  -8  16  -4  359.60  130.30   1
   8 -16   4  432.70  130.50   1
  -8 -16   4  458.60  130.70   1
   8  16  -4  406.90  130.40   1
   8  16   5   44.80   49.80   1
  -8 -16  -5   55.30   49.60   1
   8 -16  -5   60.30   50.40   1
  -8  16   5   94.10   51.00   1
  -8  16  -5   59.20   49.90   1
   8 -16   5   59.80   49.80   1
  -8 -16   5   62.90   49.60   1
   8  16  -5   57.00   49.50   1
   8  16   6   29.80   46.20   1
  -8 -16  -6   74.60   46.50   1
   8 -16  -6   52.60   47.30   1
  -8  16   6   43.10   47.50   1
  -8  16  -6   75.10   46.50   1
   8 -16   6   72.80   46.50   1
  -8 -16   6   39.60   46.10   1
   8  16  -6   40.30   46.10   1
   8  16   7   30.50   38.00   1
  -8 -16  -7   28.00   38.20   1
   8 -16  -7   19.20   39.00   1
  -8  16   7   48.70   40.10   1
  -8  16  -7   80.00   38.60   1
   8 -16   7   51.40   38.20   1
  -8 -16   7   18.10   37.90   1
   8  16  -7   28.30   37.80   1
   8  16   8   39.20   35.20   1
  -8 -16  -8   25.70   35.20   1
   8 -16  -8   17.80   36.40   1
  -8  16   8   19.10   37.20   1
  -8  16  -8   20.70   35.00   1
   8 -16   8   30.00   35.10   1
  -8 -16   8   11.80   34.70   1
   8  16  -8   82.90   35.30   1
   8  16   9   32.20   39.30   1
  -8 -16  -9   74.90   39.80   1
   8 -16  -9   45.30   41.20   1
  -8  16   9   27.90   41.50   1
  -8  16  -9   31.10   39.20   1
   8 -16   9   52.40   39.40   1
  -8 -16   9   32.90   39.20   1
   8  16  -9   20.30   39.10   1
   8  16  10   26.80   40.70   1
  -8 -16 -10   35.10   40.70   1
   8 -16 -10   68.30   42.60   1
  -8  16  10   26.20   43.00   1
   8 -16  10   28.20   40.60   1
  -8 -16  10  106.30   41.60   1
   8  17   0   -0.30   17.60   1
  -8 -17   0    0.00   17.10   1
   8 -17   0   23.60   18.70   1
  -8  17   0   10.80   18.60   1
   8  17   1  131.30   52.60   1
  -8 -17  -1  109.50   52.50   1
   8 -17  -1   75.60   52.80   1
  -8  17   1   83.30   52.90   1
  -8  17  -1  128.40   52.90   1
   8 -17   1   53.50   52.30   1
  -8 -17   1   31.90   52.00   1
   8  17  -1   25.00   52.00   1
   8  17   2    5.30   28.00   1
  -8 -17  -2    4.10   28.00   1
   8 -17  -2  136.70   30.10   1
  -8  17   2  172.20   30.60   1
  -8  17  -2   -0.00   28.30   1
   8 -17   2    8.00   28.40   1
  -8 -17   2    3.00   27.80   1
   8  17  -2   12.60   27.90   1
   8  17   3   81.80   52.90   1
  -8 -17  -3   59.10   52.90   1
   8 -17  -3   93.90   53.30   1
  -8  17   3   99.60   53.70   1
  -8  17  -3   56.10   52.90   1
   8 -17   3   50.90   52.80   1
  -8 -17   3   65.90   52.60   1
   8  17  -3   55.60   52.70   1
   8  17   4   17.50   29.20   1
  -8 -17  -4   13.20   28.80   1
   8 -17  -4   20.20   29.50   1
  -8  17   4   37.90   29.80   1
  -8  17  -4   33.10   29.10   1
   8 -17   4   23.30   28.90   1
  -8 -17   4   12.30   28.50   1
   8  17  -4   11.90   28.60   1
   8  17   5   56.00   38.40   1
  -8 -17  -5   53.30   38.60   1
   8 -17  -5   19.50   38.80   1
  -8  17   5   42.80   39.20   1
  -8  17  -5   32.00   38.40   1
   8 -17   5   18.60   38.10   1
  -8 -17   5   15.60   38.10   1
   8  17  -5   52.80   38.20   1
   8  17   6    9.40   28.30   1
  -8 -17  -6   27.50   28.50   1
   8 -17  -6   20.20   29.20   1
  -8  17   6   25.00   29.50   1
  -8  17  -6   13.30   28.20   1
   8 -17   6   30.30   28.30   1
  -8 -17   6   15.50   27.90   1
   8  17  -6   13.90   27.80   1
   8  17   7   56.00   35.90   1
  -8 -17  -7   26.30   35.50   1
   8 -17  -7   30.90   36.20   1
  -8  17   7   76.80   37.10   1
  -8  17  -7   24.90   35.50   1
   8 -17   7   49.50   35.70   1
  -8 -17   7   14.00   35.20   1
   8  17  -7   14.10   35.20   1
   8  17   8   13.90   22.80   1
  -8 -17  -8   20.90   23.00   1
   8 -17  -8   18.20   24.20   1
  -8  17   8   22.30   25.40   1
  -8  17  -8    5.50   22.50   1
   8 -17   8    9.20   22.70   1
  -8 -17   8   -0.00   22.20   1
   8  17  -8   15.60   22.30   1
   8  17   9   20.90   33.70   1
  -8 -17  -9   14.30   33.80   1
   8 -17  -9   38.10   34.80   1
  -8  17   9   20.20   35.50   1
   8 -17   9   77.50   34.00   1
  -8 -17   9   10.80   33.40   1
   8  18   0  100.80   70.90   1
  -8 -18   0   92.70   70.90   1
   8 -18   0  141.40   71.20   1
  -8  18   0  172.90   71.30   1
   8  18   1   51.80   29.10   1
  -8 -18  -1   53.60   29.20   1
   8 -18  -1   25.50   29.10   1
  -8  18   1   29.30   29.10   1
  -8  18  -1    9.70   28.90   1
   8 -18   1   -0.00   28.90   1
  -8 -18   1    0.40   28.50   1
   8  18  -1    4.10   28.60   1
   8  18   2   55.50   42.80   1
  -8 -18  -2   47.10   42.70   1
   8 -18  -2  117.60   43.50   1
  -8  18   2  127.70   43.50   1
  -8  18  -2   31.20   42.60   1
   8 -18   2   43.70   42.90   1
  -8 -18   2   18.60   42.50   1
   8  18  -2   11.90   42.40   1
   8  18   3   21.80   39.10   1
  -8 -18  -3   33.30   38.90   1
   8 -18  -3   41.30   39.60   1
  -8  18   3   33.40   39.40   1
  -8  18  -3   35.90   39.10   1
   8 -18   3   24.90   38.90   1
  -8 -18   3   35.60   38.80   1
   8  18  -3   64.20   39.00   1
   8  18   4  267.50   93.50   1
  -8 -18  -4  224.90   93.40   1
   8 -18  -4  285.10   93.90   1
  -8  18   4  273.00   93.90   1
  -8  18  -4  161.60   93.10   1
   8 -18   4  157.60   93.20   1
  -8 -18   4  189.60   93.00   1
   8  18  -4  179.90   93.00   1
   8  18   5  106.20   72.40   1
  -8 -18  -5  119.90   72.50   1
   8 -18  -5  140.80   72.90   1
  -8  18   5  131.90   72.90   1
  -8  18  -5  113.60   72.40   1
   8 -18   5  127.80   72.40   1
  -8 -18   5  149.80   72.50   1
   8  18  -5  122.40   72.30   1
   8  18   6   10.40   27.60   1
  -8 -18  -6    6.80   27.90   1
   8 -18  -6   16.70   28.60   1
  -8  18   6    8.10   28.90   1
  -8  18  -6   39.20   27.90   1
   8 -18   6   -0.00   27.50   1
  -8 -18   6   37.20   27.60   1
   8  18  -6   20.70   27.40   1
   8  18   7   13.40   28.00   1
  -8 -18  -7   79.80   28.90   1
   8 -18  -7   26.40   28.70   1
  -8  18   7   21.00   29.70   1
  -8  18  -7   -0.10   27.90   1
   8 -18   7   24.80   28.30   1
  -8 -18   7   10.30   27.70   1
   8  18  -7   11.60   27.70   1
   8  18   8  105.00   56.40   1
  -8 -18  -8   60.10   56.30   1
   8 -18  -8   52.30   56.70   1
  -8  18   8   66.20   57.00   1
   8 -18   8   81.40   56.40   1
  -8 -18   8   87.00   56.30   1
   8  19   0   15.70   28.80   1
  -8 -19   0   12.40   29.00   1
   8 -19   0   30.00   29.10   1
  -8  19   0   18.10   28.90   1
   8  19   1  102.60   51.80   1
  -8 -19  -1   91.20   51.60   1
   8 -19  -1   69.10   51.80   1
  -8  19   1   90.50   51.70   1
  -8  19  -1   49.90   51.40   1
   8 -19   1   21.40   51.30   1
  -8 -19   1   62.40   51.30   1
   8  19  -1   55.20   51.40   1
   8  19   2   10.50   21.00   1
  -8 -19  -2   11.10   20.60   1
   8 -19  -2    5.40   21.10   1
  -8  19   2   10.10   20.80   1
  -8  19  -2   23.50   20.90   1
   8 -19   2   13.60   20.80   1
  -8 -19   2    0.00   20.40   1
   8  19  -2   -0.60   20.60   1
   8  19   3   75.50   53.40   1
  -8 -19  -3  136.10   53.90   1
   8 -19  -3   60.80   53.70   1
  -8  19   3   61.60   53.60   1
  -8  19  -3   52.10   53.40   1
   8 -19   3   53.40   53.40   1
  -8 -19   3   67.30   53.30   1
   8  19  -3   64.00   53.30   1
   8  19   4   -0.00   18.60   1
  -8 -19  -4    5.80   19.00   1
   8 -19  -4   -0.00   19.10   1
  -8  19   4    0.00   19.40   1
  -8  19  -4   18.40   19.50   1
   8 -19   4    9.70   19.50   1
  -8 -19   4   19.60   18.80   1
   8  19  -4    5.30   18.60   1
   8  19   5    2.90   26.90   1
  -8 -19  -5    8.40   27.10   1
   8 -19  -5   45.50   27.80   1
  -8  19   5   50.80   28.00   1
  -8  19  -5   18.80   27.00   1
   8 -19   5   12.60   27.00   1
  -8 -19   5   15.50   26.80   1
   8  19  -5    6.90   26.70   1
   8  19   6   15.20   24.60   1
  -8 -19  -6   16.00   24.70   1
   8 -19  -6   51.10   25.70   1
  -8  19   6   12.20   25.70   1
  -8  19  -6    9.60   24.40   1
   8 -19   6   -0.00   24.30   1
  -8 -19   6   11.80   24.00   1
   8  19  -6    9.90   24.00   1
   8  19   7   40.90   54.70   1
  -8 -19  -7   80.90   55.10   1
   8 -19  -7   97.60   55.40   1
  -8  19   7   86.90   55.70   1
   8 -19   7   38.00   54.80   1
  -8 -19   7  164.10   55.40   1
   8  20   0  201.00   94.90   1
  -8 -20   0  199.60   94.80   1
   8 -20   0  214.50   95.10   1
  -8  20   0  230.80   95.20   1
   8  20   1   19.20   21.20   1
  -8 -20  -1   12.60   21.10   1
   8 -20  -1   -1.30   21.60   1
  -8  20   1   -0.30   21.70   1
  -8  20  -1   15.30   21.50   1
   8 -20   1   -0.00   21.30   1
  -8 -20   1    8.80   21.30   1
   8  20  -1   16.40   21.60   1
   8  20   2  403.30  147.90   1
  -8 -20  -2  437.10  148.10   1
   8 -20  -2  546.30  149.10   1
  -8  20   2  572.50  149.30   1
  -8  20  -2  574.80  149.30   1
   8 -20   2  621.80  149.50   1
  -8 -20   2  392.40  147.80   1
   8  20  -2  500.30  148.30   1
   8  20   3   -0.00   22.00   1
  -8 -20  -3   13.60   22.30   1
   8 -20  -3   -0.00   22.80   1
  -8  20   3   45.80   23.40   1
  -8  20  -3    8.00   22.10   1
   8 -20   3   -0.00   22.30   1
  -8 -20   3   12.60   21.70   1
   8  20  -3   14.40   22.00   1
   8  20   4    9.50   36.20   1
  -8 -20  -4   -0.00   36.60   1
   8 -20  -4   95.60   37.50   1
  -8  20   4   63.70   37.20   1
  -8  20  -4   42.80   36.50   1
   8 -20   4   54.50   36.70   1
  -8 -20   4   18.50   36.30   1
   8  20  -4   22.90   36.30   1
   8  20   5   17.00   21.00   1
  -8 -20  -5   32.00   21.40   1
   8 -20  -5   -0.10   21.10   1
  -8  20   5    6.60   21.50   1
  -8  20  -5   -0.00   20.60   1
   8 -20   5    7.90   20.80   1
  -8 -20   5    5.40   20.40   1
   8  20  -5    8.40   20.60   1
   8  20   6   20.90   39.60   1
  -8 -20  -6   67.70   39.80   1
   8 -20  -6   28.70   40.00   1
  -8  20   6   22.90   39.80   1
   8 -20   6   51.60   39.70   1
  -8 -20   6   33.50   39.30   1
   8  21   0   41.00   42.90   1
  -8 -21   0   33.90   43.00   1
   8 -21   0   60.80   43.20   1
  -8  21   0   40.30   43.20   1
   8  21   1  160.00   74.40   1
  -8 -21  -1  173.00   74.60   1
   8 -21  -1  156.30   74.40   1
  -8  21   1  168.30   74.60   1
  -8  21  -1  131.20   74.30   1
   8 -21   1   93.50   74.00   1
  -8 -21   1  112.40   74.00   1
   8  21  -1  106.00   74.00   1
   8  21   2    5.00   33.30   1
  -8 -21  -2   -0.00   33.30   1
   8 -21  -2   49.30   33.50   1
  -8  21   2   34.60   33.60   1
  -8  21  -2   12.20   33.20   1
   8 -21   2    9.90   33.30   1
  -8 -21   2   32.80   33.20   1
   8  21  -2   70.10   33.40   1
   8  21   3    0.00   26.90   1
  -8 -21  -3   12.50   26.70   1
   8 -21  -3   14.00   26.90   1
  -8  21   3   10.70   27.40   1
  -8  21  -3   10.00   26.70   1
   8 -21   3   24.50   26.90   1
  -8 -21   3   41.00   27.10   1
   8  21  -3   18.30   26.90   1
   8  21   4   29.00   35.70   1
  -8 -21  -4   48.50   36.00   1
   8 -21  -4   23.30   35.80   1
  -8  21   4   19.90   35.80   1
   8 -21   4   37.60   36.10   1
  -8 -21   4   26.90   35.60   1
   8  21  -4   27.00   35.70   1
   8  21   5  112.30   44.20   1
  -8 -21  -5   74.80   44.10   1
   8 -21  -5   20.00   44.00   1
  -8  21   5   33.10   43.80   1
   8 -21   5  195.00   45.20   1
  -8 -21   5    0.60   43.30   1
   8  22   0   45.70   46.10   1
  -8 -22   0   49.90   46.30   1
   8 -22   0   51.90   46.20   1
  -8  22   0   53.60   46.20   1
   8  22   1   -0.10   11.60   1
  -8 -22  -1    0.00   11.50   1
   8 -22  -1   -0.00   11.10   1
  -8  22   1    5.20   11.30   1
  -8  22  -1    1.00   11.10   1
   8 -22   1   -0.00   11.30   1
  -8 -22   1    1.90   11.80   1
   8  22  -1   -0.00   10.90   1
   8  22   2   38.10   31.60   1
  -8 -22  -2   29.80   32.10   1
   8 -22  -2   13.30   31.80   1
  -8  22   2   -0.00   32.00   1
  -8  22  -2   12.90   31.60   1
   8 -22   2   43.40   32.20   1
  -8 -22   2   15.80   31.80   1
   8  22  -2   33.30   32.00   1
   9   1  14   -0.20    4.30   1
   9   2  12  106.90   67.30   1
   9   2  13   13.70   24.10   1
   9   2  14  106.20   48.40   1
  -9  -2 -14   35.50   48.00   1
   9   3  10   34.10   37.60   1
   9   3  11  484.70  151.80   1
   9   3  12   28.70   27.80   1
  -9  -3 -12   11.10   27.60   1
   9   3  13   42.90   47.80   1
  -9  -3 -13  181.30   49.70   1
   9   3  14   27.70   29.80   1
  -9  -3 -14   15.80   29.80   1
   9   4   9   30.90   35.60   1
  -9  -4  -9   29.50   35.40   1
   9   4  10   84.50   59.30   1
  -9  -4 -10   85.20   59.50   1
   9   4  11    4.80   27.00   1
  -9  -4 -11   41.70   27.40   1
   9   4  12   19.80   33.10   1
  -9  -4 -12   37.60   33.40   1
   9   4  13    0.50   17.20   1
  -9  -4 -13   14.80   17.30   1
   9   4  14   21.80   34.70   1
  -9  -4 -14   40.40   34.80   1
   9   5   7  202.60   97.50   1
  -9  -5  -7  263.50   98.90   1
   9   5   8   25.50   41.20   1
  -9  -5  -8   86.30   41.80   1
   9   5   9  778.80  116.80   1
  -9  -5  -9  222.60  111.40   1
   9   5  10   85.50   58.40   1
  -9  -5 -10   78.80   58.50   1
   9   5  11  156.70   72.20   1
  -9  -5 -11  102.90   72.10   1
   9   5  12   33.00   31.50   1
  -9  -5 -12   16.30   31.40   1
   9   5  13   46.90   38.10   1
  -9  -5 -13   25.80   38.10   1
   9   5  14   31.60   41.40   1
  -9  -5 -14   57.10   41.50   1
   9   6   5   56.40   50.00   1
  -9  -6  -5   64.40   50.10   1
   9   6   6  271.20   74.50   1
  -9  -6  -6   91.40   73.40   1
   9   6   7   60.80   44.10   1
  -9  -6  -7   33.10   44.20   1
   9   6   8  234.10  100.60   1
  -9  -6  -8  237.20  100.70   1
   9   6   9   16.20   27.20   1
  -9  -6  -9   19.10   27.30   1
   9   6  10   95.90   53.80   1
  -9  -6 -10   51.10   53.70   1
   9   6  11   -0.90   16.10   1
  -9  -6 -11   14.40   16.30   1
   9   6  12   54.40   36.30   1
  -9  -6 -12   17.90   36.10   1
   9   6  13    6.60   20.40   1
  -9  -6 -13   12.90   20.40   1
   9   6  14    6.80   25.20   1
  -9  -6 -14   23.10   25.20   1
   9  -6 -14   17.40   26.40   1
   9  -7   0   17.00   20.00   1
  -9   7   0   -1.70   20.30   1
   9  -7  -1  496.00  130.40   1
  -9   7   1  630.80  136.80   1
  -9   7  -1  310.60  128.60   1
   9  -7   1  286.10  126.90   1
   9  -7  -2   51.20   35.90   1
  -9   7   2   48.20   36.20   1
  -9   7  -2   27.10   35.90   1
   9  -7   2   12.30   35.40   1
   9   7   3  667.70  173.50   1
  -9  -7  -3  569.00  173.90   1
   9  -7  -3  679.60  175.90   1
  -9   7   3  704.70  179.20   1
   9  -7   3  511.00  173.40   1
   9   7   4   46.30   42.80   1
  -9  -7  -4   46.40   42.80   1
   9  -7  -4   30.30   43.00   1
  -9   7   4   46.60   43.20   1
   9  -7   4   52.00   43.30   1
   9   7   5  905.00  204.50   1
  -9  -7  -5  879.90  205.20   1
   9  -7  -5  624.60  206.90   1
  -9   7   5 1013.50  220.60   1
   9  -7   5  771.30  212.00   1
   9   7   6    0.70   17.00   1
  -9  -7  -6    1.90   17.10   1
   9  -7  -6   -0.50   17.90   1
  -9   7   6    8.30   18.40   1
   9  -7   6   27.40   17.60   1
   9   7   7  123.60   83.30   1
  -9  -7  -7  218.40   83.70   1
   9  -7  -7  274.00   86.70   1
  -9   7   7  194.60   85.80   1
   9  -7   7  258.90   87.10   1
   9   7   8   68.50   32.10   1
  -9  -7  -8   12.70   31.90   1
   9  -7  -8    2.80   32.40   1
  -9   7   8    7.70   32.60   1
   9  -7   8   34.40   32.30   1
   9   7   9   24.50   38.30   1
  -9  -7  -9   53.70   38.40   1
   9  -7  -9    6.10   38.80   1
  -9   7   9  113.70   41.60   1
   9  -7   9  242.50   47.20   1
   9   7  10    6.90   23.00   1
  -9  -7 -10   26.80   23.30   1
   9  -7 -10   -0.10   23.90   1
  -9   7  10   -0.00   24.20   1
   9  -7  10   24.50   23.60   1
   9   7  11  202.50   79.10   1
  -9  -7 -11  116.00   78.80   1
   9  -7 -11  126.40   80.10   1
  -9   7  11  280.50   87.70   1
   9  -7  11  224.40   83.90   1
   9   7  12   -0.90   15.60   1
  -9  -7 -12    6.40   15.50   1
   9  -7 -12   -1.30   16.70   1
  -9   7  12   13.10   17.70   1
   9  -7  12   12.90   15.70   1
   9   7  13  385.70  113.80   1
  -9  -7 -13  305.00  113.50   1
   9  -7 -13  233.20  116.70   1
  -9   7  13  172.80  116.50   1
   9  -7  13  182.70  115.80   1
   9   7  14   17.70   17.80   1
  -9  -7 -14    0.90   17.40   1
   9  -7 -14    6.90   19.00   1
  -9   7  14    6.30   19.30   1
   9  -7  14    6.20   17.40   1
   9  -8   0  277.60  105.30   1
  -9   8   0  231.10  105.00   1
   9   8   1   34.60   40.00   1
  -9  -8  -1   34.90   40.00   1
   9  -8  -1   48.80   41.00   1
  -9   8   1   39.10   40.80   1
  -9   8  -1   37.10   40.80   1
   9  -8   1   47.30   41.10   1
   9  -8  -2 1764.20  276.10   1
  -9   8   2 1727.40  279.30   1
  -9   8  -2 1065.60  268.60   1
   9  -8   2 1134.50  267.70   1
   9   8   3   29.20   45.10   1
  -9  -8  -3   29.70   45.10   1
   9  -8  -3   84.90   46.60   1
  -9   8   3   79.70   46.30   1
  -9   8  -3  110.70   46.50   1
   9  -8   3   75.10   46.30   1
   9   8   4 3957.80  652.40   1
  -9  -8  -4 4692.90  661.10   1
   9  -8  -4 5336.30  691.90   1
  -9   8   4 4724.90  693.50   1
  -9   8  -4 4537.40  689.10   1
   9  -8   4 5582.70  692.60   1
   9   8   5  117.10   65.60   1
  -9  -8  -5   94.80   65.60   1
   9  -8  -5   93.30   66.80   1
  -9   8   5   88.00   66.50   1
  -9   8  -5   98.50   66.20   1
   9  -8   5  126.80   66.70   1
   9   8   6  642.70  157.90   1
  -9  -8  -6  409.60  157.00   1
   9  -8  -6  485.90  159.30   1
  -9   8   6 1305.70  179.10   1
  -9   8  -6 1127.90  173.60   1
   9  -8   6  855.10  163.30   1
   9   8   7   73.60   41.70   1
  -9  -8  -7   26.10   41.50   1
   9  -8  -7   53.60   43.30   1
  -9   8   7   44.90   42.50   1
  -9   8  -7   29.80   41.80   1
   9  -8   7   38.30   42.40   1
   9   8   8  700.30  163.00   1
  -9  -8  -8  559.30  162.50   1
   9  -8  -8 1343.30  183.70   1
  -9   8   8  576.20  167.30   1
  -9   8  -8  370.10  163.70   1
   9  -8   8  494.50  164.10   1
   9   8   9   18.60   28.90   1
  -9  -8  -9   10.70   29.00   1
   9  -8  -9   -0.10   31.40   1
  -9   8   9   27.70   30.40   1
  -9   8  -9   33.20   29.40   1
   9  -8   9   38.80   30.10   1
   9   8  10  376.20  118.30   1
  -9  -8 -10  271.30  117.90   1
  -9   8  10  375.50  122.80   1
  -9   8 -10  270.20  120.20   1
   9  -8  10  402.10  120.90   1
   9   8  11   57.70   48.40   1
  -9  -8 -11   63.60   48.50   1
   9  -8 -11   82.70   50.50   1
  -9   8  11   49.90   49.30   1
  -9   8 -11   38.50   48.60   1
   9  -8  11   64.80   49.20   1
   9   8  12  138.70   69.90   1
  -9  -8 -12   90.90   69.70   1
   9  -8 -12  454.30   81.90   1
  -9   8  12  172.20   72.80   1
  -9   8 -12  122.50   71.10   1
   9  -8  12  115.90   70.60   1
   9   8  13   -0.90   17.10   1
  -9  -8 -13    5.90   17.00   1
   9  -8 -13   27.30   20.60   1
  -9   8  13    7.60   18.70   1
  -9   8 -13    5.60   17.00   1
   9  -8  13   15.90   18.30   1
   9   9   0   36.40   45.20   1
  -9  -9   0   37.40   45.20   1
   9  -9   0   82.00   46.70   1
  -9   9   0   92.50   47.20   1
   9   9   1  152.70   90.10   1
  -9  -9  -1  166.20   90.30   1
   9  -9  -1  289.50   91.80   1
  -9   9   1  252.80   91.60   1
  -9   9  -1  286.00   92.00   1
   9  -9   1  286.20   91.70   1
  -9  -9   1  132.20   90.60   1
   9   9  -1  164.30   90.60   1
   9   9   2   21.60   41.80   1
  -9  -9  -2   34.30   41.90   1
   9  -9  -2   69.30   43.70   1
  -9   9   2   80.10   44.20   1
  -9   9  -2   79.00   43.80   1
   9  -9   2   66.00   43.50   1
   9   9   3   49.20   41.70   1
  -9  -9  -3   22.10   41.50   1
   9  -9  -3   71.10   44.10   1
  -9   9   3   54.30   43.70   1
  -9   9  -3   71.40   43.40   1
   9  -9   3   44.40   42.80   1
   9   9   4   15.60   43.60   1
  -9  -9  -4   35.10   43.70   1
   9  -9  -4  110.80   46.10   1
  -9   9   4  146.00   46.90   1
  -9   9  -4  126.80   45.90   1
   9  -9   4   51.40   44.70   1
   9   9   5   14.30   36.70   1
  -9  -9  -5   13.60   36.80   1
   9  -9  -5   85.60   39.30   1
  -9   9   5   63.10   39.20   1
  -9   9  -5  112.90   39.10   1
   9  -9   5   62.20   38.10   1
   9   9   6    6.10   35.50   1
  -9  -9  -6   20.50   35.60   1
   9  -9  -6   59.30   38.40   1
  -9   9   6   91.30   38.80   1
  -9   9  -6   68.10   37.30   1
   9  -9   6   69.30   37.00   1
   9   9   7   12.10   40.00   1
  -9  -9  -7   57.40   40.20   1
   9  -9  -7   69.40   42.50   1
  -9   9   7   65.30   42.70   1
  -9   9  -7   76.10   41.80   1
   9  -9   7   30.00   40.90   1
   9   9   8   18.50   30.70   1
  -9  -9  -8    8.10   30.80   1
   9  -9  -8   70.00   34.10   1
  -9   9   8   64.00   33.80   1
  -9   9  -8   74.90   32.90   1
   9  -9   8    7.20   31.50   1
   9   9   9    7.50   26.90   1
  -9  -9  -9   14.80   26.90   1
   9  -9  -9   79.20   30.90   1
  -9   9   9   22.50   29.80   1
  -9   9  -9   64.00   28.90   1
   9  -9   9    2.80   27.50   1
   9   9  10   23.70   33.80   1
  -9  -9 -10   19.50   33.70   1
   9  -9 -10   68.20   37.00   1
  -9   9  10   43.50   36.70   1
  -9   9 -10   63.90   35.40   1
   9  -9  10   18.80   34.10   1
   9   9  11    9.20   26.60   1
  -9  -9 -11   11.60   26.50   1
   9  -9 -11  124.50   33.20   1
  -9   9  11   27.40   29.70   1
  -9   9 -11   95.50   29.30   1
   9  -9  11    3.80   27.00   1
   9   9  12   13.00   24.50   1
  -9  -9 -12    4.60   24.30   1
   9  -9 -12   61.20   29.10   1
  -9   9  12   -0.00   26.90   1
  -9   9 -12   63.40   26.50   1
   9  -9  12   10.70   24.70   1
   9   9  13   38.90   42.90   1
  -9  -9 -13   41.20   43.00   1
   9  -9 -13   75.80   45.60   1
  -9   9  13   19.40   44.30   1
  -9   9 -13   62.80   43.90   1
   9  -9  13   53.30   43.30   1
   9  10   0   86.30   45.70   1
  -9 -10   0   76.70   45.60   1
   9 -10   0   16.80   46.10   1
  -9  10   0    1.60   46.00   1
   9  10   1   63.40   39.80   1
  -9 -10  -1   37.20   39.60   1
   9 -10  -1   37.80   40.50   1
  -9  10   1   17.00   40.70   1
  -9  10  -1   11.70   40.20   1
   9 -10   1   32.30   40.60   1
  -9 -10   1   39.60   39.90   1
   9  10  -1   43.30   39.90   1
   9  10   2  257.00   58.90   1
  -9 -10  -2  273.20   59.10   1
   9 -10  -2   47.40   58.70   1
  -9  10   2   24.90   58.70   1
  -9  10  -2   40.00   58.60   1
   9 -10   2   56.30   58.70   1
  -9 -10   2   73.70   58.30   1
   9  10  -2   69.50   58.20   1
   9  10   3   33.00   32.40   1
  -9 -10  -3   22.20   32.50   1
   9 -10  -3   46.00   33.90   1
  -9  10   3   53.70   34.00   1
  -9  10  -3   38.10   33.50   1
   9 -10   3   42.30   33.90   1
  -9 -10   3   17.10   32.50   1
   9  10  -3    0.00   32.50   1
   9  10   4  414.60  130.70   1
  -9 -10  -4  434.30  130.80   1
   9 -10  -4  335.00  131.20   1
  -9  10   4  286.80  130.90   1
  -9  10  -4  380.60  131.30   1
   9 -10   4  505.70  131.80   1
   9  10   5   32.70   35.70   1
  -9 -10  -5   33.70   35.80   1
   9 -10  -5   -0.00   36.80   1
  -9  10   5   22.40   37.00   1
  -9  10  -5   41.80   36.50   1
   9 -10   5   41.30   36.60   1
   9  10   6   91.30   47.90   1
  -9 -10  -6   53.60   47.70   1
   9 -10  -6   38.90   48.80   1
  -9  10   6   41.20   48.80   1
  -9  10  -6   41.90   48.20   1
   9 -10   6   42.80   48.20   1
   9  10   7   20.00   33.00   1
  -9 -10  -7   37.40   33.00   1
   9 -10  -7   -0.00   34.50   1
  -9  10   7   18.80   34.70   1
  -9  10  -7   41.10   33.90   1
   9 -10   7   26.10   33.70   1
   9  10   8  347.20  112.90   1
  -9 -10  -8  298.30  112.70   1
   9 -10  -8  179.40  113.10   1
  -9  10   8  233.80  113.70   1
  -9  10  -8  381.40  114.20   1
   9 -10   8  430.00  114.10   1
   9  10   9   15.40   25.10   1
  -9 -10  -9   -0.00   25.00   1
   9 -10  -9    7.20   27.00   1
  -9  10   9   30.60   27.50   1
  -9  10  -9   28.40   25.90   1
   9 -10   9   32.20   25.90   1
   9  10  10  103.20   58.80   1
  -9 -10 -10   71.40   58.60   1
   9 -10 -10   40.10   59.40   1
  -9  10  10   33.80   59.80   1
  -9  10 -10  113.80   59.40   1
   9 -10  10  272.90   60.60   1
   9  10  11   33.00   32.50   1
  -9 -10 -11   16.30   32.30   1
   9 -10 -11    8.20   33.80   1
  -9  10  11   26.80   34.10   1
  -9  10 -11   37.00   32.80   1
   9 -10  11   27.60   32.80   1
   9  10  12   37.00   34.50   1
  -9 -10 -12   33.20   34.40   1
   9 -10 -12    2.80   35.40   1
  -9  10  12   -0.00   35.80   1
  -9  10 -12   11.60   34.40   1
   9 -10  12   82.20   35.00   1
   9  10  13    8.30   18.70   1
  -9 -10 -13   -0.00   18.80   1
   9 -10 -13   -0.00   20.70   1
  -9  10  13    0.00   21.00   1
  -9  10 -13   -0.00   18.70   1
   9 -10  13   39.00   19.30   1
   9  11   0  142.50   61.00   1
  -9 -11   0  188.10   61.40   1
   9 -11   0   42.70   61.10   1
  -9  11   0   31.20   61.30   1
   9  11   1   78.80   66.40   1
  -9 -11  -1   78.00   66.40   1
   9 -11  -1  101.30   67.00   1
  -9  11   1  107.90   67.30   1
  -9  11  -1  128.30   67.10   1
   9 -11   1  119.00   67.00   1
  -9 -11   1  304.60   67.70   1
   9  11  -1  114.60   66.60   1
   9  11   2   60.40   47.60   1
  -9 -11  -2   60.20   47.70   1
   9 -11  -2  119.40   48.90   1
  -9  11   2   94.70   48.70   1
  -9  11  -2   20.70   48.00   1
   9 -11   2   21.00   48.00   1
  -9 -11   2   59.50   47.80   1
   9  11  -2   48.10   47.70   1
   9  11   3   23.80   45.70   1
  -9 -11  -3   19.80   45.60   1
   9 -11  -3   91.90   46.90   1
  -9  11   3  120.20   47.30   1
  -9  11  -3   16.00   46.00   1
   9 -11   3   77.70   46.30   1
  -9 -11   3  280.70   49.10   1
   9  11  -3   95.20   46.20   1
   9  11   4   28.20   41.20   1
  -9 -11  -4   41.00   41.30   1
   9 -11  -4  149.10   43.30   1
  -9  11   4  298.60   45.10   1
  -9  11  -4   14.90   42.00   1
   9 -11   4   16.60   41.70   1
  -9 -11   4   42.40   41.70   1
   9  11  -4   34.60   41.50   1
   9  11   5  136.80   70.50   1
  -9 -11  -5  108.60   70.40   1
   9 -11  -5  166.30   71.50   1
  -9  11   5  151.80   71.50   1
  -9  11  -5   90.10   70.90   1
   9 -11   5  107.80   71.00   1
   9  11  -5   99.60   70.80   1
   9  11   6   34.70   39.70   1
  -9 -11  -6   14.30   39.70   1
   9 -11  -6   64.80   41.40   1
  -9  11   6  124.60   41.70   1
  -9  11  -6   16.40   40.20   1
   9 -11   6   84.20   40.80   1
   9  11   7  182.90   48.50   1
  -9 -11  -7   63.20   48.10   1
   9 -11  -7   26.50   49.00   1
  -9  11   7   16.30   48.90   1
  -9  11  -7   49.70   48.50   1
   9 -11   7   20.10   48.30   1
   9  11   8   12.30   26.30   1
  -9 -11  -8   -0.00   26.10   1
   9 -11  -8   -0.00   28.10   1
  -9  11   8    5.20   28.10   1
  -9  11  -8   22.40   26.80   1
   9 -11   8  132.80   28.40   1
   9  11   9  124.00   63.80   1
  -9 -11  -9   79.60   63.60   1
   9 -11  -9  103.10   64.60   1
  -9  11   9   89.20   64.50   1
  -9  11  -9  132.70   64.20   1
   9 -11   9   76.80   64.00   1
   9  11  10    8.90   30.40   1
  -9 -11 -10   -0.00   30.40   1
   9 -11 -10   33.20   31.90   1
  -9  11  10   10.10   32.00   1
  -9  11 -10   64.50   31.10   1
   9 -11  10   75.30   31.70   1
   9  11  11   50.00   42.50   1
  -9 -11 -11   42.20   42.30   1
   9 -11 -11   30.90   43.40   1
  -9  11  11   10.30   43.10   1
  -9  11 -11   93.80   42.90   1
   9 -11  11   31.00   42.90   1
   9  11  12   29.90   27.30   1
  -9 -11 -12   32.60   27.10   1
   9 -11 -12   13.30   28.50   1
  -9  11  12    3.10   28.10   1
  -9  11 -12   -0.00   27.10   1
   9 -11  12   17.40   28.00   1
   9  12   0   17.30   24.20   1
  -9 -12   0    8.10   24.20   1
   9 -12   0    2.10   25.30   1
  -9  12   0   27.30   25.40   1
   9  12   1   11.60   29.00   1
  -9 -12  -1   10.50   28.90   1
   9 -12  -1   13.10   29.80   1
  -9  12   1   22.20   29.80   1
  -9  12  -1   10.40   29.80   1
   9 -12   1   13.10   30.10   1
  -9 -12   1   42.90   29.50   1
   9  12  -1   37.40   29.20   1
   9  12   2  541.70  145.70   1
  -9 -12  -2  528.90  145.70   1
   9 -12  -2  481.60  146.00   1
  -9  12   2  485.40  145.90   1
  -9  12  -2  460.60  145.90   1
   9 -12   2  543.60  146.30   1
  -9 -12   2  398.40  145.60   1
   9  12  -2  360.60  145.30   1
   9  12   3    3.10   26.20   1
  -9 -12  -3    6.00   26.40   1
   9 -12  -3   25.70   27.90   1
  -9  12   3   20.20   27.90   1
  -9  12  -3   26.90   27.40   1
   9 -12   3   -0.10   27.80   1
  -9 -12   3   29.60   26.60   1
   9  12  -3   29.20   26.70   1
   9  12   4 2328.70  356.90   1
  -9 -12  -4 2394.50  357.10   1
   9 -12  -4 1948.90  356.60   1
  -9  12   4 2591.60  362.60   1
  -9  12  -4 1814.30  355.40   1
   9 -12   4 1585.90  353.30   1
  -9 -12   4 2287.80  370.60   1
   9  12  -4 1776.10  358.90   1
   9  12   5   18.40   26.20   1
  -9 -12  -5   11.50   26.00   1
   9 -12  -5   -2.10   28.10   1
  -9  12   5   30.30   27.80   1
  -9  12  -5   -0.20   26.90   1
   9 -12   5   19.10   27.40   1
  -9 -12   5   30.00   26.60   1
   9  12  -5   18.30   26.60   1
   9  12   6  466.20  137.90   1
  -9 -12  -6  460.70  138.00   1
   9 -12  -6  472.50  138.90   1
  -9  12   6  547.00  139.60   1
  -9  12  -6  390.30  138.20   1
   9 -12   6  335.60  138.00   1
  -9 -12   6  434.60  142.20   1
   9  12  -6  332.10  139.10   1
   9  12   7   11.80   20.90   1
  -9 -12  -7    4.70   20.70   1
   9 -12  -7    8.10   22.90   1
  -9  12   7   41.30   23.50   1
  -9  12  -7    5.30   21.90   1
   9 -12   7    4.20   23.00   1
   9  12  -7    9.40   20.90   1
   9  12   8   70.50   56.90   1
  -9 -12  -8   57.00   56.80   1
   9 -12  -8   59.20   57.70   1
  -9  12   8  122.50   58.20   1
  -9  12  -8   76.10   57.50   1
   9 -12   8  209.50   58.80   1
   9  12   9   15.00   25.50   1
  -9 -12  -9   22.70   25.50   1
   9 -12  -9   27.10   26.80   1
  -9  12   9   12.40   27.00   1
  -9  12  -9    4.70   26.20   1
   9 -12   9   -1.00   27.30   1
   9  12  10  238.40  108.20   1
  -9 -12 -10  273.00  108.30   1
   9 -12 -10  302.80  109.50   1
  -9  12  10  429.40  111.60   1
  -9  12 -10  231.00  108.70   1
   9 -12  10  319.40  109.50   1
   9  12  11   30.20   25.70   1
  -9 -12 -11   -0.00   25.40   1
   9 -12 -11   15.70   27.10   1
  -9  12  11   39.50   27.60   1
  -9  12 -11   21.10   26.40   1
   9 -12  11   -0.30   26.60   1
   9  12  12  120.70   70.50   1
  -9 -12 -12  104.90   70.30   1
   9 -12 -12  169.20   71.70   1
  -9  12  12  173.10   72.00   1
  -9  12 -12   95.80   70.70   1
   9 -12  12  114.70   70.80   1
   9  13   0    4.70   19.50   1
  -9 -13   0   -0.10   19.70   1
   9 -13   0   20.00   22.50   1
  -9  13   0   29.70   21.40   1
   9  13   1  875.30  188.20   1
  -9 -13  -1  896.60  188.70   1
   9 -13  -1  651.70  187.90   1
  -9  13   1  763.00  188.50   1
  -9  13  -1  663.90  187.90   1
   9 -13   1  647.20  187.80   1
  -9 -13   1  697.20  187.70   1
   9  13  -1  736.70  187.90   1
   9  13   2  113.30   57.90   1
  -9 -13  -2   99.20   57.80   1
   9 -13  -2   77.80   59.00   1
  -9  13   2   83.60   58.70   1
  -9  13  -2   92.30   58.80   1
   9 -13   2  161.30   59.60   1
  -9 -13   2   53.70   57.70   1
   9  13  -2   49.70   57.70   1
   9  13   3 3382.50  471.40   1
  -9 -13  -3 3617.30  473.00   1
   9 -13  -3 3368.50  474.50   1
  -9  13   3 3513.90  477.50   1
  -9  13  -3 3826.30  477.80   1
   9 -13   3 4403.50  483.70   1
  -9 -13   3 2171.40  467.20   1
   9  13  -3 1978.00  464.10   1
   9  13   4   25.00   34.60   1
  -9 -13  -4   -0.00   34.70   1
   9 -13  -4   22.50   36.20   1
  -9  13   4   33.40   36.50   1
  -9  13  -4   47.90   36.90   1
   9 -13   4   59.80   37.90   1
  -9 -13   4   59.70   35.20   1
   9  13  -4   39.00   35.00   1
   9  13   5 2501.50  382.10   1
  -9 -13  -5 2364.30  382.40   1
   9 -13  -5 1958.40  382.30   1
  -9  13   5 2139.10  384.40   1
  -9  13  -5 2189.70  382.80   1
   9 -13   5 2360.30  385.00   1
  -9 -13   5 1924.50  388.20   1
   9  13  -5 2171.60  389.40   1
   9  13   6    6.20   33.60   1
  -9 -13  -6   44.10   33.90   1
   9 -13  -6   25.20   35.20   1
  -9  13   6   30.30   34.90   1
  -9  13  -6   50.90   35.80   1
   9 -13   6   21.60   36.10   1
  -9 -13   6    9.60   33.90   1
   9  13  -6   63.00   34.40   1
   9  13   7  402.60  108.50   1
  -9 -13  -7  256.70  107.80   1
   9 -13  -7  225.00  108.50   1
  -9  13   7  242.90  108.60   1
  -9  13  -7  359.10  109.40   1
   9 -13   7  209.80  108.60   1
  -9 -13   7  293.10  110.30   1
   9  13  -7  254.70  109.10   1
   9  13   8   19.90   23.10   1
  -9 -13  -8   31.60   22.90   1
   9 -13  -8   -0.00   24.60   1
  -9  13   8   15.10   24.10   1
  -9  13  -8   -0.00   25.00   1
   9 -13   8    1.20   24.70   1
  -9 -13   8    9.70   22.70   1
   9  13  -8   -0.00   22.80   1
   9  13   9  341.10  126.00   1
  -9 -13  -9  439.90  126.60   1
   9 -13  -9  270.00  126.50   1
  -9  13   9  323.30  126.90   1
  -9  13  -9  462.70  127.90   1
   9 -13   9  491.60  127.60   1
   9  13  -9  244.30  127.90   1
   9  13  10   45.80   32.90   1
  -9 -13 -10   32.60   32.70   1
   9 -13 -10    4.50   33.50   1
  -9  13  10   15.10   33.50   1
  -9  13 -10   20.30   33.90   1
   9 -13  10   18.20   33.00   1
   9  13  11  227.80   98.40   1
  -9 -13 -11  263.50   98.60   1
   9 -13 -11  168.60   98.80   1
  -9  13  11  211.00   99.30   1
  -9  13 -11  215.40   99.20   1
   9 -13  11  261.90   98.90   1
   9  13  12   29.20   32.80   1
  -9 -13 -12   24.40   32.80   1
   9 -13 -12   -0.00   33.70   1
  -9  13  12   36.20   33.90   1
  -9  13 -12   37.60   34.10   1
   9 -13  12   25.70   32.90   1
   9  14   0    3.50   29.90   1
  -9 -14   0    3.80   30.00   1
   9 -14   0   94.70   34.50   1
  -9  14   0  206.20   34.50   1
   9  14   1   62.10   44.30   1
  -9 -14  -1   48.00   44.30   1
   9 -14  -1   52.00   46.90   1
  -9  14   1   16.40   45.40   1
  -9  14  -1   31.00   45.90   1
   9 -14   1   21.10   45.90   1
  -9 -14   1   48.80   44.40   1
   9  14  -1   55.30   44.20   1
   9  14   2   66.10   48.10   1
  -9 -14  -2   73.00   48.20   1
   9 -14  -2   73.40   50.00   1
  -9  14   2   44.00   49.60   1
  -9  14  -2   44.10   49.70   1
   9 -14   2   33.20   50.00   1
  -9 -14   2   46.50   48.10   1
   9  14  -2   48.10   48.10   1
   9  14   3    4.70   26.60   1
  -9 -14  -3   10.20   26.50   1
   9 -14  -3   85.70   31.10   1
  -9  14   3   56.20   28.90   1
  -9  14  -3   65.10   29.80   1
   9 -14   3   28.00   29.80   1
  -9 -14   3    5.20   26.50   1
   9  14  -3    8.60   26.60   1
   9  14   4  117.40   61.80   1
  -9 -14  -4   99.70   61.80   1
   9 -14  -4   64.50   63.10   1
  -9  14   4  103.50   62.90   1
  -9  14  -4  123.20   63.50   1
   9 -14   4   56.60   62.90   1
  -9 -14   4   83.30   61.90   1
   9  14  -4   77.20   61.80   1
   9  14   5    4.70   19.90   1
  -9 -14  -5   -0.00   20.00   1
   9 -14  -5    9.90   22.80   1
  -9  14   5   -0.00   21.70   1
  -9  14  -5   15.00   23.10   1
   9 -14   5   26.50   22.70   1
  -9 -14   5    7.00   20.20   1
   9  14  -5   18.30   20.20   1
   9  14   6   19.90   32.00   1
  -9 -14  -6    4.90   31.80   1
   9 -14  -6   23.60   33.90   1
  -9  14   6   23.40   33.10   1
  -9  14  -6   97.90   34.70   1
   9 -14   6  105.70   34.20   1
  -9 -14   6   38.30   32.20   1
   9  14  -6    4.60   31.90   1
   9  14   7   14.60   22.10   1
  -9 -14  -7   16.00   22.10   1
   9 -14  -7   -0.00   24.80   1
  -9  14   7    6.00   23.70   1
  -9  14  -7   12.60   24.50   1
   9 -14   7   14.80   23.40   1
  -9 -14   7    5.00   22.40   1
   9  14  -7    9.50   22.10   1
   9  14   8   48.60   37.20   1
  -9 -14  -8   21.10   36.70   1
   9 -14  -8   13.70   38.40   1
  -9  14   8   11.10   37.50   1
  -9  14  -8   25.20   38.10   1
   9 -14   8   76.40   37.70   1
  -9 -14   8   19.70   36.80   1
   9  14  -8   55.00   37.20   1
   9  14   9   21.00   23.50   1
  -9 -14  -9    8.40   23.40   1
   9 -14  -9    2.60   25.80   1
  -9  14   9   -0.00   24.50   1
  -9  14  -9   36.80   25.10   1
   9 -14   9   35.70   24.10   1
  -9 -14   9   -0.10   23.40   1
   9  14  -9    4.30   23.20   1
   9  14  10   36.00   37.40   1
  -9 -14 -10   17.90   37.50   1
   9 -14 -10   19.20   39.00   1
  -9  14  10   17.90   38.20   1
  -9  14 -10   92.00   38.90   1
   9 -14  10   84.10   38.00   1
  -9 -14  10   18.80   37.30   1
   9  14 -10   25.30   37.40   1
   9  14  11   -0.00   19.90   1
  -9 -14 -11   15.00   20.30   1
   9 -14 -11   14.90   22.20   1
  -9  14  11    6.70   21.70   1
  -9  14 -11   17.30   21.00   1
   9 -14  11    5.50   19.80   1
   9  15   0   -0.50   12.20   1
  -9 -15   0    3.40   12.70   1
   9 -15   0    4.10   17.90   1
  -9  15   0   11.20   18.60   1
   9  15   1   39.40   38.40   1
  -9 -15  -1   49.20   38.60   1
   9 -15  -1    9.80   40.60   1
  -9  15   1   42.00   40.80   1
  -9  15  -1  108.60   41.60   1
   9 -15   1   74.90   40.60   1
  -9 -15   1   16.30   38.30   1
   9  15  -1   23.30   38.30   1
   9  15   2   73.60   53.30   1
  -9 -15  -2  100.80   53.50   1
   9 -15  -2   45.30   55.00   1
  -9  15   2   59.80   55.50   1
  -9  15  -2   43.30   54.50   1
   9 -15   2  149.60   55.10   1
  -9 -15   2   48.40   53.50   1
   9  15  -2   53.90   53.40   1
   9  15   3  519.60  138.30   1
  -9 -15  -3  454.80  138.10   1
   9 -15  -3  368.70  139.10   1
  -9  15   3  369.80  138.90   1
  -9  15  -3  297.90  138.30   1
   9 -15   3  469.80  138.80   1
  -9 -15   3  502.60  138.90   1
   9  15  -3  468.30  138.50   1
   9  15   4   -0.00   26.50   1
  -9 -15  -4    9.10   26.50   1
   9 -15  -4   19.20   30.20   1
  -9  15   4    5.40   29.60   1
  -9  15  -4   37.90   28.80   1
   9 -15   4    7.70   27.60   1
  -9 -15   4   35.70   26.50   1
   9  15  -4   19.60   26.40   1
   9  15   5  133.00   56.70   1
  -9 -15  -5  108.60   56.70   1
   9 -15  -5   64.00   58.20   1
  -9  15   5  107.50   58.40   1
  -9  15  -5  104.50   57.90   1
   9 -15   5   75.70   57.10   1
  -9 -15   5   53.90   56.40   1
   9  15  -5   37.60   56.30   1
   9  15   6   20.00   32.20   1
  -9 -15  -6   21.00   32.40   1
   9 -15  -6   35.00   35.90   1
  -9  15   6   17.00   34.10   1
  -9  15  -6   22.10   33.50   1
   9 -15   6   24.00   33.20   1
  -9 -15   6   24.30   32.50   1
   9  15  -6   36.50   32.50   1
   9  15   7   42.10   41.80   1
  -9 -15  -7   27.80   41.70   1
   9 -15  -7   27.40   44.50   1
  -9  15   7   41.60   43.30   1
  -9  15  -7   59.50   42.60   1
   9 -15   7   96.00   42.40   1
  -9 -15   7   31.40   41.90   1
   9  15  -7   30.20   41.80   1
   9  15   8   16.00   24.60   1
  -9 -15  -8    9.00   24.40   1
   9 -15  -8   33.20   28.60   1
  -9  15   8    6.60   26.30   1
  -9  15  -8    3.20   25.30   1
   9 -15   8   15.50   24.80   1
  -9 -15   8   43.30   24.90   1
   9  15  -8   -0.00   24.30   1
   9  15   9   31.90   35.20   1
  -9 -15  -9   24.40   35.10   1
   9 -15  -9   34.70   37.70   1
  -9  15   9    6.30   36.20   1
  -9  15  -9   41.40   35.40   1
   9 -15   9   21.90   35.00   1
  -9 -15   9   95.20   36.50   1
   9  15  -9   19.50   34.90   1
   9  15  10   22.20   29.20   1
  -9 -15 -10   18.10   29.10   1
   9 -15 -10   28.40   32.20   1
  -9  15  10   24.50   30.30   1
  -9  15 -10   20.80   29.30   1
   9 -15  10   16.40   28.90   1
  -9 -15  10   15.10   29.20   1
   9  16   0   93.50   66.70   1
  -9 -16   0  119.50   66.70   1
   9 -16   0  159.70   67.70   1
  -9  16   0   66.10   67.70   1
   9  16   1   -0.00   29.40   1
  -9 -16  -1   16.10   29.50   1
   9 -16  -1   12.30   31.30   1
  -9  16   1    7.20   31.70   1
  -9  16  -1   73.80   32.50   1
   9 -16   1   62.60   31.40   1
  -9 -16   1   25.40   29.50   1
   9  16  -1   21.70   29.40   1
   9  16   2  686.80  175.80   1
  -9 -16  -2  604.60  175.50   1
   9 -16  -2  552.70  176.10   1
  -9  16   2  556.30  176.40   1
  -9  16  -2  929.50  178.30   1
   9 -16   2  797.90  177.20   1
  -9 -16   2  637.00  176.00   1
   9  16  -2  643.70  175.90   1
   9  16   3   -0.00   19.00   1
  -9 -16  -3   -0.00   18.80   1
   9 -16  -3   30.80   22.30   1
  -9  16   3   43.40   23.30   1
  -9  16  -3   16.10   21.70   1
   9 -16   3    6.60   20.50   1
  -9 -16   3    6.80   18.60   1
   9  16  -3    4.70   18.50   1
   9  16   4   45.30   44.80   1
  -9 -16  -4   58.90   44.70   1
   9 -16  -4   44.00   46.30   1
  -9  16   4   47.10   46.70   1
  -9  16  -4  130.10   46.30   1
   9 -16   4  201.60   46.40   1
  -9 -16   4   19.90   44.50   1
   9  16  -4   19.30   44.40   1
   9  16   5   20.80   33.40   1
  -9 -16  -5   25.30   33.30   1
   9 -16  -5   17.50   35.80   1
  -9  16   5   11.70   37.00   1
  -9  16  -5   61.40   34.60   1
   9 -16   5   48.80   33.80   1
  -9 -16   5   16.40   33.20   1
   9  16  -5   20.30   33.20   1
   9  16   6   95.00   59.10   1
  -9 -16  -6   57.50   59.00   1
   9 -16  -6   75.60   61.10   1
  -9  16   6  118.30   61.10   1
  -9  16  -6   82.50   59.50   1
   9 -16   6   95.00   59.40   1
  -9 -16   6   88.20   59.10   1
   9  16  -6   82.30   59.10   1
   9  16   7   44.30   29.10   1
  -9 -16  -7   39.30   29.00   1
   9 -16  -7   -0.40   32.60   1
  -9  16   7   -0.00   32.40   1
  -9  16  -7   17.80   29.00   1
   9 -16   7   22.90   29.00   1
  -9 -16   7    5.70   28.60   1
   9  16  -7    9.30   28.50   1
   9  16   8   66.90   51.40   1
  -9 -16  -8   35.10   51.20   1
   9 -16  -8   59.70   53.60   1
  -9  16   8   78.30   53.20   1
  -9  16  -8   58.20   51.50   1
   9 -16   8   42.20   51.30   1
  -9 -16   8  185.00   53.00   1
   9  16  -8  125.30   51.90   1
   9  16   9   10.20   24.60   1
  -9 -16  -9   13.40   24.70   1
   9 -16  -9   -0.00   28.40   1
  -9  16   9    7.80   27.80   1
  -9  16  -9   -0.00   24.90   1
   9 -16   9   19.60   24.70   1
  -9 -16   9   31.50   24.80   1
   9  16  10  100.30   64.80   1
  -9 -16 -10  101.70   64.90   1
   9 -16 -10   52.20   66.20   1
  -9  16  10   74.70   66.00   1
   9 -16  10  130.60   65.00   1
  -9 -16  10  129.70   65.70   1
   9  17   0    8.40   28.10   1
  -9 -17   0    7.50   28.10   1
   9 -17   0   57.10   29.90   1
  -9  17   0   46.00   30.50   1
   9  17   1   56.00   49.30   1
  -9 -17  -1   64.10   49.30   1
   9 -17  -1   74.40   50.10   1
  -9  17   1   53.30   50.70   1
  -9  17  -1  189.20   50.90   1
   9 -17   1  104.90   50.20   1
  -9 -17   1   38.40   49.30   1
   9  17  -1   23.80   49.10   1
   9  17   2    7.60   23.10   1
  -9 -17  -2   -0.00   23.00   1
   9 -17  -2   35.10   24.80   1
  -9  17   2   29.10   25.70   1
  -9  17  -2   19.70   24.50   1
   9 -17   2   22.60   24.00   1
  -9 -17   2   -0.00   23.00   1
   9  17  -2   13.10   22.80   1
   9  17   3   52.80   49.40   1
  -9 -17  -3   73.30   49.40   1
   9 -17  -3   45.10   50.40   1
  -9  17   3   52.20   50.60   1
  -9  17  -3   51.80   49.80   1
   9 -17   3   91.40   49.90   1
  -9 -17   3   44.40   49.30   1
   9  17  -3   58.10   49.30   1
   9  17   4   15.20   21.50   1
  -9 -17  -4    7.70   21.70   1
   9 -17  -4   19.70   23.40   1
  -9  17   4   -0.00   25.50   1
  -9  17  -4   13.60   22.00   1
   9 -17   4   35.60   22.50   1
  -9 -17   4   -0.20   21.20   1
   9  17  -4   -0.00   21.10   1
   9  17   5  161.20   72.10   1
  -9 -17  -5  121.00   71.90   1
   9 -17  -5   94.90   72.80   1
  -9  17   5   68.50   72.70   1
  -9  17  -5  116.90   72.00   1
   9 -17   5  237.20   72.60   1
  -9 -17   5  107.80   71.80   1
   9  17  -5  110.40   71.70   1
   9  17   6   -0.00   16.40   1
  -9 -17  -6   -0.00   16.50   1
   9 -17  -6   -0.00   19.50   1
  -9  17   6   14.60   20.70   1
  -9  17  -6    5.10   17.00   1
   9 -17   6   19.70   16.80   1
  -9 -17   6    9.00   16.00   1
   9  17  -6   -0.00   15.80   1
   9  17   7   20.40   33.40   1
  -9 -17  -7   22.00   33.50   1
   9 -17  -7   33.10   35.90   1
  -9  17   7   18.30   36.90   1
  -9  17  -7  124.50   34.40   1
   9 -17   7   23.40   33.40   1
  -9 -17   7   15.90   33.00   1
   9  17  -7   15.60   33.10   1
   9  17   8   16.20   22.80   1
  -9 -17  -8    5.90   22.90   1
   9 -17  -8   -0.10   26.60   1
  -9  17   8   13.70   26.50   1
  -9  17  -8   18.20   23.00   1
   9 -17   8   18.80   22.70   1
  -9 -17   8    8.80   22.30   1
   9  17  -8    4.30   22.40   1
   9  17   9    3.90   25.20   1
  -9 -17  -9   21.30   25.40   1
   9 -17  -9   48.90   29.50   1
  -9  17   9    0.00   29.30   1
   9 -17   9   30.90   25.30   1
  -9 -17   9   -0.00   25.10   1
   9  18   0   21.50   46.20   1
  -9 -18   0   32.80   46.30   1
   9 -18   0  124.80   47.40   1
  -9  18   0  102.10   47.10   1
   9  18   1   10.60   29.00   1
  -9 -18  -1   -0.10   28.80   1
   9 -18  -1   10.60   29.50   1
  -9  18   1   13.40   30.20   1
  -9  18  -1   24.40   29.80   1
   9 -18   1   34.90   29.70   1
  -9 -18   1   39.00   28.90   1
   9  18  -1   28.30   29.10   1
   9  18   2  138.90   82.20   1
  -9 -18  -2  157.10   82.30   1
   9 -18  -2  122.70   82.50   1
  -9  18   2  175.60   83.10   1
  -9  18  -2  265.70   83.20   1
   9 -18   2  139.50   82.50   1
  -9 -18   2  206.90   82.50   1
   9  18  -2  152.80   82.10   1
   9  18   3   46.10   40.00   1
  -9 -18  -3   70.10   39.90   1
   9 -18  -3   47.60   40.70   1
  -9  18   3   66.80   41.00   1
  -9  18  -3   15.70   40.00   1
   9 -18   3   30.50   40.00   1
  -9 -18   3   26.70   39.50   1
   9  18  -3   26.70   39.50   1
   9  18   4  806.00  201.40   1
  -9 -18  -4 1046.00  203.20   1
   9 -18  -4  778.10  202.20   1
  -9  18   4  813.10  202.60   1
  -9  18  -4  720.60  201.40   1
   9 -18   4  978.10  203.30   1
  -9 -18   4  865.30  202.90   1
   9  18  -4  695.10  201.40   1
   9  18   5   41.20   25.80   1
  -9 -18  -5   15.40   25.60   1
   9 -18  -5   39.60   27.50   1
  -9  18   5   46.90   29.00   1
  -9  18  -5   18.70   25.90   1
   9 -18   5   -1.10   25.60   1
  -9 -18   5   -0.00   25.20   1
   9  18  -5    7.50   25.30   1
   9  18   6   77.00   56.40   1
  -9 -18  -6   75.00   56.40   1
   9 -18  -6   48.70   56.80   1
  -9  18   6   47.00   57.30   1
  -9  18  -6   60.40   56.30   1
   9 -18   6   92.50   56.50   1
  -9 -18   6  102.40   56.30   1
   9  18  -6   87.90   56.10   1
   9  18   7    6.30   18.50   1
  -9 -18  -7   -0.00   18.50   1
   9 -18  -7   -0.00   20.80   1
  -9  18   7    7.10   22.20   1
  -9  18  -7   -2.50   18.40   1
   9 -18   7   19.40   18.10   1
  -9 -18   7   15.60   17.90   1
   9  18  -7   -0.00   18.00   1
   9  18   8    7.80   26.50   1
  -9 -18  -8   24.40   26.80   1
   9 -18  -8   -0.00   28.40   1
  -9  18   8   21.50   29.70   1
   9 -18   8   33.70   26.70   1
  -9 -18   8    9.00   26.10   1
   9  19   0   -0.10   14.80   1
  -9 -19   0    5.40   14.20   1
   9 -19   0    7.40   16.00   1
  -9  19   0    1.70   16.40   1
   9  19   1   67.40   45.80   1
  -9 -19  -1   55.70   45.60   1
   9 -19  -1   65.10   46.20   1
  -9  19   1  101.40   46.70   1
  -9  19  -1  121.30   46.60   1
   9 -19   1   28.60   45.80   1
  -9 -19   1   28.70   45.50   1
   9  19  -1   22.00   45.30   1
   9  19   2   17.80   27.80   1
  -9 -19  -2   20.20   27.70   1
   9 -19  -2   35.40   28.50   1
  -9  19   2   21.90   28.70   1
  -9  19  -2   10.40   28.00   1
   9 -19   2   18.40   28.20   1
  -9 -19   2   10.90   27.60   1
   9  19  -2   13.90   27.60   1
   9  19   3   57.80   40.60   1
  -9 -19  -3   57.20   40.60   1
   9 -19  -3   46.30   40.80   1
  -9  19   3   82.00   41.50   1
  -9  19  -3   37.40   40.70   1
   9 -19   3   21.00   40.40   1
  -9 -19   3   17.40   40.10   1
   9  19  -3   30.70   40.30   1
   9  19   4    9.20   24.00   1
  -9 -19  -4    9.70   23.60   1
   9 -19  -4   20.40   24.90   1
  -9  19   4   -0.00   25.30   1
  -9  19  -4    4.10   23.90   1
   9 -19   4    4.50   23.90   1
  -9 -19   4   24.00   23.30   1
   9  19  -4   16.70   23.40   1
   9  19   5   23.80   32.70   1
  -9 -19  -5   23.60   32.30   1
   9 -19  -5   18.10   32.90   1
  -9  19   5   48.10   33.70   1
  -9  19  -5   59.90   32.70   1
   9 -19   5   -0.00   32.20   1
  -9 -19   5   24.60   32.20   1
   9  19  -5   22.30   32.10   1
   9  19   6    3.40   15.30   1
  -9 -19  -6    6.20   15.00   1
   9 -19  -6   -0.00   17.30   1
  -9  19   6   -0.00   17.70   1
   9 -19   6    6.60   14.90   1
  -9 -19   6    4.10   14.50   1
   9  19  -6    2.40   14.20   1
   9  19   7    6.60   35.80   1
  -9 -19  -7   31.80   36.10   1
   9 -19  -7   42.90   36.80   1
  -9  19   7   82.40   38.20   1
   9 -19   7   35.00   35.90   1
  -9 -19   7   27.10   35.60   1
   9  20   0   84.10   45.60   1
  -9 -20   0   68.00   45.50   1
   9 -20   0    8.50   45.40   1
  -9  20   0   45.50   45.60   1
   9  20   1    6.10   22.40   1
  -9 -20  -1   -0.00   22.40   1
   9 -20  -1   12.40   22.60   1
  -9  20   1    3.50   23.20   1
  -9  20  -1   28.60   22.50   1
   9 -20   1   42.30   22.80   1
  -9 -20   1    1.60   21.50   1
   9  20  -1   -0.00   22.00   1
   9  20   2   65.90   45.00   1
  -9 -20  -2   59.90   45.00   1
   9 -20  -2   69.80   45.00   1
  -9  20   2   64.20   45.10   1
  -9  20  -2   59.60   44.90   1
   9 -20   2   43.40   44.80   1
  -9 -20   2   29.70   44.40   1
   9  20  -2   21.30   44.40   1
   9  20   3   14.90   33.20   1
  -9 -20  -3   15.50   33.10   1
   9 -20  -3   11.80   33.40   1
  -9  20   3    9.10   33.70   1
  -9  20  -3   13.60   33.30   1
   9 -20   3   33.30   33.20   1
  -9 -20   3   33.10   32.80   1
   9  20  -3   68.50   33.30   1
   9  20   4   53.60   37.20   1
  -9 -20  -4   23.30   36.80   1
   9 -20  -4   29.00   37.50   1
  -9  20   4   39.40   37.80   1
  -9  20  -4   26.60   36.90   1
   9 -20   4   -0.00   36.90   1
  -9 -20   4   25.80   36.60   1
   9  20  -4   71.80   37.00   1
   9  20   5    9.80   27.70   1
  -9 -20  -5   -0.00   27.40   1
   9 -20  -5   19.00   28.10   1
  -9  20   5   -0.00   28.50   1
   9 -20   5    9.00   27.30   1
  -9 -20   5   42.70   27.20   1
   9  20  -5   26.60   27.10   1
   9  20   6   26.60   46.30   1
  -9 -20  -6   37.80   46.50   1
   9 -20  -6   43.70   47.10   1
  -9  20   6   46.60   47.10   1
   9 -20   6   61.40   46.70   1
  -9 -20   6  127.60   46.90   1
   9  21   0   32.40   31.10   1
  -9 -21   0   24.60   31.10   1
   9 -21   0    6.30   31.20   1
  -9  21   0   23.00   31.10   1
   9  21   1  105.90   63.10   1
  -9 -21  -1   97.40   63.10   1
   9 -21  -1   71.60   63.20   1
  -9  21   1   71.40   63.10   1
  -9  21  -1   88.20   63.20   1
   9 -21   1   94.90   63.10   1
  -9 -21   1  139.80   63.30   1
   9  21  -1   96.10   63.00   1
   9  21   2   -0.10   16.10   1
  -9 -21  -2    4.10   15.50   1
   9 -21  -2   -0.00   16.00   1
  -9  21   2   19.50   16.80   1
  -9  21  -2    3.70   15.70   1
   9 -21   2    5.20   15.70   1
  -9 -21   2    0.60   14.80   1
   9  21  -2    2.50   14.60   1
   9  21   3  145.70   42.60   1
  -9 -21  -3   72.80   41.80   1
   9 -21  -3   12.90   41.60   1
  -9  21   3   12.60   42.00   1
  -9  21  -3   31.90   41.60   1
   9 -21   3   37.80   41.50   1
  -9 -21   3   21.20   41.30   1
   9  21  -3   55.10   41.50   1
   9  21   4   -0.00   30.00   1
  -9 -21  -4   20.70   30.40   1
   9 -21  -4   14.50   30.60   1
  -9  21   4    7.70   30.40   1
   9 -21   4   34.50   30.30   1
  -9 -21   4   28.00   29.80   1
   9  21  -4   36.70   30.00   1
  10   2  14   64.70   52.10   1
  10   3  12   25.60   32.70   1
  10   3  13   43.40   42.40   1
  10   3  14   48.60   34.90   1
 -10  -3 -14   17.40   34.70   1
  10   4  10   17.00   26.80   1
  10   4  11   21.30   26.50   1
 -10  -4 -11   13.30   26.20   1
  10   4  12   21.70   25.50   1
 -10  -4 -12   10.10   25.40   1
  10   4  13    4.90   11.50   1
 -10  -4 -13   -0.00   11.60   1
  10   4  14    7.80   20.00   1
 -10  -4 -14   11.40   20.20   1
  10   5   8   20.70   29.60   1
  10   5   9 1869.00  356.30   1
 -10  -5  -9 1827.00  372.10   1
  10   5  10   35.50   36.60   1
 -10  -5 -10   28.80   36.60   1
  10   5  11  226.60   94.00   1
 -10  -5 -11  184.50   93.90   1
  10   5  12   28.80   37.50   1
 -10  -5 -12   41.60   37.70   1
  10   5  13   33.20   45.30   1
 -10  -5 -13  161.40   46.70   1
  10   5  14   26.50   29.70   1
 -10  -5 -14   16.10   29.80   1
  10   6   6   39.60   40.50   1
  10   6   7   14.80   22.00   1
 -10  -6  -7    8.00   21.80   1
  10   6   8   49.80   47.90   1
 -10  -6  -8   62.50   48.00   1
  10   6   9   32.50   38.00   1
 -10  -6  -9   37.20   38.20   1
  10   6  10   85.00   66.20   1
 -10  -6 -10  163.10   66.80   1
  10   6  11   24.10   30.20   1
 -10  -6 -11   19.50   30.20   1
  10   6  12   28.70   34.70   1
 -10  -6 -12   29.40   34.80   1
  10   6  13   16.40   28.70   1
 -10  -6 -13   23.80   28.80   1
  10   6  14   15.30   24.40   1
 -10  -6 -14   12.90   24.40   1
  10   7   4    3.90   13.80   1
  10   7   5   50.50   38.70   1
 -10  -7  -5   24.90   38.40   1
  10   7   6   34.20   37.50   1
 -10  -7  -6   33.10   37.50   1
  10   7   7   55.20   53.90   1
 -10  -7  -7   96.40   54.20   1
  10   7   8   22.80   36.40   1
 -10  -7  -8   42.70   36.50   1
  10   7   9   73.50   60.30   1
 -10  -7  -9  111.80   60.50   1
  10   7  10   28.70   31.00   1
 -10  -7 -10   26.50   31.10   1
  10  -7 -10    3.10   31.90   1
  10   7  11   13.70   24.20   1
 -10  -7 -11   15.20   24.30   1
  10  -7 -11   10.50   25.30   1
  10   7  12    9.10   26.50   1
 -10  -7 -12   26.70   26.70   1
  10  -7 -12   21.60   27.90   1
  10   7  13   33.20   28.00   1
 -10  -7 -13   14.00   27.90   1
  10  -7 -13   -0.30   28.80   1
  10  -8   0   50.80   37.30   1
 -10   8   0   18.10   37.20   1
  10  -8  -1   49.00   46.40   1
 -10   8   1   53.50   46.60   1
 -10   8  -1   57.40   46.70   1
  10  -8   1   47.30   46.50   1
  10  -8  -2   25.80   34.70   1
 -10   8   2   23.10   34.60   1
 -10   8  -2   15.20   34.60   1
  10  -8   2   53.20   34.80   1
  10   8   3   49.90   28.60   1
 -10  -8  -3   16.70   28.10   1
  10  -8  -3    0.00   28.50   1
 -10   8   3    7.80   28.90   1
 -10   8  -3   27.50   29.00   1
  10  -8   3   17.40   28.40   1
  10   8   4  295.00  111.00   1
 -10  -8  -4  196.50  110.50   1
  10  -8  -4  398.30  114.00   1
 -10   8   4  501.50  117.80   1
 -10   8  -4  400.80  116.30   1
  10  -8   4  372.30  113.70   1
  10   8   5   68.00   41.80   1
 -10  -8  -5   51.70   41.90   1
  10  -8  -5   20.30   42.10   1
 -10   8   5   17.20   41.90   1
 -10   8  -5   70.60   42.70   1
  10  -8   5   35.30   41.90   1
  10   8   6  685.20  160.20   1
 -10  -8  -6  768.30  161.30   1
  10  -8  -6  373.90  160.30   1
 -10   8   6  419.10  161.90   1
 -10   8  -6  443.00  165.10   1
  10  -8   6  493.80  162.80   1
  10   8   7   85.60   40.10   1
 -10  -8  -7   61.60   40.00   1
  10  -8  -7   31.20   40.40   1
 -10   8   7   -0.30   40.30   1
  10  -8   7   18.50   39.90   1
  10   8   8  149.30   79.00   1
 -10  -8  -8  144.60   79.00   1
  10  -8  -8  169.90   80.60   1
 -10   8   8  173.70   81.20   1
  10  -8   8  130.00   79.90   1
  10   8   9   38.20   26.40   1
 -10  -8  -9    6.80   26.20   1
  10  -8  -9   17.00   27.20   1
 -10   8   9    2.90   27.10   1
  10  -8   9   13.60   26.50   1
  10   8  10   57.90   37.70   1
 -10  -8 -10   16.00   37.50   1
  10  -8 -10   11.70   38.10   1
 -10   8  10   69.60   39.30   1
  10  -8  10   58.90   38.30   1
  10   8  11   15.90   28.90   1
 -10  -8 -11   57.60   29.30   1
  10  -8 -11   -0.10   29.60   1
 -10   8  11    7.50   29.80   1
  10  -8  11   17.40   29.20   1
  10   8  12   31.80   29.20   1
 -10  -8 -12   16.70   29.20   1
  10  -8 -12   -0.00   29.80   1
 -10   8  12    9.50   30.10   1
  10  -8  12   50.50   30.10   1
  10   8  13   -0.00   17.80   1
 -10  -8 -13   15.70   17.80   1
  10  -8 -13   11.60   19.30   1
 -10   8  13   -0.00   19.20   1
  10  -8  13    7.80   18.00   1
  10  -9   0   13.60   21.60   1
 -10   9   0    4.20   20.70   1
  10   9   1   44.90   37.60   1
 -10  -9  -1   32.60   37.40   1
  10  -9  -1   43.90   38.90   1
 -10   9   1   22.20   38.20   1
 -10   9  -1    0.50   38.20   1
  10  -9   1   73.90   39.30   1
  10   9   2   29.40   36.50   1
 -10  -9  -2   43.20   36.50   1
  10  -9  -2   32.00   37.90   1
 -10   9   2   16.60   37.40   1
 -10   9  -2   29.40   37.40   1
  10  -9   2   30.70   37.60   1
  10   9   3   44.60   43.40   1
 -10  -9  -3   40.20   43.30   1
  10  -9  -3   44.90   44.70   1
 -10   9   3   37.80   44.40   1
 -10   9  -3   33.50   44.10   1
  10  -9   3  102.80   45.20   1
  10   9   4   48.20   44.40   1
 -10  -9  -4   44.60   44.40   1
  10  -9  -4   28.50   45.50   1
 -10   9   4   13.80   45.10   1
 -10   9  -4   79.50   45.30   1
  10  -9   4   85.30   45.70   1
  10   9   5   45.40   35.50   1
 -10  -9  -5   12.70   35.30   1
  10  -9  -5   24.50   37.30   1
 -10   9   5   15.50   36.70   1
 -10   9  -5   53.40   36.70   1
  10  -9   5   52.10   37.30   1
  10   9   6    5.60   28.90   1
 -10  -9  -6   14.80   28.90   1
  10  -9  -6   24.60   31.30   1
 -10   9   6   35.60   30.80   1
 -10   9  -6   43.90   30.50   1
  10  -9   6   31.20   30.70   1
  10   9   7   26.30   40.90   1
 -10  -9  -7   33.60   40.90   1
  10  -9  -7   43.60   43.00   1
 -10   9   7   71.30   42.50   1
 -10   9  -7   63.00   41.90   1
  10  -9   7   63.80   42.60   1
  10   9   8    2.50   32.40   1
 -10  -9  -8   12.30   32.40   1
  10  -9  -8   23.60   34.90   1
 -10   9   8  109.30   35.40   1
 -10   9  -8   94.30   34.10   1
  10  -9   8   84.30   34.80   1
  10   9   9  143.80   72.20   1
 -10  -9  -9  136.30   72.20   1
  10  -9  -9  165.70   74.40   1
 -10   9   9   72.70   72.70   1
 -10   9  -9   95.00   72.60   1
  10  -9   9  152.10   73.50   1
  10   9  10    8.90   23.20   1
 -10  -9 -10    3.80   23.20   1
  10  -9 -10   25.40   26.20   1
 -10   9  10   36.00   25.20   1
 -10   9 -10   13.00   23.80   1
  10  -9  10   25.80   24.80   1
  10   9  11   45.50   43.30   1
 -10  -9 -11   33.20   43.20   1
  10  -9 -11   55.60   45.30   1
 -10   9  11   56.50   44.60   1
 -10   9 -11   80.30   44.30   1
  10  -9  11   43.00   44.10   1
  10   9  12   16.20   17.80   1
 -10  -9 -12    7.00   17.50   1
  10  -9 -12   -0.10   22.20   1
 -10   9  12    5.60   19.30   1
 -10   9 -12   -0.00   17.80   1
  10  -9  12    4.80   19.10   1
  10   9  13    4.40   18.00   1
 -10  -9 -13   -0.00   17.80   1
  10  -9 -13   28.20   22.40   1
 -10   9  13   38.50   20.20   1
 -10   9 -13   10.50   18.10   1
  10  -9  13    0.00   19.10   1
  10  10   0 2307.90  419.60   1
 -10 -10   0 2180.90  422.20   1
  10 -10   0 2487.30  412.80   1
 -10  10   0 2682.70  417.40   1
  10  10   1   17.50   38.60   1
 -10 -10  -1   22.20   38.60   1
  10 -10  -1  107.70   41.90   1
 -10  10   1  100.30   41.40   1
 -10  10  -1  117.00   41.80   1
  10 -10   1   71.60   41.00   1
 -10 -10   1   25.30   38.50   1
  10  10  -1   32.10   38.60   1
  10  10   2   54.20   51.80   1
 -10 -10  -2   51.20   52.00   1
  10 -10  -2   87.60   53.70   1
 -10  10   2   95.00   54.10   1
 -10  10  -2  103.80   53.90   1
  10 -10   2   67.30   53.20   1
  10  10   3   51.10   48.20   1
 -10 -10  -3   24.60   48.10   1
  10 -10  -3   95.50   50.10   1
 -10  10   3  115.50   50.30   1
 -10  10  -3   84.20   49.70   1
  10 -10   3   87.30   49.80   1
  10  10   4  224.60   81.80   1
 -10 -10  -4  197.70   81.70   1
  10 -10  -4  146.40   82.90   1
 -10  10   4  108.80   82.70   1
 -10  10  -4  168.00   82.80   1
  10 -10   4   85.70   82.20   1
  10  10   5   62.60   38.20   1
 -10 -10  -5   15.20   37.90   1
  10 -10  -5   62.80   40.50   1
 -10  10   5   85.50   40.90   1
 -10  10  -5   -0.10   39.50   1
  10 -10   5   31.00   39.20   1
  10  10   6  189.50   78.90   1
 -10 -10  -6  136.40   78.70   1
  10 -10  -6  123.60   80.20   1
 -10  10   6  119.30   80.40   1
 -10  10  -6   96.50   79.50   1
  10 -10   6  236.50   80.10   1
  10  10   7   38.80   42.50   1
 -10 -10  -7   53.60   42.80   1
  10 -10  -7   39.80   45.10   1
 -10  10   7   31.00   44.50   1
 -10  10  -7   57.90   44.00   1
  10 -10   7   37.90   43.50   1
  10  10   8  679.00  147.20   1
 -10 -10  -8  532.40  146.50   1
  10 -10  -8  394.10  147.70   1
 -10  10   8  608.70  151.10   1
 -10  10  -8  345.50  146.90   1
  10 -10   8  381.90  146.70   1
  10  10   9   18.00   28.30   1
 -10 -10  -9   11.70   28.30   1
  10 -10  -9   57.70   32.10   1
 -10  10   9   31.80   31.60   1
 -10  10  -9   52.20   30.40   1
  10 -10   9    6.60   29.00   1
  10  10  10   17.90   33.10   1
 -10 -10 -10   33.40   33.20   1
  10 -10 -10  123.20   37.80   1
 -10  10  10    9.70   35.30   1
 -10  10 -10  119.60   36.10   1
  10 -10  10   -0.00   33.60   1
  10  10  11   33.00   39.80   1
 -10 -10 -11   70.30   40.00   1
  10 -10 -11   60.60   42.80   1
 -10  10  11   11.20   41.50   1
 -10  10 -11   58.00   41.20   1
  10 -10  11   11.80   40.10   1
  10  10  12   13.20   26.40   1
 -10 -10 -12    6.70   26.20   1
  10 -10 -12  203.20   36.10   1
 -10  10  12   19.50   29.10   1
 -10  10 -12  208.50   33.70   1
  10 -10  12    9.90   26.70   1
  10  11   0   36.50   32.20   1
 -10 -11   0   16.20   31.80   1
  10 -11   0   34.30   33.40   1
 -10  11   0    9.90   33.10   1
  10  11   1  159.00   57.60   1
 -10 -11  -1  126.50   57.40   1
  10 -11  -1   78.30   58.10   1
 -10  11   1   47.60   57.70   1
 -10  11  -1   24.40   57.60   1
  10 -11   1   61.00   57.90   1
 -10 -11   1   86.20   57.50   1
  10  11  -1   67.90   57.20   1
  10  11   2   73.10   41.80   1
 -10 -11  -2   40.50   41.60   1
  10 -11  -2   35.90   42.60   1
 -10  11   2   30.50   42.80   1
 -10  11  -2   -0.30   42.30   1
  10 -11   2   39.70   42.50   1
 -10 -11   2   29.60   41.70   1
  10  11  -2   73.50   42.00   1
  10  11   3   46.20   42.90   1
 -10 -11  -3   37.30   42.80   1
  10 -11  -3   49.10   44.20   1
 -10  11   3   59.90   44.40   1
 -10  11  -3   20.60   43.50   1
  10 -11   3   40.40   43.60   1
 -10 -11   3   49.00   43.00   1
  10  11  -3   60.20   43.10   1
  10  11   4    0.00   13.40   1
 -10 -11  -4   -1.50   13.40   1
  10 -11  -4   22.80   16.80   1
 -10  11   4   11.70   16.90   1
 -10  11  -4    3.60   15.50   1
  10 -11   4   -0.80   15.60   1
  10  11   5   36.90   41.10   1
 -10 -11  -5   49.40   41.20   1
  10 -11  -5   22.60   42.70   1
 -10  11   5   59.00   42.60   1
 -10  11  -5   31.00   41.70   1
  10 -11   5   44.10   42.10   1
  10  11   6   21.20   36.30   1
 -10 -11  -6   33.50   36.40   1
  10 -11  -6   27.80   37.60   1
 -10  11   6   18.30   38.10   1
 -10  11  -6   40.20   37.20   1
  10 -11   6   62.30   37.60   1
  10  11   7   23.50   36.10   1
 -10 -11  -7   34.40   36.30   1
  10 -11  -7   34.20   37.80   1
 -10  11   7   77.60   38.50   1
 -10  11  -7   17.40   37.00   1
  10 -11   7   34.00   37.10   1
  10  11   8   14.60   18.20   1
 -10 -11  -8   -0.00   18.20   1
  10 -11  -8   -0.00   20.90   1
 -10  11   8   20.20   21.90   1
 -10  11  -8   13.80   19.70   1
  10 -11   8   -0.10   19.40   1
  10  11   9   33.10   25.20   1
 -10 -11  -9   12.00   24.90   1
  10 -11  -9    7.60   26.80   1
 -10  11   9   12.90   27.30   1
 -10  11  -9   12.60   25.70   1
  10 -11   9   -0.00   25.60   1
  10  11  10    7.00   20.10   1
 -10 -11 -10    5.70   20.00   1
  10 -11 -10    2.10   22.20   1
 -10  11  10   15.90   23.20   1
 -10  11 -10   28.10   21.20   1
  10 -11  10    5.10   20.80   1
  10  11  11   21.30   34.70   1
 -10 -11 -11   33.50   34.80   1
  10 -11 -11   14.80   35.90   1
 -10  11  11   22.40   36.60   1
 -10  11 -11   20.20   35.00   1
  10 -11  11   71.00   35.50   1
  10  11  12    4.50   16.60   1
 -10 -11 -12    2.90   16.30   1
  10 -11 -12   -0.00   19.20   1
 -10  11  12   -0.10   20.30   1
 -10  11 -12   17.80   17.20   1
  10 -11  12    6.20   17.20   1
  10  12   0   57.30   41.90   1
 -10 -12   0   34.60   41.80   1
  10 -12   0   34.40   42.60   1
 -10  12   0   36.20   42.70   1
  10  12   1   94.90   62.00   1
 -10 -12  -1   87.20   62.00   1
  10 -12  -1  124.20   62.90   1
 -10  12   1  220.90   63.50   1
 -10  12  -1   77.80   62.70   1
  10 -12   1  108.20   62.60   1
 -10 -12   1   66.90   62.00   1
  10  12  -1   71.80   61.90   1
  10  12   2  160.10   84.40   1
 -10 -12  -2  135.80   84.30   1
  10 -12  -2  122.80   85.00   1
 -10  12   2  184.40   85.40   1
 -10  12  -2  196.00   85.30   1
  10 -12   2  194.80   85.20   1
 -10 -12   2  202.80   85.10   1
  10  12  -2  278.80   85.50   1
  10  12   3   34.60   40.30   1
 -10 -12  -3   65.00   40.50   1
  10 -12  -3   78.60   41.80   1
 -10  12   3   79.10   42.10   1
 -10  12  -3   11.20   41.00   1
  10 -12   3    4.70   40.90   1
 -10 -12   3   31.40   40.60   1
  10  12  -3   39.20   40.60   1
  10  12   4   44.60   46.00   1
 -10 -12  -4   43.70   46.00   1
  10 -12  -4   27.70   47.40   1
 -10  12   4   56.50   47.20   1
 -10  12  -4   59.70   46.70   1
  10 -12   4   52.80   46.70   1
 -10 -12   4  102.00   46.90   1
  10  12  -4   46.60   46.20   1
  10  12   5   17.50   35.10   1
 -10 -12  -5   37.10   35.30   1
  10 -12  -5   22.80   36.70   1
 -10  12   5   38.10   36.50   1
 -10  12  -5   35.60   35.90   1
  10 -12   5   56.00   36.10   1
  10  12  -5   18.10   35.30   1
  10  12   6   24.70   37.70   1
 -10 -12  -6   37.70   37.80   1
  10 -12  -6   27.60   38.80   1
 -10  12   6   23.50   39.30   1
 -10  12  -6   28.60   38.50   1
  10 -12   6   80.60   39.00   1
  10  12  -6   32.70   37.80   1
  10  12   7  100.60   56.20   1
 -10 -12  -7   85.60   56.30   1
  10 -12  -7   59.80   57.20   1
 -10  12   7   58.90   57.20   1
 -10  12  -7   52.10   56.50   1
  10 -12   7   78.90   56.60   1
  10  12   8   36.90   26.00   1
 -10 -12  -8   20.60   25.80   1
  10 -12  -8    5.70   27.20   1
 -10  12   8    2.80   27.50   1
 -10  12  -8    5.30   26.40   1
  10 -12   8    2.70   26.50   1
  10  12   9   18.00   21.60   1
 -10 -12  -9   10.30   21.40   1
  10 -12  -9    5.40   23.10   1
 -10  12   9   -0.00   23.10   1
 -10  12  -9    4.70   22.10   1
  10 -12   9   15.80   22.30   1
  10  12  10   14.00   25.10   1
 -10 -12 -10   15.50   25.00   1
  10 -12 -10   -0.00   27.00   1
 -10  12  10    2.80   26.70   1
 -10  12 -10   15.80   25.60   1
  10 -12  10   30.30   26.00   1
  10  12  11   33.10   23.30   1
 -10 -12 -11   -0.00   22.80   1
  10 -12 -11   26.50   25.40   1
 -10  12  11   -0.00   24.30   1
 -10  12 -11   10.10   23.30   1
  10 -12  11   15.60   23.60   1
  10  12  12   12.80   31.20   1
 -10 -12 -12   34.90   31.10   1
  10 -12 -12   24.60   32.40   1
 -10  12  12   -0.00   31.90   1
 -10  12 -12    9.90   31.20   1
  10 -12  12   95.20   32.70   1
  10  13   0  281.30  118.50   1
 -10 -13   0  340.50  118.90   1
  10 -13   0  353.40  119.30   1
 -10  13   0  330.80  119.10   1
  10  13   1   61.20   61.30   1
 -10 -13  -1   48.80   61.30   1
  10 -13  -1   59.90   61.90   1
 -10  13   1   85.30   62.00   1
 -10  13  -1  104.50   62.00   1
  10 -13   1  149.60   62.30   1
 -10 -13   1  418.10   64.40   1
  10  13  -1  361.30   63.30   1
  10  13   2  104.00   60.60   1
 -10 -13  -2   98.20   60.70   1
  10 -13  -2  110.40   61.40   1
 -10  13   2  131.20   61.70   1
 -10  13  -2   82.40   61.10   1
  10 -13   2   62.30   61.10   1
 -10 -13   2   79.20   60.70   1
  10  13  -2   63.60   60.60   1
  10  13   3   48.30   51.50   1
 -10 -13  -3   52.20   51.50   1
  10 -13  -3   48.80   52.20   1
 -10  13   3   62.90   52.50   1
 -10  13  -3  110.30   52.40   1
  10 -13   3   40.00   52.10   1
 -10 -13   3  214.00   53.10   1
  10  13   4   43.30   49.30   1
 -10 -13  -4   33.30   49.30   1
  10 -13  -4   22.00   49.90   1
 -10  13   4   39.60   50.30   1
 -10  13  -4   64.70   49.90   1
  10 -13   4  186.50   51.00   1
 -10 -13   4   78.10   49.90   1
  10  13  -4  273.80   52.10   1
  10  13   5  247.00  106.50   1
 -10 -13  -5  222.90  106.40   1
  10 -13  -5  262.50  107.10   1
 -10  13   5  291.40  107.60   1
 -10  13  -5  260.60  107.10   1
  10 -13   5  339.60  107.60   1
 -10 -13   5  333.30  109.30   1
  10  13  -5  272.30  107.70   1
  10  13   6  137.50   70.90   1
 -10 -13  -6  128.50   70.90   1
  10 -13  -6   98.40   71.70   1
 -10  13   6  109.60   71.90   1
 -10  13  -6  166.60   71.90   1
  10 -13   6  168.60   71.90   1
 -10 -13   6   73.70   71.20   1
  10  13  -6   89.00   71.30   1
  10  13   7   65.70   51.60   1
 -10 -13  -7   35.10   51.50   1
  10 -13  -7  115.80   53.00   1
 -10  13   7   54.50   52.70   1
 -10  13  -7  132.90   52.60   1
  10 -13   7   94.70   52.70   1
  10  13  -7   46.00   51.70   1
  10  13   8   91.70   40.80   1
 -10 -13  -8   29.00   40.30   1
  10 -13  -8   15.50   41.20   1
 -10  13   8   70.10   42.20   1
 -10  13  -8   49.80   40.90   1
  10 -13   8   28.20   41.30   1
  10  13  -8   23.30   40.30   1
  10  13   9   45.60   43.40   1
 -10 -13  -9   40.60   43.40   1
  10 -13  -9   23.30   44.20   1
 -10  13   9   48.70   44.70   1
 -10  13  -9   69.10   44.00   1
  10 -13   9   49.10   44.60   1
  10  13  10   41.20   31.90   1
 -10 -13 -10    5.70   31.60   1
  10 -13 -10   19.40   33.10   1
 -10  13  10   67.10   34.00   1
 -10  13 -10   22.60   32.10   1
  10 -13  10   23.60   33.00   1
  10  13  11   18.60   26.90   1
 -10 -13 -11    5.10   26.80   1
  10 -13 -11   -0.10   28.10   1
 -10  13  11   75.10   29.80   1
 -10  13 -11    9.50   27.30   1
  10 -13  11   58.20   29.20   1
  10  14   0   90.50   68.60   1
 -10 -14   0   72.30   68.50   1
  10 -14   0  224.20   70.10   1
 -10  14   0  312.30   70.50   1
  10  14   1    7.80   25.30   1
 -10 -14  -1   10.00   25.40   1
  10 -14  -1   27.90   27.50   1
 -10  14   1   36.10   27.20   1
 -10  14  -1   18.10   26.70   1
  10 -14   1   19.60   26.90   1
 -10 -14   1    8.30   25.50   1
  10  14  -1   15.50   25.20   1
  10  14   2  140.90   79.00   1
 -10 -14  -2  173.00   79.20   1
  10 -14  -2  189.40   79.90   1
 -10  14   2  201.10   80.10   1
 -10  14  -2  156.00   79.70   1
  10 -14   2  140.60   79.90   1
 -10 -14   2  142.80   79.10   1
  10  14  -2  109.00   78.90   1
  10  14   3    7.00   19.80   1
 -10 -14  -3   -0.00   19.80   1
  10 -14  -3    6.80   21.70   1
 -10  14   3    0.00   21.60   1
 -10  14  -3    0.00   21.20   1
  10 -14   3   16.30   22.20   1
 -10 -14   3   26.50   20.70   1
  10  14  -3   14.90   20.40   1
  10  14   4  243.00   52.50   1
 -10 -14  -4  224.60   52.30   1
  10 -14  -4   33.40   52.10   1
 -10  14   4   20.10   51.90   1
 -10  14  -4  110.20   52.70   1
  10 -14   4   16.20   52.80   1
 -10 -14   4   74.90   51.80   1
  10  14  -4   15.30   51.30   1
  10  14   5   -0.60   18.50   1
 -10 -14  -5   14.70   18.40   1
  10 -14  -5    0.50   20.30   1
 -10  14   5    3.70   20.10   1
 -10  14  -5   30.60   21.00   1
  10 -14   5   -0.90   21.70   1
 -10 -14   5    1.30   19.20   1
  10  14  -5   10.60   18.90   1
  10  14   6  107.60   71.80   1
 -10 -14  -6   97.50   71.80   1
  10 -14  -6  148.70   72.70   1
 -10  14   6  117.70   72.60   1
 -10  14  -6  152.80   72.80   1
  10 -14   6  191.80   73.60   1
 -10 -14   6  110.70   72.50   1
  10  14  -6  149.30   72.60   1
  10  14   7   10.60   29.30   1
 -10 -14  -7   35.80   29.40   1
  10 -14  -7    5.00   30.40   1
 -10  14   7    3.10   30.70   1
 -10  14  -7   55.90   30.90   1
  10 -14   7   13.60   32.10   1
 -10 -14   7   19.30   29.70   1
  10  14  -7   19.50   29.70   1
  10  14   8   16.00   30.90   1
 -10 -14  -8   19.60   30.70   1
  10 -14  -8   25.80   32.10   1
 -10  14   8   13.10   31.90   1
 -10  14  -8  146.00   33.80   1
  10 -14   8   93.30   34.00   1
 -10 -14   8   15.50   31.00   1
  10  14  -8   -0.10   31.00   1
  10  14   9   26.50   27.40   1
 -10 -14  -9    8.40   27.30   1
  10 -14  -9   30.30   28.70   1
 -10  14   9   -0.00   28.70   1
 -10  14  -9   61.00   29.30   1
  10 -14   9   17.00   29.10   1
  10  14  -9    6.30   27.30   1
  10  14  10   30.00   36.00   1
 -10 -14 -10    9.80   35.90   1
  10 -14 -10   77.30   37.40   1
 -10  14  10   36.80   37.10   1
 -10  14 -10   43.40   37.20   1
  10 -14  10   27.10   37.20   1
  10  14  11   24.70   23.40   1
 -10 -14 -11    4.80   23.20   1
  10 -14 -11    4.40   24.40   1
 -10  14  11   16.40   24.90   1
  10 -14  11    8.40   24.50   1
  10  15   0   99.50   70.60   1
 -10 -15   0  108.00   70.80   1
  10 -15   0  159.10   72.30   1
 -10  15   0  172.30   72.10   1
  10  15   1    4.80   23.40   1
 -10 -15  -1    5.50   23.20   1
  10 -15  -1   17.70   26.90   1
 -10  15   1   23.40   25.30   1
 -10  15  -1   20.80   26.30   1
  10 -15   1   82.20   28.80   1
 -10 -15   1   10.00   23.60   1
  10  15  -1    8.30   23.50   1
  10  15   2   15.70   37.00   1
 -10 -15  -2   22.20   36.90   1
  10 -15  -2   14.30   39.10   1
 -10  15   2   41.20   38.50   1
 -10  15  -2   97.80   39.70   1
  10 -15   2   56.40   40.20   1
 -10 -15   2   43.60   37.20   1
  10  15  -2   34.90   37.20   1
  10  15   3   65.60   40.50   1
 -10 -15  -3   72.80   40.60   1
  10 -15  -3   29.90   41.60   1
 -10  15   3   24.70   41.00   1
 -10  15  -3   33.00   41.80   1
  10 -15   3   51.00   42.80   1
 -10 -15   3   23.30   40.20   1
  10  15  -3   24.30   40.20   1
  10  15   4   46.60   40.60   1
 -10 -15  -4   67.70   40.70   1
  10 -15  -4   -0.00   41.90   1
 -10  15   4   30.30   41.40   1
 -10  15  -4   37.80   42.30   1
  10 -15   4   24.00   43.00   1
 -10 -15   4   31.40   40.80   1
  10  15  -4   40.80   40.70   1
  10  15   5  103.20   52.30   1
 -10 -15  -5   66.70   52.20   1
  10 -15  -5   21.90   53.10   1
 -10  15   5   99.00   53.40   1
 -10  15  -5   54.80   53.50   1
  10 -15   5   80.90   53.60   1
 -10 -15   5   32.50   52.10   1
  10  15  -5   81.20   52.30   1
  10  15   6   11.20   25.20   1
 -10 -15  -6   49.00   25.30   1
  10 -15  -6   17.90   27.30   1
 -10  15   6   -0.40   26.90   1
 -10  15  -6   15.00   27.60   1
  10 -15   6   -0.00   27.30   1
 -10 -15   6   12.20   25.50   1
  10  15  -6   -0.00   25.00   1
  10  15   7   24.30   34.40   1
 -10 -15  -7   10.50   34.30   1
  10 -15  -7  153.20   37.60   1
 -10  15   7   31.20   35.60   1
 -10  15  -7   55.90   36.60   1
  10 -15   7   15.00   35.70   1
 -10 -15   7   51.90   35.00   1
  10  15  -7   14.70   34.40   1
  10  15   8   20.30   35.10   1
 -10 -15  -8   61.90   35.10   1
  10 -15  -8   34.90   36.60   1
 -10  15   8   12.20   36.00   1
 -10  15  -8   19.40   36.50   1
  10 -15   8   68.10   36.50   1
 -10 -15   8   20.70   35.30   1
  10  15  -8   12.50   34.90   1
  10  15   9   43.80   41.40   1
 -10 -15  -9   23.00   41.10   1
  10 -15  -9  120.50   43.60   1
 -10  15   9   49.90   42.10   1
 -10  15  -9   49.10   42.60   1
  10 -15   9   39.70   42.00   1
 -10 -15   9  154.30   45.20   1
  10  15  -9   22.50   41.20   1
  10  15  10    7.80   17.80   1
 -10 -15 -10    7.90   17.80   1
  10 -15 -10   37.20   20.20   1
 -10  15  10   -0.00   19.40   1
  10 -15  10   -0.00   18.60   1
 -10 -15  10   -0.00   17.30   1
  10  16   0  693.80  184.50   1
 -10 -16   0  641.70  184.30   1
  10 -16   0  717.20  185.90   1
 -10  16   0  819.70  186.70   1
  10  16   1   13.70   29.60   1
 -10 -16  -1   16.50   29.80   1
  10 -16  -1    5.90   33.70   1
 -10  16   1   23.60   32.90   1
 -10  16  -1   -0.30   32.70   1
  10 -16   1   33.60   32.90   1
 -10 -16   1   23.80   29.70   1
  10  16  -1   31.40   29.60   1
  10  16   2   30.70   44.30   1
 -10 -16  -2   50.90   44.40   1
  10 -16  -2   79.40   46.90   1
 -10  16   2   45.60   46.00   1
 -10  16  -2   90.40   46.80   1
  10 -16   2   37.10   46.20   1
 -10 -16   2   38.60   44.20   1
  10  16  -2   54.30   44.30   1
  10  16   3   11.00   28.40   1
 -10 -16  -3   14.90   28.50   1
  10 -16  -3   22.80   33.10   1
 -10  16   3    9.30   31.60   1
 -10  16  -3   17.60   31.80   1
  10 -16   3    7.30   30.80   1
 -10 -16   3   27.10   28.60   1
  10  16  -3   34.00   28.80   1
  10  16   4  321.70   93.80   1
 -10 -16  -4  216.00   93.40   1
  10 -16  -4  133.20   94.60   1
 -10  16   4  153.70   94.00   1
 -10  16  -4  180.80   94.40   1
  10 -16   4  212.70   94.40   1
 -10 -16   4  200.00   93.60   1
  10  16  -4  217.30   93.60   1
  10  16   5    6.00   27.00   1
 -10 -16  -5   23.00   26.90   1
  10 -16  -5   15.60   30.40   1
 -10  16   5   29.00   28.90   1
 -10  16  -5   -0.00   29.60   1
  10 -16   5   45.60   28.80   1
 -10 -16   5   10.00   27.10   1
  10  16  -5   15.60   27.00   1
  10  16   6   43.10   47.50   1
 -10 -16  -6   33.90   47.40   1
  10 -16  -6   33.70   49.20   1
 -10  16   6   13.40   48.50   1
 -10  16  -6   96.20   49.30   1
  10 -16   6  100.20   48.60   1
  10  16  -6  270.50   50.30   1
  10  16   7   17.30   25.20   1
 -10 -16  -7   13.30   24.90   1
  10 -16  -7   14.40   28.00   1
 -10  16   7   -0.00   26.60   1
 -10  16  -7   20.40   27.10   1
  10 -16   7   14.60   26.00   1
 -10 -16   7   10.60   25.10   1
  10  16  -7   19.70   25.10   1
  10  16   8   31.20   42.80   1
 -10 -16  -8   58.70   42.90   1
  10 -16  -8   17.30   44.40   1
 -10  16   8   12.30   43.90   1
 -10  16  -8   70.10   44.40   1
  10 -16   8   27.30   43.30   1
 -10 -16   8  347.30   51.50   1
  10  16  -8   61.50   43.00   1
  10  16   9   15.90   23.00   1
 -10 -16  -9   17.70   22.50   1
  10 -16  -9    0.00   26.10   1
 -10  16   9    3.10   24.20   1
  10 -16   9   23.60   23.30   1
 -10 -16   9   -0.10   22.50   1
  10  17   0   31.00   35.30   1
 -10 -17   0   22.40   35.10   1
  10 -17   0   36.20   37.10   1
 -10  17   0   44.60   38.30   1
  10  17   1   29.90   27.80   1
 -10 -17  -1   29.50   27.90   1
  10 -17  -1   -0.00   31.20   1
 -10  17   1   25.20   31.40   1
 -10  17  -1   26.90   30.70   1
  10 -17   1   60.60   30.60   1
 -10 -17   1   -0.00   28.10   1
  10  17  -1   -0.00   27.80   1
  10  17   2   16.90   19.20   1
 -10 -17  -2   11.90   18.90   1
  10 -17  -2   -1.80   23.10   1
 -10  17   2    4.10   24.40   1
 -10  17  -2    0.00   22.80   1
  10 -17   2   23.90   21.20   1
 -10 -17   2   -0.00   19.00   1
  10  17  -2    1.70   18.70   1
  10  17   3   51.80   29.40   1
 -10 -17  -3   31.80   29.30   1
  10 -17  -3   32.20   33.00   1
 -10  17   3   25.10   32.40   1
 -10  17  -3   25.50   31.70   1
  10 -17   3    0.00   30.50   1
 -10 -17   3    5.80   29.10   1
  10  17  -3    2.60   29.10   1
  10  17   4   10.50   25.30   1
 -10 -17  -4    7.10   25.00   1
  10 -17  -4   -0.10   29.00   1
 -10  17   4   -0.00   28.70   1
 -10  17  -4   49.50   27.70   1
  10 -17   4   66.10   26.70   1
 -10 -17   4   -0.00   25.10   1
  10  17  -4   14.10   24.90   1
  10  17   5   18.70   31.00   1
 -10 -17  -5   14.80   30.90   1
  10 -17  -5   33.30   34.30   1
 -10  17   5   33.20   33.60   1
 -10  17  -5   47.80   32.80   1
  10 -17   5   52.20   31.90   1
 -10 -17   5   11.10   30.80   1
  10  17  -5   15.40   30.70   1
  10  17   6   15.40   28.10   1
 -10 -17  -6   30.50   28.30   1
  10 -17  -6   72.90   32.20   1
 -10  17   6   87.80   31.80   1
 -10  17  -6   20.30   29.70   1
  10 -17   6   12.60   28.90   1
 -10 -17   6    4.10   28.00   1
  10  17  -6    2.90   28.20   1
  10  17   7   12.30   37.80   1
 -10 -17  -7   44.50   38.00   1
  10 -17  -7   23.60   41.20   1
 -10  17   7   34.80   40.30   1
 -10  17  -7   46.10   38.90   1
  10 -17   7   80.60   38.60   1
 -10 -17   7   24.10   37.90   1
  10  17  -7   30.20   37.80   1
  10  17   8    1.60   15.10   1
 -10 -17  -8   -0.00   14.90   1
  10 -17  -8    2.20   21.40   1
 -10  17   8   14.20   18.50   1
  10 -17   8    9.60   15.70   1
 -10 -17   8    1.90   14.70   1
  10  17   9   -0.00   23.00   1
 -10 -17  -9   11.80   23.10   1
  10 -17  -9    6.90   27.90   1
 -10  17   9    3.60   25.80   1
  10 -17   9   28.40   23.30   1
 -10 -17   9   11.80   22.80   1
  10  18   0   87.80   59.10   1
 -10 -18   0   71.50   59.00   1
  10 -18   0   65.80   60.10   1
 -10  18   0  146.10   61.00   1
  10  18   1   91.00   56.80   1
 -10 -18  -1  106.80   56.90   1
  10 -18  -1   62.70   57.70   1
 -10  18   1   51.10   58.40   1
 -10  18  -1  129.30   58.70   1
  10 -18   1  259.70   59.10   1
 -10 -18   1   58.00   56.80   1
  10  18  -1   42.30   56.60   1
  10  18   2   17.60   28.30   1
 -10 -18  -2   31.50   28.40   1
  10 -18  -2   13.30   30.80   1
 -10  18   2   17.60   30.80   1
 -10  18  -2   87.30   31.40   1
  10 -18   2   17.30   29.70   1
 -10 -18   2    6.60   28.10   1
  10  18  -2    9.00   27.90   1
  10  18   3    0.20   24.10   1
 -10 -18  -3    3.00   23.80   1
  10 -18  -3   16.60   26.90   1
 -10  18   3   55.20   27.80   1
  10 -18   3   69.50   25.70   1
 -10 -18   3   -0.00   24.00   1
  10  18  -3   14.20   24.00   1
  10  18   4   20.10   39.00   1
 -10 -18  -4   48.50   39.00   1
  10 -18  -4   80.90   41.70   1
 -10  18   4   60.40   41.70   1
 -10  18  -4   73.20   40.70   1
  10 -18   4   85.10   40.30   1
 -10 -18   4   18.40   38.90   1
  10  18  -4   17.60   38.80   1
  10  18   5   19.40   24.90   1
 -10 -18  -5   12.30   24.70   1
  10 -18  -5   -0.00   27.40   1
 -10  18   5   16.10   29.10   1
 -10  18  -5    0.00   25.20   1
  10 -18   5    7.00   25.00   1
 -10 -18   5   22.60   24.40   1
  10  18  -5   15.50   24.20   1
  10  18   6   40.10   32.40   1
 -10 -18  -6   52.20   32.50   1
  10 -18  -6    6.60   34.60   1
 -10  18   6   16.00   34.70   1
 -10  18  -6   26.50   32.90   1
  10 -18   6   -0.90   32.10   1
 -10 -18   6   14.80   31.80   1
  10  18  -6   31.10   31.90   1
  10  18   7   19.60   38.90   1
 -10 -18  -7   87.40   39.60   1
  10 -18  -7   17.20   41.20   1
 -10  18   7   94.20   42.60   1
  10 -18   7   30.60   39.10   1
 -10 -18   7   25.10   38.90   1
  10  18   8    7.90   31.30   1
 -10 -18  -8    9.00   31.20   1
  10 -18  -8   -0.20   34.70   1
 -10  18   8   19.20   34.30   1
  10 -18   8   57.60   31.80   1
 -10 -18   8   35.40   31.20   1
  10  19   0   10.20   25.80   1
 -10 -19   0   10.40   26.00   1
  10 -19   0   56.30   27.90   1
 -10  19   0   -0.00   28.50   1
  10  19   1   15.90   31.70   1
 -10 -19  -1   20.80   31.60   1
  10 -19  -1  104.00   33.40   1
 -10  19   1   55.10   33.50   1
 -10  19  -1   30.30   32.70   1
  10 -19   1   36.10   32.40   1
 -10 -19   1   13.40   31.30   1
  10  19  -1   -0.00   31.20   1
  10  19   2    2.20   20.40   1
 -10 -19  -2    6.40   20.50   1
  10 -19  -2   22.90   23.00   1
 -10  19   2   35.00   25.00   1
 -10  19  -2    6.10   22.10   1
  10 -19   2    8.70   21.50   1
 -10 -19   2   11.70   20.00   1
  10  19  -2    4.10   20.00   1
  10  19   3   -0.00   29.50   1
 -10 -19  -3    7.40   29.40   1
  10 -19  -3   24.90   31.10   1
 -10  19   3   21.30   31.90   1
 -10  19  -3   31.40   30.60   1
  10 -19   3   31.70   30.20   1
 -10 -19   3   19.50   29.70   1
  10  19  -3   41.90   29.60   1
  10  19   4   15.10   21.00   1
 -10 -19  -4   -0.00   20.60   1
  10 -19  -4   43.30   23.90   1
 -10  19   4   32.00   25.30   1
 -10  19  -4    9.40   22.20   1
  10 -19   4   -0.10   21.50   1
 -10 -19   4    6.20   20.30   1
  10  19  -4    6.90   20.50   1
  10  19   5   30.30   28.20   1
 -10 -19  -5   21.00   28.30   1
  10 -19  -5    1.00   29.80   1
 -10  19   5    7.60   30.60   1
 -10  19  -5   43.90   28.70   1
  10 -19   5   28.80   28.30   1
 -10 -19   5    6.60   27.70   1
  10  19  -5    6.90   27.70   1
  10  19   6   12.20   16.30   1
 -10 -19  -6   -0.00   16.40   1
  10 -19  -6   15.00   19.00   1
 -10  19   6    7.50   21.00   1
  10 -19   6   -0.00   15.70   1
 -10 -19   6   -0.00   15.70   1
  10  20   0   -0.00   26.80   1
 -10 -20   0   18.30   26.70   1
  10 -20   0   36.50   27.50   1
 -10  20   0   17.30   28.00   1
  10  20   1   -0.00   24.90   1
 -10 -20  -1    7.50   24.90   1
  10 -20  -1   11.30   26.00   1
 -10  20   1   14.90   25.80   1
 -10  20  -1   24.70   26.10   1
  10 -20   1   15.80   25.40   1
 -10 -20   1   20.80   24.60   1
  10  20  -1   17.20   24.90   1
  10  20   2   15.40   32.20   1
 -10 -20  -2   11.90   31.90   1
  10 -20  -2   47.70   33.10   1
 -10  20   2   26.50   33.80   1
 -10  20  -2   59.50   33.00   1
  10 -20   2   21.50   32.70   1
 -10 -20   2   22.60   31.90   1
  10  20  -2   15.30   32.00   1
  10  20   3   14.30   28.30   1
 -10 -20  -3    8.80   27.90   1
  10 -20  -3   14.10   29.50   1
 -10  20   3   22.80   29.70   1
 -10  20  -3    8.00   28.70   1
  10 -20   3   21.20   28.60   1
 -10 -20   3   28.30   27.80   1
  10  20  -3   21.40   27.90   1
  10  20   4   34.40   39.30   1
 -10 -20  -4   35.80   39.00   1
  10 -20  -4   26.30   39.90   1
 -10  20   4   29.50   40.90   1
  10 -20   4   18.40   39.10   1
 -10 -20   4   49.30   39.10   1
  10  20  -4   48.10   39.00   1
  10  20   5   -0.00   22.30   1
 -10 -20  -5    8.00   22.00   1
  10 -20  -5   29.60   24.20   1
 -10  20   5   58.40   24.80   1
  10 -20   5   -0.00   22.40   1
 -10 -20   5   15.90   21.60   1
  10  20  -5   -0.00   21.30   1
  10  21   0   10.50   27.50   1
 -10 -21   0   15.90   27.10   1
  10 -21   0   18.00   28.30   1
 -10  21   0   28.90   28.70   1
  10  21   1  111.90   55.10   1
 -10 -21  -1   94.10   54.90   1
  10 -21  -1   43.80   55.20   1
 -10  21   1   76.30   55.40   1
 -10  21  -1   83.90   55.50   1
  10 -21   1  136.30   55.60   1
 -10 -21   1   43.00   54.60   1
  10  21  -1   47.40   54.80   1
  10  21   2    9.10   25.60   1
 -10 -21  -2    4.30   25.80   1
  10 -21  -2   -0.00   26.20   1
 -10  21   2   17.80   27.00   1
 -10  21  -2   -0.00   26.20   1
  10 -21   2   24.90   26.20   1
 -10 -21   2   19.80   25.30   1
  10  21  -2   35.30   25.70   1
  10  21   3   24.70   40.00   1
 -10 -21  -3   33.70   40.00   1
  10 -21  -3   23.20   40.80   1
 -10  21   3   23.30   40.70   1
  10 -21   3   24.80   40.30   1
 -10 -21   3   45.00   39.90   1
  10  21  -3  100.70   40.40   1
  11   3  14   14.70   25.10   1
  11   4  12    7.10   17.90   1
  11   4  13   10.60   21.50   1
  11   4  14   13.20   17.60   1
 -11  -4 -14    1.50   17.40   1
  11   5  10   86.40   60.30   1
  11   5  11  159.30   88.00   1
 -11  -5 -11  313.20   93.80   1
  11   5  12  152.70   66.30   1
 -11  -5 -12   76.40   65.80   1
  11   5  13   46.60   43.30   1
 -11  -5 -13   43.60   43.40   1
  11   6   8   29.20   35.10   1
  11   6   9   30.60   31.20   1
 -11  -6  -9   17.70   30.90   1
  11   6  10   19.30   32.70   1
 -11  -6 -10   34.90   32.90   1
  11   6  11   35.70   45.80   1
 -11  -6 -11   88.00   46.40   1
  11   6  12   -0.00   23.70   1
 -11  -6 -12   36.80   24.00   1
  11   6  13   28.00   32.30   1
 -11  -6 -13   22.10   32.20   1
  11   7   6   15.50   25.80   1
  11   7   7   47.40   34.60   1
 -11  -7  -7   17.40   34.00   1
  11   7   8   21.00   35.50   1
 -11  -7  -8   42.50   35.70   1
  11   7   9    9.40   26.50   1
 -11  -7  -9   23.90   26.60   1
  11   7  10   73.40   51.00   1
 -11  -7 -10   53.00   50.80   1
  11   7  11   66.10   48.70   1
 -11  -7 -11   48.60   48.60   1
  11   7  12  107.20   44.80   1
 -11  -7 -12   26.90   44.20   1
 -11  -7 -13   13.50   24.10   1
  11   8   4   94.10   59.70   1
  11  -8  -4   71.10   60.30   1
  11   8   5   68.30   54.80   1
 -11  -8  -5   71.70   54.80   1
  11  -8  -5   81.10   56.00   1
  11   8   6  615.00  127.00   1
 -11  -8  -6  253.20  123.00   1
  11  -8  -6  524.90  136.80   1
  11   8   7   76.10   47.20   1
 -11  -8  -7   35.80   47.10   1
  11  -8  -7   50.00   48.00   1
  11   8   8  250.70  109.60   1
 -11  -8  -8  311.40  110.30   1
  11  -8  -8  303.40  115.50   1
  11   8   9   34.20   34.00   1
 -11  -8  -9   28.80   34.10   1
  11  -8  -9   12.30   34.80   1
  11   8  10  543.40  118.60   1
 -11  -8 -10  243.10  116.20   1
  11  -8 -10  305.50  122.80   1
  11   8  11   39.50   35.50   1
 -11  -8 -11   25.60   35.30   1
  11  -8 -11   22.20   36.30   1
  11   8  12   58.70   46.60   1
 -11  -8 -12  100.70   46.90   1
  11  -8 -12   10.40   46.90   1
  11   8  13   23.70   29.60   1
 -11  -8 -13   15.90   29.60   1
  11  -8 -13   27.70   30.70   1
  11  -9   0    5.20   13.10   1
 -11   9   0   -1.00   13.60   1
  11  -9  -1   71.70   55.20   1
 -11   9   1   76.90   55.40   1
 -11   9  -1   73.60   55.10   1
  11  -9   1   66.60   55.20   1
  11   9   2   12.70   16.50   1
  11  -9  -2    3.10   17.50   1
 -11   9   2    4.90   16.90   1
 -11   9  -2   -1.00   16.90   1
  11  -9   2    5.00   17.00   1
  11   9   3   66.60   45.60   1
 -11  -9  -3   46.50   45.50   1
  11  -9  -3   56.70   46.10   1
 -11   9   3   36.80   45.80   1
 -11   9  -3   58.80   46.00   1
  11  -9   3   37.40   45.70   1
  11   9   4   25.10   22.40   1
 -11  -9  -4   32.80   22.20   1
  11  -9  -4   -0.00   22.70   1
 -11   9   4   -0.10   22.70   1
 -11   9  -4   -0.00   22.40   1
  11  -9   4    2.60   22.40   1
  11   9   5   -0.00   22.30   1
 -11  -9  -5   26.60   22.70   1
  11  -9  -5   26.20   23.50   1
 -11   9   5    7.10   23.20   1
 -11   9  -5   -0.20   22.60   1
  11  -9   5   19.30   23.00   1
  11   9   6   55.30   24.00   1
 -11  -9  -6    6.50   23.70   1
  11  -9  -6   14.10   24.80   1
 -11   9   6    0.50   24.30   1
 -11   9  -6    4.60   23.70   1
  11  -9   6    0.80   23.90   1
  11   9   7   12.80   26.00   1
 -11  -9  -7   16.50   25.90   1
  11  -9  -7   35.60   27.30   1
 -11   9   7    7.90   26.70   1
 -11   9  -7    2.80   26.40   1
  11  -9   7   30.30   26.70   1
  11   9   8   69.60   39.90   1
 -11  -9  -8   83.90   39.90   1
  11  -9  -8   19.50   40.30   1
 -11   9   8   19.20   40.20   1
 -11   9  -8   17.90   39.80   1
  11  -9   8   21.70   39.70   1
  11   9   9   23.30   28.70   1
 -11  -9  -9   13.50   28.60   1
  11  -9  -9   10.20   29.40   1
 -11   9   9   25.60   29.70   1
 -11   9  -9   22.00   28.90   1
  11  -9   9   24.90   29.00   1
  11   9  10   29.80   27.40   1
 -11  -9 -10   24.20   27.20   1
  11  -9 -10    9.40   28.30   1
 -11   9  10    4.60   28.10   1
  11  -9  10    9.10   27.30   1
  11   9  11   22.50   23.80   1
 -11  -9 -11   15.00   24.00   1
  11  -9 -11   19.70   25.20   1
 -11   9  11    7.90   25.00   1
  11  -9  11   -0.00   24.10   1
  11   9  12   -0.00   11.90   1
 -11  -9 -12   10.60   11.90   1
  11  -9 -12    0.00   14.10   1
 -11   9  12    0.00   14.20   1
  11  -9  12   -1.80   12.40   1
  11  10   0   10.90   32.50   1
  11 -10   0   71.30   35.40   1
 -11  10   0   42.00   34.00   1
  11  10   1  195.80   66.20   1
 -11 -10  -1  105.60   65.20   1
  11 -10  -1   63.30   66.20   1
 -11  10   1   90.30   65.60   1
 -11  10  -1  101.20   65.50   1
  11 -10   1   92.30   65.80   1
  11  10   2   65.30   55.90   1
 -11 -10  -2   57.70   55.70   1
  11 -10  -2  148.10   57.90   1
 -11  10   2  143.80   57.50   1
 -11  10  -2   75.00   56.50   1
  11 -10   2   47.10   56.80   1
  11  10   3   27.80   44.80   1
 -11 -10  -3   94.60   45.30   1
  11 -10  -3   43.80   46.80   1
 -11  10   3   38.60   46.10   1
 -11  10  -3  105.50   46.60   1
  11 -10   3   20.70   46.00   1
  11  10   4   94.50   59.40   1
 -11 -10  -4   50.70   59.30   1
  11 -10  -4  131.10   61.30   1
 -11  10   4  201.50   61.80   1
 -11  10  -4   80.00   60.20   1
  11 -10   4   71.00   60.40   1
  11  10   5   92.50   54.70   1
 -11 -10  -5  101.50   54.80   1
  11 -10  -5   49.30   56.10   1
 -11  10   5   48.20   55.20   1
 -11  10  -5   36.00   55.10   1
  11 -10   5   88.90   56.30   1
  11  10   6  365.60  137.30   1
 -11 -10  -6  401.60  137.80   1
  11 -10  -6  470.00  140.60   1
 -11  10   6  449.90  140.90   1
 -11  10  -6  435.80  140.30   1
  11 -10   6  646.80  142.70   1
  11  10   7   41.30   50.80   1
 -11 -10  -7   84.90   51.00   1
  11 -10  -7   86.50   53.20   1
 -11  10   7   49.10   52.00   1
 -11  10  -7   65.40   51.70   1
  11 -10   7   74.30   52.10   1
  11  10   8   66.50   51.40   1
 -11 -10  -8   50.20   51.40   1
  11 -10  -8   75.70   53.80   1
 -11  10   8   68.30   52.70   1
 -11  10  -8  110.60   52.80   1
  11 -10   8   56.90   52.40   1
  11  10   9   33.70   40.70   1
 -11 -10  -9   41.40   40.80   1
  11 -10  -9   32.80   43.00   1
 -11  10   9   52.20   42.10   1
 -11  10  -9   50.00   41.50   1
  11 -10   9   37.90   41.80   1
  11  10  10   90.20   60.60   1
 -11 -10 -10   83.80   60.60   1
  11 -10 -10   88.40   62.60   1
 -11  10  10   75.50   61.60   1
 -11  10 -10  103.00   61.70   1
  11 -10  10   95.40   61.90   1
  11  10  11   49.90   44.40   1
 -11 -10 -11   60.90   44.50   1
  11 -10 -11   51.50   46.80   1
 -11  10  11   39.00   45.60   1
 -11  10 -11   38.80   44.80   1
  11 -10  11   34.00   45.20   1
  11  10  12   17.30   25.20   1
 -11 -10 -12   21.50   25.30   1
  11 -10 -12   19.80   28.50   1
 -11  10  12   18.90   26.70   1
 -11  10 -12    9.10   25.50   1
  11 -10  12   -0.10   26.30   1
  11  11   0   37.20   44.30   1
 -11 -11   0   28.90   44.20   1
  11 -11   0   92.20   46.60   1
 -11  11   0  109.30   46.70   1
  11  11   1   61.80   40.90   1
 -11 -11  -1   29.60   40.70   1
  11 -11  -1   94.70   43.30   1
 -11  11   1  131.20   44.10   1
 -11  11  -1  149.00   44.10   1
  11 -11   1  109.40   43.50   1
 -11 -11   1   11.40   40.40   1
  11  11  -1   11.70   40.50   1
  11  11   2   14.30   39.20   1
 -11 -11  -2   29.80   39.30   1
  11 -11  -2  171.90   43.80   1
 -11  11   2  212.70   44.30   1
 -11  11  -2  179.20   43.20   1
  11 -11   2   62.10   41.20   1
  11  11  -2    5.80   39.20   1
  11  11   3   95.50   48.60   1
 -11 -11  -3   26.60   48.30   1
  11 -11  -3   59.40   50.30   1
 -11  11   3   68.20   50.20   1
 -11  11  -3   92.30   50.70   1
  11 -11   3   32.30   49.90   1
  11  11   4   87.30   56.40   1
 -11 -11  -4   68.80   56.40   1
  11 -11  -4  102.30   58.20   1
 -11  11   4  109.70   59.00   1
 -11  11  -4   81.50   57.90   1
  11 -11   4   37.60   57.30   1
  11  11   5   20.70   39.30   1
 -11 -11  -5   42.50   39.40   1
  11 -11  -5   57.70   42.30   1
 -11  11   5   58.50   41.90   1
 -11  11  -5   61.00   41.30   1
  11 -11   5   26.50   40.50   1
  11  11   6   30.80   35.50   1
 -11 -11  -6   17.10   35.30   1
  11 -11  -6   45.60   38.50   1
 -11  11   6   55.40   38.80   1
 -11  11  -6   48.20   37.60   1
  11 -11   6   32.60   36.80   1
  11  11   7   16.50   42.40   1
 -11 -11  -7   71.90   42.80   1
  11 -11  -7   50.90   45.20   1
 -11  11   7   33.90   44.50   1
 -11  11  -7   49.60   43.90   1
  11 -11   7   86.30   43.90   1
  11  11   8   21.30   33.50   1
 -11 -11  -8   18.40   33.80   1
  11 -11  -8   75.30   37.60   1
 -11  11   8   43.00   36.70   1
 -11  11  -8   50.80   35.40   1
  11 -11   8   19.10   34.50   1
  11  11   9    4.50   23.20   1
 -11 -11  -9   10.20   23.30   1
  11 -11  -9   44.70   28.20   1
 -11  11   9   -0.00   26.90   1
 -11  11  -9   49.60   26.10   1
  11 -11   9   12.20   24.40   1
  11  11  10   10.80   27.90   1
 -11 -11 -10   13.90   27.90   1
  11 -11 -10   -0.00   32.00   1
 -11  11  10   49.40   31.00   1
 -11  11 -10   65.50   30.30   1
  11 -11  10   19.50   28.80   1
  11  11  11    8.00   21.00   1
 -11 -11 -11    0.00   21.00   1
  11 -11 -11   39.80   26.50   1
 -11  11  11   -0.00   25.10   1
 -11  11 -11   61.00   24.10   1
  11 -11  11    9.20   21.80   1
  11  11  12   14.90   26.50   1
 -11 -11 -12   16.00   26.40   1
  11 -11 -12   27.20   30.80   1
 -11  11  12   16.00   29.30   1
 -11  11 -12   50.40   28.60   1
  11 -11  12    4.20   27.10   1
  11  12   0   64.30   51.90   1
 -11 -12   0   66.60   52.00   1
  11 -12   0   86.10   53.20   1
 -11  12   0   40.60   52.90   1
  11  12   1   85.70   63.80   1
 -11 -12  -1  103.50   63.90   1
  11 -12  -1  391.10   67.70   1
 -11  12   1  164.30   65.20   1
 -11  12  -1   83.50   64.50   1
  11 -12   1   68.40   64.60   1
 -11 -12   1   78.70   63.90   1
  11  12  -1   82.60   63.80   1
  11  12   2   52.70   44.00   1
 -11 -12  -2   27.20   43.90   1
  11 -12  -2  130.40   46.50   1
 -11  12   2  182.30   46.70   1
 -11  12  -2   23.10   44.70   1
  11 -12   2   56.90   45.20   1
 -11 -12   2   31.40   44.10   1
  11  12  -2   37.20   44.30   1
  11  12   3  173.30   44.70   1
 -11 -12  -3  111.60   44.40   1
  11 -12  -3   32.00   45.00   1
 -11  12   3   34.40   45.40   1
 -11  12  -3   36.80   44.80   1
  11 -12   3   20.60   44.60   1
 -11 -12   3   20.40   43.80   1
  11  12  -3   20.90   43.80   1
  11  12   4  254.90   94.70   1
 -11 -12  -4  231.40   94.60   1
  11 -12  -4  152.40   95.30   1
 -11  12   4  186.50   95.40   1
 -11  12  -4  157.00   95.00   1
  11 -12   4  345.90   96.30   1
  11  12  -4  194.20   96.10   1
  11  12   5   17.50   29.80   1
 -11 -12  -5   26.70   29.90   1
  11 -12  -5    3.60   31.30   1
 -11  12   5   -0.00   31.50   1
 -11  12  -5    3.40   30.80   1
  11 -12   5  110.90   32.40   1
  11  12   6   20.70   36.90   1
 -11 -12  -6   46.50   37.10   1
  11 -12  -6   29.60   38.80   1
 -11  12   6   50.30   39.30   1
 -11  12  -6   32.50   38.10   1
  11 -12   6   28.40   37.90   1
  11  12   7    5.80   29.20   1
 -11 -12  -7   33.10   29.40   1
  11 -12  -7   33.70   31.70   1
 -11  12   7   50.30   31.60   1
 -11  12  -7   -0.00   30.20   1
  11 -12   7   22.00   30.20   1
  11  12   8   20.40   32.40   1
 -11 -12  -8   22.80   32.40   1
  11 -12  -8   22.90   33.90   1
 -11  12   8   38.90   34.80   1
 -11  12  -8   18.20   33.10   1
  11 -12   8   40.10   33.20   1
  11  12   9   25.90   31.60   1
 -11 -12  -9   24.30   31.50   1
  11 -12  -9   37.50   33.40   1
 -11  12   9   33.80   33.70   1
 -11  12  -9    6.40   32.20   1
  11 -12   9   24.60   32.30   1
  11  12  10   68.50   51.70   1
 -11 -12 -10   62.60   51.60   1
  11 -12 -10   49.10   52.60   1
 -11  12  10   45.90   53.00   1
 -11  12 -10   77.10   52.40   1
  11 -12  10   74.80   52.30   1
  11  12  11   12.70   22.30   1
 -11 -12 -11   17.50   22.30   1
  11 -12 -11   20.70   24.40   1
 -11  12  11    3.60   25.60   1
 -11  12 -11    1.40   22.90   1
  11 -12  11    6.90   22.90   1
  11  13   0   25.80   38.70   1
 -11 -13   0   35.50   38.70   1
  11 -13   0   39.50   40.30   1
 -11  13   0   56.30   40.40   1
  11  13   1  883.80  234.30   1
 -11 -13  -1  785.80  234.10   1
  11 -13  -1 1433.80  240.10   1
 -11  13   1 1628.40  244.40   1
 -11  13  -1 1850.20  247.40   1
  11 -13   1 1338.40  238.60   1
 -11 -13   1 1034.50  237.60   1
  11  13  -1  905.80  235.50   1
  11  13   2   23.30   35.90   1
 -11 -13  -2   19.70   35.90   1
  11 -13  -2   23.80   37.70   1
 -11  13   2   15.70   37.40   1
 -11  13  -2   66.10   37.60   1
  11 -13   2   21.10   37.20   1
 -11 -13   2   77.90   36.80   1
  11  13   3   25.70   46.60   1
 -11 -13  -3   22.50   46.50   1
  11 -13  -3   68.30   47.90   1
 -11  13   3   79.90   48.10   1
 -11  13  -3   54.40   47.90   1
  11 -13   3  275.60   49.50   1
 -11 -13   3  121.80   48.00   1
  11  13  -3   55.50   47.10   1
  11  13   4  129.00   73.90   1
 -11 -13  -4   95.00   73.80   1
  11 -13  -4  163.30   74.90   1
 -11  13   4  117.70   75.00   1
 -11  13  -4  123.60   74.70   1
  11 -13   4  188.30   74.80   1
 -11 -13   4  123.50   74.60   1
  11  13  -4  200.70   75.40   1
  11  13   5  103.10   44.80   1
 -11 -13  -5   73.80   44.80   1
  11 -13  -5   77.10   46.20   1
 -11  13   5   34.80   45.90   1
 -11  13  -5   25.60   45.00   1
  11 -13   5   43.30   45.00   1
 -11 -13   5   33.40   44.50   1
  11  13  -5   16.70   44.60   1
  11  13   6   51.60   46.70   1
 -11 -13  -6   55.30   46.80   1
  11 -13  -6   69.10   48.00   1
 -11  13   6   29.70   47.80   1
 -11  13  -6   46.90   47.20   1
  11 -13   6  113.40   48.00   1
  11  13  -6   33.20   46.80   1
  11  13   7   27.90   33.50   1
 -11 -13  -7   25.00   33.40   1
  11 -13  -7   12.20   35.00   1
 -11  13   7   18.00   34.50   1
 -11  13  -7    5.90   34.10   1
  11 -13   7  115.50   35.50   1
  11  13   8   63.40   45.30   1
 -11 -13  -8   61.50   45.30   1
  11 -13  -8   32.10   46.00   1
 -11  13   8   35.90   45.90   1
 -11  13  -8   44.90   45.80   1
  11 -13   8   39.00   45.80   1
  11  13   9  146.10   80.30   1
 -11 -13  -9  167.30   80.40   1
  11 -13  -9  209.80   82.10   1
 -11  13   9   87.50   80.90   1
 -11  13  -9  190.00   81.20   1
  11 -13   9  170.90   80.90   1
  11  13  10   56.80   35.50   1
 -11 -13 -10   39.40   35.30   1
  11 -13 -10   23.90   36.70   1
 -11  13  10    6.40   36.30   1
 -11  13 -10   12.90   35.60   1
  11 -13  10   24.10   35.70   1
  11  13  11   47.30   42.10   1
 -11 -13 -11   40.20   42.10   1
  11 -13 -11   55.20   43.60   1
 -11  13  11   23.70   42.90   1
 -11  13 -11   45.30   42.40   1
  11 -13  11   44.90   42.50   1
  11  14   0    6.70   26.70   1
 -11 -14   0   24.50   26.70   1
  11 -14   0   22.60   27.70   1
 -11  14   0   12.20   27.60   1
  11  14   1   23.50   22.80   1
 -11 -14  -1   15.30   22.60   1
  11 -14  -1    7.20   23.70   1
 -11  14   1    3.30   24.00   1
 -11  14  -1   18.30   23.90   1
  11 -14   1    4.00   23.70   1
 -11 -14   1    2.70   23.10   1
  11  14  -1    9.80   22.60   1
  11  14   2   19.70   32.50   1
 -11 -14  -2   25.10   32.30   1
  11 -14  -2   21.70   33.30   1
 -11  14   2   24.90   33.50   1
 -11  14  -2   23.50   33.20   1
  11 -14   2   29.00   33.30   1
 -11 -14   2   37.20   32.70   1
  11  14  -2   18.70   32.20   1
  11  14   3    6.10   28.90   1
 -11 -14  -3   14.00   29.00   1
  11 -14  -3   38.20   30.40   1
 -11  14   3   31.70   30.40   1
 -11  14  -3   53.50   30.40   1
  11 -14   3   31.90   30.00   1
 -11 -14   3   23.50   29.30   1
  11  14  -3    4.10   29.10   1
  11  14   4   12.60   25.20   1
 -11 -14  -4   11.10   25.40   1
  11 -14  -4   -0.10   26.80   1
 -11  14   4   16.30   27.10   1
 -11  14  -4   17.80   26.80   1
  11 -14   4   13.60   26.90   1
 -11 -14   4   10.00   25.90   1
  11  14  -4   36.20   25.80   1
  11  14   5   12.10   25.50   1
 -11 -14  -5   30.60   25.40   1
  11 -14  -5   -0.00   27.20   1
 -11  14   5   11.10   27.10   1
 -11  14  -5   16.60   26.60   1
  11 -14   5   -0.90   26.30   1
 -11 -14   5   26.60   26.10   1
  11  14  -5    9.60   25.50   1
  11  14   6   31.00   28.80   1
 -11 -14  -6   38.80   28.90   1
  11 -14  -6   -0.00   30.50   1
 -11  14   6    9.20   30.10   1
 -11  14  -6   -0.10   29.20   1
  11 -14   6   42.50   29.90   1
 -11 -14   6   -0.00   29.10   1
  11  14  -6   21.10   29.10   1
  11  14   7   18.50   33.10   1
 -11 -14  -7   20.50   33.00   1
  11 -14  -7   78.60   34.80   1
 -11  14   7   30.50   34.80   1
 -11  14  -7   36.80   33.80   1
  11 -14   7   32.40   34.10   1
  11  14  -7   12.60   33.20   1
  11  14   8   12.00   25.70   1
 -11 -14  -8    5.90   25.60   1
  11 -14  -8    0.00   27.50   1
 -11  14   8  137.50   30.20   1
 -11  14  -8    8.80   26.20   1
  11 -14   8   36.10   26.90   1
  11  14  -8   11.60   25.70   1
  11  14   9   65.70   36.60   1
 -11 -14  -9   20.90   36.30   1
  11 -14  -9   32.80   37.80   1
 -11  14   9   34.00   38.10   1
 -11  14  -9   13.60   36.60   1
  11 -14   9   32.90   37.30   1
  11  14  10   11.80   26.60   1
 -11 -14 -10    4.70   26.40   1
  11 -14 -10   51.90   28.40   1
 -11  14  10   17.00   28.30   1
 -11  14 -10   28.40   27.00   1
  11 -14  10    8.50   27.80   1
  11  15   0   11.50   30.90   1
 -11 -15   0    9.20   30.80   1
  11 -15   0  147.20   34.00   1
 -11  15   0   15.80   32.10   1
  11  15   1   40.50   31.90   1
 -11 -15  -1   35.40   31.80   1
  11 -15  -1   23.90   33.10   1
 -11  15   1   22.80   32.70   1
 -11  15  -1   33.00   33.10   1
  11 -15   1   37.30   33.00   1
 -11 -15   1    8.90   31.60   1
  11  15  -1    5.20   31.60   1
  11  15   2   67.40   49.80   1
 -11 -15  -2   50.20   49.70   1
  11 -15  -2   20.50   50.50   1
 -11  15   2   28.10   50.40   1
 -11  15  -2  198.70   51.60   1
  11 -15   2   81.40   51.00   1
 -11 -15   2   52.60   50.00   1
  11  15  -2   64.70   50.00   1
  11  15   3   19.30   23.30   1
 -11 -15  -3    9.20   23.40   1
  11 -15  -3   -0.00   25.00   1
 -11  15   3    3.50   24.30   1
 -11  15  -3   17.60   24.50   1
  11 -15   3   21.60   24.90   1
 -11 -15   3   10.80   23.50   1
  11  15  -3   11.40   23.10   1
  11  15   4   67.40   49.70   1
 -11 -15  -4   77.20   49.70   1
  11 -15  -4   32.40   50.40   1
 -11  15   4   48.80   50.20   1
 -11  15  -4   54.60   50.30   1
  11 -15   4   98.80   50.80   1
 -11 -15   4   58.00   50.00   1
  11  15  -4   44.10   49.70   1
  11  15   5   37.00   26.90   1
 -11 -15  -5   21.40   26.80   1
  11 -15  -5   16.80   28.40   1
 -11  15   5   -0.50   27.90   1
 -11  15  -5   15.50   27.40   1
  11 -15   5   -0.00   28.20   1
 -11 -15   5   11.00   27.10   1
  11  15  -5   13.30   27.00   1
  11  15   6   76.70   46.90   1
 -11 -15  -6   85.20   47.00   1
  11 -15  -6   38.30   47.80   1
 -11  15   6   42.90   47.60   1
 -11  15  -6   30.80   47.30   1
  11 -15   6   26.80   48.00   1
 -11 -15   6   40.40   47.20   1
  11  15  -6   53.50   47.10   1
  11  15   7   41.30   40.60   1
 -11 -15  -7   18.30   40.50   1
  11 -15  -7  144.80   42.60   1
 -11  15   7   80.20   41.90   1
 -11  15  -7    6.60   41.00   1
  11 -15   7   31.40   42.20   1
 -11 -15   7  112.40   42.90   1
  11  15  -7   35.30   40.80   1
  11  15   8  105.70   42.40   1
 -11 -15  -8   45.40   41.90   1
  11 -15  -8   25.00   42.90   1
 -11  15   8   22.60   42.60   1
 -11  15  -8   41.40   42.60   1
  11 -15   8   41.90   43.40   1
 -11 -15   8   42.10   42.40   1
  11  15  -8   19.40   42.00   1
  11  15   9   18.30   29.70   1
 -11 -15  -9   12.50   29.60   1
  11 -15  -9   12.60   31.00   1
 -11  15   9   27.40   30.90   1
 -11  15  -9   37.70   30.90   1
  11 -15   9   35.50   32.50   1
  11  15  10   45.00   28.20   1
 -11 -15 -10   15.10   28.10   1
  11 -15 -10    0.50   28.90   1
 -11  15  10   -0.00   29.30   1
  11 -15  10   17.60   30.20   1
  11  16   0   -0.00   13.40   1
 -11 -16   0    5.00   13.50   1
  11 -16   0   -0.00   18.00   1
 -11  16   0    9.50   16.90   1
  11  16   1   55.10   44.10   1
 -11 -16  -1   83.80   44.40   1
  11 -16  -1    3.50   45.70   1
 -11  16   1   17.00   44.80   1
 -11  16  -1   66.70   45.30   1
  11 -16   1   58.60   45.60   1
 -11 -16   1   33.60   44.00   1
  11  16  -1   46.50   44.30   1
  11  16   2   54.30   50.00   1
 -11 -16  -2   46.10   50.00   1
  11 -16  -2  101.60   51.60   1
 -11  16   2   93.90   51.00   1
 -11  16  -2   62.10   51.10   1
  11 -16   2   55.70   51.70   1
 -11 -16   2   43.30   50.10   1
  11  16  -2   69.90   50.10   1
  11  16   3   20.70   39.20   1
 -11 -16  -3   29.30   39.20   1
  11 -16  -3   41.00   40.90   1
 -11  16   3   35.50   40.30   1
 -11  16  -3   33.90   40.60   1
  11 -16   3   48.50   41.90   1
 -11 -16   3   52.10   39.50   1
  11  16  -3   48.50   39.20   1
  11  16   4   96.80   68.10   1
 -11 -16  -4   95.70   68.20   1
  11 -16  -4   92.40   69.10   1
 -11  16   4   95.90   69.00   1
 -11  16  -4  123.40   69.50   1
  11 -16   4   74.80   69.40   1
 -11 -16   4  385.80   72.20   1
  11  16  -4  268.40   69.80   1
  11  16   5   17.50   45.10   1
 -11 -16  -5   44.10   45.00   1
  11 -16  -5  181.50   47.70   1
 -11  16   5  232.00   48.30   1
 -11  16  -5   90.20   47.20   1
  11 -16   5   47.80   47.30   1
 -11 -16   5   41.10   45.40   1
  11  16  -5   35.20   45.20   1
  11  16   6   37.50   45.30   1
 -11 -16  -6   32.70   45.20   1
  11 -16  -6   52.80   46.50   1
 -11  16   6   48.80   46.40   1
 -11  16  -6   84.10   46.90   1
  11 -16   6   70.60   47.60   1
 -11 -16   6   80.20   46.00   1
  11  16  -6   46.30   45.50   1
  11  16   7   76.00   41.90   1
 -11 -16  -7   63.20   41.70   1
  11 -16  -7   38.00   42.90   1
 -11  16   7    3.60   42.20   1
 -11  16  -7   25.60   42.80   1
  11 -16   7   13.40   43.60   1
 -11 -16   7   56.00   42.10   1
  11  16  -7   30.70   41.70   1
  11  16   8    6.30   25.50   1
 -11 -16  -8    4.10   25.30   1
  11 -16  -8   73.70   28.00   1
 -11  16   8   23.20   26.50   1
  11 -16   8   -0.00   27.70   1
 -11 -16   8   47.80   26.20   1
  11  16  -8   -0.00   25.50   1
  11  16   9   14.30   23.10   1
 -11 -16  -9    6.30   22.80   1
  11 -16  -9   -0.00   25.00   1
 -11  16   9   -0.00   24.20   1
  11 -16   9   15.10   24.90   1
 -11 -16   9   32.00   23.50   1
  11  17   0    1.20   16.90   1
 -11 -17   0    5.90   17.50   1
  11 -17   0   25.70   22.50   1
 -11  17   0    7.50   21.30   1
  11  17   1   50.60   45.20   1
 -11 -17  -1   40.20   45.00   1
  11 -17  -1   49.80   48.10   1
 -11  17   1   54.10   46.60   1
 -11  17  -1   92.60   47.60   1
  11 -17   1  102.40   48.60   1
 -11 -17   1   36.10   45.00   1
  11  17  -1   47.20   45.20   1
  11  17   2   20.10   25.20   1
 -11 -17  -2   11.90   25.50   1
 -11  17   2  177.30   29.90   1
 -11  17  -2   -0.00   27.90   1
  11 -17   2   -0.00   28.60   1
 -11 -17   2    3.60   25.50   1
  11  17  -2    3.20   25.20   1
  11  17   3    9.90   26.20   1
 -11 -17  -3   17.80   26.00   1
  11 -17  -3   22.30   29.50   1
 -11  17   3   24.00   28.50   1
 -11  17  -3   92.20   29.70   1
  11 -17   3   72.60   30.40   1
 -11 -17   3   -0.10   26.00   1
  11  17  -3   -0.60   26.10   1
  11  17   4   20.10   23.20   1
 -11 -17  -4   12.80   23.40   1
  11 -17  -4   54.10   27.70   1
 -11  17   4   28.80   26.40   1
 -11  17  -4   19.20   26.70   1
  11 -17   4   10.30   26.70   1
 -11 -17   4   -0.00   23.30   1
  11  17  -4   -0.10   23.40   1
  11  17   5   22.50   28.90   1
 -11 -17  -5    5.80   28.70   1
  11 -17  -5   12.70   31.30   1
 -11  17   5    0.00   30.00   1
 -11  17  -5   23.70   31.70   1
  11 -17   5   19.60   31.30   1
 -11 -17   5   37.00   29.10   1
  11  17  -5   26.80   28.90   1
  11  17   6   19.80   21.20   1
 -11 -17  -6   16.20   21.00   1
  11 -17  -6    0.10   24.10   1
 -11  17   6    3.50   22.60   1
 -11  17  -6   19.10   24.40   1
  11 -17   6   14.00   23.80   1
 -11 -17   6    3.80   21.00   1
  11  17  -6    0.60   20.90   1
  11  17   7   -0.00   15.90   1
 -11 -17  -7   -0.00   15.80   1
  11 -17  -7   -0.00   19.90   1
 -11  17   7    3.60   18.00   1
  11 -17   7   33.90   18.70   1
 -11 -17   7    4.60   15.90   1
  11  17  -7    4.60   16.00   1
  11  17   8   29.40   23.30   1
 -11 -17  -8   13.50   22.90   1
  11 -17  -8   14.10   26.10   1
 -11  17   8    6.90   24.60   1
  11 -17   8    0.30   24.30   1
 -11 -17   8   -0.00   23.30   1
  11  18   0   -0.00   22.80   1
 -11 -18   0   14.20   22.60   1
  11 -18   0   -0.00   26.20   1
 -11  18   0   61.20   27.20   1
  11  18   1   94.10   45.80   1
 -11 -18  -1  117.00   46.00   1
  11 -18  -1   43.20   48.10   1
 -11  18   1   36.60   47.90   1
 -11  18  -1   26.20   47.60   1
  11 -18   1   24.10   47.40   1
 -11 -18   1   31.20   45.50   1
  11  18  -1   29.10   45.40   1
  11  18   2   68.50   45.50   1
 -11 -18  -2   46.10   45.60   1
  11 -18  -2   57.40   47.90   1
 -11  18   2   41.60   48.10   1
 -11  18  -2   26.20   47.60   1
  11 -18   2   46.60   47.10   1
 -11 -18   2   48.40   45.60   1
  11  18  -2   44.70   45.50   1
  11  18   3   21.70   30.80   1
 -11 -18  -3   27.50   30.90   1
  11 -18  -3   14.80   34.20   1
 -11  18   3   18.10   33.40   1
 -11  18  -3   23.00   33.70   1
  11 -18   3   24.40   32.80   1
 -11 -18   3   17.10   30.70   1
  11  18  -3   23.00   30.60   1
  11  18   4   67.00   51.50   1
 -11 -18  -4   62.10   51.40   1
  11 -18  -4   91.10   53.90   1
 -11  18   4  105.30   53.40   1
 -11  18  -4   76.50   53.10   1
  11 -18   4   70.00   52.50   1
 -11 -18   4   58.60   51.40   1
  11  18  -4   41.60   51.30   1
  11  18   5   24.70   29.60   1
 -11 -18  -5   17.60   29.60   1
  11 -18  -5   14.50   34.50   1
 -11  18   5   -0.00   32.90   1
 -11  18  -5    2.00   32.00   1
  11 -18   5   28.90   31.10   1
 -11 -18   5   28.80   29.50   1
  11  18  -5   18.10   29.50   1
  11  18   6   11.70   29.60   1
 -11 -18  -6    8.40   29.50   1
  11 -18  -6   46.50   34.60   1
 -11  18   6   30.10   31.70   1
  11 -18   6   -0.00   30.70   1
 -11 -18   6   35.00   29.80   1
  11  18  -6   32.50   29.60   1
  11  18   7   31.80   36.80   1
 -11 -18  -7   30.10   36.70   1
  11 -18  -7   -0.00   40.20   1
 -11  18   7   44.90   38.40   1
  11 -18   7   21.50   37.40   1
 -11 -18   7   45.30   37.00   1
  11  19   0   -0.00   21.50   1
 -11 -19   0   16.70   21.60   1
  11 -19   0   14.10   24.70   1
 -11  19   0   15.90   24.80   1
  11  19   1   30.00   30.80   1
 -11 -19  -1   37.00   31.00   1
  11 -19  -1   32.30   33.00   1
 -11  19   1   41.70   34.70   1
 -11  19  -1    0.20   33.50   1
  11 -19   1    9.60   32.80   1
 -11 -19   1   13.30   30.80   1
  11  19  -1   13.80   30.70   1
  11  19   2   11.30   20.20   1
 -11 -19  -2   11.70   20.10   1
  11 -19  -2   -0.50   24.70   1
 -11  19   2   15.20   24.20   1
 -11  19  -2    8.60   23.90   1
  11 -19   2    2.00   22.60   1
 -11 -19   2   -0.00   19.80   1
  11  19  -2   14.50   19.90   1
  11  19   3   34.80   32.30   1
 -11 -19  -3   39.90   32.50   1
  11 -19  -3   16.90   34.60   1
 -11  19   3   24.20   35.10   1
 -11  19  -3   49.70   34.90   1
  11 -19   3   28.80   33.80   1
 -11 -19   3   -0.00   32.10   1
  11  19  -3   21.80   31.90   1
  11  19   4    9.20   20.70   1
 -11 -19  -4   -0.30   20.80   1
  11 -19  -4   -0.50   25.10   1
 -11  19   4   16.90   26.80   1
 -11  19  -4   -0.00   23.80   1
  11 -19   4   74.90   23.90   1
 -11 -19   4   -0.00   20.70   1
  11  19  -4   11.10   20.50   1
  11  19   5    6.20   15.00   1
 -11 -19  -5   -0.10   15.20   1
  11 -19  -5    5.60   22.00   1
 -11  19   5    1.80   21.20   1
  11 -19   5   14.60   17.40   1
 -11 -19   5    5.10   14.90   1
  11  19  -5   -0.00   14.80   1
  11  19   6    8.00   24.30   1
 -11 -19  -6    1.00   24.40   1
  11 -19  -6   39.90   30.00   1
 -11  19   6   15.20   28.40   1
  11 -19   6   24.10   25.40   1
 -11 -19   6   16.40   24.10   1
  11  20   0   13.40   17.20   1
 -11 -20   0   -0.00   17.40   1
  11 -20   0   -0.00   19.80   1
 -11  20   0    6.70   22.30   1
  11  20   1   19.00   31.10   1
 -11 -20  -1   -0.00   31.30   1
  11 -20  -1  119.40   34.50   1
 -11  20   1  168.40   35.80   1
 -11  20  -1  102.20   34.20   1
  11 -20   1   32.10   33.00   1
 -11 -20   1    8.40   31.20   1
  11  20  -1   -0.00   31.00   1
  11  20   2    1.40   17.90   1
 -11 -20  -2   -0.00   18.10   1
  11 -20  -2   27.70   20.50   1
 -11  20   2   21.50   21.90   1
 -11  20  -2   12.50   21.50   1
  11 -20   2    5.80   20.20   1
 -11 -20   2   -0.00   18.00   1
  11  20  -2    7.20   17.50   1
  11  20   3   39.50   47.10   1
 -11 -20  -3   41.30   47.30   1
  11 -20  -3   87.10   48.90   1
 -11  20   3   55.70   49.80   1
  11 -20   3   58.50   48.10   1
 -11 -20   3   59.60   47.30   1
  11  20  -3   59.80   47.20   1
  11  20   4   25.80   22.90   1
 -11 -20  -4   25.00   22.60   1
  11 -20  -4   -0.00   26.10   1
 -11  20   4   -0.00   26.10   1
  11 -20   4   11.70   23.90   1
 -11 -20   4   -0.00   22.60   1
  11  20  -4    3.10   22.50   1
  11  21   0    8.50   30.80   1
 -11 -21   0   20.00   31.00   1
  11 -21   0   56.60   32.60   1
 -11  21   0   29.10   32.80   1
  11  21   1   25.50   35.70   1
 -11 -21  -1   25.80   35.80   1
  11 -21  -1   47.40   36.80   1
 -11  21   1   58.80   37.50   1
 -11  21  -1   19.40   36.70   1
  11 -21   1   40.40   36.60   1
 -11 -21   1   21.40   35.80   1
  11  21  -1   27.40   35.60   1
  12   5  12   25.40   32.70   1
  12   5  13   68.50   56.60   1
 -12  -5 -13   98.40   57.60   1
  12   6  10   -0.00    6.40   1
  12   6  11   33.00   27.30   1
 -12  -6 -11    8.70   26.80   1
  12   6  12   20.20   24.40   1
 -12  -6 -12    8.30   24.20   1
  12   6  13   28.50   39.90   1
 -12  -6 -13   59.40   40.30   1
  12   7   8  220.20   98.70   1
  12   7   9   85.50   29.20   1
 -12  -7  -9    2.20   27.70   1
  12   7  10  184.40   72.50   1
 -12  -7 -10   91.90   71.70   1
  12   7  11   23.90   28.60   1
 -12  -7 -11   14.40   28.70   1
  12   7  12   13.50   27.40   1
 -12  -7 -12   23.30   27.60   1
  12   7  13   15.90   21.90   1
 -12  -7 -13    5.90   22.10   1
  12   8   6   36.80   39.40   1
  12   8   7  177.20   80.60   1
 -12  -8  -7  129.40   80.30   1
  12   8   8   74.00   59.40   1
 -12  -8  -8  100.40   59.60   1
  12   8   9  539.50  164.50   1
 -12  -8  -9  614.10  167.40   1
  12   8  10   47.20   47.10   1
 -12  -8 -10   61.00   47.30   1
  12   8  11  119.00   73.10   1
 -12  -8 -11  138.20   73.30   1
  12   8  12   60.80   55.40   1
 -12  -8 -12   96.60   55.70   1
  12  -9   0   27.90   35.10   1
  12  -9  -1   41.20   34.00   1
  12  -9   1   14.10   33.40   1
  12  -9  -2  142.70   80.10   1
  12  -9   2  151.30   80.70   1
  12  -9  -3   33.00   33.10   1
  12  -9   3   16.70   32.40   1
  12   9   4   15.30   23.50   1
  12  -9  -4   24.90   25.00   1
  12  -9   4   -0.00   24.20   1
  12   9   5   40.80   40.50   1
 -12  -9  -5   42.70   40.40   1
  12  -9  -5   28.70   41.20   1
  12   9   6   17.00   30.10   1
 -12  -9  -6   30.60   29.80   1
  12  -9  -6   10.00   30.60   1
  12   9   7   50.30   42.50   1
 -12  -9  -7   35.50   42.40   1
  12  -9  -7   43.50   43.20   1
  12   9   8  171.30   37.50   1
 -12  -9  -8   14.20   35.90   1
  12  -9  -8    8.50   36.30   1
  12   9   9   10.80   17.70   1
 -12  -9  -9   -0.20   18.00   1
  12  -9  -9    9.70   19.00   1
  12   9  10   12.10   30.50   1
 -12  -9 -10   32.00   30.70   1
  12  -9 -10   27.60   31.60   1
  12   9  11   -0.00   13.80   1
 -12  -9 -11    3.00   13.80   1
  12  -9 -11   17.30   16.20   1
  12   9  12    7.00   23.40   1
 -12  -9 -12   11.90   23.40   1
  12  -9 -12   51.00   25.90   1
  12 -10   0  160.70   74.50   1
 -12  10   0  106.50   73.90   1
  12 -10  -1  115.90   54.70   1
 -12  10   1   93.30   54.40   1
 -12  10  -1   55.70   53.80   1
  12 -10   1   44.40   53.80   1
  12  10   2  626.70  135.60   1
  12 -10  -2  372.80  127.60   1
 -12  10   2  368.70  128.20   1
 -12  10  -2  413.70  129.20   1
  12 -10   2  267.30  126.00   1
  12  10   3  156.90   77.40   1
 -12 -10  -3  115.70   77.10   1
  12 -10  -3  232.20   79.10   1
 -12  10   3  268.20   80.20   1
 -12  10  -3  181.40   78.30   1
  12 -10   3   87.20   77.10   1
  12  10   4  279.50   98.60   1
 -12 -10  -4  150.40   97.60   1
  12 -10  -4  238.80   99.10   1
 -12  10   4  252.90   99.70   1
 -12  10  -4  224.60   99.30   1
  12 -10   4  484.30  104.80   1
  12  10   5  447.50  138.40   1
 -12 -10  -5  401.10  138.60   1
  12 -10  -5  379.20  139.90   1
 -12  10   5  403.50  141.30   1
 -12  10  -5  448.80  143.00   1
  12 -10   5  424.80  140.80   1
  12  10   6  165.60   76.00   1
 -12 -10  -6  111.50   75.90   1
  12 -10  -6  127.00   76.80   1
 -12  10   6  205.10   78.50   1
 -12  10  -6  105.30   76.40   1
  12 -10   6  171.80   77.20   1
  12  10   7  101.70   67.20   1
 -12 -10  -7  104.90   67.20   1
  12 -10  -7   99.10   68.10   1
 -12  10   7  156.90   69.50   1
 -12  10  -7   84.60   67.70   1
  12 -10   7  209.30   70.00   1
  12  10   8  113.60   57.60   1
 -12 -10  -8   72.00   57.40   1
  12 -10  -8   61.20   58.10   1
 -12  10   8   71.60   58.40   1
 -12  10  -8   58.10   57.80   1
  12 -10   8   96.30   58.40   1
  12  10   9   46.70   38.50   1
 -12 -10  -9   52.30   38.50   1
  12 -10  -9   21.00   39.20   1
 -12  10   9   71.50   40.20   1
 -12  10  -9    6.80   38.40   1
  12 -10   9   45.00   39.00   1
  12  10  10   48.20   31.60   1
 -12 -10 -10   -0.00   31.10   1
  12 -10 -10   20.00   32.60   1
 -12  10  10   99.30   35.00   1
 -12  10 -10   28.70   31.70   1
  12 -10  10   34.40   31.90   1
  12  10  11   16.00   32.00   1
 -12 -10 -11   44.30   32.30   1
  12 -10 -11   25.80   33.10   1
 -12  10  11   59.80   34.20   1
 -12  10 -11    7.10   32.20   1
  12 -10  11   30.00   32.60   1
  12  10  12   18.00   25.70   1
 -12 -10 -12   11.80   25.80   1
  12 -10 -12   13.00   27.00   1
 -12  10  12   44.50   28.10   1
  12 -10  12   10.30   26.10   1
  12  11   0   26.30   39.50   1
  12 -11   0   44.10   41.20   1
 -12  11   0   54.50   40.80   1
  12  11   1   27.70   27.50   1
 -12 -11  -1   -0.00   27.10   1
  12 -11  -1   18.90   29.50   1
 -12  11   1   10.90   29.10   1
 -12  11  -1   31.00   29.10   1
  12 -11   1   41.90   30.20   1
  12  11   2  439.80   77.30   1
 -12 -11  -2  341.80   76.20   1
  12 -11  -2  117.30   73.70   1
 -12  11   2   85.80   72.90   1
 -12  11  -2   65.90   72.60   1
  12 -11   2  167.40   73.90   1
  12  11   3   13.40   31.00   1
 -12 -11  -3   13.20   31.10   1
  12 -11  -3   21.90   34.30   1
 -12  11   3   23.30   33.10   1
 -12  11  -3   22.20   32.20   1
  12 -11   3  114.10   35.30   1
  12  11   4   12.50   33.70   1
 -12 -11  -4   23.80   33.90   1
  12 -11  -4   33.80   36.80   1
 -12  11   4   12.50   35.00   1
 -12  11  -4   44.90   35.30   1
  12 -11   4   92.30   36.60   1
  12  11   5   51.20   32.00   1
 -12 -11  -5    0.00   31.80   1
  12 -11  -5    6.70   34.60   1
 -12  11   5   16.80   33.00   1
 -12  11  -5   17.00   32.90   1
  12 -11   5   71.40   34.20   1
  12  11   6   44.00   44.10   1
 -12 -11  -6   44.70   44.10   1
  12 -11  -6   31.40   46.40   1
 -12  11   6   27.70   45.30   1
 -12  11  -6   72.70   45.40   1
  12 -11   6   64.50   45.40   1
  12  11   7    7.40   28.50   1
 -12 -11  -7   48.80   29.00   1
  12 -11  -7    8.70   32.00   1
 -12  11   7   18.30   30.50   1
 -12  11  -7   -0.00   29.70   1
  12 -11   7   36.10   30.90   1
  12  11   8   38.10   40.10   1
 -12 -11  -8   27.80   39.90   1
  12 -11  -8   33.40   42.60   1
 -12  11   8   49.00   41.30   1
 -12  11  -8   54.20   41.20   1
  12 -11   8   49.80   41.50   1
  12  11   9   27.00   42.10   1
 -12 -11  -9   55.40   42.30   1
  12 -11  -9   26.40   44.50   1
 -12  11   9   79.60   44.20   1
 -12  11  -9   62.10   43.30   1
  12 -11   9   36.10   43.40   1
  12  11  10   44.60   31.80   1
 -12 -11 -10   25.80   31.80   1
  12 -11 -10   -0.00   35.30   1
 -12  11  10   -0.00   33.10   1
 -12  11 -10   22.00   32.60   1
  12 -11  10   11.70   33.00   1
  12  11  11    8.80   17.60   1
 -12 -11 -11   -1.30   17.60   1
  12 -11 -11   -0.00   22.30   1
 -12  11  11   -0.00   20.20   1
 -12  11 -11   39.70   19.30   1
  12 -11  11   -0.10   19.60   1
  12  12   0  373.50  125.10   1
 -12 -12   0  373.40  125.80   1
  12 -12   0  288.00  124.50   1
 -12  12   0  382.90  125.40   1
  12  12   1  611.20  163.80   1
 -12 -12  -1  548.40  164.10   1
  12 -12  -1  590.20  163.70   1
 -12  12   1  487.40  163.30   1
 -12  12  -1  430.10  162.60   1
  12 -12   1  716.70  164.80   1
 -12 -12   1  676.10  172.00   1
  12  12  -1  703.90  168.80   1
  12  12   2   34.70   48.10   1
 -12 -12  -2   49.00   48.50   1
  12 -12  -2  105.00   51.10   1
 -12  12   2   93.70   50.50   1
 -12  12  -2   93.80   50.40   1
  12 -12   2   54.20   49.80   1
  12  12  -2   49.30   48.40   1
  12  12   3  233.80  114.10   1
 -12 -12  -3  263.60  114.40   1
  12 -12  -3  372.70  116.70   1
 -12  12   3  391.60  117.10   1
 -12  12  -3  376.60  116.80   1
  12 -12   3  343.20  115.90   1
  12  12   4   22.30   37.90   1
 -12 -12  -4   21.90   37.90   1
  12 -12  -4   67.00   41.00   1
 -12  12   4   66.30   41.40   1
 -12  12  -4   64.00   40.70   1
  12 -12   4   43.80   39.60   1
  12  12   5  361.70  106.00   1
 -12 -12  -5  274.30  105.60   1
  12 -12  -5  217.80  106.60   1
 -12  12   5  280.10  107.30   1
 -12  12  -5  175.80  106.10   1
  12 -12   5  252.00  106.30   1
  12  12   6   39.90   38.50   1
 -12 -12  -6   15.50   38.40   1
  12 -12  -6   58.90   41.30   1
 -12  12   6   78.30   41.70   1
 -12  12  -6   53.60   40.50   1
  12 -12   6   30.90   39.80   1
  12  12   7  156.20   74.50   1
 -12 -12  -7  202.10   74.80   1
  12 -12  -7   89.70   75.90   1
 -12  12   7  112.70   75.80   1
 -12  12  -7  139.40   75.90   1
  12 -12   7   81.50   74.90   1
  12  12   8   -0.00   24.80   1
 -12 -12  -8    4.00   24.80   1
  12 -12  -8   59.10   29.60   1
 -12  12   8   21.10   28.80   1
 -12  12  -8   61.70   28.10   1
  12 -12   8   22.90   26.10   1
  12  12   9  279.70  103.60   1
 -12 -12  -9  229.30  103.50   1
  12 -12  -9  257.20  106.00   1
 -12  12   9  345.20  108.00   1
 -12  12  -9  258.20  105.40   1
  12 -12   9  196.60  104.10   1
  12  12  10    8.70   21.00   1
 -12 -12 -10   -0.00   21.00   1
  12 -12 -10   37.50   26.00   1
 -12  12  10   23.10   24.90   1
 -12  12 -10   60.10   24.70   1
  12 -12  10   -0.50   22.20   1
  12  12  11   17.90   39.00   1
 -12 -12 -11   47.90   39.20   1
  12 -12 -11  119.90   43.80   1
 -12  12  11   24.70   41.80   1
 -12  12 -11  104.60   42.00   1
  12 -12  11   33.40   39.70   1
  12  13   0 4260.80  582.70   1
 -12 -13   0 3931.00  587.30   1
  12 -13   0 3988.90  572.40   1
 -12  13   0 3071.60  558.00   1
  12  13   1  190.50   79.10   1
 -12 -13  -1  172.80   79.20   1
  12 -13  -1  171.40   80.10   1
 -12  13   1  153.60   80.20   1
 -12  13  -1  135.50   79.90   1
  12 -13   1  160.80   80.00   1
 -12 -13   1  105.40   78.90   1
  12  13  -1  120.10   78.90   1
  12  13   2   97.80   69.10   1
 -12 -13  -2   95.40   69.10   1
  12 -13  -2  106.60   70.20   1
 -12  13   2  108.40   70.40   1
 -12  13  -2  121.80   70.30   1
  12 -13   2  120.20   70.30   1
 -12 -13   2  157.90   70.30   1
  12  13  -2  260.50   71.80   1
  12  13   3  355.80  124.50   1
 -12 -13  -3  393.80  125.00   1
  12 -13  -3  299.70  125.30   1
 -12  13   3  309.80  125.50   1
 -12  13  -3  293.60  125.00   1
  12 -13   3  469.40  126.50   1
 -12 -13   3  370.30  129.30   1
  12  13  -3  416.80  128.30   1
  12  13   4   41.10   35.40   1
 -12 -13  -4   45.20   35.50   1
  12 -13  -4   17.80   37.00   1
 -12  13   4   28.80   37.10   1
 -12  13  -4   29.80   36.90   1
  12 -13   4   21.00   36.70   1
  12  13  -4   11.10   35.60   1
  12  13   5  113.40   58.40   1
 -12 -13  -5   73.80   58.10   1
  12 -13  -5   57.90   59.30   1
 -12  13   5   69.90   59.70   1
 -12  13  -5   76.00   59.20   1
  12 -13   5   86.00   59.10   1
  12  13   6  835.10  161.10   1
 -12 -13  -6  768.80  160.60   1
  12 -13  -6  458.60  159.10   1
 -12  13   6  426.50  159.10   1
 -12  13  -6  372.40  158.10   1
  12 -13   6  956.30  165.90   1
  12  13   7  303.70   95.50   1
 -12 -13  -7  230.30   95.20   1
  12 -13  -7  136.60   95.40   1
 -12  13   7  164.80   96.10   1
 -12  13  -7  177.10   95.60   1
  12 -13   7  356.50   97.40   1
  12  13   8  621.40  141.80   1
 -12 -13  -8  472.30  140.90   1
  12 -13  -8  274.40  140.60   1
 -12  13   8  445.90  143.20   1
 -12  13  -8  388.30  141.50   1
  12 -13   8  596.50  143.90   1
  12  13   9   58.60   47.70   1
 -12 -13  -9   60.20   47.60   1
  12 -13  -9   28.80   48.80   1
 -12  13   9   54.60   49.20   1
 -12  13  -9   36.90   48.10   1
  12 -13   9   84.10   48.50   1
  12  13  10   88.50   39.90   1
 -12 -13 -10   95.20   40.20   1
  12 -13 -10   -0.00   41.00   1
 -12  13  10   32.10   41.40   1
 -12  13 -10    4.10   40.00   1
  12 -13  10   10.50   40.10   1
  12  14   0   29.50   36.50   1
 -12 -14   0   17.90   36.60   1
  12 -14   0   76.90   38.50   1
 -12  14   0   31.80   38.10   1
  12  14   1   22.40   35.40   1
 -12 -14  -1   21.40   35.40   1
  12 -14  -1   19.40   36.60   1
 -12  14   1    7.50   36.80   1
 -12  14  -1  151.10   38.40   1
  12 -14   1   86.20   37.40   1
 -12 -14   1   28.40   35.50   1
  12  14  -1   16.50   35.40   1
  12  14   2   -0.00   30.00   1
 -12 -14  -2    7.80   30.10   1
  12 -14  -2   33.70   31.70   1
 -12  14   2   28.10   32.20   1
 -12  14  -2   89.10   32.70   1
  12 -14   2   43.90   31.80   1
 -12 -14   2   18.50   30.40   1
  12  14  -2   25.30   30.40   1
  12  14   3   29.80   34.30   1
 -12 -14  -3    6.90   34.30   1
  12 -14  -3   -0.00   35.90   1
 -12  14   3   15.20   35.90   1
 -12  14  -3   84.40   36.20   1
  12 -14   3   64.90   35.70   1
 -12 -14   3   32.80   34.80   1
  12  14  -3   30.40   34.80   1
  12  14   4   22.00   27.50   1
 -12 -14  -4   11.70   27.30   1
  12 -14  -4    3.30   28.80   1
 -12  14   4   -0.00   28.90   1
 -12  14  -4  107.40   29.90   1
  12 -14   4   37.60   28.70   1
 -12 -14   4   -0.00   27.60   1
  12  14  -4   14.60   27.70   1
  12  14   5    8.00   25.60   1
 -12 -14  -5   10.90   25.60   1
  12 -14  -5   -0.00   27.80   1
 -12  14   5   20.10   27.00   1
 -12  14  -5   53.60   27.50   1
  12 -14   5   19.70   26.70   1
 -12 -14   5    4.10   25.50   1
  12  14  -5   26.80   26.00   1
  12  14   6   37.50   40.40   1
 -12 -14  -6   43.50   40.40   1
  12 -14  -6   34.10   41.50   1
 -12  14   6   17.20   41.70   1
 -12  14  -6   96.70   42.00   1
  12 -14   6   43.50   41.10   1
  12  14  -6   24.80   40.50   1
  12  14   7   -0.00   18.90   1
 -12 -14  -7    4.10   19.10   1
  12 -14  -7   33.20   22.20   1
 -12  14   7   10.90   21.50   1
 -12  14  -7   13.00   20.60   1
  12 -14   7    8.60   20.40   1
  12  14   8    3.60   12.40   1
 -12 -14  -8   -0.00   12.60   1
  12 -14  -8   -0.20   16.30   1
 -12  14   8   -0.00   15.40   1
 -12  14  -8   12.40   14.80   1
  12 -14   8    1.60   14.30   1
  12  14   9   25.80   26.90   1
 -12 -14  -9   38.40   26.90   1
  12 -14  -9    4.80   28.70   1
 -12  14   9    0.40   28.20   1
 -12  14  -9   -0.10   27.40   1
  12 -14   9    8.90   27.30   1
  12  14  10   -0.00   16.60   1
 -12 -14 -10   12.20   16.70   1
  12 -14 -10    6.40   19.10   1
 -12  14  10   -0.10   18.90   1
  12 -14  10    8.30   17.70   1
  12  15   0   93.30   55.20   1
 -12 -15   0   98.20   55.40   1
  12 -15   0   35.60   55.50   1
 -12  15   0   61.30   55.70   1
  12  15   1    7.60   20.30   1
 -12 -15  -1    8.10   20.50   1
  12 -15  -1   -0.20   21.90   1
 -12  15   1   -0.00   22.80   1
 -12  15  -1   18.70   22.40   1
  12 -15   1   22.30   22.40   1
 -12 -15   1    7.70   21.10   1
  12  15  -1   11.40   20.90   1
  12  15   2  114.00   59.80   1
 -12 -15  -2  116.40   59.80   1
  12 -15  -2   48.50   60.10   1
 -12  15   2   69.00   60.30   1
 -12  15  -2   72.40   60.40   1
  12 -15   2   91.60   60.50   1
 -12 -15   2   83.20   60.00   1
  12  15  -2   81.70   59.70   1
  12  15   3   26.30   25.60   1
 -12 -15  -3   24.70   25.80   1
  12 -15  -3    3.10   26.80   1
 -12  15   3   21.80   27.30   1
 -12  15  -3   12.70   26.80   1
  12 -15   3   25.70   27.10   1
 -12 -15   3   -0.00   25.80   1
  12  15  -3    5.00   26.00   1
  12  15   4   32.80   34.70   1
 -12 -15  -4   30.40   34.70   1
  12 -15  -4   24.40   36.20   1
 -12  15   4   13.20   36.10   1
 -12  15  -4   16.40   35.20   1
  12 -15   4   29.60   35.20   1
 -12 -15   4   23.40   34.90   1
  12  15  -4   50.50   35.30   1
  12  15   5   12.70   35.00   1
 -12 -15  -5   18.10   35.10   1
  12 -15  -5   27.10   36.30   1
 -12  15   5   80.20   37.00   1
 -12  15  -5   21.30   35.70   1
  12 -15   5   83.20   36.50   1
 -12 -15   5   39.10   35.50   1
  12  15  -5   23.60   35.20   1
  12  15   6  104.50   63.60   1
 -12 -15  -6   68.30   63.50   1
  12 -15  -6  136.70   64.80   1
 -12  15   6  141.30   65.30   1
 -12  15  -6  122.80   64.30   1
  12 -15   6   78.90   64.00   1
 -12 -15   6  115.90   64.90   1
  12  15  -6   87.90   64.10   1
  12  15   7   15.70   28.70   1
 -12 -15  -7   40.80   28.90   1
  12 -15  -7   30.10   30.80   1
 -12  15   7   31.90   31.10   1
 -12  15  -7   15.00   29.20   1
  12 -15   7    0.00   29.40   1
  12  15  -7   11.00   28.90   1
  12  15   8   40.20   32.60   1
 -12 -15  -8   30.60   32.60   1
  12 -15  -8    9.90   33.80   1
 -12  15   8   29.50   34.40   1
 -12  15  -8   -0.00   33.00   1
  12 -15   8   81.40   34.30   1
  12  15  -8   10.00   32.50   1
  12  15   9   12.50   16.50   1
 -12 -15  -9   -0.00   16.40   1
  12 -15  -9   15.70   19.20   1
 -12  15   9   -0.00   19.50   1
  12 -15   9   -0.00   18.10   1
  12  16   0   23.90   28.10   1
 -12 -16   0   16.00   28.20   1
  12 -16   0   12.80   29.10   1
 -12  16   0   17.00   29.50   1
  12  16   1  101.70   60.10   1
 -12 -16  -1  125.90   60.40   1
  12 -16  -1   76.20   60.60   1
 -12  16   1   81.70   60.90   1
 -12  16  -1   71.60   60.50   1
  12 -16   1   79.70   60.80   1
 -12 -16   1   84.10   60.10   1
  12  16  -1   73.70   60.00   1
  12  16   2   65.10   64.00   1
 -12 -16  -2   67.10   64.00   1
  12 -16  -2  100.00   64.80   1
 -12  16   2  110.90   64.90   1
 -12  16  -2  112.70   64.80   1
  12 -16   2   92.60   64.80   1
 -12 -16   2  307.80   66.80   1
  12  16  -2  202.50   65.00   1
  12  16   3   27.30   35.20   1
 -12 -16  -3   34.70   35.50   1
  12 -16  -3   14.30   36.20   1
 -12  16   3   33.90   36.50   1
 -12  16  -3   17.40   36.00   1
  12 -16   3   54.20   36.50   1
 -12 -16   3   28.80   35.40   1
  12  16  -3   30.30   35.50   1
  12  16   4   89.20   59.50   1
 -12 -16  -4  100.10   59.50   1
  12 -16  -4   64.70   60.00   1
 -12  16   4   76.50   60.30   1
 -12  16  -4   70.80   59.80   1
  12 -16   4   62.30   60.30   1
 -12 -16   4  158.10   60.50   1
  12  16  -4   82.20   59.60   1
  12  16   5  113.90   68.00   1
 -12 -16  -5  109.00   68.10   1
  12 -16  -5  106.60   68.90   1
 -12  16   5  155.40   69.20   1
 -12  16  -5   80.50   68.50   1
  12 -16   5   95.80   68.70   1
 -12 -16   5  120.20   68.70   1
  12  16  -5  126.30   68.60   1
  12  16   6   67.00   33.10   1
 -12 -16  -6   49.30   33.20   1
  12 -16  -6    9.80   34.10   1
 -12  16   6   -0.00   33.80   1
 -12  16  -6    7.80   33.40   1
  12 -16   6   31.80   34.20   1
 -12 -16   6   21.60   33.20   1
  12  16  -6    6.30   33.10   1
  12  16   7   20.00   25.50   1
 -12 -16  -7   -0.00   25.40   1
  12 -16  -7   17.00   26.80   1
 -12  16   7   17.90   27.00   1
 -12  16  -7   -0.00   26.20   1
  12 -16   7    5.70   27.10   1
 -12 -16   7  158.60   31.80   1
  12  16  -7   30.00   25.90   1
  12  16   8   12.40   18.30   1
 -12 -16  -8    7.00   18.40   1
  12 -16  -8    0.00   20.90   1
 -12  16   8   12.00   20.50   1
  12 -16   8    6.00   20.80   1
 -12 -16   8    1.40   18.70   1
  12  17   0  213.90   99.60   1
 -12 -17   0  217.50   99.60   1
  12 -17   0  254.30  100.60   1
 -12  17   0  248.30  100.20   1
  12  17   1   12.30   21.60   1
 -12 -17  -1   15.30   21.50   1
  12 -17  -1   31.30   24.50   1
 -12  17   1   18.90   23.00   1
 -12  17  -1    8.60   22.90   1
  12 -17   1    7.80   24.00   1
 -12 -17   1    4.10   21.80   1
  12  17  -1   -0.00   21.40   1
  12  17   2   21.00   35.30   1
 -12 -17  -2   20.10   35.60   1
  12 -17  -2  124.50   38.40   1
 -12  17   2  228.10   39.10   1
 -12  17  -2   30.40   36.60   1
  12 -17   2   26.20   37.30   1
 -12 -17   2   16.60   35.30   1
  12  17  -2   15.30   35.40   1
  12  17   3   36.30   31.40   1
 -12 -17  -3   30.00   31.30   1
  12 -17  -3   30.80   33.40   1
 -12  17   3   32.90   32.70   1
 -12  17  -3   13.50   32.50   1
  12 -17   3   13.40   33.30   1
 -12 -17   3   11.60   31.60   1
  12  17  -3   12.10   31.50   1
  12  17   4   -0.00   26.50   1
 -12 -17  -4    5.50   26.50   1
  12 -17  -4   50.00   29.40   1
 -12  17   4   36.20   28.70   1
 -12  17  -4   28.70   28.80   1
  12 -17   4   50.50   30.70   1
 -12 -17   4   16.20   27.10   1
  12  17  -4   18.70   26.80   1
  12  17   5   24.60   28.40   1
 -12 -17  -5   33.00   28.50   1
  12 -17  -5   12.10   30.70   1
 -12  17   5   12.10   30.00   1
 -12  17  -5    9.70   29.70   1
  12 -17   5   23.90   30.70   1
 -12 -17   5   15.20   28.60   1
  12  17  -5    8.90   28.40   1
  12  17   6   53.40   44.20   1
 -12 -17  -6  108.90   44.70   1
  12 -17  -6   31.30   45.20   1
 -12  17   6   37.70   45.10   1
 -12  17  -6   33.70   45.20   1
  12 -17   6   -0.00   46.10   1
 -12 -17   6   32.80   44.40   1
  12  17  -6   53.10   44.60   1
  12  17   7   12.60   27.80   1
 -12 -17  -7   19.90   27.70   1
  12 -17  -7   -0.00   29.10   1
 -12  17   7    9.90   29.20   1
  12 -17   7   31.60   30.70   1
 -12 -17   7   34.80   28.40   1
  12  18   0   -0.00   11.90   1
 -12 -18   0   -0.00   12.00   1
  12 -18   0   11.80   20.50   1
 -12  18   0   12.10   17.10   1
  12  18   1  340.30  127.80   1
 -12 -18  -1  336.00  128.00   1
  12 -18  -1  347.40  129.20   1
 -12  18   1  403.80  129.20   1
 -12  18  -1  754.00  133.30   1
  12 -18   1  746.50  133.40   1
 -12 -18   1  322.80  128.00   1
  12  18  -1  296.40  127.70   1
  12  18   2   65.80   52.00   1
 -12 -18  -2   49.90   51.90   1
  12 -18  -2   62.40   54.00   1
 -12  18   2   55.50   53.10   1
 -12  18  -2   62.80   53.30   1
  12 -18   2   70.80   54.50   1
 -12 -18   2   79.70   52.20   1
  12  18  -2   72.80   52.10   1
  12  18   3  137.20   66.90   1
 -12 -18  -3  130.10   67.00   1
  12 -18  -3   39.30   67.90   1
 -12  18   3   58.50   67.50   1
 -12  18  -3   86.60   68.00   1
  12 -18   3  489.00   73.90   1
 -12 -18   3   97.80   66.70   1
  12  18  -3  123.60   66.90   1
  12  18   4   86.10   57.20   1
 -12 -18  -4   97.50   57.40   1
  12 -18  -4   38.20   58.30   1
 -12  18   4   61.80   57.80   1
 -12  18  -4   67.60   58.40   1
  12 -18   4  192.90   60.50   1
 -12 -18   4   98.00   57.50   1
  12  18  -4   58.30   57.20   1
  12  18   5  172.80   72.40   1
 -12 -18  -5  121.30   72.20   1
  12 -18  -5  116.50   73.70   1
 -12  18   5  117.60   72.90   1
  12 -18   5  186.10   74.80   1
 -12 -18   5  108.90   72.50   1
  12  18  -5   90.30   72.20   1
  12  18   6   13.30   20.00   1
 -12 -18  -6   -0.00   19.60   1
  12 -18  -6   28.80   24.00   1
 -12  18   6   19.50   21.70   1
  12 -18   6   10.80   23.50   1
 -12 -18   6    0.00   20.00   1
  12  19   0   14.10   24.40   1
 -12 -19   0   11.40   24.50   1
  12 -19   0    7.10   29.60   1
 -12  19   0   22.20   27.50   1
  12  19   1    8.70   17.70   1
 -12 -19  -1    4.80   17.80   1
  12 -19  -1   41.80   24.50   1
 -12  19   1   16.00   23.20   1
 -12  19  -1    8.10   22.20   1
  12 -19   1   -0.20   24.10   1
 -12 -19   1   -0.00   17.90   1
  12  19  -1    4.70   17.80   1
  12  19   2   47.60   30.70   1
 -12 -19  -2   39.90   30.80   1
  12 -19  -2   18.50   34.30   1
 -12  19   2    8.20   33.60   1
 -12  19  -2   -0.00   33.80   1
  12 -19   2   -0.00   33.10   1
 -12 -19   2   13.20   30.60   1
  12  19  -2   11.30   30.40   1
  12  19   3   -0.00   12.10   1
 -12 -19  -3    0.00   11.80   1
  12 -19  -3   -0.00   21.60   1
 -12  19   3   -0.00   17.70   1
 -12  19  -3   11.10   17.90   1
  12 -19   3   10.00   17.60   1
 -12 -19   3    2.30   12.60   1
  12  19  -3    2.60   12.00   1
  12  19   4    6.10   23.70   1
 -12 -19  -4   13.70   23.40   1
  12 -19  -4   -0.10   29.50   1
 -12  19   4   -0.00   25.90   1
  12 -19   4    3.40   26.80   1
 -12 -19   4   12.40   23.60   1
  12  19  -4   24.90   23.50   1
  12  19   5    7.60   23.20   1
 -12 -19  -5    7.10   23.00   1
  12 -19  -5   47.10   28.70   1
 -12  19   5   28.70   25.30   1
  12 -19   5   -0.10   25.80   1
 -12 -19   5   12.00   22.90   1
  12  19  -5   10.00   22.70   1
  12  20   0   24.50   33.50   1
 -12 -20   0   38.70   33.90   1
  12 -20   0    2.50   36.60   1
 -12  20   0   21.80   37.40   1
  12  20   1   49.90   42.00   1
 -12 -20  -1   49.20   42.20   1
  12 -20  -1   16.30   44.20   1
 -12  20   1   46.50   45.20   1
 -12  20  -1  113.60   45.20   1
  12 -20   1   40.10   44.00   1
 -12 -20   1   22.60   42.10   1
  12  20  -1   40.20   42.00   1
  12  20   2   20.40   27.10   1
 -12 -20  -2   11.70   26.80   1
  12 -20  -2   37.10   30.90   1
 -12  20   2   11.70   31.50   1
 -12  20  -2   -0.00   30.70   1
  12 -20   2   24.10   29.80   1
 -12 -20   2   19.60   27.20   1
  12  20  -2   14.10   26.70   1
  12  20   3   32.10   26.80   1
 -12 -20  -3   15.10   26.30   1
  12 -20  -3   29.50   32.10   1
 -12  20   3   11.20   30.40   1
  12 -20   3   -0.00   28.70   1
 -12 -20   3   11.90   26.70   1
  12  20  -3   11.50   26.50   1
  13   5  13   73.70   56.10   1
  13   6  12   15.10   25.60   1
  13   7  10  149.40   80.60   1
  13   7  11   24.50   25.00   1
 -13  -7 -11    7.80   24.50   1
  13   7  12   30.80   35.00   1
 -13  -7 -12   27.10   34.90   1
  13   8   8   25.30   32.80   1
  13   8   9  194.40   48.90   1
 -13  -8  -9   33.90   45.50   1
  13   8  10   35.20   37.00   1
 -13  -8 -10   29.30   36.90   1
  13   8  11  131.40   54.80   1
 -13  -8 -11   46.10   54.00   1
  13   8  12   25.50   37.40   1
 -13  -8 -12   50.10   37.90   1
  13   9   6   81.60   58.80   1
  13   9   7   14.40   18.70   1
 -13  -9  -7    1.80   18.20   1
  13   9   8   41.90   36.20   1
 -13  -9  -8   22.10   36.10   1
  13   9   9   -0.00   16.70   1
 -13  -9  -9   11.80   16.80   1
  13   9  10   28.50   23.80   1
 -13  -9 -10   -0.10   23.60   1
  13   9  11    1.90    9.10   1
 -13  -9 -11    0.00    9.30   1
  13   9  12   57.80   46.80   1
 -13  -9 -12   47.00   46.90   1
  13 -10   0   14.50   26.50   1
  13 -10  -1  144.80   81.60   1
 -13  10   1  136.30   82.40   1
  13 -10   1  181.10   82.50   1
  13 -10  -2   71.80   54.30   1
 -13  10   2   88.60   55.30   1
  13 -10   2   56.40   53.90   1
  13 -10  -3 2107.10  408.80   1
 -13  10   3 2237.30  448.80   1
  13 -10   3 1830.60  400.20   1
  13  10   4  292.10  104.90   1
  13 -10  -4  218.60  104.30   1
 -13  10   4  257.30  107.30   1
  13 -10   4  214.20  104.50   1
  13  10   5  501.90  146.90   1
 -13 -10  -5  536.80  150.10   1
  13 -10  -5  344.40  146.50   1
 -13  10   5  425.00  152.50   1
  13 -10   5  490.00  152.60   1
  13  10   6   71.90   51.60   1
 -13 -10  -6   55.20   51.30   1
  13 -10  -6   64.60   52.20   1
 -13  10   6   63.20   52.70   1
  13 -10   6   61.50   52.10   1
  13  10   7  172.70   85.00   1
 -13 -10  -7  271.20   86.80   1
  13 -10  -7  110.60   85.40   1
 -13  10   7  163.40   87.80   1
  13 -10   7  189.70   87.90   1
  13  10   8   31.50   24.20   1
 -13 -10  -8   -0.00   24.20   1
  13 -10  -8   -0.10   24.90   1
 -13  10   8   -0.10   25.20   1
  13 -10   8   37.20   25.00   1
  13  10   9  207.30   48.50   1
 -13 -10  -9   19.90   46.50   1
  13 -10  -9   62.00   47.80   1
 -13  10   9  101.00   50.30   1
  13 -10   9  263.50   60.50   1
  13  10  10   22.10   32.10   1
 -13 -10 -10   34.40   32.20   1
  13 -10 -10    6.80   32.70   1
 -13  10  10   19.00   33.50   1
  13 -10  10   56.40   33.70   1
  13  10  11   16.70   38.10   1
 -13 -10 -11  105.30   39.30   1
  13 -10 -11   24.90   39.00   1
 -13  10  11   95.00   43.50   1
  13 -10  11  278.20   60.20   1
  13 -11   0   52.10   41.10   1
 -13  11   0   28.50   40.60   1
  13 -11  -1   10.20   25.00   1
 -13  11   1   11.60   24.90   1
 -13  11  -1   17.60   24.30   1
  13 -11   1    8.80   25.20   1
  13  11   2  140.40   84.00   1
  13 -11  -2  236.60   85.70   1
 -13  11   2  183.30   85.10   1
 -13  11  -2  116.10   84.00   1
  13 -11   2  239.70   85.80   1
  13  11   3   29.00   28.70   1
 -13 -11  -3   16.70   28.30   1
  13 -11  -3   15.80   29.40   1
 -13  11   3   17.40   29.40   1
 -13  11  -3   25.60   28.90   1
  13 -11   3   -0.00   29.50   1
  13  11   4   71.20   57.90   1
 -13 -11  -4   77.20   58.00   1
  13 -11  -4   94.00   58.90   1
 -13  11   4  128.00   59.60   1
 -13  11  -4   47.70   58.10   1
  13 -11   4  146.60   59.70   1
  13  11   5   -0.10   16.20   1
 -13 -11  -5    0.00   16.40   1
  13 -11  -5    7.30   18.50   1
 -13  11   5   12.60   18.10   1
 -13  11  -5    7.70   16.70   1
  13 -11   5    7.90   17.40   1
  13  11   6   73.90   52.50   1
 -13 -11  -6   72.10   52.70   1
  13 -11  -6   68.80   53.60   1
 -13  11   6   54.90   53.20   1
 -13  11  -6   52.70   52.70   1
  13 -11   6   67.00   53.20   1
  13  11   7   25.00   17.30   1
 -13 -11  -7   -0.00   16.90   1
  13 -11  -7   -0.00   18.90   1
 -13  11   7   -0.00   18.40   1
 -13  11  -7   -0.00   17.10   1
  13 -11   7    7.40   18.10   1
  13  11   8   30.10   34.40   1
 -13 -11  -8   21.80   34.40   1
  13 -11  -8   25.90   35.40   1
 -13  11   8   43.00   35.80   1
 -13  11  -8   34.40   34.90   1
  13 -11   8   21.60   34.90   1
  13  11   9    0.80   18.60   1
 -13 -11  -9   25.40   19.10   1
  13 -11  -9    4.60   21.40   1
 -13  11   9   11.50   20.30   1
 -13  11  -9   -0.00   19.40   1
  13 -11   9    5.00   19.70   1
  13  11  10   12.30   23.90   1
 -13 -11 -10   30.90   24.10   1
  13 -11 -10   -0.00   25.50   1
 -13  11  10   26.10   25.40   1
 -13  11 -10    5.90   24.10   1
  13 -11  10    3.30   24.40   1
  13  11  11    6.40   13.70   1
 -13 -11 -11    6.20   13.60   1
  13 -11 -11    5.00   16.60   1
 -13  11  11   -0.00   15.80   1
 -13  11 -11    0.90   14.00   1
  13 -11  11   -0.00   14.60   1
  13  12   0   15.20   31.30   1
  13 -12   0   34.10   33.70   1
 -13  12   0   25.80   32.90   1
  13  12   1  357.60  138.70   1
 -13 -12  -1  310.20  138.90   1
  13 -12  -1  539.90  140.80   1
 -13  12   1  402.20  139.40   1
 -13  12  -1  473.20  140.40   1
  13 -12   1  474.70  140.20   1
  13  12   2   47.30   53.00   1
 -13 -12  -2   68.20   53.40   1
  13 -12  -2   79.80   54.80   1
 -13  12   2   45.40   53.90   1
 -13  12  -2   81.10   54.40   1
  13 -12   2  203.00   56.80   1
  13  12   3   49.20   51.10   1
 -13 -12  -3   37.50   51.10   1
  13 -12  -3   78.80   53.50   1
 -13  12   3   67.90   52.30   1
 -13  12  -3  192.20   54.30   1
  13 -12   3  100.20   53.40   1
  13  12   4   19.50   34.70   1
 -13 -12  -4   23.10   34.90   1
  13 -12  -4   -0.00   37.80   1
 -13  12   4   55.80   36.40   1
 -13  12  -4   46.10   36.00   1
  13 -12   4   39.50   36.70   1
  13  12   5  239.70   95.80   1
 -13 -12  -5  316.00   96.90   1
  13 -12  -5  219.10   97.60   1
 -13  12   5  193.10   97.00   1
 -13  12  -5  234.60   97.40   1
  13 -12   5  132.60   96.20   1
  13  12   6   10.90   26.70   1
 -13 -12  -6   14.50   26.80   1
  13 -12  -6   29.90   31.30   1
 -13  12   6   28.20   29.20   1
 -13  12  -6   -0.20   28.20   1
  13 -12   6   58.00   30.60   1
  13  12   7   52.10   43.40   1
 -13 -12  -7   29.80   43.10   1
  13 -12  -7  138.90   47.40   1
 -13  12   7   12.00   44.20   1
 -13  12  -7   96.10   45.20   1
  13 -12   7   55.90   44.90   1
  13  12   8   22.20   22.00   1
 -13 -12  -8   -0.00   22.00   1
  13 -12  -8    6.30   26.40   1
 -13  12   8   -0.00   24.50   1
 -13  12  -8   32.40   24.00   1
  13 -12   8   -0.00   24.80   1
  13  12   9   16.40   31.40   1
 -13 -12  -9   13.20   31.30   1
  13 -12  -9  131.00   37.30   1
 -13  12   9   18.30   33.10   1
 -13  12  -9   60.00   33.00   1
  13 -12   9   19.40   32.90   1
  13  12  10    4.90   19.40   1
 -13 -12 -10   14.60   19.40   1
  13 -12 -10   26.10   24.70   1
 -13  12  10    3.10   21.80   1
 -13  12 -10    5.60   20.50   1
  13 -12  10   -0.00   21.20   1
  13  13   0   48.10   49.40   1
 -13 -13   0   49.60   49.40   1
  13 -13   0   66.90   51.50   1
 -13  13   0   94.80   51.80   1
  13  13   1  118.50   69.80   1
 -13 -13  -1  101.70   69.80   1
  13 -13  -1   99.70   71.00   1
 -13  13   1  123.60   71.50   1
 -13  13  -1  169.20   72.00   1
  13 -13   1  102.60   71.20   1
 -13 -13   1  114.10   70.30   1
  13  13  -1  113.40   70.10   1
  13  13   2  748.60  186.70   1
 -13 -13  -2  858.50  190.30   1
  13 -13  -2  775.70  187.90   1
 -13  13   2  583.30  186.10   1
 -13  13  -2  612.00  186.30   1
  13 -13   2  906.70  189.50   1
  13  13  -2  531.90  188.90   1
  13  13   3   99.30   66.70   1
 -13 -13  -3  166.10   67.30   1
  13 -13  -3   81.20   68.30   1
 -13  13   3   95.10   68.20   1
 -13  13  -3  144.30   68.60   1
  13 -13   3   70.30   67.60   1
  13  13   4  162.00   81.60   1
 -13 -13  -4  150.90   81.60   1
  13 -13  -4  210.00   84.00   1
 -13  13   4  203.10   84.10   1
 -13  13  -4  102.30   82.50   1
  13 -13   4  165.50   83.00   1
  13  13   5  145.00   50.80   1
 -13 -13  -5   62.70   50.30   1
  13 -13  -5   41.30   52.10   1
 -13  13   5   47.10   52.20   1
 -13  13  -5   74.60   52.00   1
  13 -13   5   -0.10   51.00   1
  13  13   6  232.00   85.80   1
 -13 -13  -6  153.20   85.40   1
  13 -13  -6  152.60   86.90   1
 -13  13   6  166.70   87.40   1
 -13  13  -6  160.80   86.90   1
  13 -13   6  160.90   86.60   1
  13  13   7   42.80   42.30   1
 -13 -13  -7   47.20   42.40   1
  13 -13  -7   69.70   44.90   1
 -13  13   7   -0.00   44.30   1
 -13  13  -7   61.20   44.40   1
  13 -13   7   38.00   43.60   1
  13  13   8  326.10   90.90   1
 -13 -13  -8  209.00   89.80   1
  13 -13  -8  221.60   92.20   1
 -13  13   8  165.70   91.50   1
 -13  13  -8  176.70   91.30   1
  13 -13   8  116.00   90.00   1
  13  13   9   20.60   30.00   1
 -13 -13  -9   10.20   29.90   1
  13 -13  -9   -0.00   33.40   1
 -13  13   9   39.60   33.70   1
 -13  13  -9   52.80   32.30   1
  13 -13   9   29.60   31.00   1
  13  13  10  126.90   70.10   1
 -13 -13 -10  108.80   70.10   1
  13 -13 -10  246.40   75.30   1
 -13  13  10  201.90   74.40   1
  13 -13  10   78.80   70.50   1
  13  14   0   43.90   46.60   1
 -13 -14   0   29.40   46.60   1
  13 -14   0   75.30   48.00   1
 -13  14   0   96.50   48.30   1
  13  14   1   -0.00   37.60   1
 -13 -14  -1   -0.00   37.70   1
  13 -14  -1   45.80   39.20   1
 -13  14   1   54.40   39.40   1
 -13  14  -1  256.30   43.10   1
  13 -14   1  308.30   44.00   1
 -13 -14   1   30.60   37.90   1
  13  14  -1   38.00   37.70   1
  13  14   2   -0.00   24.80   1
 -13 -14  -2   -0.00   24.80   1
  13 -14  -2   39.70   27.90   1
 -13  14   2   47.50   28.40   1
 -13  14  -2  135.50   29.70   1
  13 -14   2   48.80   27.60   1
 -13 -14   2   -0.50   25.00   1
  13  14  -2    8.00   24.90   1
  13  14   3  120.10   67.00   1
 -13 -14  -3   87.60   66.90   1
  13 -14  -3   76.00   67.70   1
 -13  14   3   86.30   68.00   1
 -13  14  -3  104.60   68.00   1
  13 -14   3  182.10   68.70   1
 -13 -14   3  142.10   68.60   1
  13  14  -3  126.60   67.80   1
  13  14   4   -0.00   15.50   1
 -13 -14  -4    0.30   16.10   1
  13 -14  -4    4.60   19.70   1
 -13  14   4   -0.10   19.50   1
 -13  14  -4   -0.00   18.70   1
  13 -14   4   47.30   18.50   1
  13  14  -4    0.10   16.00   1
  13  14   5  112.90   70.50   1
 -13 -14  -5  131.60   70.80   1
  13 -14  -5   90.70   71.50   1
 -13  14   5  195.20   72.90   1
 -13  14  -5  104.50   71.40   1
  13 -14   5  119.80   71.50   1
  13  14   6    7.30   26.90   1
 -13 -14  -6   -0.00   27.00   1
  13 -14  -6   20.90   29.00   1
 -13  14   6   45.80   29.60   1
 -13  14  -6   38.60   28.70   1
  13 -14   6   37.10   28.60   1
  13  14   7   31.80   43.90   1
 -13 -14  -7   33.30   43.70   1
  13 -14  -7   49.30   45.30   1
 -13  14   7   78.80   46.00   1
 -13  14  -7   43.90   44.60   1
  13 -14   7  114.90   45.80   1
  13  14   8   -0.00   21.10   1
 -13 -14  -8    9.10   21.30   1
  13 -14  -8    7.10   23.80   1
 -13  14   8   -0.00   24.20   1
 -13  14  -8   -0.00   22.20   1
  13 -14   8   83.40   24.20   1
  13  14   9   59.00   39.20   1
 -13 -14  -9   21.10   39.00   1
  13 -14  -9   14.30   40.40   1
 -13  14   9   26.70   41.00   1
  13 -14   9   72.80   40.40   1
  13  15   0   31.70   33.90   1
 -13 -15   0   50.10   34.10   1
  13 -15   0    8.00   35.40   1
 -13  15   0   -0.00   34.90   1
  13  15   1   -0.00   13.40   1
 -13 -15  -1    8.20   13.30   1
  13 -15  -1   -0.30   15.70   1
 -13  15   1   -0.00   16.50   1
 -13  15  -1    0.00   16.00   1
  13 -15   1    4.90   15.90   1
 -13 -15   1   -0.00   13.20   1
  13  15  -1    4.80   13.80   1
  13  15   2   77.20   46.50   1
 -13 -15  -2   97.00   46.60   1
  13 -15  -2   10.20   46.90   1
 -13  15   2    0.00   46.80   1
 -13  15  -2   98.80   47.80   1
  13 -15   2   70.70   47.50   1
 -13 -15   2   37.30   46.50   1
  13  15  -2   48.60   46.40   1
  13  15   3    6.80   25.40   1
 -13 -15  -3   17.70   25.60   1
  13 -15  -3    8.00   27.70   1
 -13  15   3   22.70   27.10   1
 -13  15  -3   -0.00   27.30   1
  13 -15   3   17.70   27.30   1
 -13 -15   3   24.80   26.10   1
  13  15  -3   18.80   25.90   1
  13  15   4   33.30   45.10   1
 -13 -15  -4   41.90   45.10   1
  13 -15  -4   37.90   46.20   1
 -13  15   4    9.00   46.10   1
 -13  15  -4   48.60   46.00   1
  13 -15   4  134.60   47.00   1
 -13 -15   4   77.70   46.00   1
  13  15  -4  167.70   47.90   1
  13  15   5   15.40   31.20   1
 -13 -15  -5   64.60   31.80   1
  13 -15  -5   26.00   33.10   1
 -13  15   5   17.40   32.30   1
 -13  15  -5   25.20   32.30   1
  13 -15   5   29.90   32.40   1
 -13 -15   5   12.60   31.30   1
  13  15  -5    9.50   31.30   1
  13  15   6   25.60   30.40   1
 -13 -15  -6   34.70   30.30   1
  13 -15  -6   13.40   31.70   1
 -13  15   6    1.50   31.30   1
 -13  15  -6    5.90   31.20   1
  13 -15   6   76.70   32.20   1
  13  15  -6    7.40   30.50   1
  13  15   7    7.10   21.90   1
 -13 -15  -7   14.90   22.00   1
  13 -15  -7   14.10   24.60   1
 -13  15   7   -0.00   24.30   1
 -13  15  -7   16.80   23.20   1
  13 -15   7    9.00   22.90   1
  13  15   8  116.50   64.80   1
 -13 -15  -8  125.90   64.90   1
  13 -15  -8   89.20   65.80   1
 -13  15   8   55.80   65.10   1
  13 -15   8  110.00   65.40   1
  13  16   0  124.10   47.30   1
 -13 -16   0  135.50   47.70   1
  13 -16   0   -0.40   47.10   1
 -13  16   0    8.20   47.50   1
  13  16   1   26.50   38.10   1
 -13 -16  -1   35.00   38.20   1
  13 -16  -1    8.70   39.00   1
 -13  16   1   25.40   39.50   1
 -13  16  -1   55.60   39.20   1
  13 -16   1   32.30   38.80   1
 -13 -16   1   47.00   38.30   1
  13  16  -1   44.40   38.40   1
  13  16   2   -0.00   22.40   1
 -13 -16  -2   -0.00   22.50   1
  13 -16  -2   29.20   25.10   1
 -13  16   2   32.80   24.50   1
 -13  16  -2   12.80   24.20   1
  13 -16   2    6.00   24.00   1
 -13 -16   2   13.20   23.10   1
  13  16  -2   25.60   22.90   1
  13  16   3  319.70  131.80   1
 -13 -16  -3  346.80  132.10   1
  13 -16  -3  573.80  135.30   1
 -13  16   3  615.40  136.60   1
 -13  16  -3  457.70  133.80   1
  13 -16   3  363.40  132.60   1
 -13 -16   3  382.40  134.20   1
  13  16  -3  360.00  133.20   1
  13  16   4   16.50   30.20   1
 -13 -16  -4   11.00   30.30   1
  13 -16  -4   69.40   32.40   1
 -13  16   4   59.50   32.20   1
 -13  16  -4   31.90   31.70   1
  13 -16   4   -0.20   31.40   1
 -13 -16   4   16.10   30.80   1
  13  16  -4   18.90   30.80   1
  13  16   5   30.10   41.20   1
 -13 -16  -5   49.90   41.40   1
  13 -16  -5  102.20   43.30   1
 -13  16   5   71.30   43.30   1
 -13  16  -5   -0.00   41.70   1
  13 -16   5   32.10   41.70   1
 -13 -16   5   60.10   42.00   1
  13  16  -5   44.10   41.50   1
  13  16   6   37.40   38.30   1
 -13 -16  -6   33.20   38.50   1
  13 -16  -6   50.80   39.90   1
 -13  16   6   57.00   40.60   1
 -13  16  -6   41.70   39.20   1
  13 -16   6   -0.00   39.20   1
 -13 -16   6   38.00   38.90   1
  13  16  -6   38.90   38.90   1
  13  16   7   63.90   46.70   1
 -13 -16  -7   79.10   46.80   1
  13 -16  -7   75.40   48.30   1
 -13  16   7   45.70   47.80   1
  13 -16   7   39.00   47.10   1
  13  16  -7   25.10   46.60   1
  13  16   8   21.90   36.40   1
 -13 -16  -8   36.60   36.60   1
  13 -16  -8   43.70   37.90   1
 -13  16   8   35.00   37.80   1
  13 -16   8   31.50   37.30   1
  13  17   0    8.30   17.30   1
 -13 -17   0   -0.10   17.70   1
  13 -17   0   15.30   19.20   1
 -13  17   0    2.60   19.40   1
  13  17   1    2.40   19.20   1
 -13 -17  -1    9.90   19.30   1
  13 -17  -1    3.50   20.70   1
 -13  17   1   38.30   20.80   1
 -13  17  -1    6.50   20.70   1
  13 -17   1    9.00   20.90   1
 -13 -17   1    4.20   19.30   1
  13  17  -1   -0.00   19.30   1
  13  17   2   15.00   29.60   1
 -13 -17  -2   29.40   29.80   1
  13 -17  -2   50.70   30.90   1
 -13  17   2   47.40   31.00   1
 -13  17  -2    8.20   30.50   1
  13 -17   2    3.80   30.90   1
 -13 -17   2    9.40   30.00   1
  13  17  -2   15.10   29.90   1
  13  17   3   22.00   28.80   1
 -13 -17  -3   14.50   28.80   1
  13 -17  -3   33.30   30.20   1
 -13  17   3   29.50   30.30   1
 -13  17  -3   19.30   30.00   1
  13 -17   3   -0.00   30.20   1
 -13 -17   3   18.60   29.20   1
  13  17  -3   19.10   29.00   1
  13  17   4   90.40   56.20   1
 -13 -17  -4   62.10   56.10   1
  13 -17  -4  139.40   57.80   1
 -13  17   4  154.50   57.90   1
 -13  17  -4   52.90   56.60   1
  13 -17   4   83.50   56.90   1
 -13 -17   4   57.00   56.20   1
  13  17  -4   57.00   56.20   1
  13  17   5    8.60   18.60   1
 -13 -17  -5   -0.00   18.60   1
  13 -17  -5    0.20   21.10   1
 -13  17   5   -0.00   20.90   1
 -13  17  -5   -0.00   19.90   1
  13 -17   5   21.00   20.40   1
 -13 -17   5   13.00   19.30   1
  13  17  -5   12.20   19.00   1
  13  17   6   17.80   29.40   1
 -13 -17  -6   35.50   29.50   1
  13 -17  -6   14.40   30.60   1
 -13  17   6   20.00   31.20   1
  13 -17   6   -1.40   30.60   1
 -13 -17   6   23.80   30.00   1
  13  17  -6   19.00   29.70   1
  13  17   7   13.60   30.60   1
 -13 -17  -7   20.20   30.70   1
  13 -17  -7    6.20   32.30   1
 -13  17   7   39.10   32.20   1
  13 -17   7   29.30   32.10   1
 -13 -17   7   39.10   31.50   1
  13  18   0   19.40   32.20   1
 -13 -18   0   22.80   32.30   1
  13 -18   0   27.10   33.80   1
 -13  18   0   36.90   33.60   1
  13  18   1   35.40   40.70   1
 -13 -18  -1   54.70   40.90   1
  13 -18  -1   62.00   42.30   1
 -13  18   1   47.80   41.70   1
 -13  18  -1   54.70   41.80   1
  13 -18   1   33.80   42.20   1
 -13 -18   1   30.70   40.70   1
  13  18  -1   26.70   40.60   1
  13  18   2   21.60   35.90   1
 -13 -18  -2   24.20   35.90   1
  13 -18  -2   29.40   37.30   1
 -13  18   2   11.80   36.70   1
 -13  18  -2   26.10   37.00   1
  13 -18   2   34.30   37.70   1
 -13 -18   2   67.70   36.60   1
  13  18  -2   42.80   36.20   1
  13  18   3  181.70   85.20   1
 -13 -18  -3  180.10   85.30   1
  13 -18  -3  184.30   86.00   1
 -13  18   3  181.40   85.90   1
 -13  18  -3  131.60   85.50   1
  13 -18   3  175.20   86.10   1
 -13 -18   3  168.90   85.60   1
  13  18  -3  166.60   85.50   1
  13  18   4   31.30   33.20   1
 -13 -18  -4   32.90   33.00   1
  13 -18  -4   18.30   34.70   1
 -13  18   4   31.70   34.10   1
  13 -18   4   23.70   35.10   1
 -13 -18   4   17.60   33.10   1
  13  18  -4   20.20   33.10   1
  13  18   5   27.20   30.70   1
 -13 -18  -5   18.10   30.40   1
  13 -18  -5   -0.00   32.20   1
 -13  18   5    2.50   31.50   1
  13 -18   5    7.90   32.40   1
 -13 -18   5   55.90   31.40   1
  13  18  -5   32.30   30.90   1
  13  19   0   17.40   21.80   1
 -13 -19   0   -0.00   21.70   1
  13 -19   0    7.10   24.70   1
 -13  19   0   21.90   24.10   1
  13  19   1    7.50   15.90   1
 -13 -19  -1   -0.10   16.10   1
  13 -19  -1   13.60   21.00   1
 -13  19   1   -0.00   19.10   1
 -13  19  -1    5.90   19.30   1
  13 -19   1    0.00   20.60   1
 -13 -19   1   -0.00   16.20   1
  13  19  -1   12.30   16.10   1
  13  19   2    7.50   20.60   1
 -13 -19  -2    7.80   20.80   1
  13 -19  -2   -0.00   24.80   1
 -13  19   2   14.10   22.60   1
 -13  19  -2   20.00   23.50   1
  13 -19   2   12.50   25.20   1
 -13 -19   2   10.00   20.70   1
  13  19  -2    7.40   20.90   1
  13  19   3    9.70   19.40   1
 -13 -19  -3    7.40   19.30   1
  13 -19  -3    8.10   22.60   1
 -13  19   3    7.10   21.30   1
  13 -19   3   26.10   24.10   1
 -13 -19   3    2.70   19.30   1
  13  19  -3    7.50   19.60   1
  13  19   4   57.30   42.10   1
 -13 -19  -4   55.50   42.30   1
  13 -19  -4   59.70   43.90   1
 -13  19   4   45.00   43.10   1
  13 -19   4   46.70   45.50   1
 -13 -19   4   15.40   42.10   1
  13  19  -4   34.10   42.20   1
  14   7  11    8.10   19.10   1
  14   7  12   58.60   49.80   1
  14   8   9  185.70   91.30   1
  14   8  10   25.40   32.90   1
  14   8  11  362.50   58.80   1
 -14  -8 -11   39.20   46.60   1
  14   9   7   -0.00    6.60   1
  14   9   8    5.00   16.20   1
  14   9   9   20.40   25.80   1
 -14  -9  -9   11.00   25.40   1
  14   9  10   17.90   18.90   1
 -14  -9 -10   -0.30   18.40   1
  14   9  11    0.20   24.10   1
 -14  -9 -11   34.50   24.60   1
  14  10   6  161.70   83.90   1
  14  10   7   49.00   35.90   1
 -14 -10  -7   18.90   35.40   1
  14  10   8   76.50   43.90   1
 -14 -10  -8   39.30   43.60   1
  14 -10  -8   24.40   44.10   1
  14  10   9   65.10   33.80   1
 -14 -10  -9    7.30   33.20   1
  14 -10  -9   30.60   34.90   1
  14  10  10   24.20   29.80   1
 -14 -10 -10   28.80   29.80   1
  14 -10 -10   -0.00   30.80   1
  14  10  11   40.60   26.60   1
 -14 -10 -11    6.40   26.30   1
  14 -10 -11   -0.00   27.40   1
  14 -11   0   66.60   51.70   1
 -14  11   0   56.20   52.00   1
  14 -11  -1   32.50   35.00   1
 -14  11   1   28.60   35.10   1
 -14  11  -1   36.50   35.30   1
  14 -11   1   17.00   34.60   1
  14 -11  -2   34.80   41.90   1
 -14  11   2   84.80   43.40   1
 -14  11  -2   89.30   43.90   1
  14 -11   2   19.60   41.70   1
  14 -11  -3   18.30   24.70   1
 -14  11   3   12.10   25.50   1
 -14  11  -3   13.90   25.30   1
  14 -11   3    5.70   24.80   1
  14  11   4    9.50   31.40   1
  14 -11  -4   23.10   32.30   1
 -14  11   4   38.80   32.90   1
 -14  11  -4  106.00   36.00   1
  14 -11   4   17.80   31.70   1
  14  11   5   -0.00   15.50   1
 -14 -11  -5    9.70   15.40   1
  14 -11  -5    5.90   16.50   1
 -14  11   5    5.60   16.60   1
  14 -11   5    0.00   16.10   1
  14  11   6   21.00   29.10   1
 -14 -11  -6   45.40   29.20   1
  14 -11  -6   12.20   29.30   1
 -14  11   6   14.70   29.50   1
  14 -11   6    7.30   29.00   1
  14  11   7    6.70   21.80   1
 -14 -11  -7   12.70   22.20   1
  14 -11  -7    6.20   23.00   1
 -14  11   7   22.70   23.30   1
  14 -11   7    9.00   22.20   1
  14  11   8   19.50   31.90   1
 -14 -11  -8   27.20   32.10   1
  14 -11  -8   22.20   32.60   1
 -14  11   8   41.30   33.40   1
  14 -11   8   19.00   32.40   1
  14  11   9   17.30   18.80   1
 -14 -11  -9    6.20   18.70   1
  14 -11  -9    0.00   19.90   1
 -14  11   9   11.40   20.70   1
  14 -11   9    0.00   19.30   1
  14  11  10   24.70   25.10   1
 -14 -11 -10    6.60   24.90   1
  14 -11 -10    6.10   26.10   1
 -14  11  10   17.80   26.70   1
  14 -11  10   17.80   25.60   1
  14 -12   0   78.60   51.60   1
 -14  12   0   48.00   50.80   1
  14 -12  -1  222.90   70.60   1
 -14  12   1   87.60   68.00   1
 -14  12  -1   71.60   67.80   1
  14 -12   1  193.30   69.90   1
  14  12   2   20.00   29.40   1
  14 -12  -2   35.40   31.00   1
 -14  12   2    7.80   29.70   1
 -14  12  -2   19.10   29.80   1
  14 -12   2   24.00   30.70   1
  14  12   3  244.20   96.10   1
 -14 -12  -3  253.30   97.10   1
  14 -12  -3  183.20   95.60   1
 -14  12   3  142.10   95.10   1
 -14  12  -3  291.50   98.50   1
  14 -12   3  254.90   96.90   1
  14  12   4   12.70   23.30   1
 -14 -12  -4   26.40   23.40   1
  14 -12  -4    2.40   24.80   1
 -14  12   4   12.70   24.30   1
 -14  12  -4    6.60   23.80   1
  14 -12   4    2.50   24.40   1
  14  12   5  262.00   90.90   1
 -14 -12  -5  138.50   89.70   1
  14 -12  -5  295.20   93.60   1
 -14  12   5  416.00   99.50   1
 -14  12  -5  169.80   90.90   1
  14 -12   5  154.80   90.50   1
  14  12   6   10.30   25.00   1
 -14 -12  -6   25.50   25.20   1
  14 -12  -6   20.30   26.80   1
 -14  12   6   29.20   26.40   1
 -14  12  -6   -0.60   25.20   1
  14 -12   6    8.70   26.30   1
  14  12   7   51.60   46.00   1
 -14 -12  -7   63.00   46.20   1
  14 -12  -7   84.60   48.00   1
 -14  12   7   28.90   46.70   1
 -14  12  -7   42.50   46.40   1
  14 -12   7   45.70   46.70   1
  14  12   8    5.70   21.60   1
 -14 -12  -8    9.70   21.50   1
  14 -12  -8   25.30   24.20   1
 -14  12   8    1.00   22.90   1
 -14  12  -8   10.30   21.80   1
  14 -12   8   16.40   22.60   1
  14  12   9   91.30   63.60   1
 -14 -12  -9   88.20   63.70   1
  14 -12  -9   98.70   65.20   1
 -14  12   9  118.70   65.90   1
 -14  12  -9   87.20   64.60   1
  14 -12   9  146.70   65.90   1
  14  12  10   -0.00   18.40   1
 -14 -12 -10    5.80   18.50   1
  14 -12 -10   14.80   20.80   1
 -14  12  10   16.50   20.00   1
  14 -12  10    9.30   19.60   1
  14  13   0 1574.80  349.20   1
  14 -13   0 1680.00  334.60   1
 -14  13   0 1866.10  344.90   1
  14  13   1   63.80   58.50   1
 -14 -13  -1   63.20   58.50   1
  14 -13  -1  113.30   60.60   1
 -14  13   1   99.40   59.70   1
 -14  13  -1   83.10   59.30   1
  14 -13   1  106.60   60.50   1
  14  13   2  652.20   88.40   1
 -14 -13  -2  335.00   78.70   1
  14 -13  -2   96.70   74.20   1
 -14  13   2  166.80   74.90   1
 -14  13  -2  204.60   75.50   1
  14 -13   2   47.70   73.90   1
  14  13   3   15.90   25.00   1
 -14 -13  -3   -0.30   24.90   1
  14 -13  -3   -0.10   28.80   1
 -14  13   3   -0.00   27.30   1
 -14  13  -3   53.60   27.50   1
  14 -13   3   44.00   28.40   1
  14  13   4   63.60   63.90   1
 -14 -13  -4  247.20   66.70   1
  14 -13  -4  249.90   68.90   1
 -14  13   4  145.40   66.40   1
 -14  13  -4  123.40   65.80   1
  14 -13   4   58.90   65.00   1
  14  13   5   37.50   47.90   1
 -14 -13  -5   55.80   48.30   1
  14 -13  -5   84.80   51.10   1
 -14  13   5   61.70   49.50   1
 -14  13  -5   70.20   49.30   1
  14 -13   5   67.70   49.80   1
  14  13   6  639.90  192.50   1
 -14 -13  -6  689.60  194.10   1
  14 -13  -6  841.10  201.20   1
 -14  13   6  843.20  204.10   1
 -14  13  -6 1029.80  210.10   1
  14 -13   6  843.20  200.20   1
  14  13   7   35.20   42.60   1
 -14 -13  -7   43.10   42.70   1
  14 -13  -7   53.40   45.70   1
 -14  13   7   45.80   44.40   1
 -14  13  -7   95.40   45.10   1
  14 -13   7   29.80   43.90   1
  14  13   8   36.90   52.80   1
 -14 -13  -8  103.30   53.50   1
  14 -13  -8  132.20   56.70   1
 -14  13   8  155.30   56.80   1
 -14  13  -8  143.10   55.90   1
  14 -13   8   50.60   54.20   1
  14  13   9    7.00   19.80   1
 -14 -13  -9   11.20   19.90   1
  14 -13  -9   27.30   25.40   1
 -14  13   9    5.40   22.10   1
  14 -13   9   -0.00   22.50   1
  14  14   0   28.30   45.70   1
 -14 -14   0   42.60   45.80   1
  14 -14   0   98.20   48.00   1
 -14  14   0  100.60   48.80   1
  14  14   1   24.00   27.60   1
 -14 -14  -1   -0.00   27.40   1
  14 -14  -1   67.70   31.80   1
 -14  14   1   45.60   31.10   1
 -14  14  -1   66.60   31.80   1
  14 -14   1   75.60   31.40   1
 -14 -14   1    5.60   27.20   1
  14  14  -1   -0.00   27.40   1
  14  14   2   80.70   42.80   1
 -14 -14  -2   56.00   42.70   1
  14 -14  -2   37.90   44.60   1
 -14  14   2   62.30   44.70   1
 -14  14  -2   60.50   44.50   1
  14 -14   2   52.50   44.30   1
  14  14  -2   -0.00   42.30   1
  14  14   3   37.50   46.50   1
 -14 -14  -3   19.20   46.50   1
  14 -14  -3  132.00   49.80   1
 -14  14   3  134.40   50.20   1
 -14  14  -3   83.90   48.70   1
  14 -14   3   80.20   48.30   1
  14  14   4   14.00   30.60   1
 -14 -14  -4   13.50   30.40   1
  14 -14  -4   47.40   34.30   1
 -14  14   4   46.10   33.60   1
 -14  14  -4   60.80   33.30   1
  14 -14   4   -0.00   33.00   1
  14  14   5   20.00   30.10   1
 -14 -14  -5    6.40   29.90   1
  14 -14  -5   -0.00   33.80   1
 -14  14   5   39.00   33.40   1
 -14  14  -5   67.30   33.40   1
  14 -14   5   39.20   32.40   1
  14  14   6   11.80   30.00   1
 -14 -14  -6   26.30   30.10   1
  14 -14  -6   32.70   34.20   1
 -14  14   6   12.70   33.80   1
 -14  14  -6   37.80   32.90   1
  14 -14   6   17.30   31.80   1
  14  14   7   10.00   33.70   1
 -14 -14  -7   25.40   33.60   1
  14 -14  -7   31.70   36.50   1
 -14  14   7   68.00   36.90   1
 -14  14  -7   72.80   36.70   1
  14 -14   7   21.50   34.80   1
  14  14   8    0.00   16.80   1
 -14 -14  -8    3.80   16.40   1
  14 -14  -8    9.30   21.90   1
 -14  14   8   44.40   22.60   1
  14 -14   8   -0.00   19.00   1
  14  14   9    9.20   18.90   1
 -14 -14  -9   -0.00   19.20   1
  14 -14  -9   24.20   23.90   1
 -14  14   9   30.00   24.00   1
  14 -14   9   -0.00   20.30   1
  14  15   0   42.20   43.80   1
 -14 -15   0   52.70   43.90   1
  14 -15   0   49.40   45.00   1
 -14  15   0   33.00   45.30   1
  14  15   1   11.50   31.30   1
 -14 -15  -1   12.40   31.00   1
  14 -15  -1   39.50   33.40   1
 -14  15   1   23.00   32.80   1
 -14  15  -1   32.40   33.10   1
  14 -15   1   45.50   33.00   1
 -14 -15   1   20.40   31.10   1
  14  15  -1   22.80   31.30   1
  14  15   2   41.60   43.00   1
 -14 -15  -2   44.20   43.20   1
  14 -15  -2   -0.00   43.90   1
 -14  15   2    6.80   44.50   1
 -14  15  -2   72.10   44.80   1
  14 -15   2   57.30   44.40   1
 -14 -15   2   58.90   43.60   1
  14  15  -2  111.10   44.30   1
  14  15   3   -0.10   22.80   1
 -14 -15  -3   11.00   22.50   1
  14 -15  -3    0.30   25.20   1
 -14  15   3    8.70   25.30   1
 -14  15  -3   21.70   24.90   1
  14 -15   3   25.30   25.40   1
 -14 -15   3    6.80   22.40   1
  14  15  -3   23.10   22.70   1
  14  15   4  110.10   37.50   1
 -14 -15  -4   87.50   37.30   1
  14 -15  -4   20.80   37.80   1
 -14  15   4   14.90   38.80   1
 -14  15  -4   31.40   38.00   1
  14 -15   4    3.20   37.30   1
  14  15  -4   -0.00   36.50   1
  14  15   5    5.30   20.80   1
 -14 -15  -5    9.00   21.10   1
  14 -15  -5    9.20   23.40   1
 -14  15   5   -0.40   23.80   1
 -14  15  -5   45.90   23.50   1
  14 -15   5   -0.20   22.70   1
  14  15   6   48.60   47.50   1
 -14 -15  -6   51.30   47.40   1
  14 -15  -6   56.70   49.20   1
 -14  15   6   74.90   49.80   1
 -14  15  -6   83.90   48.90   1
  14 -15   6   36.10   48.40   1
  14  15   7   -0.10   20.50   1
 -14 -15  -7   17.10   20.70   1
  14 -15  -7   -0.00   23.80   1
 -14  15   7   14.10   23.60   1
  14 -15   7   17.70   22.80   1
  14  15   8   29.70   31.40   1
 -14 -15  -8   28.30   31.30   1
  14 -15  -8    9.90   32.70   1
 -14  15   8    3.00   33.60   1
  14 -15   8   24.10   32.30   1
  14  16   0   14.20   24.30   1
 -14 -16   0   10.00   24.80   1
  14 -16   0    7.30   26.40   1
 -14  16   0   20.40   26.10   1
  14  16   1  129.20   65.30   1
 -14 -16  -1   86.30   64.90   1
  14 -16  -1  115.20   65.80   1
 -14  16   1   74.10   65.40   1
 -14  16  -1  106.90   66.00   1
  14 -16   1   97.60   65.90   1
 -14 -16   1   89.10   65.20   1
  14  16  -1  121.10   65.30   1
  14  16   2   82.20   30.40   1
 -14 -16  -2   56.10   30.30   1
  14 -16  -2    7.80   31.50   1
 -14  16   2   -0.00   31.30   1
 -14  16  -2   10.90   31.10   1
  14 -16   2   -0.00   31.20   1
 -14 -16   2    5.60   30.20   1
  14  16  -2   -0.00   30.10   1
  14  16   3   22.50   28.00   1
 -14 -16  -3    5.70   27.90   1
  14 -16  -3   -0.00   29.50   1
 -14  16   3    8.90   29.30   1
 -14  16  -3    4.10   29.40   1
  14 -16   3   11.40   29.60   1
 -14 -16   3   37.20   28.70   1
  14  16  -3   59.70   28.90   1
  14  16   4    8.90   18.30   1
 -14 -16  -4    1.60   18.40   1
  14 -16  -4   16.00   20.70   1
 -14  16   4    5.00   20.90   1
 -14  16  -4    0.20   20.20   1
  14 -16   4   16.10   20.50   1
 -14 -16   4   -0.00   18.70   1
  14  16  -4   12.00   18.50   1
  14  16   5   91.90   53.10   1
 -14 -16  -5   56.90   52.90   1
  14 -16  -5  100.40   54.30   1
 -14  16   5   38.00   53.50   1
 -14  16  -5   63.80   53.70   1
  14 -16   5   97.50   54.10   1
 -14 -16   5   58.10   53.40   1
  14  16  -5   53.50   53.20   1
  14  16   6    7.70   25.10   1
 -14 -16  -6   31.70   25.40   1
  14 -16  -6   36.70   28.00   1
 -14  16   6    4.00   26.40   1
  14 -16   6   -0.30   26.10   1
  14  16  -6   13.40   25.30   1
  14  16   7   24.40   34.10   1
 -14 -16  -7   32.90   34.30   1
  14 -16  -7   22.00   35.80   1
 -14  16   7   17.10   35.70   1
  14 -16   7   39.00   35.30   1
  14  17   0   80.70   51.10   1
 -14 -17   0   82.60   51.20   1
  14 -17   0   55.50   51.70   1
 -14  17   0   26.00   51.50   1
  14  17   1    6.00   22.70   1
 -14 -17  -1    5.00   22.70   1
  14 -17  -1   30.50   24.30   1
 -14  17   1   20.00   24.80   1
 -14  17  -1   17.70   23.80   1
  14 -17   1   22.00   24.10   1
 -14 -17   1    6.70   22.60   1
  14  17  -1    2.40   22.10   1
  14  17   2   24.30   32.10   1
 -14 -17  -2   20.50   32.20   1
  14 -17  -2   18.60   33.70   1
 -14  17   2   33.40   34.00   1
 -14  17  -2   32.80   33.50   1
  14 -17   2   18.60   33.20   1
 -14 -17   2   25.50   32.40   1
  14  17  -2   24.20   32.30   1
  14  17   3   10.50   21.70   1
 -14 -17  -3   12.20   21.70   1
  14 -17  -3   20.10   24.90   1
 -14  17   3   25.00   24.10   1
 -14  17  -3   -0.10   23.30   1
  14 -17   3    9.30   23.40   1
 -14 -17   3   -0.00   22.20   1
  14  17  -3   13.40   22.10   1
  14  17   4   46.00   45.10   1
 -14 -17  -4   39.10   45.00   1
  14 -17  -4   64.30   46.40   1
 -14  17   4   67.70   46.80   1
 -14  17  -4   23.90   45.80   1
  14 -17   4   70.90   46.20   1
 -14 -17   4   77.80   46.20   1
  14  17  -4   40.30   45.20   1
  14  17   5   -0.00   15.80   1
 -14 -17  -5   -0.00   15.50   1
  14 -17  -5   16.50   18.50   1
 -14  17   5   17.80   18.90   1
  14 -17   5    7.60   17.30   1
 -14 -17   5   -0.00   16.40   1
  14  17  -5    5.50   16.00   1
  14  17   6   75.70   57.50   1
 -14 -17  -6   61.60   57.40   1
  14 -17  -6   96.30   59.10   1
 -14  17   6   74.30   58.60   1
  14 -17   6  264.10   60.70   1
 -14 -17   6   64.00   58.20   1
  14  18   0    7.40   19.60   1
 -14 -18   0    8.20   19.30   1
  14 -18   0   13.40   20.90   1
 -14  18   0   -0.00   21.40   1
  14  18   1   29.40   41.30   1
 -14 -18  -1   24.80   41.10   1
  14 -18  -1   31.10   42.00   1
 -14  18   1   22.50   42.10   1
 -14  18  -1   54.20   42.50   1
  14 -18   1   24.80   42.20   1
 -14 -18   1   94.60   42.20   1
  14  18  -1  121.90   42.50   1
  14  18   2   41.00   33.40   1
 -14 -18  -2   44.10   33.30   1
  14 -18  -2   31.70   34.30   1
 -14  18   2   23.30   34.20   1
 -14  18  -2   31.50   34.30   1
  14 -18   2   23.80   34.20   1
 -14 -18   2    5.90   33.30   1
  14  18  -2   10.30   33.40   1
  14  18   3  131.90   67.80   1
 -14 -18  -3  119.00   67.60   1
  14 -18  -3  108.10   68.40   1
 -14  18   3  118.50   68.30   1
 -14  18  -3   92.20   68.00   1
  14 -18   3  108.50   68.20   1
 -14 -18   3  120.40   68.10   1
  14  18  -3   80.20   67.50   1
  14  18   4    4.00   18.70   1
 -14 -18  -4    7.20   18.30   1
  14 -18  -4   -0.10   20.00   1
 -14  18   4   -0.00   21.20   1
  14 -18   4   -0.00   20.70   1
 -14 -18   4   10.30   19.20   1
  14  18  -4   18.40   19.00   1
  14  19   0   23.80   27.60   1
 -14 -19   0   13.00   27.80   1
  14 -19   0    8.50   29.00   1
 -14  19   0   20.00   28.60   1
  14  19   1   13.70   21.00   1
 -14 -19  -1   23.00   20.70   1
  14 -19  -1   18.50   22.40   1
 -14  19   1   -0.00   21.80   1
 -14  19  -1    1.50   21.80   1
  14 -19   1   17.20   23.10   1
 -14 -19   1    3.40   20.80   1
  14  19  -1    0.40   20.40   1
  14  19   2   -0.00   16.80   1
 -14 -19  -2    4.80   16.60   1
  14 -19  -2    8.00   18.90   1
 -14  19   2   19.50   19.20   1
  14 -19   2   20.90   19.60   1
 -14 -19   2    1.20   17.30   1
  14  19  -2   -0.20   16.70   1
  15   8  11   39.90   41.20   1
  15   9   9   -0.10    6.60   1
  15   9  10   20.50   29.90   1
  15   9  11   18.40   19.80   1
 -15  -9 -11    1.30   19.30   1
  15  10   7   14.20   25.30   1
  15  10   8    4.70   15.80   1
  15  10   9  157.60   40.40   1
 -15 -10  -9   18.30   36.90   1
  15  10  10    2.10   15.10   1
 -15 -10 -10    6.50   15.00   1
  15 -11  -1    5.70   18.80   1
  15 -11  -2  101.70   67.40   1
  15 -11  -3   27.40   35.30   1
  15 -11  -4   22.30   32.70   1
  15  11   5   -0.00   13.70   1
  15 -11  -5    9.20   16.00   1
  15  11   6    4.20   16.30   1
  15 -11  -6    7.00   18.70   1
  15  11   7   10.40   19.80   1
 -15 -11  -7    0.80   19.00   1
  15 -11  -7   21.10   21.10   1
  15  11   8   11.30   32.40   1
 -15 -11  -8   34.40   32.70   1
  15 -11  -8   48.00   34.50   1
  15  11   9    0.00    9.20   1
 -15 -11  -9    1.50    9.30   1
  15 -11  -9   -0.00   11.70   1
  15  11  10   45.90   35.00   1
 -15 -11 -10   10.70   34.70   1
  15 -11 -10   73.10   37.90   1
  15 -12   0   -0.00    9.90   1
 -15  12   0   -0.10   11.20   1
  15 -12  -1    9.20   21.20   1
 -15  12   1   14.50   21.50   1
 -15  12  -1    3.60   21.90   1
  15 -12   1    7.80   21.50   1
  15 -12  -2    9.00   22.80   1
 -15  12   2    7.10   23.10   1
 -15  12  -2   16.80   23.00   1
  15 -12   2    9.90   23.00   1
  15  12   3   57.40   47.40   1
  15 -12  -3   72.00   48.30   1
 -15  12   3   77.60   48.70   1
 -15  12  -3   40.90   47.60   1
  15 -12   3   38.70   47.30   1
  15  12   4    5.50   16.40   1
  15 -12  -4    2.90   17.60   1
 -15  12   4    0.10   18.10   1
 -15  12  -4   15.20   17.90   1
  15 -12   4    3.00   17.10   1
  15  12   5   23.80   23.00   1
 -15 -12  -5   -0.00   22.80   1
  15 -12  -5   17.20   23.70   1
 -15  12   5   -0.00   24.20   1
 -15  12  -5    7.00   23.40   1
  15 -12   5   20.40   23.20   1
  15  12   6   18.30   22.90   1
 -15 -12  -6   19.60   22.90   1
  15 -12  -6    6.80   23.80   1
 -15  12   6    9.80   24.10   1
 -15  12  -6    9.80   23.30   1
  15 -12   6   -0.00   23.20   1
  15  12   7   22.30   30.80   1
 -15 -12  -7   40.90   30.90   1
  15 -12  -7   10.50   31.50   1
 -15  12   7    9.00   31.50   1
 -15  12  -7   41.10   32.10   1
  15 -12   7   13.80   30.90   1
  15  12   8    6.50   19.40   1
 -15 -12  -8   41.00   20.40   1
  15 -12  -8   -0.00   20.10   1
 -15  12   8    0.60   20.70   1
  15 -12   8    0.00   19.70   1
  15  12   9   11.20   21.20   1
 -15 -12  -9   20.70   21.30   1
  15 -12  -9   -0.00   22.20   1
 -15  12   9   -0.00   22.60   1
  15 -12   9    9.20   21.40   1
  15 -13   0    5.70   25.80   1
 -15  13   0   16.10   24.40   1
  15  13   1   -0.10    9.50   1
  15 -13  -1    2.90   14.30   1
 -15  13   1    1.00   11.60   1
 -15  13  -1    0.00   11.90   1
  15 -13   1   -0.00   13.60   1
  15  13   2   33.40   36.60   1
  15 -13  -2   18.00   37.40   1
 -15  13   2   16.20   36.80   1
 -15  13  -2   42.30   37.00   1
  15 -13   2   51.10   37.60   1
  15  13   3   51.10   27.60   1
 -15 -13  -3   29.40   26.80   1
  15 -13  -3    1.90   29.00   1
 -15  13   3    9.80   27.60   1
 -15  13  -3    1.60   27.10   1
  15 -13   3   -0.00   28.00   1
  15  13   4   48.30   42.50   1
 -15 -13  -4   74.50   43.10   1
  15 -13  -4   38.80   43.80   1
 -15  13   4   21.40   42.80   1
 -15  13  -4   34.20   42.70   1
  15 -13   4   52.20   43.80   1
  15  13   5   19.80   20.40   1
 -15 -13  -5   -0.00   20.20   1
  15 -13  -5   -0.50   23.20   1
 -15  13   5    8.10   21.60   1
 -15  13  -5    0.90   21.00   1
  15 -13   5   29.10   22.50   1
  15  13   6   66.00   51.40   1
 -15 -13  -6   45.10   51.30   1
  15 -13  -6   80.40   53.20   1
 -15  13   6   54.40   52.10   1
 -15  13  -6   63.00   52.00   1
  15 -13   6  109.70   53.30   1
  15  13   7   32.90   32.40   1
 -15 -13  -7   25.50   32.50   1
  15 -13  -7    7.50   34.40   1
 -15  13   7    2.70   33.40   1
 -15  13  -7   21.70   32.60   1
  15 -13   7   54.80   33.90   1
  15  13   8   75.00   59.10   1
 -15 -13  -8  139.80   60.00   1
  15 -13  -8   69.50   60.30   1
 -15  13   8   76.40   60.30   1
  15 -13   8   72.10   60.00   1
  15  13   9   18.80   23.80   1
 -15 -13  -9    9.00   23.70   1
  15 -13  -9    0.40   25.80   1
 -15  13   9   10.20   25.40   1
  15 -13   9   20.70   25.10   1
  15  14   0   -0.00   25.60   1
  15 -14   0   44.50   28.80   1
 -15  14   0   25.40   27.90   1
  15  14   1   19.60   32.30   1
 -15 -14  -1   14.90   32.30   1
  15 -14  -1   79.20   35.90   1
 -15  14   1   52.60   34.60   1
 -15  14  -1   35.40   34.20   1
  15 -14   1   40.20   35.10   1
  15  14  -1    9.00   32.10   1
  15  14   2   -0.00   23.20   1
 -15 -14  -2    8.00   22.70   1
  15 -14  -2   76.20   28.20   1
 -15  14   2   -0.10   24.90   1
 -15  14  -2   27.00   24.70   1
  15 -14   2   -0.00   26.00   1
  15  14   3   19.00   36.50   1
 -15 -14  -3    8.30   36.40   1
  15 -14  -3  187.20   43.10   1
 -15  14   3  161.60   41.10   1
 -15  14  -3   42.50   38.10   1
  15 -14   3   27.40   39.30   1
  15  14   4   57.60   48.70   1
 -15 -14  -4   73.60   49.00   1
  15 -14  -4   71.30   51.20   1
 -15  14   4   46.40   49.60   1
 -15  14  -4   25.20   49.30   1
  15 -14   4   75.30   50.40   1
  15  14   5   38.20   41.20   1
 -15 -14  -5   26.00   41.00   1
  15 -14  -5   51.90   43.90   1
 -15  14   5   29.90   42.70   1
 -15  14  -5   57.10   42.30   1
  15 -14   5   72.70   43.50   1
  15  14   6    6.90   23.80   1
 -15 -14  -6   -0.00   23.70   1
  15 -14  -6   18.80   28.10   1
 -15  14   6   32.40   27.00   1
 -15  14  -6   25.20   25.60   1
  15 -14   6   23.40   26.70   1
  15  14   7   18.80   25.30   1
 -15 -14  -7    7.50   25.20   1
  15 -14  -7   45.30   30.40   1
 -15  14   7   20.00   27.70   1
  15 -14   7   -0.00   27.50   1
  15  14   8    9.60   23.80   1
 -15 -14  -8   11.00   24.00   1
  15 -14  -8   65.10   29.70   1
 -15  14   8   16.00   26.50   1
  15 -14   8    0.00   25.80   1
  15  15   0   30.10   37.20   1
 -15 -15   0   27.30   37.10   1
  15 -15   0   40.00   39.20   1
 -15  15   0   46.00   40.10   1
  15  15   1    7.90   33.80   1
 -15 -15  -1   22.00   34.20   1
  15 -15  -1   82.10   37.20   1
 -15  15   1   71.80   37.40   1
 -15  15  -1   59.00   37.10   1
  15 -15   1   42.90   36.40   1
 -15 -15   1   14.80   33.60   1
  15  15  -1   28.30   34.10   1
  15  15   2   24.50   40.50   1
 -15 -15  -2   19.20   40.40   1
  15 -15  -2   98.80   44.20   1
 -15  15   2   62.10   43.00   1
 -15  15  -2   69.40   43.40   1
  15 -15   2  152.40   44.10   1
  15  15  -2   24.00   40.40   1
  15  15   3    1.90   27.50   1
 -15 -15  -3   14.30   27.80   1
  15 -15  -3   61.60   31.40   1
 -15  15   3   -0.00   31.30   1
 -15  15  -3   50.40   31.40   1
  15 -15   3   68.30   30.70   1
  15  15  -3    8.90   27.50   1
  15  15   4   39.10   45.10   1
 -15 -15  -4   26.40   45.10   1
  15 -15  -4  223.40   51.00   1
 -15  15   4  211.30   51.30   1
 -15  15  -4   94.10   48.20   1
  15 -15   4   21.30   46.70   1
  15  15   5    8.00   24.40   1
 -15 -15  -5    4.30   24.60   1
  15 -15  -5   37.60   28.60   1
 -15  15   5   54.80   29.00   1
 -15  15  -5   30.40   28.10   1
  15 -15   5   -0.00   27.20   1
  15  15   6   31.90   33.00   1
 -15 -15  -6   43.20   33.20   1
  15 -15  -6   21.70   36.20   1
 -15  15   6   -0.00   36.20   1
  15 -15   6   -0.00   34.20   1
  15  15   7    3.80   14.90   1
 -15 -15  -7   -0.00   15.20   1
  15 -15  -7   -0.00   22.10   1
 -15  15   7   19.00   20.80   1
  15 -15   7    8.40   17.70   1
  15  16   0    0.70   14.50   1
 -15 -16   0    3.10   14.60   1
  15 -16   0   -0.00   18.10   1
 -15  16   0   15.40   19.00   1
  15  16   1   14.30   32.50   1
 -15 -16  -1   36.20   32.80   1
  15 -16  -1   15.50   33.90   1
 -15  16   1   16.10   34.20   1
 -15  16  -1   22.70   34.10   1
  15 -16   1   12.50   34.10   1
 -15 -16   1   45.10   33.00   1
  15  16  -1   28.30   32.90   1
  15  16   2    4.40   24.00   1
 -15 -16  -2    1.60   24.30   1
  15 -16  -2    4.00   26.00   1
 -15  16   2   28.70   26.70   1
 -15  16  -2   15.70   26.40   1
  15 -16   2   36.20   26.50   1
 -15 -16   2    4.10   24.40   1
  15  16  -2   37.60   25.00   1
  15  16   3  157.40   41.50   1
 -15 -16  -3   54.10   40.20   1
  15 -16  -3   23.10   41.60   1
 -15  16   3   20.10   41.80   1
 -15  16  -3   43.70   41.20   1
  15 -16   3   39.20   41.10   1
 -15 -16   3   20.60   39.70   1
  15  16  -3   19.30   40.00   1
  15  16   4   38.90   37.60   1
 -15 -16  -4   27.70   37.70   1
  15 -16  -4   40.60   39.00   1
 -15  16   4   49.10   39.40   1
 -15  16  -4   -0.00   39.30   1
  15 -16   4   29.10   38.70   1
  15  16  -4   43.70   38.10   1
  15  16   5   34.60   38.70   1
 -15 -16  -5   42.90   39.00   1
  15 -16  -5   44.90   40.30   1
 -15  16   5   66.80   41.40   1
  15 -16   5   28.50   40.10   1
  15  16  -5   20.20   38.80   1
  15  16   6    0.00   16.50   1
 -15 -16  -6    4.40   16.60   1
  15 -16  -6   14.80   20.50   1
 -15  16   6   25.00   21.00   1
  15 -16   6   -0.70   18.90   1
  15  17   0   17.40   23.20   1
 -15 -17   0   15.60   23.50   1
  15 -17   0    3.40   25.20   1
 -15  17   0   -0.00   25.20   1
  15  17   1    8.20   21.10   1
 -15 -17  -1    6.30   20.90   1
  15 -17  -1   -0.00   22.70   1
 -15  17   1   -0.10   22.40   1
 -15  17  -1    6.10   22.90   1
  15 -17   1    5.60   23.10   1
 -15 -17   1   24.20   21.50   1
  15  17  -1   14.40   21.00   1
  15  17   2    9.80   25.00   1
 -15 -17  -2   15.70   24.90   1
  15 -17  -2   -0.00   27.00   1
 -15  17   2    8.60   26.50   1
 -15  17  -2   12.40   26.40   1
  15 -17   2   18.60   26.60   1
 -15 -17   2   24.70   25.30   1
  15  17  -2   12.40   24.90   1
  15  17   3    8.50   27.00   1
 -15 -17  -3   14.40   26.90   1
  15 -17  -3   41.30   28.50   1
 -15  17   3   -0.00   27.70   1
 -15  17  -3    5.80   27.90   1
  15 -17   3   21.60   28.20   1
 -15 -17   3   26.70   27.30   1
  15  17  -3   19.20   27.00   1
  15  17   4   -0.00   18.40   1
 -15 -17  -4   -0.00   18.30   1
  15 -17  -4   17.90   21.70   1
 -15  17   4    9.70   20.30   1
  15 -17   4   -0.10   20.30   1
 -15 -17   4   -0.00   18.80   1
  15  17  -4   46.90   19.90   1
  15  17   5   15.90   20.30   1
 -15 -17  -5   11.10   20.20   1
  15 -17  -5   -0.00   22.90   1
 -15  17   5    4.40   23.20   1
  15 -17   5   -0.00   22.10   1
 -15 -17   5    5.20   20.60   1
  15  17  -5   11.80   20.80   1
  15  18   0    4.20   26.20   1
 -15 -18   0    6.50   26.40   1
  15 -18   0   52.40   28.60   1
 -15  18   0   41.50   28.70   1
  15  18   1   90.30   54.50   1
 -15 -18  -1  114.20   54.90   1
  15 -18  -1   41.50   55.20   1
 -15  18   1  113.50   55.80   1
 -15  18  -1   46.20   54.80   1
  15 -18   1   77.90   55.20   1
 -15 -18   1   68.40   54.50   1
  15  18  -1   50.20   54.20   1
  15  18   2   17.30   27.20   1
 -15 -18  -2   18.80   27.60   1
  15 -18  -2   39.80   29.20   1
 -15  18   2   21.70   29.70   1
 -15  18  -2   -0.50   29.10   1
  15 -18   2   26.10   29.20   1
 -15 -18   2   24.50   27.60   1
  15  18  -2   -0.10   27.50   1
  15  18   3   44.60   44.10   1
 -15 -18  -3   23.60   44.10   1
  15 -18  -3  101.70   45.90   1
 -15  18   3  101.70   46.20   1
  15 -18   3   52.10   45.30   1
 -15 -18   3   29.40   44.30   1
  15  18  -3   57.40   44.60   1
  16  10   9   32.40   37.30   1
  16  10  10   19.00   28.70   1
  16  11   7    3.30   14.30   1
  16  11   8    0.60    9.50   1
  16  11   9   26.30   25.00   1
 -16 -11  -9    5.70   24.50   1
  16 -12   0   81.90   60.20   1
  16 -12  -1   20.40   30.60   1
  16 -12   1   19.50   30.90   1
  16 -12  -2   20.50   34.20   1
  16 -12   2   29.40   34.10   1
  16 -12  -3    0.00   12.20   1
  16 -12   3   -0.00   11.90   1
  16 -12  -4   20.20   32.30   1
  16 -12   4   25.20   32.70   1
  16  12   5    0.00   17.70   1
  16 -12  -5   25.50   20.20   1
  16 -12   5    3.30   19.10   1
  16  12   6   17.70   27.10   1
  16 -12  -6   24.70   28.30   1
  16 -12   6    8.20   27.80   1
  16  12   7   67.70   36.60   1
 -16 -12  -7   23.80   35.60   1
  16 -12  -7   43.90   37.50   1
  16 -12   7    9.30   36.30   1
  16  12   8   66.00   45.80   1
 -16 -12  -8   34.10   45.30   1
  16 -12  -8   48.20   46.40   1
  16 -12   8   81.70   48.30   1
  16 -13   0  341.90  131.90   1
 -16  13   0  399.00  136.70   1
  16 -13  -1   35.30   43.50   1
 -16  13   1   67.50   44.50   1
 -16  13  -1   50.00   44.00   1
  16 -13   1   37.20   43.40   1
  16 -13  -2   91.20   61.80   1
 -16  13   2   89.10   61.90   1
 -16  13  -2   84.90   61.90   1
  16 -13   2   85.00   61.50   1
  16  13   3    2.60   25.00   1
  16 -13  -3   21.40   26.30   1
 -16  13   3   20.10   25.80   1
 -16  13  -3   11.70   25.60   1
  16 -13   3   24.90   26.10   1
  16  13   4   50.50   42.60   1
  16 -13  -4   29.40   42.70   1
 -16  13   4   39.40   42.80   1
 -16  13  -4   30.60   42.80   1
  16 -13   4   99.90   44.60   1
  16  13   5   47.20   34.50   1
 -16 -13  -5   20.70   34.00   1
  16 -13  -5   31.20   34.70   1
 -16  13   5   57.90   35.60   1
 -16  13  -5   15.80   34.30   1
  16 -13   5   13.40   34.40   1
  16  13   6   14.10   42.10   1
 -16 -13  -6   52.50   42.40   1
  16 -13  -6   71.60   43.60   1
 -16  13   6   51.10   43.20   1
 -16  13  -6   38.00   42.90   1
  16 -13   6  111.30   45.00   1
  16  13   7   64.90   41.20   1
 -16 -13  -7   27.20   40.70   1
  16 -13  -7   31.30   41.60   1
 -16  13   7   38.40   41.40   1
  16 -13   7   40.90   41.20   1
  16  13   8   28.70   43.60   1
 -16 -13  -8   59.40   44.20   1
  16 -13  -8   77.60   45.60   1
 -16  13   8   41.00   44.60   1
  16 -13   8   54.60   44.50   1
  16 -14   0   12.10   20.60   1
 -16  14   0    2.30   18.40   1
  16  14   1    4.00   17.40   1
  16 -14  -1   -0.00   20.80   1
 -16  14   1    0.70   18.80   1
 -16  14  -1   17.90   18.90   1
  16 -14   1    6.10   19.90   1
  16  14   2    8.60   23.30   1
  16 -14  -2   35.80   26.70   1
 -16  14   2    7.40   24.20   1
 -16  14  -2   -0.00   23.90   1
  16 -14   2   22.90   24.90   1
  16  14   3   -0.00   14.10   1
 -16 -14  -3    5.90   13.30   1
  16 -14  -3    6.20   18.60   1
 -16  14   3   -0.00   15.50   1
 -16  14  -3    4.20   14.90   1
  16 -14   3   -0.00   17.20   1
  16  14   4   14.10   24.70   1
 -16 -14  -4   -0.00   24.10   1
  16 -14  -4   21.10   26.40   1
 -16  14   4   24.30   25.40   1
 -16  14  -4   11.20   24.90   1
  16 -14   4   25.10   26.30   1
  16  14   5   25.80   26.10   1
 -16 -14  -5   13.60   26.00   1
  16 -14  -5   18.90   28.10   1
 -16  14   5    9.80   26.70   1
 -16  14  -5    4.70   26.40   1
  16 -14   5   16.50   27.40   1
  16  14   6   15.40   28.20   1
 -16 -14  -6   46.30   28.70   1
  16 -14  -6   20.40   30.20   1
 -16  14   6    7.50   29.50   1
  16 -14   6   -0.60   29.20   1
  16  14   7   15.70   22.10   1
 -16 -14  -7   12.90   22.40   1
  16 -14  -7    5.80   24.60   1
 -16  14   7   -0.00   23.70   1
  16 -14   7    9.60   23.80   1
  16  15   0   36.90   31.80   1
  16 -15   0   24.60   34.10   1
 -16  15   0   -0.00   33.10   1
  16  15   1   56.80   33.10   1
 -16 -15  -1   17.90   32.40   1
  16 -15  -1   34.30   35.40   1
 -16  15   1   19.50   34.20   1
 -16  15  -1   20.90   34.10   1
  16 -15   1   28.60   35.00   1
  16  15  -1   13.40   32.10   1
  16  15   2  119.90   62.80   1
 -16 -15  -2   90.10   62.50   1
  16 -15  -2  102.30   64.20   1
 -16  15   2   77.10   63.30   1
 -16  15  -2   59.90   62.70   1
  16 -15   2  118.10   64.20   1
  16  15   3   71.00   50.10   1
 -16 -15  -3   98.00   50.90   1
  16 -15  -3   41.60   52.30   1
 -16  15   3   34.60   51.20   1
 -16  15  -3   58.00   51.10   1
  16 -15   3   45.90   51.60   1
  16  15   4   27.00   30.40   1
 -16 -15  -4   22.30   30.40   1
  16 -15  -4   -0.00   33.10   1
 -16  15   4   14.40   31.90   1
 -16  15  -4   33.40   32.20   1
  16 -15   4   14.50   33.00   1
  16  15   5   89.40   48.80   1
 -16 -15  -5   35.20   48.30   1
  16 -15  -5   72.80   50.70   1
 -16  15   5   64.30   49.90   1
  16 -15   5   41.00   49.80   1
  16  15   6   10.60   17.20   1
 -16 -15  -6    0.60   17.00   1
  16 -15  -6   -0.00   22.00   1
 -16  15   6   19.50   21.00   1
  16 -15   6   -1.30   20.30   1
  16  16   0   22.00   38.00   1
 -16 -16   0   24.10   38.00   1
  16 -16   0   51.60   41.00   1
 -16  16   0  132.50   42.50   1
  16  16   1   13.60   26.10   1
 -16 -16  -1   10.40   26.20   1
  16 -16  -1   35.30   29.50   1
 -16  16   1   19.10   29.20   1
 -16  16  -1   45.90   30.00   1
  16 -16   1   40.40   29.70   1
 -16 -16   1    8.50   25.70   1
  16  16  -1    5.30   25.90   1
  16  16   2   48.60   37.60   1
 -16 -16  -2   37.60   37.60   1
  16 -16  -2   49.40   39.80   1
 -16  16   2   48.90   40.70   1
 -16  16  -2   55.80   40.30   1
  16 -16   2   -0.00   39.40   1
  16  16  -2   15.50   37.20   1
  16  16   3    7.60   27.50   1
 -16 -16  -3    5.80   27.60   1
  16 -16  -3   53.70   32.20   1
 -16  16   3   69.00   31.80   1
 -16  16  -3   42.00   30.90   1
  16 -16   3   35.70   30.60   1
  16  16  -3    5.80   27.20   1
  16  16   4   20.60   33.70   1
 -16 -16  -4   21.30   33.70   1
  16 -16  -4   38.20   36.80   1
 -16  16   4   33.60   36.60   1
  16 -16   4   38.40   35.50   1
  16  16   5   27.70   33.30   1
 -16 -16  -5   11.00   33.10   1
  16 -16  -5   47.50   36.50   1
 -16  16   5   58.30   37.10   1
  16 -16   5   32.20   35.20   1
  16  17   0   -0.10   14.70   1
 -16 -17   0   -0.00   14.30   1
  16 -17   0   -0.50   17.90   1
 -16  17   0   20.40   17.60   1
  16  17   1   27.30   26.50   1
 -16 -17  -1   38.30   26.70   1
  16 -17  -1   -0.00   27.70   1
 -16  17   1   -0.50   29.00   1
 -16  17  -1   22.30   28.90   1
  16 -17   1    3.30   27.80   1
 -16 -17   1    9.60   26.30   1
  16  17  -1   10.80   26.40   1
  16  17   2   14.80   27.10   1
 -16 -17  -2   28.30   27.20   1
  16 -17  -2    7.40   29.60   1
 -16  17   2   14.30   29.50   1
 -16  17  -2   -0.10   29.00   1
  16 -17   2    8.70   28.70   1
 -16 -17   2   18.40   27.40   1
  16  17  -2   21.40   27.40   1
  16  17   3    4.40   26.40   1
 -16 -17  -3    7.60   26.30   1
  16 -17  -3   15.80   28.50   1
 -16  17   3   48.40   29.10   1
  16 -17   3   41.80   28.70   1
 -16 -17   3   10.90   26.40   1
  16  17  -3   20.30   26.60   1
  17  12   7    9.30   21.10   1
  17  12   8   37.30   39.90   1
  17 -13   0   28.50   36.30   1
  17 -13  -1  409.40  130.50   1
  17 -13   1  269.00  123.20   1
  17 -13  -2  117.80   71.20   1
  17 -13   2  107.70   70.90   1
  17 -13  -3 1078.10  207.60   1
  17 -13   3  354.40  148.60   1
  17 -13  -4   32.00   42.70   1
  17 -13   4   51.40   42.80   1
  17  13   5  325.70  129.20   1
  17 -13  -5  301.40  130.70   1
  17 -13   5  637.60  158.70   1
  17  13   6   44.80   37.00   1
  17 -13  -6   17.60   37.40   1
  17 -13   6   30.90   37.50   1
  17  13   7   34.50   28.50   1
 -17 -13  -7    4.60   27.90   1
  17 -13  -7   19.40   29.40   1
  17 -13   7  251.00   52.40   1
  17 -14   0   -0.10   10.30   1
 -17  14   0   -0.10   10.00   1
  17 -14  -1   11.60   22.50   1
 -17  14   1   -0.00   22.20   1
 -17  14  -1   11.10   22.20   1
  17 -14   1   16.10   22.20   1
  17 -14  -2   -0.50   14.70   1
 -17  14   2    8.70   14.30   1
 -17  14  -2    1.40   13.80   1
  17 -14   2   -0.00   14.10   1
  17  14   3   -0.00   18.50   1
  17 -14  -3   -0.00   20.60   1
 -17  14   3   -0.00   20.20   1
 -17  14  -3   33.80   20.50   1
  17 -14   3   13.50   20.10   1
  17  14   4   11.90   18.50   1
  17 -14  -4   -0.00   20.10   1
 -17  14   4   -0.40   19.70   1
 -17  14  -4   -0.00   18.90   1
  17 -14   4   19.10   19.50   1
  17  14   5   -0.00   14.40   1
 -17 -14  -5    1.70   13.70   1
  17 -14  -5    2.30   16.10   1
 -17  14   5   12.80   15.70   1
  17 -14   5   -0.20   15.10   1
  17  14   6    8.00   21.00   1
 -17 -14  -6   11.10   20.80   1
  17 -14  -6    7.70   21.60   1
 -17  14   6    8.30   22.10   1
  17 -14   6    7.80   21.40   1
  17 -15   0   -0.00   13.30   1
 -17  15   0   -0.00   12.20   1
  17  15   1   -0.10   36.00   1
  17 -15  -1   82.60   39.00   1
 -17  15   1   64.30   37.90   1
 -17  15  -1   89.70   38.80   1
  17 -15   1   45.40   38.50   1
  17  15   2    8.60   18.60   1
  17 -15  -2   -0.00   21.50   1
 -17  15   2    9.40   20.10   1
 -17  15  -2   -0.00   20.10   1
  17 -15   2   16.60   22.30   1
  17  15   3  105.00   67.10   1
 -17 -15  -3   92.00   67.10   1
  17 -15  -3  214.80   71.10   1
 -17  15   3  162.30   69.60   1
 -17  15  -3   57.50   66.80   1
  17 -15   3  178.80   69.80   1
  17  15   4   14.60   25.60   1
 -17 -15  -4   10.50   25.20   1
  17 -15  -4   -0.00   27.90   1
 -17  15   4   10.80   26.90   1
  17 -15   4   39.80   27.70   1
  17  15   5   46.70   45.20   1
 -17 -15  -5   50.00   45.40   1
  17 -15  -5   57.40   46.90   1
 -17  15   5   40.90   46.10   1
  17 -15   5   46.30   46.50   1
  17  16   0   19.30   22.10   1
  17 -16   0   -0.20   26.20   1
 -17  16   0   -0.40   23.80   1
  17  16   1   10.90   20.20   1
 -17 -16  -1    5.40   20.30   1
  17 -16  -1   -0.00   25.30   1
 -17  16   1   -0.00   22.40   1
 -17  16  -1   19.60   22.40   1
  17 -16   1   19.60   24.10   1
  17  16  -1    5.10   20.00   1
  17  16   2   39.30   43.50   1
 -17 -16  -2   48.80   43.70   1
  17 -16  -2   53.50   45.60   1
 -17  16   2   57.00   44.90   1
 -17  16  -2   28.80   44.70   1
  17 -16   2   43.10   45.70   1
  17  16   3   44.90   42.30   1
 -17 -16  -3   24.20   41.90   1
  17 -16  -3   56.30   44.40   1
 -17  16   3   61.20   44.30   1
  17 -16   3   55.50   44.10   1
  18 -13  -5   96.30   67.00   1
  18  13   6   -0.40   16.20   1
  18 -13  -6   24.70   19.50   1
  18 -14   0   24.90   31.60   1
 -18  14   0   17.50   32.30   1
  18 -14  -1   17.90   19.20   1
 -18  14   1   -0.00   20.00   1
  18 -14   1   -0.10   18.80   1
  18 -14  -2  127.60   53.00   1
 -18  14   2  275.10   71.20   1
  18 -14   2   35.30   49.10   1
  18 -14  -3   20.70   21.20   1
 -18  14   3    5.00   21.50   1
  18 -14   3   -0.00   19.90   1
  18 -14  -4   23.50   28.30   1
 -18  14   4   35.80   30.30   1
  18 -14   4    4.70   27.90   1
  18  14   5    6.10   17.30   1
  18 -14  -5    6.10   18.40   1
 -18  14   5    8.90   20.10   1
  18 -14   5    2.60   18.10   1
  18 -15   0   37.70   43.90   1
 -18  15   0   54.10   44.50   1
  18 -15  -1   68.00   55.20   1
 -18  15   1   50.70   55.00   1
 -18  15  -1   72.00   55.40   1
  18 -15   1  121.00   57.00   1
  18 -15  -2    9.40   23.00   1
 -18  15   2    2.20   23.00   1
 -18  15  -2    8.70   22.80   1
  18 -15   2   22.30   23.50   1
  18  15   3    5.00   23.60   1
  18 -15  -3   13.10   25.10   1
 -18  15   3    9.70   25.10   1
  18 -15   3   30.90   25.40   1
  19 -14   0    0.80   14.40   1
  19 -14  -1   -0.10   13.30   1
  19 -14   1   -0.00   11.80   1
  19 -14  -2   -0.00   17.80   1
  19 -14   2    9.40   17.80   1
  19 -14  -3   -0.00   19.30   1
  19 -14   3   11.20   18.90   1
;
_shelx_hkl_checksum              66646
loop_
_space_group_symop_operation_xyz
'x, y, z'
'-x+1/2, -y, z+1/2'
'x+1/2, -y+1/2, -z+1/2'
'-x, y+1/2, -z'
'-x, -y, -z'
'x-1/2, y, -z-1/2'
'-x-1/2, y-1/2, z-1/2'
'x, -y-1/2, z'
loop_
_atom_site_label
_atom_site_type_symbol
_atom_site_fract_x
_atom_site_fract_y
_atom_site_fract_z
_atom_site_U_iso_or_equiv
_atom_site_adp_type
_atom_site_occupancy
_atom_site_site_symmetry_order
_atom_site_calc_flag
_atom_site_refinement_flags_posn
_atom_site_refinement_flags_occupancy
Si01 Si 0.4244(5) 0.0571(3) -0.3349(6) 0.025(2) Uiso 1 1 d D .
Si02 Si 0.3099(5) 0.0289(4) -0.1885(6) 0.031(2) Uiso 1 1 d D .
Si03 Si 0.2798(6) 0.0625(3) 0.0353(6) 0.026(2) Uiso 1 1 d D .
Si04 Si 0.1217(5) 0.0639(3) 0.0295(6) 0.027(2) Uiso 1 1 d D .
Si05 Si 0.0714(5) 0.0271(3) -0.1803(5) 0.0246(19) Uiso 1 1 d D .
Si06 Si 0.1884(5) 0.0609(3) -0.3234(6) 0.025(2) Uiso 1 1 d D .
Si07 Si 0.4227(5) -0.1732(3) -0.3210(5) 0.026(2) Uiso 1 1 d D .
Si08 Si 0.3088(5) -0.1297(3) -0.1812(6) 0.028(2) Uiso 1 1 d D .
Si09 Si 0.2752(6) -0.1728(3) 0.0347(6) 0.029(2) Uiso 1 1 d D .
Si10 Si 0.1183(5) -0.1731(3) 0.0301(5) 0.0252(19) Uiso 1 1 d D .
Si11 Si 0.0703(5) -0.1304(3) -0.1821(6) 0.029(2) Uiso 1 1 d D .
Si12 Si 0.1889(5) -0.1730(4) -0.3157(6) 0.038(2) Uiso 1 1 d D .
O01 O 0.3753(11) 0.0566(7) -0.2411(13) 0.066(5) Uiso 1 1 d D .
O02 O 0.3090(9) 0.0591(6) -0.0752(10) 0.043(4) Uiso 1 1 d D .
O03 O 0.2003(10) 0.0604(9) 0.0307(17) 0.079(6) Uiso 1 1 d D .
O04 O 0.0934(11) 0.0641(6) -0.0809(9) 0.056(4) Uiso 1 1 d D .
O05 O 0.1171(10) 0.0531(7) -0.2711(12) 0.062(5) Uiso 1 1 d D .
O06 O 0.2431(14) 0.0608(11) -0.235(2) 0.119(9) Uiso 1 1 d D .
O07 O 0.3776(9) -0.1547(8) -0.2275(11) 0.063(5) Uiso 1 1 d D .
O08 O 0.3112(9) -0.1584(6) -0.0708(9) 0.042(3) Uiso 1 1 d D .
O09 O 0.1963(8) -0.1552(7) 0.0315(12) 0.051(4) Uiso 1 1 d D .
O10 O 0.0888(15) -0.1648(10) -0.0789(12) 0.094(7) Uiso 1 1 d D .
O11 O 0.1177(8) -0.1560(7) -0.2689(12) 0.063(5) Uiso 1 1 d D .
O12 O 0.2435(9) -0.1550(8) -0.2343(14) 0.078(6) Uiso 1 1 d D .
O13 O 0.3056(12) -0.0503(5) -0.1759(14) 0.062(5) Uiso 1 1 d D .
O14 O 0.0779(11) -0.0519(6) -0.1701(11) 0.051(4) Uiso 1 1 d D .
O15 O 0.4187(12) 0.1272(7) -0.3897(12) 0.064(5) Uiso 1 1 d D .
O16 O 0.4080(10) -0.0023(6) -0.4101(10) 0.050(4) Uiso 1 1 d D .
O17 O 0.4004(10) -0.1321(6) -0.4173(10) 0.043(3) Uiso 1 1 d D .
O18 O 0.1903(9) 0.1317(6) -0.3793(10) 0.041(4) Uiso 1 1 d D .
O19 O 0.1939(9) 0.0002(6) -0.4037(10) 0.041(3) Uiso 1 1 d D .
O20 O 0.1964(9) -0.1300(6) -0.4150(9) 0.045(4) Uiso 1 1 d D .
O21 O -0.0019(9) 0.0513(7) -0.2064(12) 0.057(4) Uiso 1 1 d D .
O22 O -0.0042(9) -0.1504(7) -0.2097(13) 0.065(5) Uiso 1 1 d D .
O23 O 0.4257(15) -0.250000 -0.3515(15) 0.048(5) Uiso 1 2 d DS P
O24 O 0.1953(15) -0.250000 -0.3459(18) 0.059(6) Uiso 1 2 d DS P
O25 O 0.2872(12) -0.250000 0.0623(13) 0.032(4) Uiso 1 2 d DS P
O26 O 0.1055(13) -0.250000 0.0632(13) 0.036(4) Uiso 1 2 d DS P
loop_
_atom_type_symbol
_atom_type_description
_atom_type_scat_dispersion_real
_atom_type_scat_dispersion_imag
_atom_type_scat_source
O O 0.0000 0.0000 'International Tables Vol C Tables 4.2.6.8 and 6.1.1.4'
Si Si 0.0000 0.0000 'International Tables Vol C Tables 4.2.6.8 and 6.1.1.4'
loop_
_geom_angle_atom_site_label_1
_geom_angle_atom_site_label_2
_geom_angle_atom_site_label_3
_geom_angle
_geom_angle_site_symmetry_1
_geom_angle_site_symmetry_3
O21 Si01 O15 107.0(11) 6_655 .
O21 Si01 O16 111.2(10) 6_655 .
O15 Si01 O16 110.4(9) . .
O21 Si01 O01 107.5(11) 6_655 .
O15 Si01 O01 109.0(10) . .
O16 Si01 O01 111.5(10) . .
O01 Si02 O13 115.9(11) . .
O01 Si02 O06 112.3(16) . .
O13 Si02 O06 112.9(14) . .
O01 Si02 O02 107.0(10) . .
O13 Si02 O02 105.5(9) . .
O06 Si02 O02 101.6(13) . .
O20 Si03 O19 110.8(9) 2 2
O20 Si03 O02 108.5(9) 2 .
O19 Si03 O02 108.9(9) 2 .
O20 Si03 O03 109.9(10) 2 .
O19 Si03 O03 109.4(10) 2 .
O02 Si03 O03 109.2(12) . .
O03 Si04 O04 111.6(13) . .
O03 Si04 O16 109.6(11) . 2
O04 Si04 O16 110.1(10) . 2
O03 Si04 O17 108.1(11) . 2
O04 Si04 O17 108.4(9) . 2
O16 Si04 O17 109.0(9) 2 2
O14 Si05 O04 111.5(9) . .
O14 Si05 O21 113.4(10) . .
O04 Si05 O21 107.5(11) . .
O14 Si05 O05 109.8(10) . .
O04 Si05 O05 109.1(11) . .
O21 Si05 O05 105.2(10) . .
O18 Si06 O05 108.3(9) . .
O18 Si06 O06 109.2(12) . .
O05 Si06 O06 106.5(15) . .
O18 Si06 O19 110.2(8) . .
O05 Si06 O19 106.2(9) . .
O06 Si06 O19 116.1(12) . .
O23 Si07 O22 107.9(13) . 6_655
O23 Si07 O07 116.7(11) . .
O22 Si07 O07 104.7(11) 6_655 .
O23 Si07 O17 107.4(9) . .
O22 Si07 O17 108.8(10) 6_655 .
O07 Si07 O17 111.1(10) . .
O12 Si08 O13 107.9(11) . .
O12 Si08 O08 109.4(10) . .
O13 Si08 O08 108.7(9) . .
O12 Si08 O07 116.3(12) . .
O13 Si08 O07 111.4(11) . .
O08 Si08 O07 102.9(10) . .
O18 Si09 O25 105.4(9) 2 .
O18 Si09 O08 110.7(10) 2 .
O25 Si09 O08 107.8(10) . .
O18 Si09 O09 109.6(10) 2 .
O25 Si09 O09 111.1(11) . .
O08 Si09 O09 112.0(9) . .
O10 Si10 O15 112.8(13) . 2
O10 Si10 O09 110.5(13) . .
O15 Si10 O09 108.6(11) 2 .
O10 Si10 O26 107.0(11) . .
O15 Si10 O26 106.5(10) 2 .
O09 Si10 O26 111.3(11) . .
O14 Si11 O10 108.4(11) . .
O14 Si11 O11 109.6(10) . .
O10 Si11 O11 111.0(13) . .
O14 Si11 O22 111.3(11) . .
O10 Si11 O22 108.3(13) . .
O11 Si11 O22 108.2(10) . .
O12 Si12 O20 112.9(11) . .
O12 Si12 O24 109.8(13) . .
O20 Si12 O24 107.4(11) . .
O12 Si12 O11 107.4(12) . .
O20 Si12 O11 107.4(10) . .
O24 Si12 O11 112.1(13) . .
Si02 O01 Si01 149.4(13) . .
Si03 O02 Si02 152.0(12) . .
Si04 O03 Si03 175.7(14) . .
Si04 O04 Si05 152.0(10) . .
Si06 O05 Si05 150.6(14) . .
Si02 O06 Si06 148.0(19) . .
Si07 O07 Si08 150.8(14) . .
Si08 O08 Si09 150.1(13) . .
Si10 O09 Si09 154.7(10) . .
Si10 O10 Si11 159.4(17) . .
Si11 O11 Si12 153.2(14) . .
Si08 O12 Si12 163.3(16) . .
Si08 O13 Si02 169.8(15) . .
Si11 O14 Si05 165.1(14) . .
Si01 O15 Si10 148.4(15) . 2_554
Si04 O16 Si01 167.9(14) 2_554 .
Si07 O17 Si04 151.3(10) . 2_554
Si09 O18 Si06 144.5(11) 2_554 .
Si03 O19 Si06 162.4(13) 2_554 .
Si03 O20 Si12 147.4(11) 2_554 .
Si01 O21 Si05 144.1(12) 6 .
Si11 O22 Si07 151.4(13) . 6
Si07 O23 Si07 149.8(15) . 8
Si12 O24 Si12 149.1(18) . 8
Si09 O25 Si09 148.0(15) 8 .
Si10 O26 Si10 143.0(14) . 8
loop_
_geom_bond_atom_site_label_1
_geom_bond_atom_site_label_2
_geom_bond_distance
_geom_bond_site_symmetry_2
Si01 O21 1.579(18) 6_655
Si01 O15 1.581(14) .
Si01 O16 1.586(11) .
Si01 O01 1.596(17) .
Si02 O01 1.585(18) .
Si02 O13 1.586(13) .
Si02 O06 1.60(2) .
Si02 O02 1.631(14) .
Si03 O20 1.574(13) 2
Si03 O19 1.579(13) 2
Si03 O02 1.593(15) .
Si03 O03 1.593(19) .
Si04 O03 1.575(19) .
Si04 O04 1.582(14) .
Si04 O16 1.585(13) 2
Si04 O17 1.595(13) 2
Si05 O14 1.584(13) .
Si05 O04 1.584(11) .
Si05 O21 1.584(18) .
Si05 O05 1.607(16) .
Si06 O18 1.595(13) .
Si06 O05 1.597(18) .
Si06 O06 1.62(2) .
Si06 O19 1.622(13) .
Si07 O23 1.582(9) .
Si07 O22 1.586(18) 6_655
Si07 O07 1.587(12) .
Si07 O17 1.591(13) .
Si08 O12 1.572(12) .
Si08 O13 1.583(11) .
Si08 O08 1.584(14) .
Si08 O07 1.593(16) .
Si09 O18 1.571(14) 2
Si09 O25 1.599(9) .
Si09 O08 1.611(14) .
Si09 O09 1.620(17) .
Si10 O10 1.583(15) .
Si10 O15 1.593(16) 2
Si10 O09 1.600(17) .
Si10 O26 1.613(9) .
Si11 O14 1.577(13) .
Si11 O10 1.585(12) .
Si11 O11 1.586(15) .
Si11 O22 1.586(18) .
Si12 O12 1.583(12) .
Si12 O20 1.588(11) .
Si12 O24 1.589(10) .
Si12 O11 1.593(13) .

_cod_database_fobs_code 2300642
