#------------------------------------------------------------------------------
#$Date: 2016-02-14 06:40:26 +0200 (Sun, 14 Feb 2016) $
#$Revision: 176432 $
#$URL: svn://www.crystallography.net/cod/cif/2/30/04/2300461.cif $
#------------------------------------------------------------------------------
#
# This file is available in the Crystallography Open Database (COD),
# http://www.crystallography.net/. The original data for this entry
# were provided by IUCr Journals, http://journals.iucr.org/.
#
# The file may be used within the scientific community so long as
# proper attribution is given to the journal article from which the
# data were obtained.
#
data_2300461
loop_
_publ_author_name
'Nogueira, I. C.'
'Cavalcante, L. S.'
'Pereira, P. F. S.'
'de Jesus, M. M.'
'Rivas Mercury, J. M.'
'Batista, N. C.'
'Li, M. Siu'
'Longo, E.'
_publ_section_title
;
 Rietveld refinement, morphology and optical properties of
 (Ba~1{-~<i>x</i>}Sr<i>~x~</i>)MoO~4~ crystals
;
_journal_coeditor_code           aj5215
_journal_issue                   5
_journal_name_full               'Journal of Applied Crystallography'
_journal_page_first              1434
_journal_page_last               1446
_journal_paper_doi               10.1107/S0021889813020335
_journal_volume                  46
_journal_year                    2013
_chemical_compound_source        Scheelite
_chemical_formula_analytical     'Ba0.19 Sr0.81 O4 Mo1'
_chemical_formula_moiety         'Ba0.19 Sr0.81 O4 Mo1'
_chemical_formula_structural     'Ba0.19 Sr0.81 O4 Mo1'
_chemical_formula_sum            'Ba0.19 Mo O4 Sr0.81'
_chemical_formula_weight         257.14
_chemical_melting_point          1761
_chemical_name_common            'Barium strontium molybdate'
_chemical_name_systematic        ' ?'
_space_group_IT_number           88
_symmetry_cell_setting           tetragonal
_symmetry_space_group_name_Hall  '-I 4ad'
_symmetry_space_group_name_H-M   'I 41/a :2'
_audit_creation_date             2012-10-01T00:00
_audit_creation_method           'from EXP file using GSAS2CIF'
_audit_update_record
' 2012-10-01T00:00  Initial CIF as created by GSAS2CIF'
_cell_angle_alpha                90.0
_cell_angle_beta                 90.0
_cell_angle_gamma                90.0
_cell_formula_units_Z            4
_cell_length_a                   5.45711(5)
_cell_length_b                   5.45711
_cell_length_c                   12.25476(23)
_cell_measurement_temperature    298
_cell_volume                     364.947(8)
_computing_data_collection       Jade
_computing_data_reduction        Jade
_computing_structure_refinement  GSAS
_computing_structure_solution    x
_diffrn_ambient_temperature      298
_diffrn_detector                 scintillation
_diffrn_detector_type            scintillation
_diffrn_measurement_device_type  'Rigaku AFC-7R'
_diffrn_radiation_monochromator  Jade
_diffrn_radiation_polarisn_ratio 0.5
_diffrn_radiation_probe          x-ray
_diffrn_source                   Cu
_diffrn_source_target            Cu
_diffrn_source_type              Copper
_exptl_absorpt_correction_T_max  0.98996
_exptl_absorpt_correction_T_min  0.77836
_exptl_absorpt_process_details
;   GSAS Absorption/surface roughness correction: function number 3
 Surface roughness abs. correction (Suortti)
Terms =     0.19385        0.59634E-01
Correction is refined.
;
_exptl_crystal_density_diffrn    4.69
_exptl_crystal_density_method    'not measured'
_exptl_crystal_F_000             276
_pd_calc_method                  'Rietveld Refinement'
_pd_char_colour                  white
_pd_char_particle_morphology     irregular
_pd_instr_location               ' ?'
_pd_meas_2theta_range_inc        0.02
_pd_meas_2theta_range_max        110.0
_pd_meas_2theta_range_min        10.0
_pd_meas_number_of_points        5001
_pd_meas_scan_method             disp
_pd_phase_name
'from C:/Ref_BSMO_4s_cop/Ba0.25_dip_cp/SrMoO4.cif'
_pd_prep_cool_rate               1
_pd_prep_pressure                100
_pd_prep_temperature             298
_pd_proc_2theta_range_inc        0.02
_pd_proc_2theta_range_max        110.0
_pd_proc_2theta_range_min        10.0
_pd_proc_info_data_reduction     Jade
_pd_proc_info_datetime           2012-10-01T00:00:03
_pd_proc_info_excluded_regions   ' ?'
_pd_proc_ls_background_function
;   GSAS Background function number 1 with 16 terms.
 Shifted Chebyshev function of 1st kind
      1:    172.043     2:   -60.2790     3:    39.6896     4:   -2.70623    
      5:    11.6744     6:    3.71191     7:    10.7455     8:   -12.3020    
      9:    8.38236    10:   -12.2142    11:    4.32099    12:    9.39349    
     13:   -12.8495    14:   -8.16751    15:    7.70386    16:   -2.29459    
;
_pd_proc_ls_peak_cutoff          0.00030
_pd_proc_ls_profile_function
;
 CW Profile function number 4 with  17 terms
 Pseudovoigt profile coefficients as parameterized in
 P. Thompson, D.E. Cox & J.B. Hastings (1987). J. Appl. Cryst.,20,79-83.
 Asymmetry correction of L.W. Finger, D.E. Cox & A. P. Jephcoat (1994).
 J. Appl. Cryst.,27,892-900.
 Microstrain broadening by P.W. Stephens,  (1999). J. Appl. Cryst.,32,281-289.
 Peak tails are ignored  where the intensity is below 0.0003 times the peak
   Aniso. broadening axis   0.0   0.0   1.0
;
_pd_proc_number_of_points        5001
_pd_spec_mounting                ' ?'
_refine_ls_goodness_of_fit_all   1.92
_refine_ls_goodness_of_fit_ref   1.37
_refine_ls_matrix_type           full
_refine_ls_number_parameters     25
_refine_ls_number_restraints     0
_refine_ls_R_factor_all          0.0629
_refine_ls_R_factor_gt           0.0447
_refine_ls_R_Fsqd_factor         0.02686
_refine_ls_shift/su_max          0.05
_refine_ls_shift/su_mean         0.01
_refine_ls_wR_factor_gt          0.0859
_reflns_d_resolution_high        0.948
_reflns_d_resolution_low         4.985
_reflns_limit_h_max              5
_reflns_limit_h_min              0
_reflns_limit_k_max              5
_reflns_limit_k_min              0
_reflns_limit_l_max              12
_reflns_limit_l_min              0
_reflns_number_total             232
_cod_data_source_file            aj5215sup4.cif
_cod_data_source_block           BA025_DIP_publ
_cod_depositor_comments
;
The following automatic conversions were performed:

'_geom_bond_publ_flag' value 'N' changed to 'n' according to
/usr/data/users/saulius/crontab/automatic-downloads/rss-feeds/IUCr/lib/dictionaries/cif_core.dic
dictionary named 'cif_core.dic' version 2.4.2 from 2011-04-26 (37
times).

'_geom_angle_publ_flag' value 'N' changed to 'n' according
to
/usr/data/users/saulius/crontab/automatic-downloads/rss-feeds/IUCr/lib/dictionaries/cif_core.dic
dictionary named 'cif_core.dic' version 2.4.2 from 2011-04-26 (70
times).

Automatic conversion script
Id: cif_fix_values 2281 2013-09-26 08:29:07Z andrius 
;
_cod_original_sg_symbol_Hall     -I4ad
_cod_original_sg_symbol_H-M      'I 41/a'
_cod_database_code               2300461
loop_
_symmetry_equiv_pos_site_id
_symmetry_equiv_pos_as_xyz
1 +x,+y,+z
2 -y+3/4,+x+1/4,+z+1/4
3 -x+1/2,-y,+z+1/2
4 +y+3/4,-x+3/4,+z+3/4
-1 -x,-y,-z
-2 +y+1/4,-x+3/4,-z+3/4
-3 +x+1/2,+y,-z+1/2
-4 -y+1/4,+x+1/4,-z+1/4
101 +x+1/2,+y+1/2,+z+1/2
102 -y+1/4,+x+3/4,+z+3/4
103 -x,-y+1/2,+z
104 +y+1/4,-x+1/4,+z+1/4
-101 -x+1/2,-y+1/2,-z+1/2
-102 +y+3/4,-x+1/4,-z+1/4
-103 +x,+y+1/2,-z
-104 -y+3/4,+x+3/4,-z+3/4
loop_
_atom_site_type_symbol
_atom_site_label
_atom_site_fract_x
_atom_site_fract_y
_atom_site_fract_z
_atom_site_occupancy
_atom_site_thermal_displace_type
_atom_site_U_iso_or_equiv
_atom_site_symmetry_multiplicity
Sr Sr1 0.0 0.25 0.625 0.80715 Uiso 0.01274 4
Mo Mo1 0.0 0.25 0.125 1.0 Uiso 0.01274 4
O O1 0.24695 0.12065 0.04611 1.0 Uiso 0.01274 16
Ba Ba1 0.0 0.25 0.625 0.19285 Uiso 0.01274 4
loop_
_atom_type_symbol
_atom_type_number_in_cell
_atom_type_scat_dispersion_real
_atom_type_scat_dispersion_imag
_atom_type_scat_Cromer_Mann_a1
_atom_type_scat_Cromer_Mann_a2
_atom_type_scat_Cromer_Mann_a3
_atom_type_scat_Cromer_Mann_a4
_atom_type_scat_Cromer_Mann_b1
_atom_type_scat_Cromer_Mann_b2
_atom_type_scat_Cromer_Mann_b3
_atom_type_scat_Cromer_Mann_b4
_atom_type_scat_Cromer_Mann_c
_atom_type_scat_source
Sr 3.229 0.000 0.000 18.0874 1.49070 8.13730 12.6963 2.56540 24.5651 -34.193
-0.0138 41.4025 International_Tables_Vol_C
Mo 4.0 0.000 0.000 17.8871 1.03649 11.1750 8.48061 6.57891 0.05888 0.0000
0.0000 0.34494 International_Tables_Vol_C
O 16.0 0.000 0.000 3.76936 15.0797 2.53342 6.30430 1.91579 40.3445 1.55094
0.31291 0.22789 International_Tables_Vol_C
Ba 0.771 0.000 0.000 20.1807 3.21367 19.1136 0.28331 10.9054 20.0558 0.77363
51.7460 3.02902 International_Tables_Vol_C
loop_
_diffrn_radiation_wavelength
_diffrn_radiation_wavelength_wt
_diffrn_radiation_type
_diffrn_radiation_wavelength_id
1.540500 1.000 CuK\a 1
1.544300 0.500 CuK\a 2
loop_
_geom_angle_atom_site_label_1
_geom_angle_atom_site_label_2
_geom_angle_atom_site_label_3
_geom_angle
_geom_angle_site_symmetry_1
_geom_angle_site_symmetry_3
_geom_angle_publ_flag
Sr1 Sr1 Sr1 83.3772(12) 2_455 2_555 n
Sr1 Sr1 Sr1 123.8946(7) 2_455 4_444 n
Sr1 Sr1 Sr1 123.8946(7) 2_455 4_454 n
Sr1 Sr1 O1 128.53571(20) 2_455 3_555 n
Sr1 Sr1 O1 38.7024(5) 2_455 4_455 n
Sr1 Sr1 O1 103.6930(9) 2_455 -2_555 n
Sr1 Sr1 O1 104.3747(11) 2_455 -3_445 n
Sr1 Sr1 O1 85.7211(7) 2_455 101_455 n
Sr1 Sr1 O1 65.1401(9) 2_455 102_334 n
Sr1 Sr1 O1 162.27760(20) 2_455 -101_444 n
Sr1 Sr1 O1 38.2693 2_455 -104_445 n
Sr1 Sr1 Ba1 0.0 2_455 2_455 n
Sr1 Sr1 Ba1 83.3772(12) 2_455 2_555 n
Sr1 Sr1 Ba1 123.8946(7) 2_455 4_444 n
Sr1 Sr1 Ba1 123.8946(7) 2_455 4_454 n
Sr1 Sr1 Sr1 123.8946(7) 2_555 4_444 n
Sr1 Sr1 Sr1 123.8946(7) 2_555 4_454 n
Sr1 Sr1 O1 38.2693 2_555 -2_555 n
O1 Sr1 O1 147.55280(20) 3_555 4_455 n
O1 Sr1 O1 97.74800(30) 3_555 -2_555 n
O1 Sr1 O1 136.9171(8) 3_555 101_455 n
O1 Sr1 O1 75.3170(10) 3_555 102_334 n
O1 Sr1 O1 97.74800(30) 3_555 -104_445 n
O1 Sr1 O1 68.5935(4) 4_455 -2_555 n
O1 Sr1 O1 75.3170(10) 4_455 101_455 n
O1 Sr1 O1 76.9717(5) 4_455 -104_445 n
O1 Sr1 Ba1 38.7024(5) -101_655 4_454 n
Sr1 Sr1 Ba1 83.3772(12) 2_555 2_455 n
Sr1 Sr1 O1 38.2693 4_444 3_555 n
Sr1 Sr1 Ba1 123.8946(7) 4_444 2_455 n
O1 Mo1 O1 106.7186(5) 1_555 -4_555 n
Sr1 O1 Sr1 103.0283(5) 2_554 3_554 n
Sr1 O1 Mo1 136.14490(30) 2_554 1_555 n
Sr1 O1 Ba1 0.0 2_554 2_554 n
Sr1 O1 Ba1 103.0283(5) 2_554 3_554 n
Sr1 O1 Mo1 119.7360(8) 3_554 1_555 n
Sr1 O1 Ba1 103.0283(5) 3_554 2_554 n
Sr1 O1 Ba1 0.0 3_554 3_554 n
Mo1 O1 Ba1 136.14490(30) 1_555 2_554 n
Mo1 O1 Ba1 119.7360(8) 1_555 3_554 n
Ba1 O1 Ba1 103.0283(5) 2_554 3_554 n
Sr1 Ba1 Sr1 83.3772(12) 2_455 2_555 n
Sr1 Ba1 Sr1 123.8946(7) 2_455 4_444 n
Sr1 Ba1 Ba1 0.0 2_455 2_455 n
Sr1 Ba1 Ba1 83.3772(12) 2_455 2_555 n
Sr1 Ba1 Ba1 123.8946(7) 2_455 4_444 n
O1 Ba1 O1 147.55280(20) 3_555 4_455 n
O1 Ba1 O1 97.74800(30) 3_555 -2_555 n
O1 Ba1 O1 136.9171(8) 3_555 101_455 n
O1 Ba1 O1 75.3170(10) 3_555 102_334 n
O1 Ba1 O1 97.74800(30) 3_555 -104_445 n
O1 Ba1 O1 68.5935(4) 4_455 -2_555 n
O1 Ba1 O1 75.3170(10) 4_455 101_455 n
O1 Ba1 O1 76.9717(5) 4_455 -104_445 n
O1 Ba1 O1 97.74800(30) -2_555 101_455 n
O1 Ba1 O1 136.9171(8) -2_555 -104_445 n
O1 Ba1 O1 76.9717(5) 101_455 -101_444 n
O1 Ba1 O1 97.74800(30) 101_455 -104_445 n
O1 Ba1 O1 68.5935(4) 102_334 -104_445 n
O1 Ba1 Ba1 38.7024(5) -101_655 4_454 n
O1 Ba1 Ba1 38.2693 -104_656 2_455 n
O1 Ba1 Ba1 103.6930(9) -104_656 2_555 n
O1 Ba1 Ba1 85.7211(7) -104_656 4_444 n
O1 Ba1 Ba1 128.53571(20) -104_656 4_454 n
Ba1 Ba1 Ba1 83.3772(12) 2_455 2_555 n
Ba1 Ba1 Ba1 123.8946(7) 2_455 4_444 n
Ba1 Ba1 Ba1 123.8946(7) 2_455 4_454 n
Ba1 Ba1 Ba1 123.8946(7) 2_555 4_444 n
Ba1 Ba1 Ba1 123.8946(7) 2_555 4_454 n
Ba1 Ba1 Ba1 83.3772(12) 4_444 4_454 n
loop_
_geom_bond_atom_site_label_1
_geom_bond_atom_site_label_2
_geom_bond_distance
_geom_bond_site_symmetry_2
_geom_bond_publ_flag
Sr1 Sr1 4.10259(5) 2_455 n
Sr1 Sr1 4.10259(5) 2_555 n
Sr1 Sr1 4.10259(5) 4_444 n
Sr1 Sr1 4.10259(5) 4_454 n
Sr1 Mo1 3.858760(30) 3_455 n
Sr1 Mo1 3.858760(30) 3_465 n
Sr1 Mo1 3.858760(30) 3_555 n
Sr1 Mo1 3.858760(30) 3_565 n
Sr1 O1 2.633020(20) 3_555 n
Sr1 O1 2.608100(30) 4_455 n
Sr1 O1 2.633020(20) -2_555 n
Sr1 O1 2.608100(30) -3_455 n
Sr1 O1 2.633020(20) 101_455 n
Sr1 O1 2.608100(30) 102_545 n
Sr1 O1 2.608100(30) -101_444 n
Sr1 O1 2.633020(20) -104_334 n
Mo1 O1 1.802510(20) 1_555 n
Mo1 O1 1.802510(20) -4_555 n
Mo1 O1 1.802510(20) 103_555 n
Mo1 O1 1.802510(20) -102_344 n
O1 Sr1 2.608100(30) 2_554 n
O1 Sr1 2.633020(20) 3_554 n
O1 Mo1 1.802510(20) 1_555 n
O1 Ba1 2.608100(30) 2_554 n
O1 Ba1 2.633020(20) 3_554 n
Ba1 O1 2.633020(20) 3_555 n
Ba1 O1 2.608100(30) 4_455 n
Ba1 O1 2.633020(20) -2_555 n
Ba1 O1 2.608100(30) -3_455 n
Ba1 O1 2.633020(20) 101_455 n
Ba1 O1 2.608100(30) 102_545 n
Ba1 O1 2.608100(30) -101_444 n
Ba1 O1 2.633020(20) -104_334 n
Ba1 Ba1 4.10259(5) 2_455 n
Ba1 Ba1 4.10259(5) 2_555 n
Ba1 Ba1 4.10259(5) 4_444 n
Ba1 Ba1 4.10259(5) 4_454 n
loop_
_pd_meas_counts_total
_pd_proc_ls_weight
_pd_proc_intensity_bkg_calc
_pd_calc_intensity_total
318.0 0.003145 326.56836 326.57529
303.0 0.003300 325.09796 325.10452
327.0 0.003058 323.65070 323.65692
315.0 0.003175 322.22617 322.23206
298.0 0.003356 320.82419 320.82980
348.0 0.002874 319.44437 319.44955
313.0 0.003195 318.08643 318.09125
311.0 0.003215 316.74979 316.75433
280.0 0.00357 315.43448 315.43869
314.0 0.003185 314.13989 314.14389
322.0 0.003106 312.86597 312.86960
291.0 0.003436 311.61209 311.61554
289.0 0.003460 310.37830 310.38138
276.0 0.00362 309.16406 309.16687
306.0 0.003268 307.96912 307.97165
320.0 0.003125 306.79318 306.79547
336.0 0.002976 305.63602 305.63806
305.0 0.003279 304.49728 304.49905
290.0 0.003448 303.37671 303.37820
318.0 0.003145 302.27396 302.27521
283.0 0.00353 301.18884 301.18982
287.0 0.003484 300.12091 300.12170
296.0 0.003378 299.07025 299.07077
309.0 0.003236 298.03613 298.03650
310.0 0.003226 297.01874 297.01874
266.0 0.00376 296.01736 296.01727
294.0 0.003401 295.03217 295.03177
297.0 0.003367 294.06256 294.06207
309.0 0.003236 293.10852 293.10779
316.0 0.003165 292.16971 292.16873
319.0 0.003135 291.24579 291.24469
283.0 0.00353 290.33661 290.33545
289.0 0.003460 289.44208 289.44058
280.0 0.00357 288.56171 288.56012
278.0 0.00360 287.69531 287.69357
280.0 0.00357 286.84283 286.84088
285.0 0.00351 286.00385 286.00174
292.0 0.003425 285.17819 285.17590
273.0 0.00366 284.36569 284.36328
306.0 0.003268 283.56613 283.56354
306.0 0.003268 282.77917 282.77643
325.0 0.003077 282.00476 282.00186
315.0 0.003175 281.24246 281.23959
293.0 0.003413 280.49240 280.48923
275.0 0.00364 279.75400 279.75085
297.0 0.003367 279.02740 279.02408
299.0 0.003344 278.31213 278.30869
280.0 0.00357 277.60815 277.60464
269.0 0.00372 276.91528 276.91156
268.0 0.00373 276.23315 276.22943
264.0 0.00379 275.56177 275.55795
274.0 0.00365 274.90082 274.89682
291.0 0.003436 274.25018 274.24612
273.0 0.00366 273.60968 273.60550
266.0 0.00376 272.97906 272.97482
274.0 0.00365 272.35815 272.35388
264.0 0.00379 271.74698 271.74252
272.0 0.00368 271.14508 271.14066
299.0 0.003344 270.55243 270.54785
283.0 0.00353 269.96890 269.96432
270.0 0.00370 269.39429 269.38965
290.0 0.003448 268.82831 268.82358
271.0 0.00369 268.27103 268.26620
278.0 0.00360 267.72211 267.71725
268.0 0.00373 267.18143 267.17651
263.0 0.00380 266.64893 266.64401
269.0 0.00372 266.12439 266.11932
245.0 0.00408 265.60760 265.60254
274.0 0.00365 265.09851 265.09332
308.0 0.003247 264.59683 264.59174
277.0 0.00361 264.10263 264.09744
265.0 0.00377 263.61566 263.61041
258.0 0.00388 263.13580 263.13055
296.0 0.003378 262.66278 262.65750
293.0 0.003413 262.19666 262.19131
280.0 0.00357 261.73718 261.73178
262.0 0.00382 261.28430 261.27899
298.0 0.003356 260.83786 260.83246
252.0 0.00397 260.39767 260.39224
261.0 0.00383 259.96371 259.95825
251.0 0.00398 259.53571 259.53033
256.0 0.00391 259.11374 259.10822
229.0 0.00437 258.69751 258.69202
270.0 0.00370 258.28696 258.28140
226.0 0.00442 257.88202 257.87643
279.0 0.00358 257.48251 257.47699
273.0 0.00366 257.08838 257.08273
244.0 0.00410 256.69946 256.69397
243.0 0.00412 256.31567 256.31015
243.0 0.00412 255.93692 255.93129
251.0 0.00398 255.56308 255.55753
250.0 0.00400 255.19397 255.18846
258.0 0.00388 254.82962 254.82411
277.0 0.00361 254.46988 254.46443
253.0 0.00395 254.11467 254.10910
222.0 0.00450 253.76387 253.75832
244.0 0.00410 253.41733 253.41188
267.0 0.00375 253.07506 253.06958
249.0 0.00402 252.73694 252.73140
288.0 0.003472 252.40279 252.39738
262.0 0.00382 252.07260 252.06718
279.0 0.00358 251.74632 251.74095
245.0 0.00408 251.42377 251.41833
252.0 0.00397 251.10489 251.09953
244.0 0.00410 250.78966 250.78435
264.0 0.00379 250.47791 250.47260
244.0 0.00410 250.16968 250.16434
257.0 0.00389 249.86479 249.85941
255.0 0.00392 249.56306 249.55779
255.0 0.00392 249.26468 249.25938
251.0 0.00398 248.96933 248.96411
240.0 0.00417 248.67714 248.67191
256.0 0.00391 248.38785 248.38271
236.0 0.00424 248.10150 248.09634
281.0 0.00356 247.81807 247.81290
236.0 0.00424 247.53729 247.53221
238.0 0.00420 247.25928 247.25424
254.0 0.00394 246.98387 246.97890
248.0 0.00403 246.71111 246.70615
232.0 0.00431 246.44084 246.43587
252.0 0.00397 246.17299 246.16811
237.0 0.00422 245.90761 245.90271
260.0 0.00385 245.64450 245.63972
268.0 0.00373 245.38365 245.37889
240.0 0.00417 245.12508 245.12029
245.0 0.00408 244.86865 244.86388
241.0 0.00415 244.61427 244.60959
245.0 0.00408 244.36200 244.35733
242.0 0.00413 244.11163 244.10704
234.0 0.00427 243.86325 243.85873
250.0 0.00400 243.61679 243.61227
233.0 0.00429 243.37215 243.36766
233.0 0.00429 243.12935 243.12486
250.0 0.00400 242.88824 242.88385
240.0 0.00417 242.64882 242.64453
242.0 0.00413 242.41113 242.40683
261.0 0.00383 242.17499 242.17075
265.0 0.00377 241.94043 241.93613
227.0 0.00441 241.70735 241.70317
226.0 0.00442 241.47578 241.47168
241.0 0.00415 241.24561 241.24155
261.0 0.00383 241.01695 241.01288
258.0 0.00388 240.78952 240.78557
255.0 0.00392 240.56351 240.55956
230.0 0.00435 240.33867 240.33481
226.0 0.00442 240.11520 240.11137
230.0 0.00435 239.89287 239.88904
235.0 0.00426 239.67180 239.66800
213.0 0.00469 239.45177 239.44803
253.0 0.00395 239.23291 239.22922
242.0 0.00413 239.01505 239.01143
232.0 0.00431 238.79826 238.79471
223.0 0.00448 238.58257 238.57903
252.0 0.00397 238.36778 238.36435
225.0 0.00444 238.15399 238.15057
238.0 0.00420 237.94110 237.93774
207.0 0.00483 237.72917 237.72583
228.0 0.00439 237.51805 237.51472
237.0 0.00422 237.30780 237.30457
239.0 0.00418 237.09837 237.09517
214.0 0.00467 236.88976 236.88657
260.0 0.00385 236.68190 236.67879
227.0 0.00441 236.47479 236.47169
244.0 0.00410 236.26837 236.26538
228.0 0.00439 236.06276 236.05978
225.0 0.00444 235.85776 235.85481
240.0 0.00417 235.65344 235.65056
220.0 0.00455 235.44975 235.44691
231.0 0.00433 235.24669 235.24390
205.0 0.00488 235.04430 235.04153
215.0 0.00465 234.84242 234.83974
227.0 0.00441 234.64113 234.63849
211.0 0.00474 234.44040 234.43781
250.0 0.00400 234.24020 234.23769
211.0 0.00474 234.04057 234.03809
233.0 0.00429 233.84143 233.83896
236.0 0.00424 233.64279 233.64037
257.0 0.00389 233.44461 233.44225
202.0 0.00495 233.24687 233.24457
224.0 0.00446 233.04964 233.04739
249.0 0.00402 232.85283 232.85065
207.0 0.00483 232.65643 232.65430
218.0 0.00459 232.46054 232.45837
240.0 0.00417 232.26500 232.26291
210.0 0.00476 232.06982 232.06776
229.0 0.00437 231.87508 231.87306
247.0 0.00405 231.68068 231.67871
255.0 0.00392 231.48672 231.48474
222.0 0.00450 231.29305 231.29117
206.0 0.00485 231.09973 231.09790
222.0 0.00450 230.90685 230.90503
225.0 0.00444 230.71420 230.71249
217.0 0.00461 230.52197 230.52022
231.0 0.00433 230.33006 230.32840
228.0 0.00439 230.13841 230.13684
222.0 0.00450 229.94714 229.94559
219.0 0.00457 229.75618 229.75465
236.0 0.00424 229.56549 229.56400
248.0 0.00403 229.37514 229.37367
235.0 0.00426 229.18509 229.18365
258.0 0.00388 228.99530 228.99390
240.0 0.00417 228.80586 228.80449
226.0 0.00442 228.61670 228.61537
230.0 0.00435 228.42780 228.42650
256.0 0.00391 228.23917 228.23795
219.0 0.00457 228.05086 228.04967
220.0 0.00455 227.86287 227.86171
199.0 0.00503 227.67514 227.67400
224.0 0.00446 227.48770 227.48657
212.0 0.00472 227.30049 227.29945
254.0 0.00394 227.11365 227.11263
241.0 0.00415 226.92703 226.92603
251.0 0.00398 226.74071 226.73976
245.0 0.00408 226.55469 226.55377
225.0 0.00444 226.36896 226.36807
253.0 0.00395 226.18350 226.18263
210.0 0.00476 225.99835 225.99754
234.0 0.00427 225.81349 225.81268
258.0 0.00388 225.62897 225.62817
235.0 0.00426 225.44467 225.44391
213.0 0.00469 225.26073 225.26001
207.0 0.00483 225.07706 225.07639
231.0 0.00433 224.89372 224.89305
220.0 0.00455 224.71066 224.71004
250.0 0.00400 224.52798 224.52734
235.0 0.00426 224.34554 224.34499
204.0 0.00490 224.16350 224.16293
240.0 0.00417 223.98174 223.98119
205.0 0.00488 223.80029 223.81827
243.0 0.00412 223.61923 223.63748
244.0 0.00410 223.43854 223.46622
193.0 0.00518 223.25816 223.28615
234.0 0.00427 223.07813 223.10651
221.0 0.00452 222.89845 222.92723
220.0 0.00455 222.71913 222.74828
227.0 0.00441 222.54021 222.56972
216.0 0.00463 222.36169 222.39157
238.0 0.00420 222.18352 222.21384
205.0 0.00488 222.00574 222.03650
213.0 0.00469 221.82835 221.85950
242.0 0.00413 221.65141 221.68298
235.0 0.00426 221.47485 221.50685
236.0 0.00424 221.29871 221.33113
227.0 0.00441 221.12303 221.15585
196.0 0.00510 220.94772 220.98102
240.0 0.00417 220.77289 220.80664
218.0 0.00459 220.59846 220.63268
224.0 0.00446 220.42456 220.45924
210.0 0.00476 220.25111 220.28625
227.0 0.00441 220.07809 220.11377
217.0 0.00461 219.90558 219.94174
239.0 0.00418 219.73357 219.77019
204.0 0.00490 219.56204 219.59920
207.0 0.00483 219.39101 219.42874
204.0 0.00490 219.22050 219.25876
207.0 0.00483 219.05054 219.08928
201.0 0.00498 218.88107 218.92041
213.0 0.00469 218.71213 218.75200
215.0 0.00465 218.54379 218.58427
208.0 0.00481 218.37601 218.41702
229.0 0.00437 218.20872 218.25040
192.0 0.00521 218.04205 218.08434
207.0 0.00483 217.87598 217.91890
220.0 0.00455 217.71051 217.75404
228.0 0.00439 217.54558 217.58981
216.0 0.00463 217.38133 217.42619
187.0 0.00535 217.21768 217.26326
212.0 0.00472 217.05467 217.10092
235.0 0.00426 216.89227 216.93922
212.0 0.00472 216.73051 216.77824
213.0 0.00469 216.56946 216.61797
207.0 0.00483 216.40901 216.45827
203.0 0.00493 216.24931 216.29933
228.0 0.00439 216.09026 216.14110
181.0 0.00552 215.93190 215.98361
218.0 0.00459 215.77429 215.82678
196.0 0.00510 215.61734 215.67065
221.0 0.00452 215.46117 215.51537
212.0 0.00472 215.30568 215.36079
215.0 0.00465 215.15102 215.20702
204.0 0.00490 214.99704 215.05400
233.0 0.00429 214.84384 214.90182
217.0 0.00461 214.69139 214.75038
245.0 0.00408 214.53978 214.59975
233.0 0.00429 214.38896 214.44991
216.0 0.00463 214.23891 214.30096
222.0 0.00450 214.08971 214.15285
194.0 0.00515 213.94130 214.00554
216.0 0.00463 213.79369 213.85918
229.0 0.00437 213.64697 213.71361
217.0 0.00461 213.50108 213.56892
186.0 0.00538 213.35608 213.42522
184.0 0.00543 213.21190 213.28236
191.0 0.00524 213.06866 213.14041
191.0 0.00524 212.92627 212.99940
223.0 0.00448 212.78479 212.85930
206.0 0.00485 212.64423 212.72020
200.0 0.00500 212.50455 212.58202
205.0 0.00488 212.36581 212.44479
220.0 0.00455 212.22807 212.30862
185.0 0.00541 212.09122 212.17339
224.0 0.00446 211.95529 212.03918
208.0 0.00481 211.82037 211.90594
217.0 0.00461 211.68646 211.77382
229.0 0.00437 211.55347 211.64270
213.0 0.00469 211.42148 211.51262
203.0 0.00493 211.29053 211.38358
221.0 0.00452 211.16057 211.25565
198.0 0.00505 211.03162 211.12885
218.0 0.00459 210.90372 211.00302
223.0 0.00448 210.77681 210.87837
191.0 0.00524 210.65103 210.75485
199.0 0.00503 210.52621 210.63245
221.0 0.00452 210.40248 210.51118
192.0 0.00521 210.27983 210.39110
198.0 0.00505 210.15828 210.27223
209.0 0.00478 210.03781 210.15448
187.0 0.00535 209.91843 210.03792
193.0 0.00518 209.80016 209.92258
192.0 0.00521 209.68300 209.80849
209.0 0.00478 209.56694 209.69565
215.0 0.00465 209.45204 209.58405
232.0 0.00431 209.33827 209.47369
221.0 0.00452 209.22566 209.36462
188.0 0.00532 209.11417 209.25688
196.0 0.00510 209.00388 209.15039
214.0 0.00467 208.89468 209.04532
176.0 0.00568 208.78674 208.94151
173.0 0.00578 208.67996 208.83913
192.0 0.00521 208.57436 208.73807
197.0 0.00508 208.46997 208.63843
205.0 0.00488 208.36681 208.54022
223.0 0.00448 208.26482 208.44345
206.0 0.00485 208.16405 208.34808
219.0 0.00457 208.06458 208.25429
197.0 0.00508 207.96623 208.16193
228.0 0.00439 207.86922 208.07114
185.0 0.00541 207.77347 207.98189
224.0 0.00446 207.67886 207.89418
214.0 0.00467 207.58563 207.80811
216.0 0.00463 207.49362 207.72369
210.0 0.00476 207.40286 207.64091
212.0 0.00472 207.31345 207.55983
198.0 0.00505 207.22527 207.48051
201.0 0.00498 207.13840 207.40302
209.0 0.00478 207.05280 207.32727
228.0 0.00439 206.96854 207.25342
198.0 0.00505 206.88560 207.18146
223.0 0.00448 206.80400 207.11151
222.0 0.00450 206.72365 207.04358
214.0 0.00467 206.64470 206.97772
200.0 0.00500 206.56703 206.91400
213.0 0.00469 206.49072 206.85254
237.0 0.00422 206.41577 206.79340
202.0 0.00495 206.34215 206.73665
212.0 0.00472 206.26991 206.68242
205.0 0.00488 206.19899 206.63086
188.0 0.00532 206.12947 206.58195
204.0 0.00490 206.06131 206.53603
191.0 0.00524 205.99451 206.49313
203.0 0.00493 205.92909 206.45343
219.0 0.00457 205.86505 206.41718
204.0 0.00490 205.80244 206.38457
197.0 0.00508 205.74117 206.35587
215.0 0.00465 205.68132 206.33136
194.0 0.00515 205.62286 206.31137
193.0 0.00518 205.56583 206.29628
198.0 0.00505 205.51018 206.28656
210.0 0.00476 205.45598 206.28270
202.0 0.00495 205.40314 206.28525
204.0 0.00490 205.35178 206.29504
209.0 0.00478 205.30177 206.31267
210.0 0.00476 205.25325 206.33931
212.0 0.00472 205.20612 206.37605
217.0 0.00461 205.16045 206.42421
218.0 0.00459 205.11618 206.48553
222.0 0.00450 205.07333 206.56200
183.0 0.00546 205.03200 206.65622
209.0 0.00478 204.99205 206.77148
221.0 0.00452 204.95355 206.91240
240.0 0.00417 204.91652 207.08566
231.0 0.00433 204.88092 207.30161
227.0 0.00441 204.84676 207.57713
227.0 0.00441 204.81404 207.94055
205.0 0.00488 204.78285 208.43874
238.0 0.00420 204.75305 209.14758
200.0 0.00500 204.72476 210.18509
252.0 0.00397 204.69786 211.72537
209.0 0.00478 204.67249 214.00905
259.0 0.00386 204.64853 217.34369
255.0 0.00392 204.62610 222.08366
298.0 0.003356 204.60507 228.57896
296.0 0.003378 204.58551 237.08617
300.0 0.003333 204.56746 247.64713
288.0 0.003472 204.55084 259.96838
366.0 0.002732 204.53575 273.34454
407.0 0.002457 204.52206 286.62479
424.0 0.002358 204.50989 298.24063
425.0 0.002353 204.49913 306.42548
472.0 0.002119 204.48996 309.66052
444.0 0.002252 204.48213 307.20636
463.0 0.002160 204.47580 299.45905
454.0 0.002203 204.47101 287.79190
372.0 0.002688 204.46761 274.04453
364.0 0.002747 204.46571 260.02182
314.0 0.003185 204.46529 247.11824
256.0 0.00391 204.46631 236.16211
289.0 0.003460 204.46884 227.46130
250.0 0.00400 204.47282 220.93958
261.0 0.00383 204.47827 216.28860
233.0 0.00429 204.48515 213.10347
209.0 0.00478 204.49359 210.98242
251.0 0.00398 204.50343 209.58575
221.0 0.00452 204.51476 208.65739
225.0 0.00444 204.52751 208.02115
235.0 0.00426 204.54173 207.56459
233.0 0.00429 204.55742 207.22026
212.0 0.00472 204.57460 206.94908
213.0 0.00469 204.59315 206.72865
184.0 0.00543 204.61320 206.54591
212.0 0.00472 204.63474 206.39284
197.0 0.00508 204.65770 206.26392
199.0 0.00503 204.68208 206.15523
204.0 0.00490 204.70793 206.06372
184.0 0.00543 204.73520 205.98703
215.0 0.00465 204.76396 205.92320
216.0 0.00463 204.79414 205.87061
203.0 0.00493 204.82571 205.82797
198.0 0.00505 204.85875 205.79410
204.0 0.00490 204.89323 205.76814
237.0 0.00422 204.92911 205.74919
180.0 0.00556 204.96643 205.73663
173.0 0.00578 205.00513 205.72990
224.0 0.00446 205.04529 205.72845
200.0 0.00500 205.08685 205.73187
212.0 0.00472 205.12984 205.73985
194.0 0.00515 205.17416 205.75192
186.0 0.00538 205.21994 205.76785
199.0 0.00503 205.26712 205.78748
192.0 0.00521 205.31570 205.81049
207.0 0.00483 205.36568 205.83670
211.0 0.00474 205.41699 205.86600
218.0 0.00459 205.46974 205.89813
223.0 0.00448 205.52383 205.93306
196.0 0.00510 205.57928 205.97055
221.0 0.00452 205.63615 206.01059
200.0 0.00500 205.69438 206.05307
210.0 0.00476 205.75392 206.09787
210.0 0.00476 205.81483 206.14487
229.0 0.00437 205.87712 206.19409
210.0 0.00476 205.94072 206.24536
207.0 0.00483 206.00572 206.29871
210.0 0.00476 206.07201 206.35400
205.0 0.00488 206.13963 206.41124
192.0 0.00521 206.20856 206.47037
201.0 0.00498 206.27882 206.53136
206.0 0.00485 206.35039 206.59407
205.0 0.00488 206.42329 206.65865
202.0 0.00495 206.49747 206.72481
225.0 0.00444 206.57298 206.79279
240.0 0.00417 206.64969 206.86235
206.0 0.00485 206.72778 206.93356
214.0 0.00467 206.80710 207.00635
193.0 0.00518 206.88776 207.08076
198.0 0.00505 206.96960 207.15669
200.0 0.00500 207.05276 207.23413
239.0 0.00418 207.13716 207.31313
193.0 0.00518 207.22279 207.39355
199.0 0.00503 207.30968 207.47546
225.0 0.00444 207.39778 207.55881
228.0 0.00439 207.48711 207.64362
196.0 0.00510 207.57770 207.72983
217.0 0.00461 207.66949 207.81738
195.0 0.00513 207.76247 207.90631
228.0 0.00439 207.85669 207.99666
203.0 0.00493 207.95206 208.08832
203.0 0.00493 208.04860 208.18132
210.0 0.00476 208.14642 208.27563
194.0 0.00515 208.24530 208.37126
200.0 0.00500 208.34541 208.46815
223.0 0.00448 208.44661 208.56631
221.0 0.00452 208.54903 208.66576
213.0 0.00469 208.65259 208.76645
204.0 0.00490 208.75726 208.86836
182.0 0.00549 208.86305 208.97153
228.0 0.00439 208.96997 209.07588
224.0 0.00446 209.07800 209.18141
186.0 0.00538 209.18712 209.28818
192.0 0.00521 209.29738 209.39610
198.0 0.00505 209.40869 209.50519
207.0 0.00483 209.52109 209.61543
211.0 0.00474 209.63454 209.72681
250.0 0.00400 209.74910 209.83934
190.0 0.00526 209.86472 209.95294
208.0 0.00481 209.98135 210.06767
210.0 0.00476 210.09903 210.18350
215.0 0.00465 210.21776 210.30049
204.0 0.00490 210.33748 210.41846
211.0 0.00474 210.45822 210.53754
196.0 0.00510 210.57997 210.65765
200.0 0.00500 210.70276 210.77882
213.0 0.00469 210.82646 210.90103
211.0 0.00474 210.95119 211.02426
214.0 0.00467 211.07684 211.14850
213.0 0.00469 211.20352 211.27371
206.0 0.00485 211.33113 211.39999
216.0 0.00463 211.45966 211.52722
204.0 0.00490 211.58914 211.65538
208.0 0.00481 211.71954 211.78448
185.0 0.00541 211.85088 211.91461
236.0 0.00424 211.98309 212.04562
211.0 0.00474 212.11618 212.17761
200.0 0.00500 212.25026 212.31049
214.0 0.00467 212.38509 212.44427
224.0 0.00446 212.52090 212.57898
214.0 0.00467 212.65750 212.71454
221.0 0.00452 212.79498 212.85100
201.0 0.00498 212.93329 212.98834
211.0 0.00474 213.07245 213.12653
190.0 0.00526 213.21239 213.26550
200.0 0.00500 213.35316 213.40540
208.0 0.00481 213.49475 213.54607
217.0 0.00461 213.63713 213.68761
195.0 0.00513 213.78024 213.82993
224.0 0.00446 213.92418 213.97298
231.0 0.00433 214.06889 214.11688
196.0 0.00510 214.21437 214.26152
194.0 0.00515 214.36057 214.40695
240.0 0.00417 214.50746 214.55310
196.0 0.00510 214.65511 214.70001
194.0 0.00515 214.80350 214.84764
216.0 0.00463 214.95253 214.99603
230.0 0.00435 215.10228 215.14510
183.0 0.00546 215.25272 215.29485
204.0 0.00490 215.40385 215.44531
232.0 0.00431 215.55563 215.59648
206.0 0.00485 215.70804 215.74823
200.0 0.00500 215.86113 215.90071
210.0 0.00476 216.01482 216.05380
211.0 0.00474 216.16916 216.20753
216.0 0.00463 216.32411 216.36188
192.0 0.00521 216.47961 216.51688
201.0 0.00498 216.63576 216.67244
206.0 0.00485 216.79245 216.82863
189.0 0.00529 216.94969 216.98537
198.0 0.00505 217.10754 217.14268
215.0 0.00465 217.26596 217.30054
209.0 0.00478 217.42485 217.45898
211.0 0.00474 217.58430 217.61792
221.0 0.00452 217.74431 217.77740
205.0 0.00488 217.90474 217.93745
213.0 0.00469 218.06573 218.09795
227.0 0.00441 218.22720 218.25893
193.0 0.00518 218.38908 218.42043
218.0 0.00459 218.55153 218.58240
208.0 0.00481 218.71431 218.74480
234.0 0.00427 218.87758 218.90767
228.0 0.00439 219.04128 219.07100
234.0 0.00427 219.20544 219.23471
193.0 0.00518 219.37000 219.39888
210.0 0.00476 219.53497 219.56343
204.0 0.00490 219.70024 219.72838
220.0 0.00455 219.86594 219.89372
202.0 0.00495 220.03206 220.05945
211.0 0.00474 220.19850 220.22554
231.0 0.00433 220.36523 220.39195
220.0 0.00455 220.53233 220.55873
230.0 0.00435 220.69977 220.72581
214.0 0.00467 220.86752 220.89319
213.0 0.00469 221.03558 221.04259
206.0 0.00485 221.20387 221.21080
225.0 0.00444 221.37247 221.37013
219.0 0.00457 221.54135 221.53900
227.0 0.00441 221.71051 221.70816
191.0 0.00524 221.87990 221.87758
209.0 0.00478 222.04951 222.04720
229.0 0.00437 222.21935 222.21706
209.0 0.00478 222.38943 222.38713
222.0 0.00450 222.55966 222.55739
205.0 0.00488 222.73010 222.72783
193.0 0.00518 222.90073 222.89845
225.0 0.00444 223.07153 223.06926
235.0 0.00426 223.24246 223.24022
209.0 0.00478 223.41359 223.41136
200.0 0.00500 223.58484 223.58260
216.0 0.00463 223.75620 223.75400
237.0 0.00422 223.92766 223.92546
192.0 0.00521 224.09929 224.09708
219.0 0.00457 224.27092 224.26871
228.0 0.00439 224.44269 224.44051
201.0 0.00498 224.61453 224.61235
198.0 0.00505 224.78639 224.78427
215.0 0.00465 224.95833 224.95621
216.0 0.00463 225.13031 225.12820
212.0 0.00472 225.30232 225.30017
205.0 0.00488 225.47433 225.47221
237.0 0.00422 225.64636 225.64429
238.0 0.00420 225.81837 225.81631
206.0 0.00485 225.99037 225.98831
240.0 0.00417 226.16237 226.16034
217.0 0.00461 226.33430 226.33223
217.0 0.00461 226.50618 226.50418
187.0 0.00535 226.67798 226.67598
206.0 0.00485 226.84973 226.84779
224.0 0.00446 227.02144 227.01942
211.0 0.00474 227.19304 227.19109
228.0 0.00439 227.36450 227.36253
220.0 0.00455 227.53586 227.53392
221.0 0.00452 227.70711 227.70518
230.0 0.00435 227.87822 227.87630
232.0 0.00431 228.04918 228.04727
236.0 0.00424 228.21997 228.21806
222.0 0.00450 228.39059 228.38870
219.0 0.00457 228.56107 228.55919
213.0 0.00469 228.73132 228.72949
226.0 0.00442 228.90137 228.89958
218.0 0.00459 229.07120 229.06941
227.0 0.00441 229.24088 229.23907
239.0 0.00418 229.41028 229.40851
246.0 0.00407 229.57942 229.57767
218.0 0.00459 229.74835 229.74661
208.0 0.00481 229.91696 229.91528
209.0 0.00478 230.08537 230.08365
207.0 0.00483 230.25343 230.25175
209.0 0.00478 230.42125 230.41954
246.0 0.00407 230.58871 230.58707
233.0 0.00429 230.75589 230.75426
236.0 0.00424 230.92274 230.92111
231.0 0.00433 231.08928 231.08765
210.0 0.00476 231.25539 231.25383
229.0 0.00437 231.42120 231.41966
238.0 0.00420 231.58665 231.58510
243.0 0.00412 231.75172 231.75020
225.0 0.00444 231.91638 231.97310
213.0 0.00469 232.08067 232.13789
224.0 0.00446 232.24457 232.30225
240.0 0.00417 232.40799 232.46623
218.0 0.00459 232.57100 232.65894
248.0 0.00403 232.73360 232.82233
247.0 0.00405 232.89574 232.98524
245.0 0.00408 233.05740 233.14774
209.0 0.00478 233.21864 233.30974
212.0 0.00472 233.37932 233.47131
231.0 0.00433 233.53960 233.63239
226.0 0.00442 233.69936 233.79297
249.0 0.00402 233.85857 233.95306
226.0 0.00442 234.01732 234.11269
224.0 0.00446 234.17548 234.27173
215.0 0.00465 234.33311 234.43025
217.0 0.00461 234.49025 234.58827
220.0 0.00455 234.64677 234.74574
235.0 0.00426 234.80278 234.90263
233.0 0.00429 234.95821 235.05902
237.0 0.00422 235.11298 235.21478
210.0 0.00476 235.26726 235.36995
216.0 0.00463 235.42084 235.52460
252.0 0.00397 235.57390 235.67862
238.0 0.00420 235.72626 235.83199
216.0 0.00463 235.87801 235.98477
233.0 0.00429 236.02913 242.65372
219.0 0.00457 236.17963 242.86647
226.0 0.00442 236.32939 243.07939
228.0 0.00439 236.47853 246.52893
219.0 0.00457 236.62694 246.77271
234.0 0.00427 236.77473 247.01711
210.0 0.00476 236.92178 247.26221
224.0 0.00446 237.06816 247.50795
240.0 0.00417 237.21382 247.75455
221.0 0.00452 237.35870 248.00183
222.0 0.00450 237.50293 248.24986
241.0 0.00415 237.64635 248.49869
244.0 0.00410 237.78906 248.74831
228.0 0.00439 237.93100 248.99876
240.0 0.00417 238.07214 249.25012
257.0 0.00389 238.21255 249.50229
238.0 0.00420 238.35214 249.75540
221.0 0.00452 238.49098 250.74878
248.0 0.00403 238.62897 251.00893
224.0 0.00446 238.76616 251.26997
227.0 0.00441 238.90256 251.89923
250.0 0.00400 239.03807 252.16502
232.0 0.00431 239.17279 252.43205
260.0 0.00385 239.30670 252.70016
217.0 0.00461 239.43971 252.96954
248.0 0.00403 239.57184 253.24017
270.0 0.00370 239.70311 253.51207
230.0 0.00435 239.83354 253.78528
220.0 0.00455 239.96303 254.05988
254.0 0.00394 240.09167 254.33588
253.0 0.00395 240.21941 254.61330
231.0 0.00433 240.34621 254.89215
232.0 0.00431 240.47211 255.17265
238.0 0.00420 240.59706 255.45465
242.0 0.00413 240.72113 255.73830
222.0 0.00450 240.84418 256.02359
247.0 0.00405 240.96634 256.31055
249.0 0.00402 241.08751 256.59937
234.0 0.00427 241.20778 256.88992
256.0 0.00391 241.32700 257.18246
243.0 0.00412 241.44524 257.47687
231.0 0.00433 241.56259 257.77322
252.0 0.00397 241.67883 258.07169
237.0 0.00422 241.79416 258.37228
252.0 0.00397 241.90842 258.67502
240.0 0.00417 242.02171 258.97998
249.0 0.00402 242.13396 259.28729
227.0 0.00441 242.24515 259.59698
265.0 0.00377 242.35533 259.90912
239.0 0.00418 242.46448 260.22379
265.0 0.00377 242.57257 260.54108
250.0 0.00400 242.67961 260.86111
226.0 0.00442 242.78555 261.18384
247.0 0.00405 242.89044 261.50949
262.0 0.00382 242.99425 261.83813
231.0 0.00433 243.09694 262.16977
255.0 0.00392 243.19862 262.50452
250.0 0.00400 243.29913 262.84259
243.0 0.00412 243.39854 263.18393
263.0 0.00380 243.49689 263.52878
245.0 0.00408 243.59410 263.87717
265.0 0.00377 243.69017 264.22928
256.0 0.00391 243.78511 264.58514
241.0 0.00415 243.87894 264.94492
250.0 0.00400 243.97157 265.30878
264.0 0.00379 244.06311 265.67679
263.0 0.00380 244.15344 266.04907
247.0 0.00405 244.24268 266.42590
283.0 0.00353 244.33073 266.80722
254.0 0.00394 244.41759 267.19327
260.0 0.00385 244.50328 267.58432
271.0 0.00369 244.58777 267.98032
261.0 0.00383 244.67111 268.38165
261.0 0.00383 244.75320 268.78830
257.0 0.00389 244.83412 269.20056
266.0 0.00376 244.91383 269.61859
276.0 0.00362 244.99234 270.04263
244.0 0.00410 245.06958 270.47275
288.0 0.003472 245.14568 270.90924
248.0 0.00403 245.22049 271.35226
242.0 0.00413 245.29411 271.80222
288.0 0.003472 245.36644 272.25916
298.0 0.003356 245.43758 272.72333
302.0 0.003311 245.50742 273.19510
314.0 0.003185 245.57603 273.67459
286.0 0.003497 245.64339 274.16208
283.0 0.00353 245.70952 274.65799
281.0 0.00356 245.77431 275.16248
287.0 0.003484 245.83786 275.67603
300.0 0.003333 245.90015 276.19870
292.0 0.003425 245.96112 276.73096
291.0 0.003436 246.02080 277.27316
276.0 0.00362 246.07922 277.82568
324.0 0.003086 246.13631 278.38876
282.0 0.00355 246.19209 278.96292
291.0 0.003436 246.24663 279.54849
288.0 0.003472 246.29984 280.14597
318.0 0.003145 246.35173 280.75568
284.0 0.00352 246.40230 281.37808
286.0 0.003497 246.45154 282.01379
295.0 0.003390 246.49945 282.66321
307.0 0.003257 246.54604 283.32681
332.0 0.003012 246.59129 284.00519
297.0 0.003367 246.63519 284.69891
293.0 0.003413 246.67778 285.40863
315.0 0.003175 246.71901 286.13483
285.0 0.00351 246.75887 286.87820
306.0 0.003268 246.79744 287.63947
349.0 0.002865 246.83461 288.41937
323.0 0.003096 246.87041 289.21851
309.0 0.003236 246.90488 290.03778
333.0 0.003003 246.93797 290.87796
336.0 0.002976 246.96970 291.73996
335.0 0.002985 247.00005 292.62454
322.0 0.003106 247.02899 293.53271
335.0 0.002985 247.05656 294.46548
293.0 0.003413 247.08281 295.42389
327.0 0.003058 247.10762 296.40897
312.0 0.003205 247.13107 297.42188
362.0 0.002762 247.15311 298.46393
349.0 0.002865 247.17377 299.53619
319.0 0.003135 247.19302 300.64020
356.0 0.002809 247.21089 301.77719
339.0 0.002950 247.22734 302.94873
401.0 0.002494 247.24234 304.15637
343.0 0.002915 247.25604 305.40173
339.0 0.002950 247.26825 306.68661
326.0 0.003067 247.27907 308.01279
333.0 0.003003 247.28848 309.38223
360.0 0.002778 247.29649 310.79697
324.0 0.003086 247.30307 312.25925
389.0 0.002571 247.30823 313.77133
335.0 0.002985 247.31195 315.33557
402.0 0.002488 247.31425 316.95474
369.0 0.002710 247.31517 318.63141
376.0 0.002660 247.31464 320.36862
363.0 0.002755 247.31265 322.16940
346.0 0.002890 247.30922 324.03708
411.0 0.002433 247.30438 325.97522
350.0 0.002857 247.29811 327.98752
338.0 0.002959 247.29041 330.07788
409.0 0.002445 247.28123 332.25070
396.0 0.002525 247.27065 334.51044
363.0 0.002755 247.25859 336.86200
387.0 0.002584 247.24515 339.31055
382.0 0.002618 247.23022 341.86166
395.0 0.002532 247.21385 344.52130
457.0 0.002188 247.19603 347.29587
379.0 0.002639 247.17676 350.19226
385.0 0.002597 247.15608 353.21783
372.0 0.002688 247.13393 356.38049
403.0 0.002481 247.11032 359.68890
427.0 0.002342 247.08527 363.15225
410.0 0.002439 247.05875 366.78055
425.0 0.002353 247.03079 370.58450
371.0 0.002695 247.00140 374.57578
418.0 0.002392 246.97047 378.76715
423.0 0.002364 246.93817 383.17218
374.0 0.002674 246.90439 387.80588
399.0 0.002506 246.86917 392.68439
447.0 0.002237 246.83244 397.82550
431.0 0.002320 246.79431 403.24838
459.0 0.002179 246.75471 408.97433
444.0 0.002252 246.71365 415.02615
448.0 0.002232 246.67108 421.42935
438.0 0.002283 246.62717 428.21164
468.0 0.002137 246.58170 435.40369
459.0 0.002179 246.53482 443.03912
444.0 0.002252 246.48648 451.15515
423.0 0.002364 246.43666 459.79306
476.0 0.002101 246.38539 468.99850
439.0 0.002278 246.33269 478.82233
497.0 0.002012 246.27850 489.32101
487.0 0.002053 246.22290 500.55774
478.0 0.002092 246.16580 512.60297
468.0 0.002137 246.10724 525.53613
514.0 0.001946 246.04724 539.44635
469.0 0.002132 245.98584 554.43402
530.0 0.001887 245.92293 570.61292
580.0 0.001724 245.85860 588.11206
548.0 0.001825 245.79277 607.07819
583.0 0.001715 245.72549 627.67896
617.0 0.001621 245.65683 650.10638
632.0 0.001582 245.58664 674.58148
648.0 0.001543 245.51505 701.35901
717.0 0.001395 245.44199 730.73431
740.0 0.001351 245.36749 763.05176
833.0 0.001200 245.29156 798.71332
896.0 0.001116 245.21417 838.19202
907.0 0.001103 245.13536 882.04688
1002.0 0.000998 245.05508 930.94464
1192.0 0.000839 244.97340 985.68835
1218.0 0.000821 244.89026 1047.26196
1405.0 0.000712 244.80566 1116.90137
1558.0 0.000642 244.71962 1196.21765
1702.0 0.000588 244.63220 1287.41638
1920.0 0.000521 244.54332 1393.68640
2168.0 0.000461 244.45302 1519.87537
2340.0 0.000427 244.36127 1673.59778
2684.0 0.000373 244.26813 1866.94446
2977.0 0.0003359 244.17351 2118.88940
3406.0 0.0002936 244.07753 2458.32104
4042.0 0.0002474 243.98006 2927.27319
4537.0 0.0002204 243.88123 3583.45605
5583.0 0.0001791 243.78094 4500.67969
6689.0 0.0001495 243.67924 5765.47461
8145.0 0.0001228 243.57617 7468.43408
9947.0 0.0001005 243.47168 9689.61719
12443.0 0.0000804 243.36578 12478.68555
15084.0 0.0000663 243.25847 15831.29590
18036.0 0.0000554 243.14972 19663.12500
21723.0 0.0000460 243.03961 23781.82031
25463.0 0.0000393 242.92807 27861.17773
28849.0 0.00003466 242.81519 31441.93555
32163.0 0.00003109 242.70088 34011.96875
34556.0 0.00002894 242.58516 35183.01953
35410.0 0.00002824 242.46806 34840.69531
34736.0 0.00002879 242.34962 33121.44141
32660.0 0.00003062 242.22974 30294.37500
29178.0 0.00003427 242.10854 26704.18359
24989.0 0.0000400 241.98590 22746.80273
20550.0 0.0000487 241.86191 18800.99805
16472.0 0.0000607 241.73653 15154.62598
12657.0 0.0000790 241.60983 11979.00391
9251.0 0.0001081 241.48178 9343.58301
6744.0 0.0001483 241.35231 7243.78320
4856.0 0.0002059 241.22151 5627.97754
3686.0 0.0002713 241.08936 4419.94824
2795.0 0.000358 240.95583 3536.17139
2293.0 0.000436 240.82098 2897.77881
1845.0 0.000542 240.68475 2437.44043
1507.0 0.000664 240.54726 2102.02124
1381.0 0.000724 240.40836 1852.22559
1210.0 0.000826 240.26814 1660.52649
1117.0 0.000895 240.12660 1508.46851
984.0 0.001016 239.98370 1384.05713
912.0 0.001096 239.83955 1279.61865
905.0 0.001105 239.69400 1190.22363
859.0 0.001164 239.54718 1112.62646
816.0 0.001225 239.39900 1044.59668
794.0 0.001259 239.24959 984.52087
748.0 0.001337 239.09877 931.17346
696.0 0.001437 238.94675 883.58612
672.0 0.001488 238.79337 840.97174
687.0 0.001456 238.63873 802.67932
708.0 0.001412 238.48282 768.16321
703.0 0.001422 238.32561 736.96326
681.0 0.001468 238.16707 708.68781
610.0 0.001639 238.00731 683.00269
693.0 0.001443 237.84624 659.62146
622.0 0.001608 237.68394 638.29718
622.0 0.001608 237.52034 618.81689
611.0 0.001637 237.35551 600.99591
596.0 0.001678 237.18941 584.67365
570.0 0.001754 237.02206 569.71057
607.0 0.001647 236.85345 555.98486
566.0 0.001767 236.68361 543.38977
533.0 0.001876 236.51254 531.83252
578.0 0.001730 236.34029 521.23163
554.0 0.001805 236.16672 511.51617
553.0 0.001808 235.99199 502.62421
557.0 0.001795 235.81599 494.50195
535.0 0.001869 235.63881 487.10315
561.0 0.001783 235.46043 480.38800
562.0 0.001779 235.28085 474.32288
534.0 0.001873 235.10002 468.87991
513.0 0.001949 234.91809 464.03677
557.0 0.001795 234.73483 459.77588
556.0 0.001799 234.55051 456.08502
529.0 0.001890 234.36499 452.95685
583.0 0.001715 234.17827 450.38892
552.0 0.001812 233.99036 448.38425
538.0 0.001859 233.80130 446.95102
583.0 0.001715 233.61111 446.10333
569.0 0.001757 233.41975 445.86154
529.0 0.001890 233.22725 447.76630
569.0 0.001757 233.03363 448.84082
583.0 0.001715 232.83882 450.62881
571.0 0.001751 232.64291 453.18549
582.0 0.001718 232.44586 456.57932
559.0 0.001789 232.24771 461.65546
568.0 0.001761 232.04842 467.00742
596.0 0.001678 231.84802 473.52515
600.0 0.001667 231.64650 481.38864
598.0 0.001672 231.44394 490.84164
608.0 0.001645 231.24022 502.22299
662.0 0.001511 231.03545 516.01367
690.0 0.001449 230.82957 532.90375
683.0 0.001464 230.62268 553.88220
727.0 0.001376 230.41469 580.34979
749.0 0.001335 230.20560 614.24847
780.0 0.001282 229.99547 658.19165
878.0 0.001139 229.78430 715.56842
987.0 0.001013 229.57207 790.58441
1118.0 0.000894 229.35878 888.19220
1236.0 0.000809 229.14445 1013.86951
1326.0 0.000754 228.92914 1173.21082
1494.0 0.000669 228.71275 1371.32336
1728.0 0.000579 228.49536 1612.03479
2004.0 0.000499 228.27698 1896.93921
2293.0 0.000436 228.05760 2224.26660
2671.0 0.000374 227.83720 2587.52710
3019.0 0.0003312 227.61583 2973.87354
3344.0 0.0002990 227.39343 3362.40503
3669.0 0.0002726 227.17007 3723.49512
4134.0 0.0002419 226.94571 4021.36499
4177.0 0.0002394 226.72043 4221.65479
4432.0 0.0002256 226.49417 4301.62305
4411.0 0.0002267 226.26697 4256.07275
4364.0 0.0002291 226.03877 4095.18213
4191.0 0.0002386 225.80968 3838.69238
3831.0 0.0002610 225.57961 3512.04395
3361.0 0.0002975 225.34860 3143.90405
2994.0 0.0003340 225.11673 2762.49731
2537.0 0.000394 224.88391 2391.53638
2213.0 0.000452 224.65019 2047.95459
1897.0 0.000527 224.41551 1741.86548
1451.0 0.000689 224.17998 1477.75049
1274.0 0.000785 223.94354 1255.92664
992.0 0.001008 223.70627 1073.87439
825.0 0.001212 223.46802 927.33643
736.0 0.001359 223.22894 811.19385
587.0 0.001704 222.98904 720.13800
513.0 0.001949 222.74826 649.14569
481.0 0.002079 222.50659 593.77356
442.0 0.002262 222.26411 550.29956
404.0 0.002475 222.02078 515.74438
432.0 0.002315 221.77663 487.81403
415.0 0.002410 221.53163 464.79813
377.0 0.002653 221.28581 445.45401
375.0 0.002667 221.03920 428.89471
357.0 0.002801 220.79181 414.49237
359.0 0.002786 220.54355 401.80215
320.0 0.003125 220.29456 390.50497
359.0 0.002786 220.04474 380.36658
338.0 0.002959 219.79422 371.21039
365.0 0.002740 219.54286 362.89886
328.0 0.003049 219.29074 355.32166
318.0 0.003145 219.03789 348.38843
320.0 0.003125 218.78427 342.02335
303.0 0.003300 218.52989 336.16211
301.0 0.003322 218.27484 330.74966
289.0 0.003460 218.01901 325.73828
290.0 0.003448 217.76247 321.08667
303.0 0.003300 217.50523 316.75861
323.0 0.003096 217.24728 312.72247
299.0 0.003344 216.98857 308.95047
290.0 0.003448 216.72925 305.41800
292.0 0.003425 216.46919 302.10342
295.0 0.003390 216.20851 298.98746
286.0 0.003497 215.94710 296.05295
290.0 0.003448 215.68503 293.28455
279.0 0.00358 215.42235 290.66870
301.0 0.003322 215.15898 288.19315
293.0 0.003413 214.89494 285.84680
284.0 0.00352 214.63031 283.61978
329.0 0.003040 214.36507 281.50320
247.0 0.00405 214.09918 279.48886
285.0 0.00351 213.83264 277.56967
257.0 0.00389 213.56554 275.73880
262.0 0.00382 213.29787 273.99030
251.0 0.00398 213.02953 272.31860
284.0 0.00352 212.76067 270.71881
253.0 0.00395 212.49117 269.18625
253.0 0.00395 212.22118 267.71689
243.0 0.00412 211.95056 266.30670
251.0 0.00398 211.67940 264.95233
262.0 0.00382 211.40770 263.65048
265.0 0.00377 211.13548 262.39822
252.0 0.00397 210.86272 261.19287
248.0 0.00403 210.58939 260.03186
253.0 0.00395 210.31558 258.91287
260.0 0.00385 210.04124 257.83383
270.0 0.00370 209.76645 256.79276
251.0 0.00398 209.49110 255.78787
248.0 0.00403 209.21527 254.81738
257.0 0.00389 208.93900 253.87984
290.0 0.003448 208.66226 252.97383
267.0 0.00375 208.38501 252.09801
249.0 0.00402 208.10732 251.25111
265.0 0.00377 207.82916 250.43214
262.0 0.00382 207.55058 249.63991
249.0 0.00402 207.27155 248.87355
255.0 0.00392 206.99211 248.13222
246.0 0.00407 206.71220 247.41501
264.0 0.00379 206.43198 246.72124
260.0 0.00385 206.15128 246.05016
241.0 0.00415 205.87021 245.46529
262.0 0.00382 205.58867 244.83842
259.0 0.00386 205.30684 244.23264
253.0 0.00395 205.02458 243.64743
266.0 0.00376 204.74199 243.08244
238.0 0.00420 204.45903 242.56929
255.0 0.00392 204.17570 242.04385
240.0 0.00417 203.89203 241.53773
235.0 0.00426 203.60805 241.05061
242.0 0.00413 203.32370 240.58232
232.0 0.00431 203.03900 240.13266
241.0 0.00415 202.75409 239.70161
250.0 0.00400 202.46878 239.28914
262.0 0.00382 202.18320 238.89497
224.0 0.00446 201.89731 238.51942
254.0 0.00394 201.61115 238.16254
240.0 0.00417 201.32468 237.82405
227.0 0.00441 201.03801 237.50453
253.0 0.00395 200.75104 237.20384
224.0 0.00446 200.46382 236.92238
260.0 0.00385 200.17635 236.66028
228.0 0.00439 199.88864 236.41797
224.0 0.00446 199.60071 236.19577
238.0 0.00420 199.31253 235.99403
216.0 0.00463 199.02414 235.81325
216.0 0.00463 198.73553 235.65390
226.0 0.00442 198.44672 235.51659
202.0 0.00495 198.15776 235.40187
246.0 0.00407 197.86856 235.31049
241.0 0.00415 197.57921 235.24315
235.0 0.00426 197.28966 235.20073
249.0 0.00402 196.99994 235.18410
218.0 0.00459 196.71014 235.19429
240.0 0.00417 196.42017 235.23218
250.0 0.00400 196.12997 235.29912
256.0 0.00391 195.83969 235.39626
255.0 0.00392 195.54932 235.52502
229.0 0.00437 195.25876 235.68684
213.0 0.00469 194.96812 235.88335
235.0 0.00426 194.67741 236.11629
208.0 0.00481 194.38658 236.38763
250.0 0.00400 194.09567 236.69926
231.0 0.00433 193.80464 237.05353
238.0 0.00420 193.51360 237.45277
240.0 0.00417 193.22244 237.89980
221.0 0.00452 192.93126 238.39734
257.0 0.00389 192.64003 239.09634
214.0 0.00467 192.34869 239.70572
243.0 0.00412 192.05734 240.37602
237.0 0.00422 191.76601 241.11116
255.0 0.00392 191.47461 241.91571
214.0 0.00467 191.18323 242.86835
208.0 0.00481 190.89180 243.82745
233.0 0.00429 190.60040 244.87207
240.0 0.00417 190.30899 246.00873
246.0 0.00407 190.01762 247.24463
254.0 0.00394 189.72623 248.58762
239.0 0.00418 189.43492 250.04642
216.0 0.00463 189.14359 251.63077
231.0 0.00433 188.85240 253.35150
258.0 0.00388 188.56119 255.22040
235.0 0.00426 188.27008 257.25089
234.0 0.00427 187.97897 259.45782
243.0 0.00412 187.68800 261.79962
265.0 0.00377 187.39705 264.41217
227.0 0.00441 187.10625 267.25784
245.0 0.00408 186.81551 270.36038
256.0 0.00391 186.52492 265.83545
270.0 0.00370 186.23444 269.60229
255.0 0.00392 185.94400 273.71771
273.0 0.00366 185.65372 278.22168
285.0 0.00351 185.36357 283.16010
277.0 0.00361 185.07355 288.58551
266.0 0.00376 184.78372 294.55887
308.0 0.003247 184.49400 301.15076
315.0 0.003175 184.20454 308.44360
336.0 0.002976 183.91515 316.53375
327.0 0.003058 183.62593 325.53503
404.0 0.002475 183.33690 335.58231
386.0 0.002591 183.04808 346.83780
419.0 0.002387 182.75946 359.49988
433.0 0.002309 182.47104 373.81729
458.0 0.002183 182.18283 390.11377
464.0 0.002155 181.89482 408.83112
519.0 0.001927 181.60710 430.60318
586.0 0.001706 181.31955 456.38028
610.0 0.001639 181.03226 487.62683
653.0 0.001531 180.74519 526.61603
714.0 0.001401 180.45837 576.83264
806.0 0.001241 180.17183 643.46472
906.0 0.001104 179.88553 733.91467
978.0 0.001022 179.59952 858.19061
1117.0 0.000895 179.31392 1028.96826
1332.0 0.000751 179.02844 1261.08069
1677.0 0.000596 178.74332 1570.22620
1977.0 0.000506 178.45845 1970.79956
2417.0 0.000414 178.17395 2472.92480
2933.0 0.0003409 177.88972 3078.88574
3531.0 0.0002832 177.60579 3779.09766
4343.0 0.0002303 177.32227 4547.50928
5113.0 0.0001956 177.03909 5336.60742
5904.0 0.0001694 176.75616 6074.53125
6667.0 0.0001500 176.47363 6672.19482
7300.0 0.0001370 176.19145 7047.26807
7324.0 0.0001365 175.90964 7158.02930
7363.0 0.0001358 175.62820 7012.89990
6963.0 0.0001436 175.34708 6649.32471
6314.0 0.0001584 175.06641 6111.26025
5632.0 0.0001776 174.78609 5447.20850
4731.0 0.0002114 174.50621 4715.87158
4081.0 0.0002450 174.22672 3978.81714
3215.0 0.0003110 173.94763 3286.91064
2651.0 0.000377 173.66893 2672.84082
2038.0 0.000491 173.39067 2151.84790
1573.0 0.000636 173.11287 1726.04187
1221.0 0.000819 172.83540 1388.93152
966.0 0.001035 172.55846 1129.12793
826.0 0.001211 172.28200 933.16693
695.0 0.001439 172.00592 787.54541
616.0 0.001623 171.73033 680.05029
470.0 0.002128 171.45523 600.46246
451.0 0.002217 171.18053 540.76166
446.0 0.002242 170.90636 494.98904
349.0 0.002865 170.63266 458.91760
326.0 0.003067 170.35945 429.65762
338.0 0.002959 170.08682 405.28470
315.0 0.003175 169.81462 384.53201
309.0 0.003236 169.54291 366.56119
295.0 0.003390 169.27174 350.80457
268.0 0.00373 169.00107 336.86230
307.0 0.003257 168.73094 324.44028
292.0 0.003425 168.46136 313.31204
246.0 0.00407 168.19235 303.29703
251.0 0.00398 167.92381 294.27261
244.0 0.00410 167.65594 286.06610
255.0 0.00392 167.38850 278.59827
229.0 0.00437 167.12170 271.78119
244.0 0.00410 166.85545 265.53943
240.0 0.00417 166.58978 259.82059
240.0 0.00417 166.32469 254.54398
252.0 0.00397 166.06020 249.67332
224.0 0.00446 165.79623 245.16640
245.0 0.00408 165.53299 240.98639
213.0 0.00469 165.27032 237.10083
224.0 0.00446 165.00818 233.48128
220.0 0.00455 164.74672 230.10275
223.0 0.00448 164.48592 226.94295
236.0 0.00424 164.22568 223.98221
200.0 0.00500 163.96611 221.20306
231.0 0.00433 163.70715 218.58978
228.0 0.00439 163.44891 216.12854
195.0 0.00513 163.19128 213.80666
200.0 0.00500 162.93430 211.61293
214.0 0.00467 162.67793 209.53728
197.0 0.00508 162.42229 207.57051
215.0 0.00465 162.16731 205.70442
212.0 0.00472 161.91302 203.93143
207.0 0.00483 161.65938 202.24484
201.0 0.00498 161.40645 200.63847
218.0 0.00459 161.15430 199.10669
215.0 0.00465 160.90276 197.64435
223.0 0.00448 160.65190 196.24683
200.0 0.00500 160.40184 194.90971
215.0 0.00465 160.15242 193.62921
226.0 0.00442 159.90379 192.40175
205.0 0.00488 159.65582 191.22391
248.0 0.00403 159.40862 190.09265
209.0 0.00478 159.16217 189.00534
202.0 0.00495 158.91643 187.95918
191.0 0.00524 158.67145 186.95198
171.0 0.00585 158.42723 185.98137
220.0 0.00455 158.18379 185.04538
189.0 0.00529 157.94109 184.14212
220.0 0.00455 157.69910 183.26988
187.0 0.00535 157.45795 182.42702
195.0 0.00513 157.21761 181.61201
215.0 0.00465 156.97800 180.82344
189.0 0.00529 156.73920 180.06006
205.0 0.00488 156.50116 179.32066
190.0 0.00526 156.26393 178.60411
191.0 0.00524 156.02753 177.90933
181.0 0.00552 155.79192 177.23532
213.0 0.00469 155.55710 176.58128
193.0 0.00518 155.32307 175.94630
190.0 0.00526 155.08994 175.32967
195.0 0.00513 154.85767 174.73048
190.0 0.00526 154.62613 174.14832
184.0 0.00543 154.39546 173.58220
198.0 0.00505 154.16562 173.03186
183.0 0.00546 153.93665 172.49660
164.0 0.00610 153.70848 171.97595
173.0 0.00578 153.48122 171.46941
175.0 0.00571 153.25478 170.97656
171.0 0.00585 153.02925 170.49702
161.0 0.00621 152.80453 170.03036
167.0 0.00599 152.58069 169.57632
180.0 0.00556 152.35773 169.13458
198.0 0.00505 152.13567 168.70485
206.0 0.00485 151.91443 168.28690
154.0 0.00649 151.69414 167.88045
204.0 0.00490 151.47476 167.48538
166.0 0.00602 151.25623 167.10149
185.0 0.00541 151.03859 166.72862
190.0 0.00526 150.82191 166.36674
172.0 0.00581 150.60606 166.01558
156.0 0.00641 150.39114 165.67534
186.0 0.00538 150.17717 165.34584
152.0 0.00658 149.96416 165.02708
181.0 0.00552 149.75200 163.97917
162.0 0.00617 149.54079 163.68723
140.0 0.00714 149.33055 163.40616
154.0 0.00649 149.12115 163.13608
163.0 0.00613 148.91275 162.50905
170.0 0.00588 148.70529 162.26422
158.0 0.00633 148.49879 162.03104
137.0 0.00730 148.29321 161.80981
158.0 0.00633 148.08859 161.60086
138.0 0.00725 147.88495 161.40471
185.0 0.00541 147.68230 161.22179
161.0 0.00621 147.48056 161.05261
163.0 0.00613 147.27979 160.89778
175.0 0.00571 147.08000 160.75810
174.0 0.00575 146.88118 160.63428
174.0 0.00575 146.68333 160.52731
160.0 0.00625 146.48648 160.43823
154.0 0.00649 146.29063 160.36826
169.0 0.00592 146.09576 160.31871
166.0 0.00602 145.90187 160.29120
169.0 0.00592 145.70898 160.28731
169.0 0.00592 145.51706 160.30928
150.0 0.00667 145.32619 160.35931
145.0 0.00690 145.13629 160.44009
168.0 0.00595 144.94740 160.55467
181.0 0.00552 144.75952 160.70654
151.0 0.00662 144.57272 160.89980
160.0 0.00625 144.38681 161.13928
172.0 0.00581 144.20204 161.43047
173.0 0.00578 144.01823 161.77994
175.0 0.00571 143.83545 162.19562
145.0 0.00690 143.65370 162.68710
148.0 0.00676 143.47296 163.26599
169.0 0.00592 143.29329 163.94766
195.0 0.00513 143.11470 164.75247
190.0 0.00526 142.93706 165.70842
181.0 0.00552 142.76051 166.85623
160.0 0.00625 142.58499 168.25586
191.0 0.00524 142.41054 169.99643
177.0 0.00565 142.23712 172.20961
171.0 0.00585 142.06476 175.08556
181.0 0.00552 141.89342 178.89055
170.0 0.00588 141.72324 183.98145
198.0 0.00505 141.55402 190.81294
208.0 0.00481 141.38589 199.92992
215.0 0.00465 141.21884 211.93884
241.0 0.00415 141.05286 227.45242
268.0 0.00373 140.88792 247.00877
246.0 0.00407 140.72404 270.96634
276.0 0.00362 140.56128 299.37936
291.0 0.003436 140.39957 331.85382
338.0 0.002959 140.23897 367.37384
365.0 0.002740 140.07941 404.10333
378.0 0.002646 139.92097 439.24362
460.0 0.002174 139.76360 469.19916
460.0 0.002174 139.60733 490.36627
420.0 0.002381 139.45212 500.39716
475.0 0.002105 139.29803 498.98193
450.0 0.002222 139.14499 487.38641
416.0 0.002404 138.99309 467.36377
394.0 0.002538 138.84232 440.63852
368.0 0.002717 138.69258 409.13904
327.0 0.003058 138.54396 375.19781
297.0 0.003367 138.39642 341.23773
271.0 0.00369 138.25002 309.26221
280.0 0.00357 138.10468 280.58560
246.0 0.00407 137.96051 255.85655
219.0 0.00457 137.81747 235.21402
189.0 0.00529 137.67551 218.45480
195.0 0.00513 137.53461 205.17055
187.0 0.00535 137.39487 194.85181
162.0 0.00617 137.25624 186.96408
162.0 0.00617 137.11876 181.00130
149.0 0.00671 136.98233 176.51787
145.0 0.00690 136.84705 173.14438
164.0 0.00610 136.71294 170.59023
157.0 0.00637 136.57990 168.63637
143.0 0.00699 136.44800 167.12396
176.0 0.00568 136.31721 165.94150
157.0 0.00637 136.18755 165.01241
145.0 0.00690 136.05905 164.28510
152.0 0.00658 135.93163 163.72459
147.0 0.00680 135.80537 163.30733
155.0 0.00645 135.68022 163.01715
163.0 0.00613 135.55623 162.84293
156.0 0.00641 135.43340 162.77675
178.0 0.00562 135.31165 162.81349
153.0 0.00654 135.19104 162.94992
161.0 0.00621 135.07155 163.18430
164.0 0.00610 134.95325 163.51643
172.0 0.00581 134.83607 163.94734
142.0 0.00704 134.72000 164.47971
154.0 0.00649 134.60513 165.11700
199.0 0.00503 134.49136 165.86429
148.0 0.00676 134.37875 166.72791
153.0 0.00654 134.26724 167.71590
173.0 0.00578 134.15689 168.83781
170.0 0.00588 134.04773 170.10524
164.0 0.00610 133.93965 171.53163
163.0 0.00613 133.83273 173.13339
174.0 0.00575 133.72699 174.92986
180.0 0.00556 133.62238 176.94427
197.0 0.00508 133.51891 179.20496
219.0 0.00457 133.41658 181.74689
195.0 0.00513 133.31541 184.61464
183.0 0.00546 133.21536 187.86589
207.0 0.00483 133.11647 191.57735
184.0 0.00543 133.01877 195.85249
194.0 0.00515 132.92216 200.83295
236.0 0.00424 132.82674 205.19110
226.0 0.00442 132.73244 212.24789
223.0 0.00448 132.63930 220.82230
239.0 0.00418 132.54732 231.38185
273.0 0.00366 132.45648 243.76903
282.0 0.00355 132.36678 260.26508
274.0 0.00365 132.27823 281.02274
295.0 0.003390 132.19084 307.12775
333.0 0.003003 132.10461 339.82224
380.0 0.002632 132.01949 380.47647
407.0 0.002457 131.93558 430.53818
451.0 0.002217 131.85277 491.44675
521.0 0.001919 131.77110 564.49158
599.0 0.001669 131.69061 650.58429
727.0 0.001376 131.61125 749.98822
819.0 0.001221 131.53305 861.58289
929.0 0.001076 131.45599 982.83429
1001.0 0.000999 131.38011 1109.31519
1107.0 0.000903 131.30534 1235.16321
1220.0 0.000820 131.23174 1354.01807
1320.0 0.000758 131.15924 1459.78833
1391.0 0.000719 131.08794 1546.18567
1511.0 0.000662 131.01778 1606.05640
1521.0 0.000657 130.94875 1631.81787
1614.0 0.000620 130.88084 1618.57996
1537.0 0.000651 130.81412 1567.32800
1411.0 0.000709 130.74854 1484.54163
1328.0 0.000753 130.68408 1378.58020
1152.0 0.000868 130.62073 1256.79858
1075.0 0.000930 130.55856 1125.53943
910.0 0.001099 130.49750 991.34155
801.0 0.001248 130.43764 860.97742
725.0 0.001379 130.37888 740.25238
574.0 0.001742 130.32127 633.00391
466.0 0.002146 130.26477 540.97675
371.0 0.002695 130.20941 464.26270
337.0 0.002967 130.15526 401.85370
275.0 0.00364 130.10217 352.10800
239.0 0.00418 130.05023 313.09717
249.0 0.00402 129.99940 282.85474
202.0 0.00495 129.94978 259.54367
197.0 0.00508 129.90120 241.55841
199.0 0.00503 129.85381 227.57071
203.0 0.00493 129.80751 216.53293
158.0 0.00633 129.76234 207.65265
163.0 0.00613 129.71831 200.35136
165.0 0.00606 129.67542 194.21797
170.0 0.00588 129.63364 188.96626
172.0 0.00581 129.59297 184.39777
160.0 0.00625 129.55339 180.37395
157.0 0.00637 129.51498 176.79646
153.0 0.00654 129.47769 175.15608
161.0 0.00621 129.44148 172.28175
172.0 0.00581 129.40642 169.68335
162.0 0.00617 129.37248 167.32573
157.0 0.00637 129.33960 165.17984
145.0 0.00690 129.30788 163.99629
160.0 0.00625 129.27727 162.20834
163.0 0.00613 129.24773 160.56839
139.0 0.00719 129.21931 159.06087
168.0 0.00595 129.19205 157.67201
163.0 0.00613 129.16580 156.39011
169.0 0.00592 129.14072 155.20465
150.0 0.00667 129.11671 154.10649
153.0 0.00654 129.09384 153.08762
137.0 0.00730 129.07196 152.14081
153.0 0.00654 129.05128 151.25972
168.0 0.00595 129.03163 150.43878
161.0 0.00621 129.01314 149.67296
123.0 0.00813 128.99565 148.95769
123.0 0.00813 128.97932 148.28894
159.0 0.00629 128.96405 147.66310
145.0 0.00690 128.94984 147.07703
153.0 0.00654 128.93675 146.52760
174.0 0.00575 128.92468 146.01222
141.0 0.00709 128.91377 145.52858
157.0 0.00637 128.90385 145.07437
141.0 0.00709 128.89507 144.64763
157.0 0.00637 128.88731 144.24660
145.0 0.00690 128.88063 143.86960
159.0 0.00629 128.87505 143.51512
166.0 0.00602 128.87051 143.18192
152.0 0.00658 128.86703 142.86856
137.0 0.00730 128.86461 142.57404
136.0 0.00735 128.86328 142.29723
152.0 0.00658 128.86298 142.03716
134.0 0.00746 128.86368 141.79300
154.0 0.00649 128.86548 141.56395
145.0 0.00690 128.86833 141.34912
132.0 0.00758 128.87219 141.14804
134.0 0.00746 128.87712 140.96001
146.0 0.00685 128.88310 140.78433
139.0 0.00719 128.89012 140.62059
145.0 0.00690 128.89818 140.46831
157.0 0.00637 128.90724 140.32698
143.0 0.00699 128.91736 140.19623
155.0 0.00645 128.92847 140.07576
145.0 0.00690 128.94064 139.96521
161.0 0.00621 128.95378 139.86417
161.0 0.00621 128.96800 139.77246
151.0 0.00662 128.98322 139.68980
137.0 0.00730 128.99945 139.61598
134.0 0.00746 129.01671 139.55080
151.0 0.00662 129.03496 139.49428
123.0 0.00813 129.05420 139.44600
134.0 0.00746 129.07449 139.40607
167.0 0.00599 129.09573 139.37431
128.0 0.00781 129.11798 139.35065
143.0 0.00699 129.14120 139.33514
139.0 0.00719 129.16547 139.32774
153.0 0.00654 129.19067 139.32848
135.0 0.00741 129.21690 139.33737
159.0 0.00629 129.24411 139.35461
139.0 0.00719 129.27229 139.38019
128.0 0.00781 129.30144 139.41441
154.0 0.00649 129.33154 139.45728
143.0 0.00699 129.36264 139.50917
146.0 0.00685 129.39471 139.57031
142.0 0.00704 129.42769 139.64105
152.0 0.00658 129.46173 139.72179
153.0 0.00654 129.49669 139.81291
152.0 0.00658 129.53258 139.91499
143.0 0.00699 129.56941 140.02850
160.0 0.00625 129.60722 140.15437
133.0 0.00752 129.64595 140.29303
144.0 0.00694 129.68565 140.44550
133.0 0.00752 129.72627 140.61292
144.0 0.00694 129.76782 140.79626
140.0 0.00714 129.81030 140.99692
139.0 0.00719 129.85374 141.21643
146.0 0.00685 129.89810 141.45659
153.0 0.00654 129.94334 141.71947
133.0 0.00752 129.98955 142.00761
154.0 0.00649 130.03662 142.32402
151.0 0.00662 130.08463 142.67247
148.0 0.00676 130.13359 143.05771
148.0 0.00676 130.18338 143.48567
145.0 0.00690 130.23405 143.96466
168.0 0.00595 130.28571 144.50511
141.0 0.00709 130.33821 145.12132
165.0 0.00606 130.39162 145.83237
149.0 0.00671 130.44589 146.66359
133.0 0.00752 130.50105 147.64839
155.0 0.00645 130.55711 148.82965
166.0 0.00602 130.61401 150.26137
152.0 0.00658 130.67184 152.00972
163.0 0.00613 130.73048 154.15331
164.0 0.00610 130.78999 156.78177
160.0 0.00625 130.85043 159.99348
180.0 0.00556 130.91168 163.89084
197.0 0.00508 130.97374 168.57323
199.0 0.00503 131.03668 174.12883
177.0 0.00565 131.10045 180.62355
223.0 0.00448 131.16510 188.08826
230.0 0.00435 131.23058 196.50340
219.0 0.00457 131.29684 205.77930
232.0 0.00431 131.36398 215.73195
242.0 0.00413 131.43195 226.05458
265.0 0.00377 131.50075 236.29337
269.0 0.00372 131.57033 245.84750
287.0 0.003484 131.64073 254.02328
279.0 0.00358 131.71196 260.15833
269.0 0.00372 131.78398 263.78174
286.0 0.003497 131.85681 264.72180
295.0 0.003390 131.93045 263.09073
280.0 0.00357 132.00487 259.17044
297.0 0.003367 132.08006 253.30232
264.0 0.00379 132.15602 245.85234
277.0 0.00361 132.23285 237.22998
247.0 0.00405 132.31038 227.89629
204.0 0.00490 132.38870 218.32481
220.0 0.00455 132.46780 208.94046
204.0 0.00490 132.54764 200.07419
203.0 0.00493 132.62831 191.94797
185.0 0.00541 132.70969 184.68492
183.0 0.00546 132.79179 178.32996
176.0 0.00568 132.87468 172.87076
144.0 0.00694 132.95831 168.25613
162.0 0.00617 133.04269 164.41060
181.0 0.00552 133.12778 161.24547
157.0 0.00637 133.21359 158.66765
175.0 0.00571 133.30016 156.58588
147.0 0.00680 133.38741 154.91498
145.0 0.00690 133.47542 153.57895
155.0 0.00645 133.56413 152.51222
166.0 0.00602 133.65358 151.65979
138.0 0.00725 133.74371 150.97688
142.0 0.00704 133.83450 150.42770
164.0 0.00610 133.92604 149.98444
119.0 0.00840 134.01826 149.62572
149.0 0.00671 134.11116 149.33502
163.0 0.00613 134.20479 149.10025
144.0 0.00694 134.29904 148.91187
152.0 0.00658 134.39397 148.76294
156.0 0.00641 134.48958 148.64787
151.0 0.00662 134.58585 148.56244
126.0 0.00794 134.68280 148.50325
155.0 0.00645 134.78040 148.46751
149.0 0.00671 134.87866 148.45287
152.0 0.00658 134.97754 148.45749
154.0 0.00649 135.07707 148.47960
148.0 0.00676 135.17722 148.51787
143.0 0.00699 135.27802 148.57108
133.0 0.00752 135.37949 148.63811
151.0 0.00662 135.48157 148.71800
144.0 0.00694 135.58423 148.80994
164.0 0.00610 135.68755 148.91325
140.0 0.00714 135.79146 149.02724
138.0 0.00725 135.89597 149.15138
140.0 0.00714 136.00107 149.22093
142.0 0.00704 136.10681 150.00481
144.0 0.00694 136.21309 150.16148
146.0 0.00685 136.31999 150.32669
162.0 0.00617 136.42749 150.50021
142.0 0.00704 136.53552 150.64977
158.0 0.00633 136.64413 150.83919
158.0 0.00633 136.75342 151.35510
155.0 0.00645 136.86311 151.56177
157.0 0.00637 136.97345 151.77574
132.0 0.00758 137.08430 151.99693
162.0 0.00617 137.19572 152.22522
149.0 0.00671 137.30774 152.46056
167.0 0.00599 137.42027 152.70290
163.0 0.00613 137.53333 152.95219
175.0 0.00571 137.64688 153.20850
159.0 0.00629 137.76094 153.47176
177.0 0.00565 137.87558 153.74202
127.0 0.00787 137.99078 154.01945
176.0 0.00568 138.10640 154.30392
171.0 0.00585 138.22256 154.59550
160.0 0.00625 138.33926 154.89449
151.0 0.00662 138.45642 155.20081
173.0 0.00578 138.57407 155.51460
186.0 0.00538 138.69217 155.83606
149.0 0.00671 138.81084 156.16521
154.0 0.00649 138.92998 156.50246
139.0 0.00719 139.04953 156.84773
163.0 0.00613 139.16957 157.20142
160.0 0.00625 139.29010 157.56360
173.0 0.00578 139.41106 157.93462
155.0 0.00645 139.53250 158.31459
137.0 0.00730 139.65439 158.70399
185.0 0.00541 139.77667 159.10295
159.0 0.00629 139.89941 159.51187
163.0 0.00613 140.02261 159.93106
162.0 0.00617 140.14622 160.36095
174.0 0.00575 140.27026 160.80194
160.0 0.00625 140.39473 161.25435
192.0 0.00521 140.51964 161.71883
183.0 0.00546 140.64490 162.19572
167.0 0.00599 140.77058 162.68558
162.0 0.00617 140.89668 163.18909
165.0 0.00606 141.02318 163.70680
154.0 0.00649 141.15005 164.23946
157.0 0.00637 141.27734 164.78770
176.0 0.00568 141.40492 165.35249
173.0 0.00578 141.53300 165.93449
173.0 0.00578 141.66133 166.53479
172.0 0.00581 141.79012 167.15439
194.0 0.00515 141.91925 167.79443
190.0 0.00526 142.04869 168.45599
179.0 0.00559 142.17850 169.14063
187.0 0.00535 142.30869 169.84969
170.0 0.00588 142.43916 170.58482
195.0 0.00513 142.57004 171.34785
193.0 0.00518 142.70119 172.84288
198.0 0.00505 142.83273 173.67125
165.0 0.00606 142.96448 174.53407
195.0 0.00513 143.09662 175.43423
193.0 0.00518 143.22908 176.37457
213.0 0.00469 143.36179 177.35873
179.0 0.00559 143.49487 178.39046
199.0 0.00503 143.62822 179.82478
196.0 0.00510 143.76181 180.96715
216.0 0.00463 143.89577 182.17223
206.0 0.00485 144.02994 183.44666
181.0 0.00552 144.16446 184.79816
205.0 0.00488 144.29916 186.23604
169.0 0.00592 144.43419 187.77142
204.0 0.00490 144.56943 189.41855
221.0 0.00452 144.70497 191.19550
191.0 0.00524 144.84077 193.12648
239.0 0.00418 144.97678 195.24460
205.0 0.00488 145.11302 197.59557
217.0 0.00461 145.24950 200.24356
243.0 0.00412 145.38623 203.27779
233.0 0.00429 145.52319 206.82089
226.0 0.00442 145.66037 211.03749
238.0 0.00420 145.79774 216.14209
215.0 0.00465 145.93538 222.40437
265.0 0.00377 146.07318 230.14882
249.0 0.00402 146.21115 239.74686
290.0 0.003448 146.34935 251.59816
278.0 0.00360 146.48775 266.10080
280.0 0.00357 146.62630 283.60965
335.0 0.002985 146.76509 304.38443
370.0 0.002703 146.90399 328.52698
363.0 0.002755 147.04312 355.90848
411.0 0.002433 147.18239 386.07654
447.0 0.002237 147.32182 418.14142
463.0 0.002160 147.46136 450.65256
545.0 0.001835 147.60112 481.54111
534.0 0.001873 147.74100 508.28110
617.0 0.001621 147.88106 528.41406
556.0 0.001799 148.02116 540.31256
566.0 0.001767 148.16148 543.68750
578.0 0.001730 148.30193 539.39679
585.0 0.001709 148.44243 528.73718
559.0 0.001789 148.58304 512.71155
480.0 0.002083 148.72383 492.55902
511.0 0.001957 148.86469 469.16422
457.0 0.002188 149.00566 443.86896
444.0 0.002252 149.14671 418.20926
421.0 0.002375 149.28787 393.33243
374.0 0.002674 149.42912 370.85922
356.0 0.002809 149.57048 351.16617
351.0 0.002849 149.71184 334.54688
349.0 0.002865 149.85333 321.03085
361.0 0.002770 149.99484 310.47321
308.0 0.003247 150.13644 302.62375
313.0 0.003195 150.27811 297.17899
291.0 0.003436 150.41980 293.81931
349.0 0.002865 150.56155 292.23654
333.0 0.003003 150.70337 292.15207
332.0 0.003012 150.84518 293.32761
330.0 0.003030 150.98705 295.57022
344.0 0.002907 151.12895 298.73209
357.0 0.002801 151.27087 302.70731
371.0 0.002695 151.41275 307.42679
362.0 0.002762 151.55475 312.85287
401.0 0.002494 151.69666 318.97348
417.0 0.002398 151.83862 325.79797
415.0 0.002410 151.98059 333.35345
406.0 0.002463 152.12251 341.68280
424.0 0.002358 152.26447 350.84326
448.0 0.002232 152.40639 360.90659
413.0 0.002421 152.54825 371.95953
465.0 0.002151 152.69014 384.10648
518.0 0.001931 152.83200 397.47250
449.0 0.002227 152.97383 412.20871
526.0 0.001901 153.11555 428.50027
542.0 0.001845 153.25732 446.57819
522.0 0.001916 153.39893 466.73807
577.0 0.001733 153.54056 489.36594
580.0 0.001724 153.68211 514.97693
622.0 0.001608 153.82359 544.26813
649.0 0.001541 153.96503 578.18933
713.0 0.001403 154.10637 618.03406
736.0 0.001359 154.24767 665.54828
766.0 0.001305 154.38885 723.05200
845.0 0.001183 154.52997 793.56232
1048.0 0.000954 154.67093 880.89642
1082.0 0.000924 154.81186 989.73236
1212.0 0.000825 154.95268 1125.59082
1423.0 0.000703 155.09337 1294.71167
1517.0 0.000659 155.23396 1503.79309
1748.0 0.000572 155.37445 1759.57813
1979.0 0.000505 155.51485 2068.28931
2492.0 0.000401 155.65501 2434.91455
2888.0 0.0003463 155.79514 2862.34717
3281.0 0.0003048 155.93512 3350.35767
3910.0 0.0002558 156.07491 3894.32813
4548.0 0.0002199 156.21461 4483.63135
5211.0 0.0001919 156.35417 5099.68457
5811.0 0.0001721 156.49358 5714.13574
6311.0 0.0001585 156.63278 6288.57764
6802.0 0.0001470 156.77184 6778.12939
7272.0 0.0001375 156.91075 7140.34961
7549.0 0.0001325 157.04945 7346.99268
7714.0 0.0001296 157.18803 7391.52783
7622.0 0.0001312 157.32643 7286.59814
7449.0 0.0001342 157.46458 7053.72412
6977.0 0.0001433 157.60263 6713.84570
6601.0 0.0001515 157.74043 6284.93945
5995.0 0.0001668 157.87805 5785.63818
5511.0 0.0001815 158.01540 5238.99414
4688.0 0.0002133 158.15263 4671.93604
4281.0 0.0002336 158.28961 4111.06592
3572.0 0.0002800 158.42641 3578.31860
3110.0 0.0003215 158.56294 3088.86475
2488.0 0.000402 158.69931 2651.24585
2216.0 0.000451 158.83542 2268.65210
1880.0 0.000532 158.97131 1940.42151
1566.0 0.000639 159.10687 1663.33179
1337.0 0.000748 159.24228 1432.60449
1107.0 0.000903 159.37746 1242.65454
985.0 0.001015 159.51231 1087.64709
828.0 0.001208 159.64696 961.89764
750.0 0.001333 159.78137 860.14856
593.0 0.001686 159.91544 777.73743
596.0 0.001678 160.04935 710.67786
550.0 0.001818 160.18291 655.66742
520.0 0.001923 160.31619 610.04773
438.0 0.002283 160.44919 571.73047
455.0 0.002198 160.58194 539.10852
419.0 0.002387 160.71440 510.96494
377.0 0.002653 160.84657 486.38803
384.0 0.002604 160.97842 464.69693
346.0 0.002890 161.10999 445.38235
371.0 0.002695 161.24124 428.05939
344.0 0.002907 161.37216 412.43222
357.0 0.002801 161.50278 398.26929
357.0 0.002801 161.63309 385.38480
351.0 0.002849 161.76309 373.62677
329.0 0.003040 161.89278 362.86829
321.0 0.003115 162.02209 353.00168
302.0 0.003311 162.15112 343.93460
297.0 0.003367 162.27977 335.58679
312.0 0.003205 162.40807 327.88834
300.0 0.003333 162.53604 320.77780
317.0 0.003155 162.66368 314.20081
293.0 0.003413 162.79094 308.10959
281.0 0.00356 162.91785 302.46140
272.0 0.00368 163.04439 297.21854
297.0 0.003367 163.17059 292.34702
277.0 0.00361 163.29639 287.83347
310.0 0.003226 163.42181 283.61740
290.0 0.003448 163.54686 279.69122
260.0 0.00385 163.67152 276.03302
269.0 0.00372 163.79585 272.62335
254.0 0.00394 163.91975 269.44421
272.0 0.00368 164.04327 266.47992
256.0 0.00391 164.16635 263.72415
255.0 0.00392 164.28909 261.14734
253.0 0.00395 164.41138 258.74591
279.0 0.00358 164.53329 256.51263
253.0 0.00395 164.65475 254.43095
251.0 0.00398 164.77585 252.49548
276.0 0.00362 164.89647 250.69839
257.0 0.00389 165.01672 249.03252
254.0 0.00394 165.13649 247.49133
266.0 0.00376 165.25587 246.06912
232.0 0.00431 165.37479 244.76254
261.0 0.00383 165.49329 243.56320
265.0 0.00377 165.61134 242.46890
256.0 0.00391 165.72896 241.47597
255.0 0.00392 165.84615 240.58122
245.0 0.00408 165.96283 239.78203
276.0 0.00362 166.07907 239.07593
245.0 0.00408 166.19482 238.46114
272.0 0.00368 166.31021 237.93616
223.0 0.00448 166.42506 237.49980
247.0 0.00405 166.53940 237.15158
245.0 0.00408 166.65334 236.89085
239.0 0.00418 166.76678 236.71806
251.0 0.00398 166.87975 236.63351
238.0 0.00420 166.99223 236.63811
241.0 0.00415 167.10422 236.73315
291.0 0.003436 167.21573 236.92053
252.0 0.00397 167.32671 237.20248
248.0 0.00403 167.43723 237.58183
247.0 0.00405 167.54716 238.06187
223.0 0.00448 167.65671 238.64662
245.0 0.00408 167.76570 239.34071
262.0 0.00382 167.87421 240.14935
235.0 0.00426 167.98215 241.07874
228.0 0.00439 168.08960 242.13589
248.0 0.00403 168.19652 243.32875
242.0 0.00413 168.30290 244.66652
273.0 0.00366 168.40883 246.15938
259.0 0.00386 168.51413 247.81929
271.0 0.00369 168.61894 249.65945
290.0 0.003448 168.72322 251.69518
276.0 0.00362 168.82700 253.94360
294.0 0.003401 168.93018 256.42459
251.0 0.00398 169.03284 259.16068
276.0 0.00362 169.13492 262.17743
306.0 0.003268 169.23647 265.50452
331.0 0.003021 169.33745 269.17596
285.0 0.00351 169.43787 273.23102
315.0 0.003175 169.53777 277.71545
314.0 0.003185 169.63708 282.68243
306.0 0.003268 169.73581 288.19525
351.0 0.002849 169.83398 294.32971
328.0 0.003049 169.93163 301.17856
371.0 0.002695 170.02859 308.85852
326.0 0.003067 170.12505 317.52109
346.0 0.002890 170.22090 327.36938
387.0 0.002584 170.31619 338.68372
384.0 0.002604 170.41087 351.85980
382.0 0.002618 170.50500 367.46176
429.0 0.002331 170.59853 386.29150
454.0 0.002203 170.69142 409.47638
489.0 0.002045 170.78371 438.56412
510.0 0.001961 170.87546 475.61685
490.0 0.002041 170.96657 523.27832
657.0 0.001522 171.05707 584.79047
632.0 0.001582 171.14696 663.92120
763.0 0.001311 171.23624 764.78192
883.0 0.001133 171.32492 891.51013
1021.0 0.000979 171.41298 1047.82178
1168.0 0.000856 171.50040 1236.44897
1398.0 0.000715 171.58719 1458.47168
1630.0 0.000613 171.67337 1712.54565
1998.0 0.000501 171.75896 1993.94666
2433.0 0.000411 171.84389 2293.38037
2550.0 0.000392 171.92822 2595.69165
2877.0 0.0003476 172.01189 2879.30347
3102.0 0.0003224 172.09486 3118.17017
3357.0 0.0002979 172.17723 3287.83838
3498.0 0.0002859 172.25900 3373.93994
3667.0 0.0002727 172.34012 3377.11255
3504.0 0.0002854 172.42053 3309.67773
3292.0 0.0003038 172.50037 3186.92285
3077.0 0.0003250 172.57951 3020.24243
2833.0 0.000353 172.65800 2816.36841
2599.0 0.000385 172.73586 2581.34473
2292.0 0.000436 172.81305 2324.58594
2065.0 0.000484 172.88957 2059.31592
1883.0 0.000531 172.96544 1799.37683
1574.0 0.000635 173.04063 1556.05408
1339.0 0.000747 173.11514 1336.62109
1142.0 0.000876 173.18903 1144.57556
980.0 0.001020 173.26219 980.62469
768.0 0.001302 173.33473 843.55353
642.0 0.001558 173.40659 731.00732
577.0 0.001733 173.47775 640.00720
527.0 0.001898 173.54822 567.33209
450.0 0.002222 173.61798 509.79443
471.0 0.002123 173.68712 464.43781
380.0 0.002632 173.75557 428.65735
370.0 0.002703 173.82332 400.26041
340.0 0.002941 173.89035 377.47406
330.0 0.003030 173.95670 358.91510
332.0 0.003012 174.02238 343.53726
275.0 0.00364 174.08737 330.56866
291.0 0.003436 174.15163 319.44992
269.0 0.00372 174.21519 309.77969
272.0 0.00368 174.27806 301.27002
282.0 0.00355 174.34026 293.71158
251.0 0.00398 174.40170 286.94952
268.0 0.00373 174.46249 280.86627
204.0 0.00490 174.52252 275.36905
244.0 0.00410 174.58186 270.38388
237.0 0.00422 174.64049 265.84915
235.0 0.00426 174.69839 261.71341
249.0 0.00402 174.75562 257.93259
242.0 0.00413 174.81209 254.46890
232.0 0.00431 174.86787 251.28969
228.0 0.00439 174.92293 248.36624
236.0 0.00424 174.97723 245.67355
240.0 0.00417 175.03084 243.18973
233.0 0.00429 175.08371 240.89534
235.0 0.00426 175.13586 238.77328
209.0 0.00478 175.18732 236.80833
245.0 0.00408 175.23799 234.98705
255.0 0.00392 175.28798 233.29736
239.0 0.00418 175.33719 231.72861
239.0 0.00418 175.38571 230.27116
212.0 0.00472 175.43344 228.91634
230.0 0.00435 175.48050 227.65642
231.0 0.00433 175.52676 226.48457
235.0 0.00426 175.57236 225.39439
230.0 0.00435 175.61714 224.38011
231.0 0.00433 175.66119 223.43681
241.0 0.00415 175.70453 222.55974
238.0 0.00420 175.74709 221.74474
199.0 0.00503 175.78897 220.98785
214.0 0.00467 175.83002 220.28566
209.0 0.00478 175.87038 219.63516
229.0 0.00437 175.90997 219.03333
200.0 0.00500 175.94881 218.47754
222.0 0.00450 175.98694 217.96938
238.0 0.00420 176.02428 218.81242
222.0 0.00450 176.06088 218.38918
240.0 0.00417 176.09669 218.00391
212.0 0.00472 176.13179 217.65479
241.0 0.00415 176.16611 217.34050
211.0 0.00474 176.19968 217.05965
229.0 0.00437 176.23248 216.81294
199.0 0.00503 176.26451 216.59560
229.0 0.00437 176.29584 217.06555
208.0 0.00481 176.32637 216.91153
237.0 0.00422 176.35609 216.78619
224.0 0.00446 176.38516 216.68878
219.0 0.00457 176.41339 216.61880
196.0 0.00510 176.44083 216.57565
232.0 0.00431 176.46758 216.55896
230.0 0.00435 176.49350 216.56844
216.0 0.00463 176.51871 216.60379
221.0 0.00452 176.54311 216.66476
206.0 0.00485 176.56673 216.75134
178.0 0.00562 176.58961 216.86334
212.0 0.00472 176.61174 217.00095
237.0 0.00422 176.63306 217.16408
204.0 0.00490 176.65364 217.35297
199.0 0.00503 176.67343 218.09944
214.0 0.00467 176.69246 218.34338
219.0 0.00457 176.71069 218.61392
235.0 0.00426 176.72818 218.91151
231.0 0.00433 176.74492 219.23663
222.0 0.00450 176.76082 219.58986
228.0 0.00439 176.77596 219.97182
199.0 0.00503 176.79037 220.57634
211.0 0.00474 176.80397 221.02000
222.0 0.00450 176.81679 221.49489
206.0 0.00485 176.82886 222.00194
206.0 0.00485 176.84015 222.54224
207.0 0.00483 176.85062 223.08150
222.0 0.00450 176.86034 223.69235
233.0 0.00429 176.86931 224.34048
199.0 0.00503 176.87747 225.02759
194.0 0.00515 176.88490 225.75529
201.0 0.00498 176.89151 226.52557
189.0 0.00529 176.89732 227.34065
223.0 0.00448 176.90239 228.20285
205.0 0.00488 176.90663 229.11493
220.0 0.00455 176.91016 230.07968
234.0 0.00427 176.91289 231.10027
235.0 0.00426 176.91483 232.18015
238.0 0.00420 176.91600 233.32283
228.0 0.00439 176.91638 234.53214
225.0 0.00444 176.91599 235.81213
251.0 0.00398 176.91483 237.16667
244.0 0.00410 176.91284 238.59987
235.0 0.00426 176.91013 240.11568
275.0 0.00364 176.90663 241.71790
279.0 0.00358 176.90230 243.40987
273.0 0.00366 176.89725 245.19475
283.0 0.00353 176.89139 247.07558
260.0 0.00385 176.88478 249.10472
282.0 0.00355 176.87733 251.19011
298.0 0.003356 176.86916 253.38812
294.0 0.003401 176.86021 255.70959
294.0 0.003401 176.85045 258.16647
268.0 0.00373 176.83994 260.77194
288.0 0.003472 176.82866 263.53943
300.0 0.003333 176.81657 266.48315
294.0 0.003401 176.80374 269.61908
285.0 0.00351 176.79008 272.98941
290.0 0.003448 176.77568 276.56567
324.0 0.003086 176.76047 280.39438
347.0 0.002882 176.74452 284.49963
291.0 0.003436 176.72781 288.90811
295.0 0.003390 176.71028 293.64862
318.0 0.003145 176.69202 298.75360
339.0 0.002950 176.67297 304.26007
328.0 0.003049 176.65312 310.20996
327.0 0.003058 176.63254 316.65234
353.0 0.002833 176.61116 323.64484
331.0 0.003021 176.58899 331.25662
324.0 0.003086 176.56606 339.57153
326.0 0.003067 176.54240 348.69299
394.0 0.002538 176.51793 358.75043
398.0 0.002513 176.49269 369.90701
418.0 0.002392 176.46669 382.37009
394.0 0.002538 176.43990 396.40390
449.0 0.002227 176.41235 412.34500
462.0 0.002165 176.38408 430.61926
435.0 0.002299 176.35501 451.76050
479.0 0.002088 176.32513 476.43036
449.0 0.002227 176.29456 505.43576
521.0 0.001919 176.26318 539.74249
599.0 0.001669 176.23105 580.48370
609.0 0.001642 176.19815 628.95581
659.0 0.001517 176.16451 686.60358
715.0 0.001399 176.13007 754.98895
813.0 0.001230 176.09491 835.74060
890.0 0.001124 176.05898 930.48444
1000.0 0.001000 176.02228 1040.75574
1158.0 0.000864 175.98480 1167.88879
1193.0 0.000838 175.94661 1312.88831
1421.0 0.000704 175.90762 1476.27234
1607.0 0.000622 175.86790 1657.88501
1820.0 0.000549 175.82744 1856.65662
1919.0 0.000521 175.78621 2070.30469
2145.0 0.000466 175.74423 2294.97144
2347.0 0.000426 175.70149 2524.84546
2666.0 0.000375 175.65804 2751.89014
2869.0 0.0003486 175.61380 2965.93677
3087.0 0.0003239 175.56883 3155.43896
3116.0 0.0003209 175.52312 3309.03882
3205.0 0.0003120 175.47664 3417.67822
3419.0 0.0002925 175.42943 3476.41064
3365.0 0.0002972 175.38148 3484.99634
3293.0 0.0003037 175.33276 3446.92480
3321.0 0.0003011 175.28336 3367.53052
3218.0 0.0003108 175.23318 3252.33325
3218.0 0.0003108 175.18228 3106.39014
2946.0 0.0003394 175.13060 2934.66626
2699.0 0.000371 175.07823 2742.74365
2560.0 0.000391 175.02515 2537.15771
2326.0 0.000430 174.97127 2325.05273
2187.0 0.000457 174.91669 2113.40088
1943.0 0.000515 174.86140 1906.67651
1703.0 0.000587 174.80537 1712.63806
1518.0 0.000659 174.74863 1532.84863
1333.0 0.000750 174.69110 1369.10242
1130.0 0.000885 174.63292 1222.11389
1056.0 0.000947 174.57394 1091.79785
902.0 0.001109 174.51434 976.72479
762.0 0.001312 174.45393 877.41968
738.0 0.001355 174.39287 791.82843
624.0 0.001603 174.33101 718.55157
577.0 0.001733 174.26851 656.14594
506.0 0.001976 174.20528 603.19470
437.0 0.002288 174.14133 558.35468
391.0 0.002558 174.07664 520.38928
376.0 0.002660 174.01128 488.19055
415.0 0.002410 173.94522 460.78650
328.0 0.003049 173.87846 437.34238
346.0 0.002890 173.81093 417.15393
315.0 0.003175 173.74277 399.63693
321.0 0.003115 173.67386 384.31271
306.0 0.003268 173.60425 370.79468
279.0 0.00358 173.53400 358.77252
274.0 0.00365 173.46303 347.99911
287.0 0.003484 173.39134 338.27835
260.0 0.00385 173.31897 329.45404
281.0 0.00356 173.24594 321.40164
269.0 0.00372 173.17216 314.02069
273.0 0.00366 173.09775 307.22998
265.0 0.00377 173.02263 300.96179
280.0 0.00357 172.94685 295.16052
243.0 0.00412 172.87041 289.77850
246.0 0.00407 172.79321 284.77521
239.0 0.00418 172.71539 280.11526
224.0 0.00446 172.63687 275.76779
228.0 0.00439 172.55775 271.70575
225.0 0.00444 172.47786 267.90485
245.0 0.00408 172.39740 264.34363
222.0 0.00450 172.31619 261.00272
203.0 0.00493 172.23436 257.86472
208.0 0.00481 172.15182 254.91406
208.0 0.00481 172.06866 252.13652
230.0 0.00435 171.98483 249.51944
216.0 0.00463 171.90034 247.05098
228.0 0.00439 171.81520 244.72064
216.0 0.00463 171.72943 242.51883
213.0 0.00469 171.64297 240.43675
213.0 0.00469 171.55588 238.46638
200.0 0.00500 171.46815 236.60037
210.0 0.00476 171.37976 234.83214
214.0 0.00467 171.29076 233.15556
221.0 0.00452 171.20111 231.56487
224.0 0.00446 171.11082 230.05493
215.0 0.00465 171.01987 228.62115
212.0 0.00472 170.92831 227.25896
208.0 0.00481 170.83614 225.96461
210.0 0.00476 170.74330 224.73425
217.0 0.00461 170.64987 223.56464
184.0 0.00543 170.55576 222.45256
203.0 0.00493 170.46107 221.39522
188.0 0.00532 170.36580 220.38994
209.0 0.00478 170.26988 219.43443
221.0 0.00452 170.17332 218.52647
206.0 0.00485 170.07619 217.66415
208.0 0.00481 169.97841 216.84555
169.0 0.00592 169.88005 216.06900
201.0 0.00498 169.78107 215.33333
222.0 0.00450 169.68152 214.63699
184.0 0.00543 169.58138 213.97888
203.0 0.00493 169.48055 213.35808
224.0 0.00446 169.37918 212.77386
207.0 0.00483 169.27724 212.22549
190.0 0.00526 169.17470 211.71246
223.0 0.00448 169.07155 211.23457
193.0 0.00518 168.96783 210.79170
203.0 0.00493 168.86354 210.38390
172.0 0.00581 168.75867 210.01164
209.0 0.00478 168.65321 209.67560
200.0 0.00500 168.54720 209.37682
202.0 0.00495 168.44057 209.11699
183.0 0.00546 168.33339 208.89821
202.0 0.00495 168.22565 208.72356
202.0 0.00495 168.11734 208.59738
204.0 0.00490 168.00850 208.52513
201.0 0.00498 167.89909 208.51443
198.0 0.00505 167.78911 208.57521
186.0 0.00538 167.67856 208.72028
180.0 0.00556 167.56749 208.96620
170.0 0.00588 167.45589 209.33354
212.0 0.00472 167.34369 209.84743
214.0 0.00467 167.23102 210.53802
204.0 0.00490 167.11774 211.44025
195.0 0.00513 167.00398 212.59372
198.0 0.00505 166.88962 214.04092
159.0 0.00629 166.77481 215.82669
222.0 0.00450 166.65941 217.99527
218.0 0.00459 166.54350 220.58752
195.0 0.00513 166.42705 223.63774
206.0 0.00485 166.31010 227.16913
211.0 0.00474 166.19264 231.18898
208.0 0.00481 166.07468 235.68257
231.0 0.00433 165.95616 240.60516
230.0 0.00435 165.83714 245.87198
236.0 0.00424 165.71765 251.34718
245.0 0.00408 165.59767 256.83347
230.0 0.00435 165.47711 262.07037
250.0 0.00400 165.35609 266.11298
239.0 0.00418 165.23462 269.92957
229.0 0.00437 165.11263 272.62714
256.0 0.00391 164.99017 274.07458
234.0 0.00427 164.86722 274.28192
227.0 0.00441 164.74374 273.36920
224.0 0.00446 164.61980 271.18423
230.0 0.00435 164.49541 268.51883
244.0 0.00410 164.37054 265.17081
236.0 0.00424 164.24518 261.23691
232.0 0.00431 164.11937 256.82440
253.0 0.00395 163.99313 252.07365
227.0 0.00441 163.86641 247.15465
227.0 0.00441 163.73920 242.24536
225.0 0.00444 163.61151 237.50479
206.0 0.00485 163.48343 233.05630
244.0 0.00410 163.35487 228.98238
225.0 0.00444 163.22588 225.32855
226.0 0.00442 163.09645 222.11105
216.0 0.00463 162.96657 219.32468
206.0 0.00485 162.83627 216.94952
209.0 0.00478 162.70549 214.95636
221.0 0.00452 162.57433 213.31050
209.0 0.00478 162.44275 211.97488
209.0 0.00478 162.31070 210.91205
192.0 0.00521 162.17827 210.08641
193.0 0.00518 162.04541 209.46458
229.0 0.00437 161.91208 209.01677
229.0 0.00437 161.77840 208.71660
193.0 0.00518 161.64435 208.54176
194.0 0.00515 161.50987 208.47379
215.0 0.00465 161.37491 208.49733
210.0 0.00476 161.23965 208.60036
179.0 0.00559 161.10393 208.77327
232.0 0.00431 160.96783 209.00890
198.0 0.00505 160.83134 209.30176
192.0 0.00521 160.69450 209.64793
221.0 0.00452 160.55728 210.04457
207.0 0.00483 160.41965 210.48967
200.0 0.00500 160.28169 210.98228
218.0 0.00459 160.14330 211.52165
219.0 0.00457 160.00455 212.10764
198.0 0.00505 159.86543 212.74034
207.0 0.00483 159.72600 213.42043
195.0 0.00513 159.58617 214.14862
235.0 0.00426 159.44597 214.92595
210.0 0.00476 159.30544 215.75371
235.0 0.00426 159.16458 216.63341
214.0 0.00467 159.02333 217.56671
217.0 0.00461 158.88176 218.55556
216.0 0.00463 158.73985 219.60219
232.0 0.00431 158.59760 220.70891
243.0 0.00412 158.45503 221.87839
218.0 0.00459 158.31213 223.11353
209.0 0.00478 158.16893 224.41747
226.0 0.00442 158.02539 225.79355
249.0 0.00402 157.88148 227.24567
264.0 0.00379 157.73729 228.77777
235.0 0.00426 157.59280 230.39432
224.0 0.00446 157.44798 232.10217
234.0 0.00427 157.30290 233.90239
261.0 0.00383 157.15750 235.80269
270.0 0.00370 157.01178 237.80923
239.0 0.00418 156.86577 239.92863
244.0 0.00410 156.71948 242.16830
279.0 0.00358 156.57291 244.53609
245.0 0.00408 156.42604 247.05682
282.0 0.00355 156.27888 249.70758
292.0 0.003425 156.13144 252.51469
281.0 0.00356 155.98380 255.48956
278.0 0.00360 155.83582 258.64447
283.0 0.00353 155.68758 261.99286
316.0 0.003165 155.53905 265.54971
300.0 0.003333 155.39030 269.33130
319.0 0.003135 155.24127 273.35580
333.0 0.003003 155.09201 277.65112
368.0 0.002717 154.94249 282.22324
357.0 0.002801 154.79269 287.10495
352.0 0.002841 154.64272 292.32327
393.0 0.002545 154.49248 297.90887
356.0 0.002809 154.34200 303.89569
387.0 0.002584 154.19128 310.32199
412.0 0.002427 154.04033 317.23053
435.0 0.002299 153.88919 324.66983
390.0 0.002564 153.73778 332.69443
421.0 0.002375 153.58618 341.36646
425.0 0.002353 153.43439 350.75623
454.0 0.002203 153.28232 360.94452
435.0 0.002299 153.13007 372.02878
432.0 0.002315 152.97766 384.10730
511.0 0.001957 152.82503 397.31158
490.0 0.002041 152.67216 411.79242
532.0 0.001880 152.51917 427.73364
539.0 0.001855 152.36592 445.36313
570.0 0.001754 152.21257 464.97037
584.0 0.001712 152.05890 486.93073
638.0 0.001567 151.90517 511.73904
669.0 0.001495 151.75121 540.05426
641.0 0.001560 151.59712 572.75720
773.0 0.001294 151.44279 611.01978
743.0 0.001346 151.28836 656.38947
719.0 0.001391 151.13374 710.85602
867.0 0.001153 150.97899 776.95367
898.0 0.001114 150.82404 857.80182
958.0 0.001044 150.66898 957.12750
1096.0 0.000912 150.51378 1079.22473
1181.0 0.000847 150.35841 1228.83862
1379.0 0.000725 150.20293 1410.95801
1560.0 0.000641 150.04726 1630.51453
1807.0 0.000553 149.89153 1891.98535
2143.0 0.000467 149.73558 2198.89819
2347.0 0.000426 149.57962 2553.26514
2758.0 0.000363 149.42345 2954.87842
3273.0 0.0003055 149.26720 3400.45483
3675.0 0.0002721 149.11081 3882.52881
4301.0 0.0002325 148.95433 4388.08105
4912.0 0.0002036 148.79770 4897.16064
5225.0 0.0001914 148.64102 5382.31006
5634.0 0.0001775 148.48421 5810.31152
6065.0 0.0001649 148.32738 6147.65039
6193.0 0.0001615 148.17038 6369.10156
6336.0 0.0001578 148.01329 6465.39648
6240.0 0.0001603 147.85611 6444.75244
6297.0 0.0001588 147.69887 6326.81396
6091.0 0.0001642 147.54153 6133.06738
5913.0 0.0001691 147.38416 5879.52686
5539.0 0.0001805 147.22665 5574.90186
5200.0 0.0001923 147.06914 5223.83008
4725.0 0.0002116 146.91156 4832.21436
4278.0 0.0002338 146.75389 4410.96045
3794.0 0.0002636 146.59616 3975.76709
3525.0 0.0002837 146.43839 3543.92383
3029.0 0.0003301 146.28059 3130.69971
2670.0 0.000375 146.12271 2747.26392
2324.0 0.000430 145.96477 2400.35522
2050.0 0.000488 145.80685 2092.97388
1689.0 0.000592 145.64886 1825.37708
1506.0 0.000664 145.49084 1595.95581
1310.0 0.000763 145.33281 1401.94055
1190.0 0.000840 145.17476 1239.88135
1054.0 0.000949 145.01665 1106.01306
960.0 0.001042 144.85852 996.52295
897.0 0.001115 144.70044 907.74548
840.0 0.001190 144.54230 836.30756
778.0 0.001285 144.38417 779.22168
726.0 0.001377 144.22603 733.93768
700.0 0.001429 144.06787 698.36115
638.0 0.001567 143.90970 670.84326
653.0 0.001531 143.75159 650.15643
607.0 0.001647 143.59348 635.46014
624.0 0.001603 143.43536 626.26874
606.0 0.001650 143.27724 622.42078
609.0 0.001642 143.11923 624.05634
660.0 0.001515 142.96120 631.59961
653.0 0.001531 142.80316 645.74402
694.0 0.001441 142.64517 667.43427
688.0 0.001453 142.48727 697.84229
713.0 0.001403 142.32935 738.32623
832.0 0.001202 142.17148 790.37378
898.0 0.001114 142.01363 855.52032
952.0 0.001050 141.85588 935.24677
949.0 0.001054 141.69823 1030.85010
1161.0 0.000861 141.54056 1143.29468
1303.0 0.000767 141.38297 1273.03369
1448.0 0.000691 141.22545 1419.79773
1661.0 0.000602 141.06801 1582.32410
1721.0 0.000581 140.91060 1758.01440
2015.0 0.000496 140.75330 1942.51611
2159.0 0.000463 140.59602 2129.30444
2368.0 0.000422 140.43889 2309.48438
2475.0 0.000404 140.28186 2472.20142
2682.0 0.000373 140.12485 2606.06201
2851.0 0.000351 139.96800 2701.50806
2756.0 0.000363 139.81120 2753.30786
2766.0 0.000362 139.65451 2761.73633
2787.0 0.000359 139.49791 2731.61646
2788.0 0.000359 139.34142 2669.77686
2747.0 0.000364 139.18506 2582.44775
2592.0 0.000386 139.02882 2473.87891
2494.0 0.000401 138.87271 2346.56567
2291.0 0.000436 138.71664 2202.57104
2093.0 0.000478 138.56075 2044.94299
1953.0 0.000512 138.40501 1878.31738
1762.0 0.000568 138.24931 1708.45142
1588.0 0.000630 138.09383 1541.16711
1452.0 0.000689 137.93848 1381.39111
1328.0 0.000753 137.78325 1232.67761
1100.0 0.000909 137.62817 1097.17432
1037.0 0.000964 137.47324 975.85413
883.0 0.001133 137.31844 868.80817
762.0 0.001312 137.16383 775.52136
760.0 0.001316 137.00934 695.08148
635.0 0.001575 136.85503 626.34027
608.0 0.001645 136.70085 568.02844
526.0 0.001901 136.54692 518.84216
458.0 0.002183 136.39311 477.50549
433.0 0.002309 136.23947 442.81793
396.0 0.002525 136.08601 413.68549
376.0 0.002660 135.93275 389.13846
386.0 0.002591 135.77965 368.34009
390.0 0.002564 135.62674 350.58444
365.0 0.002740 135.47403 335.28867
325.0 0.003077 135.32149 321.98004
292.0 0.003425 135.16920 310.28183
331.0 0.003021 135.01711 299.89670
321.0 0.003115 134.86522 290.59244
307.0 0.003257 134.71353 282.18863
316.0 0.003165 134.56201 274.54431
265.0 0.00377 134.41074 267.54947
269.0 0.00372 134.25967 261.11703
256.0 0.00391 134.10884 255.17674
265.0 0.00377 133.95828 249.67192
290.0 0.003448 133.80788 244.55528
248.0 0.00403 133.65773 239.78697
251.0 0.00398 133.50783 235.33279
252.0 0.00397 133.35814 231.16359
213.0 0.00469 133.20871 227.25343
276.0 0.00362 133.05949 223.57964
253.0 0.00395 132.91055 220.12204
240.0 0.00417 132.76190 216.86276
247.0 0.00405 132.61345 213.78566
249.0 0.00402 132.46526 210.87640
228.0 0.00439 132.31731 208.12196
226.0 0.00442 132.16966 205.51060
236.0 0.00424 132.02226 203.03163
231.0 0.00433 131.87514 200.67555
231.0 0.00433 131.72829 198.43361
250.0 0.00400 131.58171 196.29782
226.0 0.00442 131.43542 194.26093
205.0 0.00488 131.28943 192.31642
225.0 0.00444 131.14369 190.45807
222.0 0.00450 130.99823 188.68039
217.0 0.00461 130.85312 186.97821
210.0 0.00476 130.70821 185.34698
204.0 0.00490 130.56367 183.78218
201.0 0.00498 130.41940 182.28011
217.0 0.00461 130.27547 180.83688
206.0 0.00485 130.13185 179.45799
225.0 0.00444 129.98848 178.12265
207.0 0.00483 129.84549 176.83670
191.0 0.00524 129.70274 175.59756
204.0 0.00490 129.56041 174.40265
190.0 0.00526 129.41827 173.24963
212.0 0.00472 129.27655 172.13623
193.0 0.00518 129.13516 171.06070
181.0 0.00552 128.99413 170.02092
198.0 0.00505 128.85333 169.01949
179.0 0.00559 128.71295 168.04601
167.0 0.00599 128.57283 167.10342
206.0 0.00485 128.43315 166.19026
195.0 0.00513 128.29375 165.30511
194.0 0.00515 128.15472 164.44667
186.0 0.00538 128.01605 163.61394
201.0 0.00498 127.87772 162.80551
171.0 0.00585 127.73981 162.02055
182.0 0.00549 127.60215 161.25795
179.0 0.00559 127.46490 160.51686
185.0 0.00541 127.32803 159.79640
217.0 0.00461 127.19151 159.09560
185.0 0.00541 127.05542 158.41385
188.0 0.00532 126.91965 157.75044
195.0 0.00513 126.78429 157.10457
172.0 0.00581 126.64925 156.47589
164.0 0.00610 126.51463 155.86319
186.0 0.00538 126.38040 155.26619
171.0 0.00585 126.24659 154.68437
179.0 0.00559 126.11314 154.11726
162.0 0.00617 125.98006 153.56419
159.0 0.00629 125.84740 153.02481
161.0 0.00621 125.71515 152.49869
147.0 0.00680 125.58329 151.98546
157.0 0.00637 125.45184 151.48454
158.0 0.00633 125.32078 150.99582
156.0 0.00641 125.19016 150.51900
174.0 0.00575 125.05996 150.05327
152.0 0.00658 124.93013 149.59874
149.0 0.00671 124.80073 149.15488
167.0 0.00599 124.67178 148.72160
156.0 0.00641 124.54326 148.29860
157.0 0.00637 124.41516 147.88554
166.0 0.00602 124.28748 147.48235
145.0 0.00690 124.16025 147.08865
164.0 0.00610 124.03339 146.70433
171.0 0.00585 123.90699 146.32922
145.0 0.00690 123.78107 145.96312
156.0 0.00641 123.65556 145.60582
154.0 0.00649 123.53054 145.25725
154.0 0.00649 123.40594 144.91724
151.0 0.00662 123.28178 144.58568
171.0 0.00585 123.15807 144.26248
149.0 0.00671 123.03482 143.24571
166.0 0.00602 122.91206 142.94231
155.0 0.00645 122.78968 142.64708
166.0 0.00602 122.66786 142.35966
147.0 0.00680 122.54645 142.08032
164.0 0.00610 122.42549 141.80882
154.0 0.00649 122.30503 141.39166
153.0 0.00654 122.18507 141.13843
161.0 0.00621 122.06551 140.89293
131.0 0.00763 121.94649 140.65538
152.0 0.00658 121.82791 140.42577
139.0 0.00719 121.70982 140.20399
179.0 0.00559 121.59223 139.99030
123.0 0.00813 121.47513 139.78476
145.0 0.00690 121.35851 139.58725
141.0 0.00709 121.24238 139.39803
147.0 0.00680 121.12672 139.31642
140.0 0.00714 121.01160 139.14447
161.0 0.00621 120.89693 138.98117
146.0 0.00685 120.78284 138.82671
166.0 0.00602 120.66916 138.68134
152.0 0.00658 120.55603 138.54527
152.0 0.00658 120.44342 138.41864
177.0 0.00565 120.33128 138.30193
146.0 0.00685 120.21968 138.19522
159.0 0.00629 120.10857 138.09903
150.0 0.00667 119.99799 138.01353
147.0 0.00680 119.88793 137.93933
162.0 0.00617 119.77840 137.87666
171.0 0.00585 119.66936 137.82626
142.0 0.00704 119.56088 137.78842
152.0 0.00658 119.45291 137.76385
163.0 0.00613 119.34547 137.75316
151.0 0.00662 119.23849 137.75710
135.0 0.00741 119.13216 137.77634
146.0 0.00685 119.02629 137.81181
151.0 0.00662 118.92102 137.86444
159.0 0.00629 118.81622 137.93517
145.0 0.00690 118.71200 138.02515
163.0 0.00613 118.60828 138.13565
148.0 0.00676 118.50515 138.26817
135.0 0.00741 118.40257 138.42415
153.0 0.00654 118.30050 138.60542
155.0 0.00645 118.19902 138.81398
133.0 0.00752 118.09809 139.05203
161.0 0.00621 117.99767 139.32242
148.0 0.00676 117.89783 139.62798
155.0 0.00645 117.79858 139.97249
153.0 0.00654 117.69985 140.36008
145.0 0.00690 117.60172 140.79576
151.0 0.00662 117.50410 141.28574
149.0 0.00671 117.40705 141.83710
150.0 0.00667 117.31061 142.45860
151.0 0.00662 117.21471 143.16081
150.0 0.00667 117.11942 143.95633
163.0 0.00613 117.02468 144.86002
163.0 0.00613 116.93049 145.89003
138.0 0.00725 116.83689 147.06747
156.0 0.00641 116.74387 148.41727
151.0 0.00662 116.65142 149.96825
171.0 0.00585 116.55962 151.75357
148.0 0.00676 116.46828 153.81076
166.0 0.00602 116.37759 156.18173
149.0 0.00671 116.28750 158.91278
149.0 0.00671 116.19798 162.05403
169.0 0.00592 116.10905 165.65868
188.0 0.00532 116.02072 169.78218
195.0 0.00513 115.93296 174.48097
185.0 0.00541 115.84581 179.81078
202.0 0.00495 115.75925 185.82478
195.0 0.00513 115.67332 192.57129
207.0 0.00483 115.58801 200.09114
239.0 0.00418 115.50319 208.41454
221.0 0.00452 115.41904 217.55737
231.0 0.00433 115.33549 227.58008
212.0 0.00472 115.25250 238.32961
237.0 0.00422 115.17019 249.81110
259.0 0.00386 115.08846 261.92795
275.0 0.00364 115.00733 274.53555
258.0 0.00388 114.92684 287.43253
300.0 0.003333 114.84692 300.35330
296.0 0.003378 114.76765 312.96713
350.0 0.002857 114.68895 324.88693
338.0 0.002959 114.61091 335.69183
360.0 0.002778 114.53349 344.96628
356.0 0.002809 114.45663 352.34750
348.0 0.002874 114.38046 357.57324
345.0 0.002899 114.30481 360.51181
338.0 0.002959 114.22990 361.14899
345.0 0.002899 114.15556 359.62921
370.0 0.002703 114.08187 356.11331
383.0 0.002611 114.00874 350.80362
382.0 0.002618 113.93629 343.89859
330.0 0.003030 113.86449 335.58655
309.0 0.003236 113.79330 326.05493
301.0 0.003322 113.72269 315.49722
294.0 0.003401 113.65277 304.15729
315.0 0.003175 113.58347 292.42410
280.0 0.00357 113.51482 280.26419
262.0 0.00382 113.44678 268.07751
261.0 0.00383 113.37936 256.09180
238.0 0.00420 113.31263 244.49773
248.0 0.00403 113.24649 233.44318
234.0 0.00427 113.18102 223.03377
222.0 0.00450 113.11619 213.33725
185.0 0.00541 113.05196 204.38930
195.0 0.00513 112.98845 196.19971
191.0 0.00524 112.92551 188.75868
176.0 0.00568 112.86325 182.04124
194.0 0.00515 112.80164 176.01178
153.0 0.00654 112.74066 170.62775
142.0 0.00704 112.68037 165.84152
155.0 0.00645 112.62068 161.60356
153.0 0.00654 112.56163 157.86363
164.0 0.00610 112.50327 154.57234
123.0 0.00813 112.44554 151.68222
147.0 0.00680 112.38846 149.14862
144.0 0.00694 112.33203 146.92984
143.0 0.00699 112.27628 144.98836
131.0 0.00763 112.22117 143.29012
142.0 0.00704 112.16668 141.80519
119.0 0.00840 112.11293 140.50740
132.0 0.00758 112.05973 139.37463
128.0 0.00781 112.00725 138.38800
122.0 0.00820 111.95544 137.53259
130.0 0.00769 111.90424 136.79637
119.0 0.00840 111.85376 136.17099
139.0 0.00719 111.80389 135.65134
113.0 0.00885 111.75469 135.23598
137.0 0.00730 111.70618 134.92711
135.0 0.00741 111.65833 134.73152
119.0 0.00840 111.61111 134.66077
113.0 0.00885 111.56457 134.73207
135.0 0.00741 111.51869 134.96855
133.0 0.00752 111.47343 135.78563
120.0 0.00833 111.42890 136.45039
156.0 0.00641 111.38504 137.38950
151.0 0.00662 111.34181 138.65091
123.0 0.00813 111.29929 140.28601
166.0 0.00602 111.25739 142.34665
135.0 0.00741 111.21617 144.88187
131.0 0.00763 111.17560 147.93311
159.0 0.00629 111.13572 151.52939
144.0 0.00694 111.09653 155.68068
147.0 0.00680 111.05800 160.56329
145.0 0.00690 111.02010 165.74240
166.0 0.00602 110.98289 171.31104
166.0 0.00602 110.94637 177.10974
194.0 0.00515 110.91051 182.90463
166.0 0.00602 110.87531 188.38454
185.0 0.00541 110.84077 193.18326
179.0 0.00559 110.80694 196.93742
190.0 0.00526 110.77373 199.37488
184.0 0.00543 110.74126 200.39410
201.0 0.00498 110.70942 200.08513
179.0 0.00559 110.67825 198.67603
184.0 0.00543 110.64777 196.43544
149.0 0.00671 110.61797 193.58372
175.0 0.00571 110.58881 190.24919
198.0 0.00505 110.56033 186.47523
176.0 0.00568 110.53252 182.26573
163.0 0.00613 110.50539 177.65445
167.0 0.00599 110.47893 172.70145
152.0 0.00658 110.45317 167.56044
167.0 0.00599 110.42809 162.40529
155.0 0.00645 110.40363 157.40205
127.0 0.00787 110.37988 152.68170
144.0 0.00694 110.35677 148.33119
132.0 0.00758 110.33436 144.39735
132.0 0.00758 110.31263 140.89555
145.0 0.00690 110.29156 137.81900
145.0 0.00690 110.27119 135.15155
147.0 0.00680 110.25146 132.85162
125.0 0.00800 110.23242 130.88838
144.0 0.00694 110.21407 129.22328
153.0 0.00654 110.19633 127.81718
122.0 0.00820 110.17932 126.63265
107.0 0.00935 110.16299 125.63451
121.0 0.00826 110.14733 124.79131
136.0 0.00735 110.13232 124.07539
123.0 0.00813 110.11799 123.46311
150.0 0.00667 110.10432 122.93491
120.0 0.00833 110.09134 122.47472
114.0 0.00877 110.07902 122.06973
111.0 0.00901 110.06738 121.70974
132.0 0.00758 110.05646 121.38703
127.0 0.00787 110.04613 121.09529
137.0 0.00730 110.03650 120.82996
122.0 0.00820 110.02751 120.58729
124.0 0.00806 110.01925 120.36437
124.0 0.00806 110.01163 120.15892
110.0 0.00909 110.00470 119.96920
115.0 0.00870 109.99841 119.79360
144.0 0.00694 109.99279 119.63087
127.0 0.00787 109.98787 119.47991
104.0 0.00962 109.98357 119.33991
102.0 0.00980 109.97998 119.20998
109.0 0.00917 109.97701 119.08948
116.0 0.00862 109.97477 118.97773
115.0 0.00870 109.97315 118.87430
155.0 0.00645 109.97224 118.77870
109.0 0.00917 109.97195 118.69051
119.0 0.00840 109.97237 118.60944
111.0 0.00901 109.97341 118.53504
114.0 0.00877 109.97511 118.46719
111.0 0.00901 109.97747 118.40565
106.0 0.00943 109.98055 118.35023
117.0 0.00855 109.98427 118.30078
112.0 0.00893 109.98862 118.25713
115.0 0.00870 109.99367 118.21928
113.0 0.00885 109.99937 118.18771
117.0 0.00855 110.00567 118.16132
122.0 0.00820 110.01274 118.14070
122.0 0.00820 110.02039 118.12594
112.0 0.00893 110.02872 118.11713
113.0 0.00885 110.03768 118.11455
132.0 0.00758 110.04733 118.11834
119.0 0.00840 110.05761 118.12883
115.0 0.00870 110.06857 118.14661
123.0 0.00813 110.08019 118.17223
120.0 0.00833 110.09242 118.20657
121.0 0.00826 110.10538 118.25030
109.0 0.00917 110.11893 118.30479
101.0 0.00990 110.13313 118.37177
119.0 0.00840 110.14799 118.45320
130.0 0.00769 110.16347 118.55165
114.0 0.00877 110.17967 118.67020
119.0 0.00840 110.19646 118.81261
114.0 0.00877 110.21394 118.98325
122.0 0.00820 110.23198 119.18748
116.0 0.00862 110.25076 119.43113
112.0 0.00893 110.27013 119.72076
108.0 0.00926 110.29015 120.06613
129.0 0.00775 110.31080 120.46957
115.0 0.00870 110.33213 120.94132
134.0 0.00746 110.35404 121.48872
109.0 0.00917 110.37669 122.11848
113.0 0.00885 110.39986 122.83622
132.0 0.00758 110.42374 123.64584
124.0 0.00806 110.44823 124.54879
124.0 0.00806 110.47337 125.54350
109.0 0.00917 110.49916 126.62398
109.0 0.00917 110.52551 127.77857
123.0 0.00813 110.55255 128.98979
137.0 0.00730 110.58020 130.22743
139.0 0.00719 110.60848 131.45486
126.0 0.00794 110.63738 132.62473
116.0 0.00862 110.66695 133.68225
140.0 0.00714 110.69709 134.57408
140.0 0.00714 110.72788 135.25233
120.0 0.00833 110.75928 135.69092
139.0 0.00719 110.79133 135.88651
122.0 0.00820 110.82397 135.85712
141.0 0.00709 110.85725 135.63428
135.0 0.00741 110.89115 135.25220
124.0 0.00806 110.92564 134.73933
118.0 0.00847 110.96072 134.11479
138.0 0.00725 110.99648 133.38957
136.0 0.00735 111.03281 132.57225
134.0 0.00746 111.06977 131.67473
128.0 0.00781 111.10736 130.71388
145.0 0.00690 111.14553 129.71483
133.0 0.00752 111.18434 128.70586
126.0 0.00794 111.22373 127.71426
125.0 0.00800 111.26371 126.76367
126.0 0.00794 111.30430 125.87199
109.0 0.00917 111.34550 125.05089
129.0 0.00775 111.38728 124.30701
128.0 0.00781 111.42966 123.64260
113.0 0.00885 111.47268 123.05696
110.0 0.00909 111.51624 122.54703
118.0 0.00847 111.56045 122.10847
121.0 0.00826 111.60522 121.73585
107.0 0.00935 111.65059 121.42330
110.0 0.00909 111.69651 121.16487
124.0 0.00806 111.74307 120.95448
115.0 0.00870 111.79021 120.78646
123.0 0.00813 111.83790 120.65540
133.0 0.00752 111.88618 120.55643
112.0 0.00893 111.93507 120.48497
118.0 0.00847 111.98454 120.43738
106.0 0.00943 112.03458 120.41008
127.0 0.00787 112.08520 120.40040
117.0 0.00855 112.13639 120.40582
112.0 0.00893 112.18814 120.42451
110.0 0.00909 112.24047 120.45485
113.0 0.00885 112.29335 120.49558
128.0 0.00781 112.34686 120.54568
121.0 0.00826 112.40084 120.60449
133.0 0.00752 112.45548 120.67131
118.0 0.00847 112.51065 120.74584
112.0 0.00893 112.56639 120.82772
113.0 0.00885 112.62264 120.91313
115.0 0.00870 112.67948 121.00922
106.0 0.00943 112.73690 121.11227
112.0 0.00893 112.79483 121.22237
112.0 0.00893 112.85334 121.33959
114.0 0.00877 112.91238 121.46404
119.0 0.00840 112.97198 121.59592
124.0 0.00806 113.03214 121.73558
129.0 0.00775 113.09284 121.88146
118.0 0.00847 113.15409 122.03759
118.0 0.00847 113.21586 122.20258
122.0 0.00820 113.27818 122.37708
110.0 0.00909 113.34106 122.56167
113.0 0.00885 113.40443 122.75723
113.0 0.00885 113.46835 122.96465
118.0 0.00847 113.53278 123.18513
113.0 0.00885 113.59777 123.41998
96.0 0.01042 113.66328 123.67081
111.0 0.00901 113.72931 123.93960
113.0 0.00885 113.79587 124.22859
130.0 0.00769 113.86298 124.54055
135.0 0.00741 113.93057 124.87866
124.0 0.00806 113.99872 125.24676
129.0 0.00775 114.06733 125.64919
123.0 0.00813 114.13648 126.09109
111.0 0.00901 114.20615 126.57820
122.0 0.00820 114.27631 127.11768
97.0 0.01031 114.34700 127.71690
142.0 0.00704 114.41817 128.38443
116.0 0.00862 114.48988 129.12962
135.0 0.00741 114.56203 129.96266
131.0 0.00763 114.63475 130.89459
138.0 0.00725 114.70791 130.37959
121.0 0.00826 114.78159 131.55147
125.0 0.00800 114.85575 132.85857
137.0 0.00730 114.93038 134.31363
123.0 0.00813 115.00555 135.92891
134.0 0.00746 115.08117 137.71649
148.0 0.00676 115.15730 139.68741
119.0 0.00840 115.23389 141.85109
147.0 0.00680 115.31099 144.21516
116.0 0.00862 115.38849 146.78404
142.0 0.00704 115.46652 149.55804
149.0 0.00671 115.54507 152.53232
145.0 0.00690 115.62404 155.69481
139.0 0.00719 115.70348 159.02527
130.0 0.00769 115.78334 162.49396
136.0 0.00735 115.86376 166.06143
160.0 0.00625 115.94456 169.67937
155.0 0.00645 116.02587 173.29385
164.0 0.00610 116.10761 176.84857
157.0 0.00637 116.18979 180.29027
149.0 0.00671 116.27247 183.57388
156.0 0.00641 116.35558 186.66444
166.0 0.00602 116.43912 189.53789
171.0 0.00585 116.52307 192.17509
152.0 0.00658 116.60754 194.55225
170.0 0.00588 116.69242 196.62891
175.0 0.00571 116.77769 198.33798
153.0 0.00654 116.86346 199.58377
165.0 0.00606 116.94965 200.25314
176.0 0.00568 117.03626 200.24162
178.0 0.00562 117.12328 199.48660
177.0 0.00565 117.21075 197.99385
160.0 0.00625 117.29865 195.84233
167.0 0.00599 117.38699 193.16391
164.0 0.00610 117.47568 190.10765
204.0 0.00490 117.56483 186.80632
160.0 0.00625 117.65440 183.35542
165.0 0.00606 117.74435 179.80954
170.0 0.00588 117.83475 176.19456
154.0 0.00649 117.92551 172.52670
160.0 0.00625 118.01671 168.83147
140.0 0.00714 118.10825 165.15506
158.0 0.00633 118.20029 161.55301
150.0 0.00667 118.29265 158.09203
138.0 0.00725 118.38541 154.82973
136.0 0.00735 118.47858 151.80884
160.0 0.00625 118.57214 149.05554
123.0 0.00813 118.66609 146.58023
148.0 0.00676 118.76039 144.38170
158.0 0.00633 118.85509 142.44971
134.0 0.00746 118.95018 140.76843
137.0 0.00730 119.04562 139.31862
120.0 0.00833 119.14146 138.23633
133.0 0.00752 119.23767 137.27032
142.0 0.00704 119.33424 136.38664
132.0 0.00758 119.43114 135.64867
115.0 0.00870 119.52844 135.03683
123.0 0.00813 119.62608 134.53313
116.0 0.00862 119.72411 134.12146
124.0 0.00806 119.82248 133.78755
128.0 0.00781 119.92116 133.51907
128.0 0.00781 120.02023 133.30585
132.0 0.00758 120.11962 133.13876
135.0 0.00741 120.21938 133.08882
121.0 0.00826 120.31946 132.99435
126.0 0.00794 120.41994 132.92838
125.0 0.00800 120.52067 132.88692
134.0 0.00746 120.62180 132.86685
129.0 0.00775 120.72320 132.86574
138.0 0.00725 120.82494 132.88147
136.0 0.00735 120.92702 132.91246
119.0 0.00840 121.02943 132.95737
119.0 0.00840 121.13214 133.01508
139.0 0.00719 121.23517 133.08450
129.0 0.00775 121.33857 133.16501
139.0 0.00719 121.44218 133.25572
155.0 0.00645 121.54616 133.55278
118.0 0.00847 121.65046 133.66335
123.0 0.00813 121.75502 133.78482
117.0 0.00855 121.85991 133.91266
135.0 0.00741 121.96506 134.04849
125.0 0.00800 122.07053 134.19212
128.0 0.00781 122.17629 134.34323
133.0 0.00752 122.28237 134.50166
133.0 0.00752 122.38868 134.66714
128.0 0.00781 122.49529 134.83957
135.0 0.00741 122.60219 135.01884
157.0 0.00637 122.70936 135.20480
123.0 0.00813 122.81685 135.44438
124.0 0.00806 122.92453 135.64365
134.0 0.00746 123.03257 135.85052
140.0 0.00714 123.14078 136.06287
108.0 0.00926 123.24934 136.28163
134.0 0.00746 123.35809 136.50703
144.0 0.00694 123.46710 136.73895
140.0 0.00714 123.57643 136.97748
136.0 0.00735 123.68594 137.22261
140.0 0.00714 123.79574 137.47461
134.0 0.00746 123.90577 137.73338
160.0 0.00625 124.01608 137.99918
122.0 0.00820 124.12657 138.27203
150.0 0.00667 124.23733 138.55214
151.0 0.00662 124.34834 138.83975
162.0 0.00617 124.45953 139.13501
144.0 0.00694 124.57101 139.43817
145.0 0.00690 124.68268 139.74925
139.0 0.00719 124.79459 140.06874
141.0 0.00709 124.90670 140.39688
130.0 0.00769 125.01907 140.73392
139.0 0.00719 125.13161 141.08011
133.0 0.00752 125.24433 141.43594
149.0 0.00671 125.35735 141.80176
150.0 0.00667 125.47049 142.17787
157.0 0.00637 125.58386 142.56487
143.0 0.00699 125.69743 142.96323
162.0 0.00617 125.81125 143.37335
149.0 0.00671 125.92517 143.90228
134.0 0.00746 126.03936 144.33812
133.0 0.00752 126.15369 144.78758
137.0 0.00730 126.26821 145.25134
154.0 0.00649 126.38293 145.73032
149.0 0.00671 126.49781 146.22507
161.0 0.00621 126.61292 146.73665
141.0 0.00709 126.72813 147.26599
149.0 0.00671 126.84354 147.89694
152.0 0.00658 126.95909 148.46523
173.0 0.00578 127.07484 149.05463
148.0 0.00676 127.19074 149.66663
139.0 0.00719 127.30680 150.30249
141.0 0.00709 127.42302 150.96385
171.0 0.00585 127.53934 151.65244
156.0 0.00641 127.65594 152.37021
163.0 0.00613 127.77255 153.11903
140.0 0.00714 127.88936 153.90137
146.0 0.00685 128.00629 154.71954
153.0 0.00654 128.12332 155.57632
142.0 0.00704 128.24059 156.51622
172.0 0.00581 128.35794 157.45973
173.0 0.00578 128.47543 158.45195
161.0 0.00621 128.59299 159.49680
169.0 0.00592 128.71071 160.59886
166.0 0.00602 128.82854 161.76324
180.0 0.00556 128.94653 162.99573
158.0 0.00633 129.06458 164.30263
183.0 0.00546 129.18274 165.69144
195.0 0.00513 129.30104 167.17064
176.0 0.00568 129.41940 168.75011
201.0 0.00498 129.53795 170.44164
157.0 0.00637 129.65652 172.25922
181.0 0.00552 129.77521 174.22002
196.0 0.00510 129.89395 176.34515
170.0 0.00588 130.01280 178.66124
222.0 0.00450 130.13176 181.20146
185.0 0.00541 130.25078 184.00813
201.0 0.00498 130.36993 187.13470
206.0 0.00485 130.48914 190.64902
197.0 0.00508 130.60838 194.63615
214.0 0.00467 130.72771 199.20143
210.0 0.00476 130.84711 204.47453
237.0 0.00422 130.96658 210.61119
218.0 0.00459 131.08609 217.79597
226.0 0.00442 131.20570 226.24248
239.0 0.00418 131.32533 236.19110
244.0 0.00410 131.44502 247.90649
223.0 0.00448 131.56480 261.66934
275.0 0.00364 131.68459 277.76764
265.0 0.00377 131.80441 296.48209
299.0 0.003344 131.92432 318.07181
326.0 0.003067 132.04422 342.75372
351.0 0.002849 132.16412 370.68048
429.0 0.002331 132.28413 401.91434
458.0 0.002183 132.40413 436.39529
468.0 0.002137 132.52419 473.90021
542.0 0.001845 132.64423 513.99109
553.0 0.001808 132.76431 555.95215
593.0 0.001686 132.88440 598.72253
645.0 0.001550 133.00450 640.84943
722.0 0.001385 133.12465 680.50543
730.0 0.001370 133.24477 715.62634
734.0 0.001362 133.36488 744.20239
785.0 0.001274 133.48502 764.67963
765.0 0.001307 133.60518 776.33069
776.0 0.001289 133.72527 779.40833
779.0 0.001284 133.84543 775.18848
778.0 0.001285 133.96552 764.78583
702.0 0.001425 134.08557 749.88672
713.0 0.001403 134.20569 731.62427
706.0 0.001416 134.32574 710.63202
728.0 0.001374 134.44582 687.10223
649.0 0.001541 134.56578 660.98969
621.0 0.001610 134.68581 632.27960
581.0 0.001721 134.80574 601.21130
546.0 0.001832 134.92569 568.36578
503.0 0.001988 135.04556 534.59674
474.0 0.002110 135.16537 500.86551
469.0 0.002132 135.28517 468.16907
461.0 0.002169 135.40494 437.03195
406.0 0.002463 135.52467 408.05988
355.0 0.002817 135.64430 381.55597
445.0 0.002247 135.76390 357.65790
364.0 0.002747 135.88341 336.37872
328.0 0.003049 136.00290 317.64447
298.0 0.003356 136.12233 301.32205
301.0 0.003322 136.24168 287.24084
275.0 0.00364 136.36096 275.20847
279.0 0.00358 136.48013 265.02145
271.0 0.00369 136.59930 256.47525
273.0 0.00366 136.71832 249.37071
250.0 0.00400 136.83731 243.51952
241.0 0.00415 136.95618 238.74841
248.0 0.00403 137.07495 234.90128
270.0 0.00370 137.19368 231.84099
218.0 0.00459 137.31227 229.44936
228.0 0.00439 137.43082 227.62669
231.0 0.00433 137.54919 226.29054
240.0 0.00417 137.66754 225.37407
222.0 0.00450 137.78575 224.82419
215.0 0.00465 137.90387 224.59959
218.0 0.00459 138.02184 224.66875
232.0 0.00431 138.13972 225.00887
251.0 0.00398 138.25751 225.60416
254.0 0.00394 138.37511 226.44447
251.0 0.00398 138.49268 227.52528
246.0 0.00407 138.61005 228.84604
236.0 0.00424 138.72734 230.41125
224.0 0.00446 138.84441 232.22917
250.0 0.00400 138.96143 234.31281
256.0 0.00391 139.07829 236.67995
277.0 0.00361 139.19498 239.35350
259.0 0.00386 139.31163 242.36264
272.0 0.00368 139.42804 245.74304
277.0 0.00361 139.54437 249.53818
316.0 0.003165 139.66048 253.80038
300.0 0.003333 139.77647 258.59140
290.0 0.003448 139.89230 263.98413
272.0 0.00368 140.00793 270.06253
324.0 0.003086 140.12347 276.92346
293.0 0.003413 140.23882 284.67676
311.0 0.003215 140.35402 293.44504
283.0 0.00353 140.46896 303.36438
362.0 0.002762 140.58385 314.58594
330.0 0.003030 140.69847 327.26273
360.0 0.002778 140.81296 341.56607
379.0 0.002639 140.92723 357.67041
401.0 0.002494 141.04134 375.75320
417.0 0.002398 141.15526 395.99033
479.0 0.002088 141.26900 418.55151
483.0 0.002070 141.38255 443.59439
507.0 0.001972 141.49586 471.25751
542.0 0.001845 141.60901 501.65298
560.0 0.001786 141.72194 534.85626
650.0 0.001538 141.83467 570.89691
631.0 0.001585 141.94724 609.74451
664.0 0.001506 142.05952 651.28986
689.0 0.001451 142.17165 695.32916
733.0 0.001364 142.28355 741.53992
820.0 0.001220 142.39526 789.45258
815.0 0.001227 142.50670 838.42780
885.0 0.001130 142.61792 887.63556
969.0 0.001032 142.72894 936.05426
971.0 0.001030 142.83968 982.49109
980.0 0.001020 142.95026 1025.64868
1036.0 0.000965 143.06055 1064.22278
1086.0 0.000921 143.17065 1097.03918
1051.0 0.000951 143.28050 1123.19617
1115.0 0.000897 143.39009 1142.16956
1108.0 0.000903 143.49945 1153.85913
1138.0 0.000879 143.60857 1158.54761
1169.0 0.000855 143.71742 1156.78906
1150.0 0.000870 143.82600 1149.26147
1174.0 0.000852 143.93436 1136.63098
1182.0 0.000846 144.04245 1119.45264
1128.0 0.000887 144.15033 1098.14270
1103.0 0.000907 144.25786 1073.00708
1076.0 0.000929 144.36520 1044.30957
1002.0 0.000998 144.47220 1012.36108
1002.0 0.000998 144.57898 977.58630
989.0 0.001011 144.68547 940.56366
962.0 0.001040 144.79169 902.01202
952.0 0.001050 144.89763 862.74249
899.0 0.001112 145.00328 823.57861
808.0 0.001238 145.10870 785.28503
784.0 0.001276 145.21378 748.50928
760.0 0.001316 145.31857 713.75800
701.0 0.001427 145.42313 681.39716
728.0 0.001374 145.52731 651.66620
693.0 0.001443 145.63129 624.72620
639.0 0.001565 145.73486 600.68683
609.0 0.001642 145.83823 579.64111
589.0 0.001698 145.94122 561.68640
599.0 0.001669 146.04396 546.93335
577.0 0.001733 146.14638 535.50745
600.0 0.001667 146.24847 527.54987
559.0 0.001789 146.35025 523.21820
520.0 0.001923 146.45174 522.69104
564.0 0.001773 146.55287 526.17413
535.0 0.001869 146.65370 533.90424
572.0 0.001748 146.75426 546.14862
566.0 0.001767 146.85443 563.21057
603.0 0.001658 146.95432 585.41772
631.0 0.001585 147.05380 613.11774
648.0 0.001543 147.15300 646.66510
728.0 0.001374 147.25188 686.40051
771.0 0.001297 147.35039 732.63800
902.0 0.001109 147.44861 785.63824
907.0 0.001103 147.54645 845.58069
995.0 0.001005 147.64397 912.48315
1050.0 0.000952 147.74112 986.35718
1121.0 0.000892 147.83798 1066.86682
1210.0 0.000826 147.93442 1153.46069
1212.0 0.000825 148.03052 1245.24951
1359.0 0.000736 148.12627 1340.92175
1516.0 0.000660 148.22165 1438.65503
1603.0 0.000624 148.31673 1536.06067
1672.0 0.000598 148.41139 1630.15796
1771.0 0.000565 148.50572 1717.59509
1833.0 0.000546 148.59962 1794.77649
1870.0 0.000535 148.69325 1858.38721
1924.0 0.000520 148.78641 1905.86194
2031.0 0.000492 148.87924 1935.81213
1942.0 0.000515 148.97169 1948.20654
2005.0 0.000499 149.06381 1944.23901
2008.0 0.000498 149.15552 1925.91321
1970.0 0.000508 149.24684 1895.50427
1974.0 0.000507 149.33778 1855.07300
1922.0 0.000520 149.42828 1806.17090
1846.0 0.000542 149.51846 1749.77417
1923.0 0.000520 149.60825 1686.43530
1706.0 0.000586 149.69762 1616.56421
1611.0 0.000621 149.78664 1540.72522
1524.0 0.000656 149.87518 1459.84863
1466.0 0.000682 149.96339 1375.27771
1427.0 0.000701 150.05121 1288.66919
1238.0 0.000808 150.13860 1201.79382
1124.0 0.000890 150.22557 1116.33789
1050.0 0.000952 150.31213 1033.74402
1044.0 0.000958 150.39832 955.13513
962.0 0.001040 150.48407 881.30127
876.0 0.001142 150.56943 812.73071
817.0 0.001224 150.65433 749.65930
740.0 0.001351 150.73888 692.12622
632.0 0.001582 150.82295 640.02301
582.0 0.001718 150.90666 593.13483
608.0 0.001645 150.98993 551.17365
519.0 0.001927 151.07274 513.80438
514.0 0.001946 151.15514 480.66385
482.0 0.002075 151.23706 451.37589
428.0 0.002336 151.31866 425.56509
379.0 0.002639 151.39977 402.86343
387.0 0.002584 151.48044 382.92133
376.0 0.002660 151.56068 365.40546
386.0 0.002591 151.64046 350.01163
364.0 0.002747 151.71986 336.46167
310.0 0.003226 151.79875 324.50574
316.0 0.003165 151.87726 313.92172
309.0 0.003236 151.95529 304.51544
309.0 0.003236 152.03287 296.11801
292.0 0.003425 152.11000 288.58502
287.0 0.003484 152.18671 281.79306
275.0 0.00364 152.26295 275.63831
252.0 0.00397 152.33870 270.03354
241.0 0.00415 152.41408 264.90558
271.0 0.00369 152.48892 260.19406
248.0 0.00403 152.56334 255.84715
221.0 0.00452 152.63728 251.82301
268.0 0.00373 152.71078 248.08615
264.0 0.00379 152.78380 244.60667
243.0 0.00412 152.85638 241.35931
214.0 0.00467 152.92842 238.32239
220.0 0.00455 153.00005 235.47720
217.0 0.00461 153.07123 232.80783
239.0 0.00418 153.14191 230.29984
252.0 0.00397 153.21208 227.94089
229.0 0.00437 153.28178 225.71982
199.0 0.00503 153.35106 223.62666
218.0 0.00459 153.41983 221.65256
231.0 0.00433 153.48811 219.78932
228.0 0.00439 153.55592 218.02983
214.0 0.00467 153.62326 216.36734
231.0 0.00433 153.69009 214.79587
209.0 0.00478 153.75644 213.30995
219.0 0.00457 153.82230 211.90460
216.0 0.00463 153.88770 210.57535
207.0 0.00483 153.95256 209.31822
235.0 0.00426 154.01692 208.12950
215.0 0.00465 154.08089 207.00591
204.0 0.00490 154.14429 205.94478
213.0 0.00469 154.20715 204.94370
191.0 0.00524 154.26961 204.00075
206.0 0.00485 154.33145 203.11423
200.0 0.00500 154.39288 202.28326
224.0 0.00446 154.45378 201.50687
192.0 0.00521 154.51422 200.78528
211.0 0.00474 154.57407 200.11858
181.0 0.00552 154.63345 199.50748
180.0 0.00556 154.69235 198.95348
208.0 0.00481 154.75072 198.45778
196.0 0.00510 154.80859 198.02261
179.0 0.00559 154.86592 197.65013
187.0 0.00535 154.92276 197.34247
210.0 0.00476 154.97906 197.10197
200.0 0.00500 155.03487 196.93092
216.0 0.00463 155.09019 196.83112
193.0 0.00518 155.14494 196.80380
185.0 0.00541 155.19917 196.84924
202.0 0.00495 155.25294 196.96690
190.0 0.00526 155.30612 197.15450
207.0 0.00483 155.35881 197.40788
171.0 0.00585 155.41095 197.72020
188.0 0.00532 155.46259 198.08167
214.0 0.00467 155.51369 198.47804
188.0 0.00532 155.56432 198.89137
175.0 0.00571 155.61432 199.29822
184.0 0.00543 155.66388 199.67213
227.0 0.00441 155.71281 199.98506
211.0 0.00474 155.76129 200.21085
206.0 0.00485 155.80923 200.32986
173.0 0.00578 155.85664 200.33209
175.0 0.00571 155.90347 200.21910
185.0 0.00541 155.94978 200.00208
200.0 0.00500 155.99559 199.69872
208.0 0.00481 156.04082 199.32814
191.0 0.00524 156.08551 198.90721
196.0 0.00510 156.12970 198.44778
200.0 0.00500 156.17334 197.95634
189.0 0.00529 156.21637 197.43503
210.0 0.00476 156.25893 196.88443
198.0 0.00505 156.30095 196.30591
182.0 0.00549 156.34238 195.70386
197.0 0.00508 156.38329 195.08649
216.0 0.00463 156.42363 194.46512
167.0 0.00599 156.46346 193.85291
168.0 0.00595 156.50270 193.26242
193.0 0.00518 156.54144 192.70512
190.0 0.00526 156.57959 192.18954
180.0 0.00556 156.61720 191.72223
179.0 0.00559 156.65424 191.30673
176.0 0.00568 156.69077 190.94530
183.0 0.00546 156.72670 190.63843
193.0 0.00518 156.76210 190.38541
170.0 0.00588 156.79695 190.35979
170.0 0.00588 156.83125 190.21072
186.0 0.00538 156.86501 190.11021
171.0 0.00585 156.89815 190.05608
182.0 0.00549 156.93073 190.04591
175.0 0.00571 156.96286 190.07736
173.0 0.00578 156.99434 190.14835
187.0 0.00535 157.02530 190.25696
196.0 0.00510 157.05566 190.40123
179.0 0.00559 157.08551 190.57977
178.0 0.00562 157.11475 190.79144
182.0 0.00549 157.14343 191.03497
192.0 0.00521 157.17159 191.30984
200.0 0.00500 157.19917 191.70320
208.0 0.00481 157.22615 192.04022
187.0 0.00535 157.25261 192.40823
192.0 0.00521 157.27846 192.80757
179.0 0.00559 157.30382 193.23907
190.0 0.00526 157.32854 193.70331
205.0 0.00488 157.35272 194.20172
182.0 0.00549 157.37633 194.73549
198.0 0.00505 157.39940 195.30626
189.0 0.00529 157.42191 195.91565
217.0 0.00461 157.44380 196.56587
186.0 0.00538 157.46513 197.25917
193.0 0.00518 157.48593 197.99799
175.0 0.00571 157.50612 198.78523
217.0 0.00461 157.52576 199.62396
210.0 0.00476 157.54483 200.51746
201.0 0.00498 157.56331 201.47011
203.0 0.00493 157.58124 202.48570
209.0 0.00478 157.59862 203.56906
199.0 0.00503 157.61536 204.72542
210.0 0.00476 157.63159 205.96068
229.0 0.00437 157.64723 207.28152
230.0 0.00435 157.66232 208.69527
253.0 0.00395 157.67683 210.21017
231.0 0.00433 157.69073 211.83600
228.0 0.00439 157.70407 213.58357
221.0 0.00452 157.71687 215.46561
203.0 0.00493 157.72910 217.49689
219.0 0.00457 157.74072 219.69510
225.0 0.00444 157.75175 222.08118
232.0 0.00431 157.76225 224.68065
263.0 0.00380 157.77216 227.52492
255.0 0.00392 157.78148 230.65233
210.0 0.00476 157.79024 234.11020
243.0 0.00412 157.79845 237.95770
251.0 0.00398 157.80605 242.26770
234.0 0.00427 157.81308 247.13004
289.0 0.003460 157.81953 252.65453
242.0 0.00413 157.82542 258.97397
256.0 0.00391 157.83078 266.24670
277.0 0.00361 157.83548 274.65933
294.0 0.003401 157.83965 284.42700
314.0 0.003185 157.84328 295.79364
300.0 0.003333 157.84630 309.02841
332.0 0.003012 157.84871 324.42258
348.0 0.002874 157.85059 342.28052
388.0 0.002577 157.85187 362.91058
396.0 0.002525 157.85262 386.61121
432.0 0.002315 157.85274 413.65649
453.0 0.002208 157.85231 444.27731
462.0 0.002165 157.85130 478.64081
548.0 0.001825 157.84972 516.82666
553.0 0.001808 157.84756 558.79926
647.0 0.001546 157.84483 604.37030
662.0 0.001511 157.84154 653.15430
724.0 0.001381 157.83766 704.50903
768.0 0.001302 157.83324 757.46967
856.0 0.001168 157.82822 810.68579
921.0 0.001086 157.82262 862.39569
941.0 0.001063 157.81645 910.47656
986.0 0.001014 157.80971 952.62634
1043.0 0.000959 157.80244 986.68793
1085.0 0.000922 157.79453 1011.05756
1095.0 0.000913 157.78609 1025.04004
1108.0 0.000903 157.77710 1028.98987
1011.0 0.000989 157.76746 1024.16272
1044.0 0.000958 157.75734 1012.33533
1046.0 0.000956 157.74663 995.35004
1051.0 0.000951 157.73531 974.74115
988.0 0.001012 157.72343 951.51672
981.0 0.001019 157.71098 926.12097
985.0 0.001015 157.69798 898.54517
923.0 0.001083 157.68440 868.55005
886.0 0.001129 157.67029 835.93750
834.0 0.001199 157.65553 800.78186
750.0 0.001333 157.64027 763.54797
760.0 0.001316 157.62445 725.05621
700.0 0.001429 157.60805 686.34021
642.0 0.001558 157.59108 648.46515
612.0 0.001634 157.57358 612.38629
612.0 0.001634 157.55544 578.87115
581.0 0.001721 157.53679 548.48608
572.0 0.001748 157.51755 521.61902
542.0 0.001845 157.49773 498.51941
533.0 0.001876 157.47742 479.33771
473.0 0.002114 157.45648 464.15747
500.0 0.002000 157.43503 453.02084
454.0 0.002203 157.41296 445.94452
482.0 0.002075 157.39040 442.93008
427.0 0.002342 157.36728 443.96970
490.0 0.002041 157.34355 449.04849
484.0 0.002066 157.31926 458.14194
463.0 0.002160 157.29443 471.21396
474.0 0.002110 157.26906 488.20801
550.0 0.001818 157.24312 509.03946
539.0 0.001855 157.21667 533.58160
573.0 0.001745 157.18962 561.64795
607.0 0.001647 157.16200 592.97034
631.0 0.001585 157.13385 627.16858
678.0 0.001475 157.10518 663.71515
724.0 0.001381 157.07591 701.89459
751.0 0.001332 157.04613 740.76746
800.0 0.001250 157.01579 779.14978
842.0 0.001188 156.98488 815.63342
877.0 0.001140 156.95345 848.66821
890.0 0.001124 156.92143 876.71674
913.0 0.001095 156.88892 898.47015
956.0 0.001046 156.85583 913.06842
961.0 0.001041 156.82219 920.25220
878.0 0.001139 156.78802 920.37817
889.0 0.001125 156.75328 914.28796
936.0 0.001068 156.71805 903.07831
868.0 0.001152 156.68224 887.85126
844.0 0.001185 156.64590 869.51294
884.0 0.001131 156.60905 848.66663
755.0 0.001325 156.57164 825.60364
786.0 0.001272 156.53369 800.38025
817.0 0.001224 156.49522 772.95087
780.0 0.001282 156.45622 743.31616
687.0 0.001456 156.41670 711.64325
685.0 0.001460 156.37660 678.31696
704.0 0.001420 156.33597 643.91443
607.0 0.001647 156.29486 609.12531
550.0 0.001818 156.25319 574.65186
509.0 0.001965 156.21097 541.12549
525.0 0.001905 156.16821 509.05634
508.0 0.001969 156.12498 478.81622
457.0 0.002188 156.08119 450.64554
450.0 0.002222 156.03691 424.67276
410.0 0.002439 155.99210 400.93839
406.0 0.002463 155.94673 379.41656
346.0 0.002890 155.90089 360.03433
335.0 0.002985 155.85452 342.68506
344.0 0.002907 155.80760 327.31207
318.0 0.003145 155.76021 313.63202
265.0 0.00377 155.71225 301.56729
277.0 0.00361 155.66382 290.96768
257.0 0.00389 155.61487 281.68491
274.0 0.00365 155.56540 273.57574
250.0 0.00400 155.51537 266.50516
253.0 0.00395 155.46492 260.34711
265.0 0.00377 155.41394 254.98637
230.0 0.00435 155.36244 250.31915
242.0 0.00413 155.31039 246.25323
250.0 0.00400 155.25790 242.70746
253.0 0.00395 155.20490 239.61230
246.0 0.00407 155.15135 236.90773
250.0 0.00400 155.09737 234.57880
224.0 0.00446 155.04289 232.51244
254.0 0.00394 154.98787 230.70900
241.0 0.00415 154.93233 229.13985
253.0 0.00395 154.87634 227.78159
248.0 0.00403 154.81989 226.61548
216.0 0.00463 154.76285 225.62650
203.0 0.00493 154.70541 224.80289
224.0 0.00446 154.64745 224.13533
216.0 0.00463 154.58902 223.58984
261.0 0.00383 154.53008 223.21576
238.0 0.00420 154.47067 222.98262
246.0 0.00407 154.41074 222.90309
249.0 0.00402 154.35039 222.94725
242.0 0.00413 154.28949 223.13089
230.0 0.00435 154.22816 223.45566
217.0 0.00461 154.16638 223.92528
232.0 0.00431 154.10405 224.54430
231.0 0.00433 154.04135 225.31929
213.0 0.00469 153.97810 226.25839
259.0 0.00386 153.91438 227.37199
243.0 0.00412 153.85023 228.67328
223.0 0.00448 153.78560 230.17833
211.0 0.00474 153.72049 231.90779
246.0 0.00407 153.65494 233.88708
218.0 0.00459 153.58893 236.14825
243.0 0.00412 153.52245 238.73131
250.0 0.00400 153.45547 241.68629
267.0 0.00375 153.38812 245.08276
256.0 0.00391 153.32022 248.98293
232.0 0.00431 153.25194 253.48848
258.0 0.00388 153.18315 258.71371
261.0 0.00383 153.11394 264.79544
277.0 0.00361 153.04430 271.89554
312.0 0.003205 152.97418 280.20181
312.0 0.003205 152.90366 289.92880
295.0 0.003390 152.83263 301.31619
318.0 0.003145 152.76123 314.62653
312.0 0.003205 152.68938 330.13980
347.0 0.002882 152.61703 348.14685
377.0 0.002653 152.54424 368.93884
404.0 0.002475 152.47110 392.79691
397.0 0.002519 152.39748 419.97665
464.0 0.002155 152.32343 450.69260
497.0 0.002012 152.24895 485.09937
504.0 0.001984 152.17404 523.26904
555.0 0.001802 152.09875 565.16522
625.0 0.001600 152.02299 610.60999
658.0 0.001520 151.94685 659.24036
718.0 0.001393 151.87021 710.45905
743.0 0.001346 151.79324 763.37219
777.0 0.001287 151.71581 816.73645
837.0 0.001195 151.63799 868.92609
896.0 0.001116 151.55974 917.97028
992.0 0.001008 151.48108 961.68835
999.0 0.001001 151.40199 997.95355
1034.0 0.000967 151.32253 1025.04626
967.0 0.001034 151.24269 1042.00244
981.0 0.001019 151.16237 1048.80859
1065.0 0.000939 151.08173 1046.36877
1044.0 0.000958 151.00069 1036.22815
1039.0 0.000962 150.91917 1020.18396
987.0 0.001013 150.83733 999.89813
959.0 0.001043 150.75507 976.63245
944.0 0.001059 150.67239 951.12164
931.0 0.001074 150.58937 923.59326
922.0 0.001085 150.50597 893.89954
804.0 0.001244 150.42215 861.73151
828.0 0.001208 150.33794 826.85858
748.0 0.001337 150.25342 789.32306
766.0 0.001305 150.16846 749.53241
686.0 0.001458 150.08315 708.21814
702.0 0.001425 149.99742 666.30408
598.0 0.001672 149.91139 624.74561
554.0 0.001805 149.82494 584.39618
557.0 0.001795 149.73816 545.93207
476.0 0.002101 149.65102 509.83286
456.0 0.002193 149.56346 476.39624
446.0 0.002242 149.47556 445.77039
402.0 0.002488 149.38730 417.98889
369.0 0.002710 149.29877 393.00198
347.0 0.002882 149.20973 370.70145
367.0 0.002725 149.12044 350.93872
327.0 0.003058 149.03076 333.53937
286.0 0.003497 148.94080 318.31360
321.0 0.003115 148.85042 305.06378
310.0 0.003226 148.75974 293.59232
266.0 0.00376 148.66867 283.70569
260.0 0.00385 148.57732 275.21957
252.0 0.00397 148.48560 267.96201
265.0 0.00377 148.39351 261.77582
280.0 0.00357 148.30113 256.51981
274.0 0.00365 148.20839 252.06975
235.0 0.00426 148.11539 248.31894
254.0 0.00394 148.02203 245.17670
237.0 0.00422 147.92830 242.56801
224.0 0.00446 147.83430 240.43256
230.0 0.00435 147.73997 238.72260
223.0 0.00448 147.64534 237.40289
237.0 0.00422 147.55035 236.44829
267.0 0.00375 147.45509 235.84331
231.0 0.00433 147.35951 235.58102
231.0 0.00433 147.26363 235.66228
220.0 0.00455 147.16742 236.09535
220.0 0.00455 147.07088 236.89505
235.0 0.00426 146.97412 238.08308
250.0 0.00400 146.87700 239.68710
231.0 0.00433 146.77960 241.74074
245.0 0.00408 146.68192 244.28389
226.0 0.00442 146.58391 247.36159
263.0 0.00380 146.48569 251.02423
260.0 0.00385 146.38712 255.32678
235.0 0.00426 146.28827 260.32913
246.0 0.00407 146.18912 266.09140
273.0 0.00366 146.08977 272.67856
288.0 0.003472 145.99005 280.15552
258.0 0.00388 145.89012 288.58615
296.0 0.003378 145.78986 298.03214
272.0 0.00368 145.68941 308.55054
302.0 0.003311 145.58864 320.19202
320.0 0.003125 145.48758 332.99695
393.0 0.002545 145.38632 346.99442
370.0 0.002703 145.28474 362.19708
351.0 0.002849 145.18297 378.59750
452.0 0.002212 145.08089 396.16281
432.0 0.002315 144.97858 414.82944
426.0 0.002347 144.87598 434.49298
435.0 0.002299 144.77316 455.00323
503.0 0.001988 144.67014 476.15314
504.0 0.001984 144.56680 497.67133
513.0 0.001949 144.46327 519.21490
492.0 0.002033 144.35947 540.37183
528.0 0.001894 144.25543 560.66937
546.0 0.001832 144.15118 579.59314
560.0 0.001786 144.04669 596.62433
643.0 0.001555 143.94203 611.28223
553.0 0.001808 143.83705 623.17505
605.0 0.001653 143.73193 632.04309
610.0 0.001639 143.62651 637.78333
614.0 0.001629 143.52092 640.45056
597.0 0.001675 143.41507 640.23090
563.0 0.001776 143.30907 637.39575
623.0 0.001605 143.20282 632.24976
618.0 0.001618 143.09637 625.07892
611.0 0.001637 142.98975 616.11816
626.0 0.001597 142.88286 605.53558
621.0 0.001610 142.77580 593.43884
592.0 0.001689 142.66853 579.89935
595.0 0.001681 142.56108 564.98346
574.0 0.001742 142.45341 548.78589
532.0 0.001880 142.34560 531.45404
528.0 0.001894 142.23759 513.19330
497.0 0.002012 142.12935 494.26086
480.0 0.002083 142.02097 474.94418
506.0 0.001976 141.91237 455.53680
453.0 0.002208 141.80367 436.31406
388.0 0.002577 141.69469 417.51578
370.0 0.002703 141.58563 399.33774
378.0 0.002646 141.47630 381.92755
395.0 0.002532 141.36688 365.38998
369.0 0.002710 141.25732 349.79263
317.0 0.003155 141.14755 335.17422
308.0 0.003247 141.03760 321.55252
320.0 0.003125 140.92749 308.92941
315.0 0.003175 140.81728 297.29498
291.0 0.003436 140.70689 286.62836
281.0 0.00356 140.59633 276.89984
278.0 0.00360 140.48563 268.07172
270.0 0.00370 140.37482 260.09964
279.0 0.00358 140.26387 252.93390
241.0 0.00415 140.15273 246.52098
244.0 0.00410 140.04149 240.80515
253.0 0.00395 139.93010 235.72932
232.0 0.00431 139.81857 231.23645
233.0 0.00429 139.70691 227.26996
230.0 0.00435 139.59514 223.77510
246.0 0.00407 139.48329 220.69911
187.0 0.00535 139.37125 217.99237
206.0 0.00485 139.25909 215.60898
231.0 0.00433 139.14688 213.50751
213.0 0.00469 139.03452 211.65134
211.0 0.00474 138.92201 210.00851
203.0 0.00493 138.80946 208.55188
195.0 0.00513 138.69675 207.25732
186.0 0.00538 138.58394 206.10324
216.0 0.00463 138.47110 205.06885
223.0 0.00448 138.35806 204.13249
207.0 0.00483 138.24503 203.27090
190.0 0.00526 138.13184 202.45868
194.0 0.00515 138.01860 201.66837
215.0 0.00465 137.90523 200.87236
182.0 0.00549 137.79181 200.04533
159.0 0.00629 137.67822 199.16785
173.0 0.00578 137.56467 198.22873
199.0 0.00503 137.45100 197.22670
194.0 0.00515 137.33725 196.17024
193.0 0.00518 137.22343 195.07468
182.0 0.00549 137.10950 193.95866
204.0 0.00490 136.99561 192.84099
180.0 0.00556 136.88156 191.73711
175.0 0.00571 136.76750 190.65771
184.0 0.00543 136.65337 189.60890
183.0 0.00546 136.53917 188.59207
215.0 0.00465 136.42491 187.60645
180.0 0.00556 136.31059 186.65013
178.0 0.00562 136.19629 185.72311
168.0 0.00595 136.08186 184.82774
207.0 0.00483 135.96744 183.96927
183.0 0.00546 135.85295 183.15564
178.0 0.00562 135.73845 182.39609
162.0 0.00617 135.62396 181.69949
182.0 0.00549 135.50937 181.07408
177.0 0.00565 135.39479 180.52649
183.0 0.00546 135.28009 180.06197
164.0 0.00610 135.16545 179.68472
173.0 0.00578 135.05077 179.55589
149.0 0.00671 134.93611 179.35825
176.0 0.00568 134.82138 179.25256
161.0 0.00621 134.70663 179.24004
181.0 0.00552 134.59193 179.32178
151.0 0.00662 134.47719 179.49945
178.0 0.00562 134.36243 179.77513
209.0 0.00478 134.24765 180.15166
160.0 0.00625 134.13292 180.63249
178.0 0.00562 134.01814 181.22221
175.0 0.00571 133.90343 181.92699
158.0 0.00633 133.78871 182.75346
193.0 0.00518 133.67397 183.71053
185.0 0.00541 133.55927 184.80843
188.0 0.00532 133.44452 186.05911
165.0 0.00606 133.32983 187.55627
192.0 0.00521 133.21519 189.15523
195.0 0.00513 133.10056 190.95387
170.0 0.00588 132.98592 192.97179
196.0 0.00510 132.87134 195.23091
190.0 0.00526 132.75676 197.75481
212.0 0.00472 132.64224 200.56918
190.0 0.00526 132.52777 203.70172
192.0 0.00521 132.41328 207.18153
191.0 0.00524 132.29886 211.03926
212.0 0.00472 132.18449 215.30673
225.0 0.00444 132.07019 220.01662
197.0 0.00508 131.95589 225.20187
226.0 0.00442 131.84169 230.89517
244.0 0.00410 131.72754 237.12881
267.0 0.00375 131.61340 243.93359
246.0 0.00407 131.49937 251.33856
229.0 0.00437 131.38535 259.36938
244.0 0.00410 131.27145 268.04871
275.0 0.00364 131.15753 277.39374
271.0 0.00369 131.04375 287.41611
277.0 0.00361 130.93008 298.11969
281.0 0.00356 130.81641 309.49957
292.0 0.003425 130.70285 321.53992
335.0 0.002985 130.58934 334.21164
318.0 0.003145 130.47592 347.46945
310.0 0.003226 130.36256 361.24945
355.0 0.002817 130.24934 375.46600
384.0 0.002604 130.13617 390.09213
360.0 0.002778 130.02310 404.82025
358.0 0.002793 129.91019 419.56564
410.0 0.002439 129.79730 434.13025
409.0 0.002445 129.68452 448.28806
414.0 0.002415 129.57182 461.79370
416.0 0.002404 129.45927 474.38705
430.0 0.002326 129.34680 485.86725
474.0 0.002110 129.23445 495.89102
453.0 0.002208 129.12219 504.31091
431.0 0.002320 129.01010 510.97760
440.0 0.002273 128.89812 515.80286
471.0 0.002123 128.78619 518.76251
486.0 0.002058 128.67442 519.89276
466.0 0.002146 128.56276 519.27783
496.0 0.002016 128.45128 517.03375
500.0 0.002000 128.33984 513.29254
472.0 0.002119 128.22861 508.22717
525.0 0.001905 128.11749 501.87289
484.0 0.002066 128.00648 494.37558
493.0 0.002028 127.89564 485.82385
484.0 0.002066 127.78490 476.29565
419.0 0.002387 127.67438 465.86655
444.0 0.002252 127.56390 454.64651
476.0 0.002101 127.45365 442.67786
409.0 0.002445 127.34351 430.10046
423.0 0.002364 127.23355 417.04434
413.0 0.002421 127.12374 403.65186
393.0 0.002545 127.01405 390.07162
391.0 0.002558 126.90458 376.45151
344.0 0.002907 126.79520 362.92984
342.0 0.002924 126.68606 349.63110
349.0 0.002865 126.57701 336.66190
326.0 0.003067 126.46820 324.10901
296.0 0.003378 126.35952 312.03946
299.0 0.003344 126.25103 300.50284
282.0 0.00355 126.14269 289.53183
264.0 0.00379 126.03455 279.14612
257.0 0.00389 125.92661 269.35492
266.0 0.00376 125.81882 260.15863
259.0 0.00386 125.71124 251.55124
244.0 0.00410 125.60380 243.52100
225.0 0.00444 125.49662 236.05209
230.0 0.00435 125.38963 229.12524
197.0 0.00508 125.28275 222.71811
204.0 0.00490 125.17614 216.80606
204.0 0.00490 125.06969 211.36263
202.0 0.00495 124.96346 206.36040
199.0 0.00503 124.85742 201.77116
190.0 0.00526 124.75163 197.56683
165.0 0.00606 124.64596 193.71939
192.0 0.00521 124.54059 190.20160
132.0 0.00758 124.43541 186.98705
187.0 0.00535 124.33043 184.05064
157.0 0.00637 124.22565 181.36844
151.0 0.00662 124.12110 178.91779
172.0 0.00581 124.01678 176.67789
173.0 0.00578 123.91266 174.62889
158.0 0.00633 123.80882 172.75308
142.0 0.00704 123.70512 171.03391
178.0 0.00562 123.60175 169.45618
150.0 0.00667 123.49855 168.00653
150.0 0.00667 123.39561 166.67249
149.0 0.00671 123.29292 165.44298
154.0 0.00649 123.19039 164.30836
151.0 0.00662 123.08818 163.25981
146.0 0.00685 122.98617 162.28957
154.0 0.00649 122.88443 161.39081
145.0 0.00690 122.78293 160.55760
156.0 0.00641 122.68168 159.78464
163.0 0.00613 122.58067 159.06737
153.0 0.00654 122.47990 158.40184
150.0 0.00667 122.37940 157.78467
167.0 0.00599 122.27918 157.21275
157.0 0.00637 122.17917 156.68367
170.0 0.00588 122.07944 156.19516
160.0 0.00625 121.98000 155.74557
141.0 0.00709 121.88082 155.33340
169.0 0.00592 121.78188 154.95721
147.0 0.00680 121.68324 154.61626
156.0 0.00641 121.58482 154.30975
159.0 0.00629 121.48674 154.03722
149.0 0.00671 121.38885 153.79826
166.0 0.00602 121.29133 153.59296
157.0 0.00637 121.19402 153.42140
168.0 0.00595 121.09702 153.28377
167.0 0.00599 121.00032 153.18034
155.0 0.00645 120.90386 153.11189
155.0 0.00645 120.80773 153.07910
172.0 0.00581 120.71186 153.08282
152.0 0.00658 120.61628 153.12393
150.0 0.00667 120.52098 153.20331
152.0 0.00658 120.42603 153.32211
172.0 0.00581 120.33133 153.48135
185.0 0.00541 120.23690 153.68208
169.0 0.00592 120.14284 153.92531
167.0 0.00599 120.04902 154.21194
193.0 0.00518 119.95555 154.54286
146.0 0.00685 119.86234 154.91856
161.0 0.00621 119.76949 155.33957
168.0 0.00595 119.67688 155.80569
190.0 0.00526 119.58464 156.31689
154.0 0.00649 119.49271 156.87201
177.0 0.00565 119.40105 157.46953
184.0 0.00543 119.30976 158.10722
165.0 0.00606 119.21873 158.78189
168.0 0.00595 119.12807 159.48958
150.0 0.00667 119.03767 160.22551
199.0 0.00503 118.94767 160.98431
177.0 0.00565 118.85791 161.76086
172.0 0.00581 118.76853 162.55064
197.0 0.00508 118.67950 163.35039
184.0 0.00543 118.59072 164.15881
196.0 0.00510 118.50233 164.97792
183.0 0.00546 118.41425 165.81171
162.0 0.00617 118.32653 166.66687
188.0 0.00532 118.23911 167.55179
195.0 0.00513 118.15209 168.47629
203.0 0.00493 118.06537 169.47717
201.0 0.00498 117.97898 170.51120
178.0 0.00562 117.89293 171.61484
183.0 0.00546 117.80721 172.79790
198.0 0.00505 117.72188 173.45886
195.0 0.00513 117.63687 174.83252
182.0 0.00549 117.55220 176.31801
161.0 0.00621 117.46787 177.93005
218.0 0.00459 117.38394 179.68629
184.0 0.00543 117.30033 181.60834
197.0 0.00508 117.21709 183.72235
217.0 0.00461 117.13419 186.05948
228.0 0.00439 117.05161 188.65659
190.0 0.00526 116.96945 191.55711
248.0 0.00403 116.88763 194.81099
212.0 0.00472 116.80618 198.47691
199.0 0.00503 116.72505 202.62253
229.0 0.00437 116.64435 207.32584
201.0 0.00498 116.56400 212.67603
242.0 0.00413 116.48399 218.78784
218.0 0.00459 116.40438 225.74838
245.0 0.00408 116.32510 233.69791
250.0 0.00400 116.24623 242.77545
243.0 0.00412 116.16767 253.13121
266.0 0.00376 116.08955 264.92514
256.0 0.00391 116.01180 278.32367
303.0 0.003300 115.93441 293.49683
344.0 0.002907 115.85737 310.61420
343.0 0.002915 115.78074 329.83884
377.0 0.002653 115.70448 351.32297
369.0 0.002710 115.62863 375.19955
452.0 0.002212 115.55312 401.57556
438.0 0.002283 115.47800 430.52295
499.0 0.002004 115.40331 462.06760
544.0 0.001838 115.32899 496.17679
595.0 0.001681 115.25501 532.74347
577.0 0.001733 115.18148 571.56653
672.0 0.001488 115.10829 612.32745
643.0 0.001555 115.03551 654.56274
742.0 0.001348 114.96313 697.63806
789.0 0.001267 114.89114 740.72522
825.0 0.001212 114.81955 782.79791
834.0 0.001199 114.74834 822.65582
818.0 0.001222 114.67756 858.99121
885.0 0.001130 114.60715 890.50385
921.0 0.001086 114.53713 916.05566
946.0 0.001057 114.46752 934.83252
909.0 0.001100 114.39832 946.47253
932.0 0.001073 114.32952 951.11389
948.0 0.001055 114.26113 949.34766
999.0 0.001001 114.19312 942.08429
923.0 0.001083 114.12552 930.37689
905.0 0.001105 114.05833 915.24475
963.0 0.001038 113.99157 897.53760
949.0 0.001054 113.92519 877.85217
885.0 0.001130 113.85921 856.51141
844.0 0.001185 113.79366 833.59442
797.0 0.001255 113.72853 809.01019
817.0 0.001224 113.66381 782.59912
777.0 0.001287 113.59949 754.24005
756.0 0.001323 113.53558 723.94147
709.0 0.001410 113.47210 691.89111
672.0 0.001488 113.40898 658.45917
618.0 0.001618 113.34636 624.15277
607.0 0.001647 113.28410 589.54999
600.0 0.001667 113.22227 555.22748
565.0 0.001770 113.16086 521.70447
514.0 0.001946 113.09987 489.40903
514.0 0.001946 113.03931 458.66534
484.0 0.002066 112.97912 429.69730
443.0 0.002257 112.91942 402.64114
434.0 0.002304 112.86010 377.56104
409.0 0.002445 112.80124 354.46478
358.0 0.002793 112.74276 333.31839
335.0 0.002985 112.68473 314.05624
325.0 0.003077 112.62715 296.59256
269.0 0.00372 112.56996 280.82251
311.0 0.003215 112.51321 266.63394
281.0 0.00356 112.45685 253.90958
225.0 0.00444 112.40096 242.53012
262.0 0.00382 112.34546 232.37354
224.0 0.00446 112.29044 223.32365
215.0 0.00465 112.23580 215.26741
200.0 0.00500 112.18163 208.09778
214.0 0.00467 112.12788 201.71465
220.0 0.00455 112.07454 196.02560
196.0 0.00510 112.02165 190.94611
192.0 0.00521 111.96916 186.40018
208.0 0.00481 111.91715 182.31984
178.0 0.00562 111.86554 178.64514
182.0 0.00549 111.81438 175.32355
159.0 0.00629 111.76362 172.30966
157.0 0.00637 111.71333 169.56490
191.0 0.00524 111.66350 167.05428
159.0 0.00629 111.61406 164.75011
173.0 0.00578 111.56508 162.62770
150.0 0.00667 111.51650 160.66728
159.0 0.00629 111.46840 158.85040
157.0 0.00637 111.42069 157.16292
151.0 0.00662 111.37344 155.59219
174.0 0.00575 111.32664 154.12761
163.0 0.00613 111.28028 152.76009
139.0 0.00719 111.23432 151.48169
152.0 0.00658 111.18882 150.28528
151.0 0.00662 111.14378 149.16476
142.0 0.00704 111.09915 148.11472
152.0 0.00658 111.05497 147.13022
160.0 0.00625 111.01122 146.20638
135.0 0.00741 110.96794 145.33931
163.0 0.00613 110.92508 144.52463
148.0 0.00676 110.88263 143.75853
133.0 0.00752 110.84068 143.03712
141.0 0.00709 110.79910 142.35532
132.0 0.00758 110.75802 141.71179
146.0 0.00685 110.71735 141.10143
146.0 0.00685 110.67713 140.52032
136.0 0.00735 110.63733 139.96465
158.0 0.00633 110.59800 139.43056
137.0 0.00730 110.55910 138.91451
129.0 0.00775 110.52065 138.41302
140.0 0.00714 110.48262 137.92326
154.0 0.00649 110.44504 137.44261
144.0 0.00694 110.40791 136.96939
139.0 0.00719 110.37121 136.12012
144.0 0.00694 110.33498 135.65944
127.0 0.00787 110.29915 135.20358
128.0 0.00781 110.26377 134.75264
133.0 0.00752 110.22886 134.30679
155.0 0.00645 110.19436 133.86641
134.0 0.00746 110.16031 133.43172
136.0 0.00735 110.12669 133.00290
151.0 0.00662 110.09354 132.58005
141.0 0.00709 110.06081 132.16324
118.0 0.00847 110.02850 131.75240
168.0 0.00595 109.99668 131.34764
147.0 0.00680 109.96525 130.94893
143.0 0.00699 109.93432 130.55643
131.0 0.00763 109.90376 130.17053
123.0 0.00813 109.87365 129.79198
141.0 0.00709 109.84403 129.42120
148.0 0.00676 109.81482 129.05911
147.0 0.00680 109.78606 128.70612
150.0 0.00667 109.75773 128.36313
138.0 0.00725 109.72982 128.03090
139.0 0.00719 109.70234 127.70973
128.0 0.00781 109.67534 127.40023
138.0 0.00725 109.64875 127.10265
128.0 0.00781 109.62260 126.81731
120.0 0.00833 109.59689 126.54408
133.0 0.00752 109.57164 126.28308
114.0 0.00877 109.54681 126.03431
128.0 0.00781 109.52242 125.79745
121.0 0.00826 109.49845 125.57240
130.0 0.00769 109.47491 125.35897
108.0 0.00926 109.45182 125.15683
120.0 0.00833 109.42915 124.96563
120.0 0.00833 109.40693 124.78516
133.0 0.00752 109.38512 124.61497
122.0 0.00820 109.36373 124.45482
133.0 0.00752 109.34284 124.30447
107.0 0.00935 109.32233 124.16338
130.0 0.00769 109.30227 124.03149
119.0 0.00840 109.28261 123.90833
124.0 0.00806 109.26340 123.79375
114.0 0.00877 109.24464 123.68735
126.0 0.00794 109.22630 123.58898
134.0 0.00746 109.20836 123.49826
130.0 0.00769 109.19090 123.41518
142.0 0.00704 109.17383 123.33942
121.0 0.00826 109.15718 123.27068
111.0 0.00901 109.14095 123.20903
87.0 0.01149 109.12518 123.15411
135.0 0.00741 109.10981 123.10591
126.0 0.00794 109.09488 123.06433
131.0 0.00763 109.08035 123.02918
120.0 0.00833 109.06625 123.00053
112.0 0.00893 109.05259 122.97901
126.0 0.00794 109.03933 122.96297
151.0 0.00662 109.02648 122.95322
125.0 0.00800 109.01407 122.94980
115.0 0.00870 109.00208 122.95264
117.0 0.00855 108.99051 122.96181
110.0 0.00909 108.97934 122.97734
109.0 0.00917 108.96861 122.99921
126.0 0.00794 108.95827 123.02760
120.0 0.00833 108.94836 123.06250
125.0 0.00800 108.93885 123.10405
125.0 0.00800 108.92977 123.15239
125.0 0.00800 108.92110 123.20765
145.0 0.00690 108.91282 123.26984
120.0 0.00833 108.90498 123.33929
123.0 0.00813 108.89753 123.41603
135.0 0.00741 108.89048 123.50036
137.0 0.00730 108.88383 123.59284
138.0 0.00725 108.87764 123.69289
126.0 0.00794 108.87180 123.80113
129.0 0.00775 108.86640 123.91785
137.0 0.00730 108.86138 124.04331
136.0 0.00735 108.85677 124.17787
113.0 0.00885 108.85255 124.32182
129.0 0.00775 108.84875 124.47558
147.0 0.00680 108.84534 124.63939
109.0 0.00917 108.84235 124.81377
128.0 0.00781 108.83972 124.99916
149.0 0.00671 108.83752 125.19612
128.0 0.00781 108.83569 125.40491
129.0 0.00775 108.83425 125.62630
142.0 0.00704 108.83323 125.86085
131.0 0.00763 108.83258 126.10918
135.0 0.00741 108.83234 126.37202
139.0 0.00719 108.83246 126.65003
135.0 0.00741 108.83298 126.94411
120.0 0.00833 108.83389 127.25519
125.0 0.00800 108.83515 127.58405
125.0 0.00800 108.83686 127.93193
124.0 0.00806 108.83894 128.29971
167.0 0.00599 108.84138 128.68881
129.0 0.00775 108.84418 129.10042
123.0 0.00813 108.84740 129.53618
146.0 0.00685 108.85097 130.06726
117.0 0.00855 108.85493 130.55641
119.0 0.00840 108.85925 131.07509
127.0 0.00787 108.86397 131.62564
129.0 0.00775 108.86905 132.21063
110.0 0.00909 108.87450 132.83305
122.0 0.00820 108.88033 133.49612
142.0 0.00704 108.88652 134.20374
130.0 0.00769 108.89307 134.96048
124.0 0.00806 108.90000 135.77147
145.0 0.00690 108.90728 136.64262
126.0 0.00794 108.91494 137.58118
131.0 0.00763 108.92295 138.59512
138.0 0.00725 108.93131 139.69432
150.0 0.00667 108.94004 140.88977
143.0 0.00699 108.94915 142.19467
157.0 0.00637 108.95858 143.62395
133.0 0.00752 108.96838 145.19487
130.0 0.00769 108.97853 146.92767
152.0 0.00658 108.98905 148.88010
151.0 0.00662 108.99991 151.00757
112.0 0.00893 109.01110 153.37402
164.0 0.00610 109.02266 156.01129
179.0 0.00559 109.03456 158.95464
175.0 0.00571 109.04680 162.24234
189.0 0.00529 109.05937 165.91545
144.0 0.00694 109.07230 170.01755
192.0 0.00521 109.08555 174.59459
177.0 0.00565 109.09917 179.69330
196.0 0.00510 109.11308 185.36169
158.0 0.00633 109.12737 191.64687
197.0 0.00508 109.14196 198.59492
208.0 0.00481 109.15691 206.24870
235.0 0.00426 109.17214 214.64748
231.0 0.00433 109.18774 223.82417
224.0 0.00446 109.20366 233.80420
233.0 0.00429 109.21990 244.60294
269.0 0.00372 109.23646 256.22339
229.0 0.00437 109.25334 268.65298
313.0 0.003195 109.27054 281.85941
278.0 0.00360 109.28807 295.78690
281.0 0.00356 109.30589 310.34937
313.0 0.003195 109.32404 325.42587
342.0 0.002924 109.34251 340.85413
393.0 0.002545 109.36127 356.42352
359.0 0.002786 109.38035 371.87390
343.0 0.002915 109.39975 386.89606
363.0 0.002755 109.41943 401.14066
400.0 0.002500 109.43943 414.23611
380.0 0.002632 109.45969 425.81525
365.0 0.002740 109.48032 435.55075
417.0 0.002398 109.50121 443.19104
426.0 0.002347 109.52240 448.59073
383.0 0.002611 109.54385 451.72751
449.0 0.002227 109.56567 452.69940
427.0 0.002342 109.58772 451.70386
418.0 0.002392 109.61007 449.00330
425.0 0.002353 109.63272 444.88358
419.0 0.002387 109.65565 439.61728
424.0 0.002358 109.67883 433.43356
402.0 0.002488 109.70233 426.50040
425.0 0.002353 109.72610 418.92010
435.0 0.002299 109.75014 410.73401
409.0 0.002445 109.77447 401.94083
378.0 0.002646 109.79906 392.51590
442.0 0.002262 109.82392 382.43677
363.0 0.002755 109.84905 371.70502
327.0 0.003058 109.87441 360.36072
323.0 0.003096 109.90012 348.48938
289.0 0.003460 109.92602 336.21664
349.0 0.002865 109.95224 323.69757
336.0 0.002976 109.97866 311.10074
295.0 0.003390 110.00539 298.59235
316.0 0.003165 110.03233 286.32431
266.0 0.00376 110.05955 274.42621
294.0 0.003401 110.08701 263.00089
245.0 0.00408 110.11472 252.12523
219.0 0.00457 110.14268 241.85127
215.0 0.00465 110.17089 232.21011
237.0 0.00422 110.19934 223.21577
227.0 0.00441 110.22803 214.86792
188.0 0.00532 110.25695 207.15579
215.0 0.00465 110.28610 200.06061
199.0 0.00503 110.31553 193.55765
200.0 0.00500 110.34514 187.61780
172.0 0.00581 110.37500 182.20917
178.0 0.00562 110.40508 177.29793
170.0 0.00588 110.43540 172.84961
171.0 0.00585 110.46594 168.82921
164.0 0.00610 110.49668 165.20212
160.0 0.00625 110.52766 161.93478
152.0 0.00658 110.55885 158.99452
164.0 0.00610 110.59024 156.35034
149.0 0.00671 110.62188 153.97270
124.0 0.00806 110.65373 151.83461
143.0 0.00699 110.68577 149.91045
119.0 0.00840 110.71799 148.17708
148.0 0.00676 110.75046 146.61310
142.0 0.00704 110.78311 145.19957
132.0 0.00758 110.81593 143.91943
110.0 0.00909 110.84904 142.75731
143.0 0.00699 110.88226 141.78841
155.0 0.00645 110.91570 140.82370
162.0 0.00617 110.94933 139.94148
129.0 0.00775 110.98315 139.13263
150.0 0.00667 111.01715 138.38931
131.0 0.00763 111.05133 137.70465
114.0 0.00877 111.08572 137.07294
127.0 0.00787 111.12025 136.48909
129.0 0.00775 111.15498 135.94858
148.0 0.00676 111.18988 135.44772
108.0 0.00926 111.22496 134.98320
126.0 0.00794 111.26020 134.55225
144.0 0.00694 111.29562 134.15225
123.0 0.00813 111.33119 133.78093
127.0 0.00787 111.36694 133.43649
119.0 0.00840 111.40284 133.11720
116.0 0.00862 111.43890 132.82137
132.0 0.00758 111.47514 132.55621
110.0 0.00909 111.51151 132.30362
141.0 0.00709 111.54803 132.11562
105.0 0.00952 111.58470 131.90176
102.0 0.00980 111.62152 131.70596
139.0 0.00719 111.65851 131.52718
133.0 0.00752 111.69562 131.36465
112.0 0.00893 111.73285 131.21779
116.0 0.00862 111.77023 131.08598
130.0 0.00769 111.80779 130.96858
143.0 0.00699 111.84544 130.86501
124.0 0.00806 111.88323 130.77487
118.0 0.00847 111.92113 130.69765
125.0 0.00800 111.95917 130.63307
138.0 0.00725 111.99733 130.58060
132.0 0.00758 112.03561 130.53999
107.0 0.00935 112.07405 130.51100
126.0 0.00794 112.11256 130.49319
136.0 0.00735 112.15120 130.48657
123.0 0.00813 112.18996 130.49072
128.0 0.00781 112.22883 130.50562
128.0 0.00781 112.26779 130.53101
142.0 0.00704 112.30688 130.56671
122.0 0.00820 112.34604 130.61282
134.0 0.00746 112.38530 130.68770
112.0 0.00893 112.42469 130.75417
121.0 0.00826 112.46416 130.83072
131.0 0.00763 112.50372 130.91731
135.0 0.00741 112.54338 131.01401
135.0 0.00741 112.58314 131.12088
123.0 0.00813 112.62295 131.23782
133.0 0.00752 112.66286 131.36507
126.0 0.00794 112.70287 131.50266
127.0 0.00787 112.74293 131.65062
136.0 0.00735 112.78307 131.80923
121.0 0.00826 112.82329 131.97856
128.0 0.00781 112.86361 132.15878
134.0 0.00746 112.90395 132.35019
120.0 0.00833 112.94437 132.55293
140.0 0.00714 112.98489 132.76723
125.0 0.00800 113.02544 132.99345
127.0 0.00787 113.06604 133.23189
127.0 0.00787 113.10667 133.48293
150.0 0.00667 113.14745 133.74681
130.0 0.00769 113.18821 134.02399
153.0 0.00654 113.22903 134.31499
135.0 0.00741 113.26991 134.62012
156.0 0.00641 113.31081 134.94009
146.0 0.00685 113.35178 135.27527
161.0 0.00621 113.39278 135.62634
144.0 0.00694 113.43382 135.99387
141.0 0.00709 113.47490 136.37862
146.0 0.00685 113.51601 136.78134
141.0 0.00709 113.55714 137.20264
138.0 0.00725 113.59830 137.64360
147.0 0.00680 113.63951 138.10497
148.0 0.00676 113.68073 138.58780
127.0 0.00787 113.72198 139.09319
153.0 0.00654 113.76321 139.62216
147.0 0.00680 113.80450 140.17599
133.0 0.00752 113.84577 140.75610
175.0 0.00571 113.88709 141.36375
166.0 0.00602 113.92838 142.00063
134.0 0.00746 113.96969 142.66821
172.0 0.00581 114.01100 143.36848
145.0 0.00690 114.05231 144.10320
158.0 0.00633 114.09364 144.87457
169.0 0.00592 114.13495 145.68489
147.0 0.00680 114.17628 146.53668
158.0 0.00633 114.21758 147.43268
139.0 0.00719 114.25885 148.37587
165.0 0.00606 114.30015 149.36945
152.0 0.00658 114.34140 150.41718
165.0 0.00606 114.38264 151.52330
180.0 0.00556 114.42388 152.69231
142.0 0.00704 114.46509 153.92923
173.0 0.00578 114.50628 155.24007
149.0 0.00671 114.54744 156.63156
170.0 0.00588 114.58854 158.11131
155.0 0.00645 114.62965 159.68819
148.0 0.00676 114.67072 161.37277
163.0 0.00613 114.71173 163.17676
189.0 0.00529 114.75270 165.11467
189.0 0.00529 114.79366 167.20255
174.0 0.00575 114.83459 169.45984
183.0 0.00546 114.87543 171.90938
168.0 0.00595 114.91624 174.57730
158.0 0.00633 114.95701 177.49480
183.0 0.00546 114.99770 180.69749
222.0 0.00450 115.03838 184.22664
227.0 0.00441 115.07896 188.12959
195.0 0.00513 115.11951 192.46022
199.0 0.00503 115.15998 197.27934
212.0 0.00472 115.20042 202.65451
215.0 0.00465 115.24076 208.66109
212.0 0.00472 115.28104 215.38120
216.0 0.00463 115.32127 222.90359
249.0 0.00402 115.36139 231.32307
224.0 0.00446 115.40146 240.73930
251.0 0.00398 115.44144 251.25523
267.0 0.00375 115.48136 262.97583
287.0 0.003484 115.52118 276.00513
323.0 0.003096 115.56091 290.44458
307.0 0.003257 115.60058 306.38937
321.0 0.003115 115.64014 323.92526
365.0 0.002740 115.67963 343.12549
391.0 0.002558 115.71900 364.04605
397.0 0.002519 115.75829 386.72012
428.0 0.002336 115.79749 411.15372
425.0 0.002353 115.83659 437.31754
476.0 0.002101 115.87559 465.13925
524.0 0.001908 115.91447 494.49274
516.0 0.001938 115.95325 525.18646
591.0 0.001692 115.99195 556.94989
566.0 0.001767 116.03052 589.41803
653.0 0.001531 116.06895 622.11981
664.0 0.001506 116.10731 654.47095
725.0 0.001379 116.14552 685.77844
707.0 0.001414 116.18365 715.26147
769.0 0.001300 116.22162 742.09454
742.0 0.001348 116.25951 765.47430
772.0 0.001295 116.29721 784.70166
786.0 0.001272 116.33483 799.26648
816.0 0.001225 116.37232 808.91559
818.0 0.001222 116.40968 813.68549
846.0 0.001182 116.44688 813.88794
858.0 0.001166 116.48399 810.05359
871.0 0.001148 116.52093 802.84546
762.0 0.001312 116.55774 792.96472
798.0 0.001253 116.59441 781.06458
771.0 0.001297 116.63094 767.68701
712.0 0.001404 116.66733 753.22131
813.0 0.001230 116.70354 737.89459
717.0 0.001395 116.73964 721.77930
742.0 0.001348 116.77560 704.82367
687.0 0.001456 116.81137 686.89685
679.0 0.001473 116.84701 667.84338
647.0 0.001546 116.88248 647.53717
612.0 0.001634 116.91779 625.93054
587.0 0.001704 116.95293 603.08197
560.0 0.001786 116.98792 579.16248
567.0 0.001764 117.02276 554.43884
539.0 0.001855 117.05740 529.24188
525.0 0.001905 117.09191 503.92853
474.0 0.002110 117.12624 478.84491
472.0 0.002119 117.16039 454.30127
425.0 0.002353 117.19439 430.55667
407.0 0.002457 117.22818 407.81198
395.0 0.002532 117.26180 386.21255
372.0 0.002688 117.29527 365.85370
399.0 0.002506 117.32853 346.78870
363.0 0.002755 117.36160 329.03687
340.0 0.002941 117.39454 312.59137
336.0 0.002976 117.42725 297.42462
312.0 0.003205 117.45976 283.49454
287.0 0.003484 117.49210 270.74738
263.0 0.00380 117.52423 259.12204
256.0 0.00391 117.55620 248.55196
237.0 0.00422 117.58797 238.96721
214.0 0.00467 117.61955 230.29636
220.0 0.00455 117.65090 222.46756
202.0 0.00495 117.68206 215.40994
228.0 0.00439 117.71304 209.05464
209.0 0.00478 117.74381 203.33516
217.0 0.00461 117.77438 198.18878
189.0 0.00529 117.80474 193.55630
190.0 0.00526 117.83490 189.38271
190.0 0.00526 117.86482 185.61760
188.0 0.00532 117.89457 182.17435
181.0 0.00552 117.92410 179.09193
203.0 0.00493 117.95338 176.29256
172.0 0.00581 117.98249 173.74303
164.0 0.00610 118.01135 171.41376
172.0 0.00581 118.04002 169.27876
175.0 0.00571 118.06844 167.31541
147.0 0.00680 118.09667 165.50404
156.0 0.00641 118.12465 163.82764
170.0 0.00588 118.15246 162.27135
147.0 0.00680 118.17998 160.82253
168.0 0.00595 118.20733 159.47037
158.0 0.00633 118.23441 158.13255
137.0 0.00730 118.26127 156.94685
159.0 0.00629 118.28794 155.83318
166.0 0.00602 118.31431 154.78557
144.0 0.00694 118.34050 153.79863
154.0 0.00649 118.36642 152.86778
156.0 0.00641 118.39214 151.98892
152.0 0.00658 118.41760 151.15843
153.0 0.00654 118.44283 150.37305
164.0 0.00610 118.46783 149.62975
148.0 0.00676 118.49255 148.92590
147.0 0.00680 118.51707 148.25906
117.0 0.00855 118.54135 147.62703
159.0 0.00629 118.56538 147.02782
137.0 0.00730 118.58916 146.45927
148.0 0.00676 118.61268 145.92001
135.0 0.00741 118.63594 145.40839
153.0 0.00654 118.65898 144.92271
138.0 0.00725 118.68179 144.46184
143.0 0.00699 118.70434 144.02440
158.0 0.00633 118.72662 143.60905
134.0 0.00746 118.74864 143.21507
151.0 0.00662 118.77043 142.84100
139.0 0.00719 118.79196 142.48610
166.0 0.00602 118.81322 142.14946
129.0 0.00775 118.83426 141.83022
143.0 0.00699 118.85502 141.52763
137.0 0.00730 118.87550 141.24098
139.0 0.00719 118.89575 140.96947
153.0 0.00654 118.91573 140.71257
148.0 0.00676 118.93546 140.46976
123.0 0.00813 118.95493 140.24030
149.0 0.00671 118.97413 140.02380
115.0 0.00870 118.99306 139.81969
180.0 0.00556 119.01173 139.62769
139.0 0.00719 119.03015 139.44716
142.0 0.00704 119.04829 139.27791
139.0 0.00719 119.06618 139.11940
147.0 0.00680 119.08379 138.97141
122.0 0.00820 119.10113 138.83365
144.0 0.00694 119.11822 138.70573
136.0 0.00735 119.13504 138.58749
143.0 0.00699 119.15157 138.47858
162.0 0.00617 119.16787 138.37880
131.0 0.00763 119.18387 138.28802
133.0 0.00752 119.19959 138.20601
124.0 0.00806 119.21503 138.13248
107.0 0.00935 119.23022 138.06744
122.0 0.00820 119.24516 138.01067
147.0 0.00680 119.25980 137.96196
129.0 0.00775 119.27419 137.92133
135.0 0.00741 119.28828 137.88864
134.0 0.00746 119.30208 137.86383
145.0 0.00690 119.31566 137.84674
146.0 0.00685 119.32893 137.83736
137.0 0.00730 119.34194 137.83551
133.0 0.00752 119.35466 137.84146
151.0 0.00662 119.36712 137.85498
141.0 0.00709 119.37929 137.87610
135.0 0.00741 119.39120 137.90489
146.0 0.00685 119.40284 137.94128
130.0 0.00769 119.41417 137.98537
146.0 0.00685 119.42525 138.03714
140.0 0.00714 119.43604 138.09685
142.0 0.00704 119.44658 138.16435
144.0 0.00694 119.45682 138.23984
145.0 0.00690 119.46680 138.32362
123.0 0.00813 119.47648 138.41544
161.0 0.00621 119.48589 138.51587
120.0 0.00833 119.49501 138.62486
153.0 0.00654 119.50389 138.74268
141.0 0.00709 119.51247 138.86954
160.0 0.00625 119.52078 139.00571
136.0 0.00735 119.52880 139.15146
146.0 0.00685 119.53654 139.30708
133.0 0.00752 119.54405 139.47290
148.0 0.00676 119.55123 139.64937
140.0 0.00714 119.55816 139.83665
145.0 0.00690 119.56482 140.03551
141.0 0.00709 119.57119 140.24611
128.0 0.00781 119.57726 140.46930
123.0 0.00813 119.58311 140.70554
148.0 0.00676 119.58865 140.95540
149.0 0.00671 119.59392 141.21965
157.0 0.00637 119.59891 141.49907
131.0 0.00763 119.60365 141.79451
125.0 0.00800 119.60809 142.10690
158.0 0.00633 119.61226 142.43723
142.0 0.00704 119.61619 142.78661
140.0 0.00714 119.61981 143.15627
131.0 0.00763 119.62316 143.54736
164.0 0.00610 119.62625 143.96152
143.0 0.00699 119.62907 144.40021
135.0 0.00741 119.63161 144.86507
173.0 0.00578 119.63390 145.35793
127.0 0.00787 119.63589 145.88072
171.0 0.00585 119.63766 146.43568
159.0 0.00629 119.63915 147.02493
150.0 0.00667 119.64036 147.65099
140.0 0.00714 119.64129 148.31648
146.0 0.00685 119.64196 149.02411
141.0 0.00709 119.64236 149.77707
147.0 0.00680 119.64252 150.57845
151.0 0.00662 119.64241 151.43158
139.0 0.00719 119.64202 152.34045
150.0 0.00667 119.64138 153.30852
148.0 0.00676 119.64047 154.34039
148.0 0.00676 119.63934 155.44009
162.0 0.00617 119.63789 156.61253
156.0 0.00641 119.63625 157.86270
170.0 0.00588 119.63432 159.19576
155.0 0.00645 119.63210 160.61746
157.0 0.00637 119.62968 162.13380
163.0 0.00613 119.62700 163.75111
163.0 0.00613 119.62404 165.47623
174.0 0.00575 119.62084 167.31622
163.0 0.00613 119.61739 169.27884
178.0 0.00562 119.61372 171.37224
170.0 0.00588 119.60973 173.60489
179.0 0.00559 119.60556 175.90303
164.0 0.00610 119.60112 178.44205
210.0 0.00476 119.59643 181.14894
188.0 0.00532 119.59152 184.03391
164.0 0.00610 119.58634 187.10789
187.0 0.00535 119.58096 190.38161
188.0 0.00532 119.57530 193.86629
205.0 0.00488 119.56942 197.57306
182.0 0.00549 119.56332 201.51274
224.0 0.00446 119.55695 205.69569
225.0 0.00444 119.55038 210.13190
200.0 0.00500 119.54357 214.83008
195.0 0.00513 119.53653 219.79796
210.0 0.00476 119.52924 224.92509
229.0 0.00437 119.52176 230.44887
246.0 0.00407 119.51402 236.25467
271.0 0.00369 119.50608 242.34236
239.0 0.00418 119.49792 248.70947
279.0 0.00358 119.48953 255.35066
271.0 0.00369 119.48095 262.25870
256.0 0.00391 119.47209 269.42374
307.0 0.003257 119.46308 276.83362
305.0 0.003279 119.45384 284.47461
277.0 0.00361 119.44436 292.33102
291.0 0.003436 119.43472 300.38492
307.0 0.003257 119.42484 308.61621
264.0 0.00379 119.41477 317.00198
291.0 0.003436 119.40447 325.51450
331.0 0.003021 119.39401 334.12122
306.0 0.003268 119.38332 342.78091
320.0 0.003125 119.37245 351.44321
315.0 0.003175 119.36136 360.04547
348.0 0.002874 119.35012 368.51074
346.0 0.002890 119.33867 376.74835
371.0 0.002695 119.32702 384.65192
364.0 0.002747 119.31519 392.10272
370.0 0.002703 119.30317 398.97314
375.0 0.002667 119.29098 405.13269
386.0 0.002591 119.27861 410.45551
383.0 0.002611 119.26607 414.83060
413.0 0.002421 119.25331 418.16986
421.0 0.002375 119.24045 420.41620
416.0 0.002404 119.22737 421.54877
410.0 0.002439 119.21413 421.58414
387.0 0.002584 119.20073 420.57391
413.0 0.002421 119.18716 418.59830
398.0 0.002513 119.17345 415.75735
386.0 0.002591 119.15956 412.16052
432.0 0.002315 119.14553 407.91733
407.0 0.002457 119.13134 403.12857
378.0 0.002646 119.11701 397.88022
376.0 0.002660 119.10252 392.24023
378.0 0.002646 119.08790 386.25739
359.0 0.002786 119.07312 379.96356
393.0 0.002545 119.05820 373.37701
372.0 0.002688 119.04315 366.50818
380.0 0.002632 119.02798 359.36502
367.0 0.002725 119.01267 351.95892
352.0 0.002841 118.99723 344.30893
351.0 0.002849 118.98166 336.44470
319.0 0.003135 118.96597 328.40778
336.0 0.002976 118.95015 320.25003
322.0 0.003106 118.93425 312.03098
304.0 0.003289 118.91823 303.81461
310.0 0.003226 118.90207 295.66586
277.0 0.00361 118.88581 287.64636
291.0 0.003436 118.86948 279.81210
256.0 0.00391 118.85300 272.21216
259.0 0.00386 118.83646 264.88641
260.0 0.00385 118.81980 257.86633
263.0 0.00380 118.80308 251.17491
259.0 0.00386 118.78623 244.82770
257.0 0.00389 118.76932 238.83289
230.0 0.00435 118.75231 233.19348
237.0 0.00422 118.73524 227.90720
266.0 0.00376 118.71809 222.96835
211.0 0.00474 118.70087 218.36778
239.0 0.00418 118.68357 214.09448
233.0 0.00429 118.66620 210.13541
215.0 0.00465 118.64880 206.47626
247.0 0.00405 118.63131 203.10226
219.0 0.00457 118.61378 199.99796
226.0 0.00442 118.59618 197.14810
191.0 0.00524 118.57857 194.53732
189.0 0.00529 118.56087 192.15082
204.0 0.00490 118.54315 189.97395
185.0 0.00541 118.52541 187.99286
197.0 0.00508 118.50761 186.19394
182.0 0.00549 118.48981 184.56418
185.0 0.00541 118.47198 183.09077
180.0 0.00556 118.45406 181.76076
198.0 0.00505 118.43620 180.56143
195.0 0.00513 118.41829 179.47974
205.0 0.00488 118.40038 178.50250
178.0 0.00562 118.38247 177.61618
189.0 0.00529 118.36454 176.80731
165.0 0.00606 118.34660 176.06265
185.0 0.00541 118.32869 175.36990
178.0 0.00562 118.31078 174.71823
180.0 0.00556 118.29288 174.09880
183.0 0.00546 118.27501 173.50525
180.0 0.00556 118.25713 172.93433
156.0 0.00641 118.23929 172.38548
168.0 0.00595 118.22148 171.86052
169.0 0.00592 118.20369 171.36325
180.0 0.00556 118.18596 170.89842
175.0 0.00571 118.16826 170.47133
177.0 0.00565 118.15058 170.08702
170.0 0.00588 118.13300 169.74991
169.0 0.00592 118.11544 169.46350
155.0 0.00645 118.09794 169.23016
162.0 0.00617 118.08046 169.05150
167.0 0.00599 118.06312 168.92805
203.0 0.00493 118.04579 168.86041
171.0 0.00585 118.02859 168.84863
171.0 0.00585 118.01144 168.89322
181.0 0.00552 117.99438 168.99556
174.0 0.00575 117.97739 169.15791
179.0 0.00559 117.96051 169.38393
153.0 0.00654 117.94371 169.67841
180.0 0.00556 117.92702 170.04761
169.0 0.00592 117.91043 170.49867
176.0 0.00568 117.89397 171.03935
195.0 0.00513 117.87760 171.67842
185.0 0.00541 117.86135 172.42471
191.0 0.00524 117.84525 173.28778
190.0 0.00526 117.82923 174.27736
168.0 0.00595 117.81339 175.40363
177.0 0.00565 117.79765 176.67758
196.0 0.00510 117.78210 178.11023
191.0 0.00524 117.76667 179.71375
189.0 0.00529 117.75138 181.50076
194.0 0.00515 117.73625 183.48470
196.0 0.00510 117.72128 185.67987
211.0 0.00474 117.70650 188.10117
196.0 0.00510 117.69186 190.76437
208.0 0.00481 117.67744 193.68607
216.0 0.00463 117.66313 196.88315
222.0 0.00450 117.64906 200.37347
208.0 0.00481 117.63517 204.17491
221.0 0.00452 117.62147 208.30605
250.0 0.00400 117.60797 212.78510
198.0 0.00505 117.59464 217.63060
229.0 0.00437 117.58157 222.86058
208.0 0.00481 117.56870 228.49272
200.0 0.00500 117.55604 234.54379
257.0 0.00389 117.54359 241.02956
256.0 0.00391 117.53142 247.96423
228.0 0.00439 117.51944 255.36058
278.0 0.00360 117.50774 263.22885
305.0 0.003279 117.49625 271.57675
289.0 0.003460 117.48502 280.40884
306.0 0.003268 117.47406 289.72583
268.0 0.00373 117.46333 299.52429
281.0 0.00356 117.45290 309.79480
366.0 0.002732 117.44271 320.52231
333.0 0.003003 117.43284 331.68427
334.0 0.002994 117.42319 343.24948
373.0 0.002681 117.41388 355.17737
353.0 0.002833 117.40482 367.41617
369.0 0.002710 117.39607 379.90134
422.0 0.002370 117.38764 392.55508
366.0 0.002732 117.37950 405.28528
364.0 0.002747 117.37167 417.98453
414.0 0.002415 117.36420 430.53107
416.0 0.002404 117.35703 442.78995
431.0 0.002320 117.35016 454.61588
435.0 0.002299 117.34365 465.85687
408.0 0.002451 117.33747 476.36020
429.0 0.002331 117.33162 485.97763
469.0 0.002132 117.32618 494.57428
453.0 0.002208 117.32103 502.03494
457.0 0.002188 117.31627 508.27072
487.0 0.002053 117.31187 513.22375
458.0 0.002183 117.30784 516.87000
471.0 0.002123 117.30419 519.21893
479.0 0.002088 117.30096 520.30951
494.0 0.002024 117.29810 520.20691
474.0 0.002110 117.29561 518.99249
459.0 0.002179 117.29353 516.75745
467.0 0.002141 117.29186 513.59595
456.0 0.002193 117.29060 509.59528
513.0 0.001949 117.28977 504.83411
511.0 0.001957 117.28936 499.37717
442.0 0.002262 117.28934 493.27542
454.0 0.002203 117.28979 486.56619
441.0 0.002268 117.29066 479.27731
447.0 0.002237 117.29201 471.43011
451.0 0.002217 117.29378 463.04413
463.0 0.002160 117.29604 454.14236
460.0 0.002174 117.29872 444.75418
450.0 0.002222 117.30186 434.91876
433.0 0.002309 117.30547 424.68558
404.0 0.002475 117.30961 414.11499
411.0 0.002433 117.31421 403.27573
378.0 0.002646 117.31929 392.24332
402.0 0.002488 117.32489 381.09634
391.0 0.002558 117.33097 369.91351
394.0 0.002538 117.33756 358.77054
377.0 0.002653 117.34467 347.73801
320.0 0.003125 117.35233 336.87927
331.0 0.003021 117.36042 326.24954
309.0 0.003236 117.36913 315.89569
308.0 0.003247 117.37829 305.85571
328.0 0.003049 117.38807 296.16013
288.0 0.003472 117.39840 286.83167
290.0 0.003448 117.40922 277.88678
259.0 0.00386 117.42064 269.33670
275.0 0.00364 117.43262 261.18747
261.0 0.00383 117.44518 253.44092
277.0 0.00361 117.45829 246.09581
251.0 0.00398 117.47200 239.14760
234.0 0.00427 117.48630 232.58916
256.0 0.00391 117.50117 226.41124
240.0 0.00417 117.51665 220.60300
226.0 0.00442 117.53275 215.15199
195.0 0.00513 117.54942 210.04445
194.0 0.00515 117.56674 205.26604
216.0 0.00463 117.58469 200.80165
202.0 0.00495 117.60325 196.63593
194.0 0.00515 117.62243 192.75308
201.0 0.00498 117.64230 189.13763
209.0 0.00478 117.66277 185.77406
211.0 0.00474 117.68386 182.64708
191.0 0.00524 117.70565 179.74184
189.0 0.00529 117.72810 177.04382
177.0 0.00565 117.75122 174.53908
180.0 0.00556 117.77499 172.21423
184.0 0.00543 117.79945 170.05650
199.0 0.00503 117.82459 168.05379
169.0 0.00592 117.85046 166.19455
157.0 0.00637 117.87698 164.46800
156.0 0.00641 117.90420 162.86412
164.0 0.00610 117.93216 161.37332
152.0 0.00658 117.96080 159.98676
184.0 0.00543 117.99015 158.69646
154.0 0.00649 118.02026 157.49478
159.0 0.00629 118.05106 156.37489
129.0 0.00775 118.08262 155.33029
155.0 0.00645 118.11492 154.35559
157.0 0.00637 118.14795 153.44516
141.0 0.00709 118.18175 152.59438
152.0 0.00658 118.21630 151.79897
132.0 0.00758 118.25162 151.05496
156.0 0.00641 118.28769 150.35899
151.0 0.00662 118.32453 149.70773
148.0 0.00676 118.36218 149.09846
146.0 0.00685 118.40056 148.52863
152.0 0.00658 118.43977 147.99596
152.0 0.00658 118.47977 147.49863
154.0 0.00649 118.52058 147.03458
133.0 0.00752 118.56217 146.60245
143.0 0.00699 118.60458 146.20071
151.0 0.00662 118.64782 145.82799
157.0 0.00637 118.69182 145.48347
129.0 0.00775 118.73674 145.16608
135.0 0.00741 118.78243 144.87465
137.0 0.00730 118.82896 144.60864
132.0 0.00758 118.87638 144.36728
159.0 0.00629 118.92458 144.14978
127.0 0.00787 118.97368 143.95525
128.0 0.00781 119.02360 143.78317
157.0 0.00637 119.07442 143.63271
164.0 0.00610 119.12609 143.50294
156.0 0.00641 119.17863 143.39293
142.0 0.00704 119.23205 143.30148
147.0 0.00680 119.28633 143.22740
122.0 0.00820 119.34154 143.16931
159.0 0.00629 119.39761 143.12576
139.0 0.00719 119.45462 143.09502
159.0 0.00629 119.51247 143.07561
156.0 0.00641 119.57127 143.06557
147.0 0.00680 119.63096 143.06328
149.0 0.00671 119.69158 143.06604
139.0 0.00719 119.75313 143.07381
126.0 0.00794 119.81558 143.08383
135.0 0.00741 119.87902 143.09419
133.0 0.00752 119.94328 143.10265
154.0 0.00649 120.00859 143.10706
140.0 0.00714 120.07480 143.10486
138.0 0.00725 120.14198 143.09354
167.0 0.00599 120.21008 143.07047
142.0 0.00704 120.27911 143.03348
134.0 0.00746 120.34918 142.98070
122.0 0.00820 120.42016 142.91095
148.0 0.00676 120.49213 142.82375
113.0 0.00885 120.56506 142.71979
151.0 0.00662 120.63900 142.59924
145.0 0.00690 120.71389 142.46603
145.0 0.00690 120.78976 142.32176
140.0 0.00714 120.86666 142.16907
142.0 0.00704 120.94453 142.01053
128.0 0.00781 121.02341 141.84848
151.0 0.00662 121.10327 141.68510
168.0 0.00595 121.18415 141.52196
142.0 0.00704 121.26608 141.36023
157.0 0.00637 121.34899 141.20062
155.0 0.00645 121.43292 141.04337
148.0 0.00676 121.51782 140.88838
125.0 0.00800 121.60380 140.73528
129.0 0.00775 121.69080 140.58369
129.0 0.00775 121.77883 140.43341
143.0 0.00699 121.86788 140.28426
135.0 0.00741 121.95802 140.13643
133.0 0.00752 122.04913 139.99048
133.0 0.00752 122.14136 139.84727
133.0 0.00752 122.23458 139.70801
118.0 0.00847 122.32886 139.57365
122.0 0.00820 122.42422 139.44585
141.0 0.00709 122.52061 139.32573
143.0 0.00699 122.61810 139.21432
162.0 0.00617 122.71660 139.11264
122.0 0.00820 122.81618 139.02156
149.0 0.00671 122.91683 138.94142
139.0 0.00719 123.01857 138.87276
165.0 0.00606 123.12139 138.81583
136.0 0.00735 123.22525 138.77055
132.0 0.00758 123.33022 138.73700
135.0 0.00741 123.43627 138.71490
160.0 0.00625 123.54340 138.70422
130.0 0.00769 123.65161 138.70450
140.0 0.00714 123.76094 138.71568
125.0 0.00800 123.87128 138.73744
127.0 0.00787 123.98275 138.76926
141.0 0.00709 124.09535 138.81099
117.0 0.00855 124.20895 138.86205
125.0 0.00800 124.32377 138.92229
149.0 0.00671 124.43961 138.99132
128.0 0.00781 124.55660 139.06894
152.0 0.00658 124.67463 139.15454
152.0 0.00658 124.79379 139.24797
127.0 0.00787 124.91406 139.34901
143.0 0.00699 125.03546 139.45718
153.0 0.00654 125.15794 139.57245
137.0 0.00730 125.28150 139.69450
128.0 0.00781 125.40626 139.82294
143.0 0.00699 125.53201 139.95792
131.0 0.00763 125.65895 140.09909
138.0 0.00725 125.78699 140.24620
131.0 0.00763 125.91609 140.39923
130.0 0.00769 126.04637 140.55821
132.0 0.00758 126.17770 140.72270
145.0 0.00690 126.31023 140.89287
140.0 0.00714 126.44377 141.06863
161.0 0.00621 126.57854 141.25002
137.0 0.00730 126.71432 141.43684
145.0 0.00690 126.85125 141.62929
155.0 0.00645 126.98927 141.82712
160.0 0.00625 127.12842 142.03055
145.0 0.00690 127.26869 142.23956
152.0 0.00658 127.41003 142.45406
131.0 0.00763 127.55254 142.67433
160.0 0.00625 127.69615 142.90021
149.0 0.00671 127.84087 143.13197
157.0 0.00637 127.98666 143.36957
129.0 0.00775 128.13361 143.61316
149.0 0.00671 128.28156 143.86282
137.0 0.00730 128.43066 144.11865
138.0 0.00725 128.58095 144.38084
131.0 0.00763 128.73225 144.64948
146.0 0.00685 128.88469 144.92464
155.0 0.00645 129.03821 145.20670
136.0 0.00735 129.19284 145.49562
165.0 0.00606 129.34853 145.79169
150.0 0.00667 129.50531 146.09506
128.0 0.00781 129.66322 146.40607
159.0 0.00629 129.82220 146.72484
146.0 0.00685 129.98224 147.05168
159.0 0.00629 130.14337 147.38683
133.0 0.00752 130.30562 147.73058
148.0 0.00676 130.46890 148.08344
143.0 0.00699 130.63327 148.44562
133.0 0.00752 130.79866 148.81749
163.0 0.00613 130.96513 149.19960
135.0 0.00741 131.13274 149.59239
158.0 0.00633 131.30130 149.99632
187.0 0.00535 131.47099 150.41222
128.0 0.00781 131.64168 150.84056
144.0 0.00694 131.81346 151.28244
159.0 0.00629 131.98625 151.73837
161.0 0.00621 132.16011 152.20953
166.0 0.00602 132.33492 152.69690
169.0 0.00592 132.51079 153.20197
174.0 0.00575 132.68774 153.72621
148.0 0.00676 132.86563 154.27138
147.0 0.00680 133.04465 154.83919
153.0 0.00654 133.22455 155.43196
186.0 0.00538 133.40553 156.05223
144.0 0.00694 133.58742 156.70276
176.0 0.00568 133.77034 157.38698
161.0 0.00621 133.95427 158.10823
142.0 0.00704 134.13911 158.87050
173.0 0.00578 134.32500 159.67868
164.0 0.00610 134.51183 160.53731
142.0 0.00704 134.69960 161.45203
169.0 0.00592 134.88831 162.42841
155.0 0.00645 135.07802 163.47318
165.0 0.00606 135.26855 164.59283
182.0 0.00549 135.46004 165.79460
164.0 0.00610 135.65251 167.08612
184.0 0.00543 135.84586 168.47487
185.0 0.00541 136.04013 169.96890
195.0 0.00513 136.23526 171.57600
173.0 0.00578 136.43134 173.30414
176.0 0.00568 136.62819 175.16096
168.0 0.00595 136.82605 177.15355
190.0 0.00526 137.02467 179.28854
189.0 0.00529 137.22412 181.57179
183.0 0.00546 137.42451 184.00800
197.0 0.00508 137.62561 186.60059
202.0 0.00495 137.82764 189.35159
172.0 0.00581 138.03043 192.26088
195.0 0.00513 138.23405 195.32561
186.0 0.00538 138.43843 198.54057
205.0 0.00488 138.64355 201.89673
204.0 0.00490 138.84952 205.38084
224.0 0.00446 139.05620 208.97443
225.0 0.00444 139.26369 212.65373
210.0 0.00476 139.47186 216.38734
259.0 0.00386 139.68079 220.13751
220.0 0.00455 139.89035 223.85805
265.0 0.00377 140.10071 227.49646
240.0 0.00417 140.31171 230.99422
256.0 0.00391 140.52332 234.28998
243.0 0.00412 140.73572 237.32283
223.0 0.00448 140.94865 240.03767
250.0 0.00400 141.16234 242.38997
273.0 0.00366 141.37648 244.35001
254.0 0.00394 141.59140 245.90761
245.0 0.00408 141.80681 247.07155
262.0 0.00382 142.02286 247.87019
266.0 0.00376 142.23941 248.34666
238.0 0.00420 142.45650 248.55501
250.0 0.00400 142.67418 248.55383
233.0 0.00429 142.89233 248.40172
246.0 0.00407 143.11107 248.15219
265.0 0.00377 143.33023 247.85062
266.0 0.00376 143.54988 247.53262
258.0 0.00388 143.76997 247.22226
258.0 0.00388 143.99045 246.93311
265.0 0.00377 144.21143 246.66856
219.0 0.00457 144.43280 246.42326
249.0 0.00402 144.65456 246.18607
257.0 0.00389 144.87662 245.94220
232.0 0.00431 145.09912 245.67697
260.0 0.00385 145.32188 245.37846
263.0 0.00380 145.54506 245.04077
254.0 0.00394 145.76839 244.66516
218.0 0.00459 145.99202 244.26184
259.0 0.00386 146.21599 243.84898
275.0 0.00364 146.44012 243.45114
248.0 0.00403 146.66455 243.09758
257.0 0.00389 146.88910 242.81998
241.0 0.00415 147.11389 242.64983
235.0 0.00426 147.33878 242.61717
234.0 0.00427 147.56387 242.74986
249.0 0.00402 147.78899 243.07208
235.0 0.00426 148.01418 243.60481
253.0 0.00395 148.23952 244.36646
256.0 0.00391 148.46483 245.37189
248.0 0.00403 148.69028 246.63460
242.0 0.00413 148.91557 248.16559
284.0 0.00352 149.14099 249.97496
251.0 0.00398 149.36629 252.07149
250.0 0.00400 149.59143 254.46336
226.0 0.00442 149.81660 257.15826
270.0 0.00370 150.04158 260.16382
251.0 0.00398 150.26646 263.48697
278.0 0.00360 150.49107 267.13477
251.0 0.00398 150.71562 271.11417
295.0 0.003390 150.93983 275.43198
270.0 0.00370 151.16391 280.09485
278.0 0.00360 151.38759 285.10861
292.0 0.003425 151.61099 290.47977
285.0 0.00351 151.83414 296.21350
286.0 0.003497 152.05685 302.31403
317.0 0.003155 152.27925 308.78506
315.0 0.003175 152.50113 315.62900
304.0 0.003289 152.72264 322.84650
345.0 0.002899 152.94365 330.43640
334.0 0.002994 153.16418 338.39575
375.0 0.002667 153.38411 346.71884
348.0 0.002874 153.60345 355.39810
352.0 0.002841 153.82234 364.42249
359.0 0.002786 154.04044 373.77917
356.0 0.002809 154.25803 383.45175
390.0 0.002564 154.47479 393.42175
390.0 0.002564 154.69093 403.66861
365.0 0.002740 154.90622 414.16876
439.0 0.002278 155.12077 424.89798
424.0 0.002358 155.33452 435.82947
463.0 0.002160 155.54732 446.93484
439.0 0.002278 155.75937 458.18466
478.0 0.002092 155.97037 469.54675
489.0 0.002045 156.18048 480.98672
486.0 0.002058 156.38957 492.46542
489.0 0.002045 156.59760 503.93890
512.0 0.001953 156.80458 515.35620
525.0 0.001905 157.01038 526.65802
572.0 0.001748 157.21515 537.77478
555.0 0.001802 157.41869 548.62500
508.0 0.001969 157.62102 559.11633
514.0 0.001946 157.82205 569.14459
538.0 0.001859 158.02188 578.59729
562.0 0.001779 158.22023 587.35516
525.0 0.001905 158.41734 595.29901
618.0 0.001618 158.61290 602.31427
533.0 0.001876 158.80705 608.29919
557.0 0.001795 158.99968 613.17114
585.0 0.001709 159.19080 616.87305
642.0 0.001558 159.38036 619.37854
612.0 0.001634 159.56819 620.55865
625.0 0.001600 159.75447 620.72223
640.0 0.001563 159.93892 619.80249
615.0 0.001626 160.12167 617.89209
598.0 0.001672 160.30261 615.10040
661.0 0.001513 160.48164 611.54749
601.0 0.001664 160.65887 607.35620
606.0 0.001650 160.83409 602.64349
663.0 0.001508 161.00739 597.51831
570.0 0.001754 161.17853 592.07495
590.0 0.001695 161.34769 586.39154
577.0 0.001733 161.51466 580.53131
585.0 0.001709 161.67940 574.54150
604.0 0.001656 161.84201 568.45758
558.0 0.001792 162.00229 562.30560
573.0 0.001745 162.16029 556.10742
577.0 0.001733 162.31583 549.88458
560.0 0.001786 162.46896 543.66260
571.0 0.001751 162.61961 537.47430
539.0 0.001855 162.76775 531.36310
540.0 0.001852 162.91321 525.38257
534.0 0.001873 163.05606 519.59747
539.0 0.001855 163.19629 514.08118
530.0 0.001887 163.33365 508.91397
508.0 0.001969 163.46826 504.17929
540.0 0.001852 163.59999 499.96066
548.0 0.001825 163.72884 496.33920
531.0 0.001883 163.85460 493.39014
470.0 0.002128 163.97739 491.18118
518.0 0.001931 164.09706 489.77090
445.0 0.002247 164.21356 489.20743
523.0 0.001912 164.32692 489.52777
511.0 0.001957 164.43692 490.75778
475.0 0.002105 164.54364 492.91135
525.0 0.001905 164.64691 495.99039
535.0 0.001869 164.74678 499.98401
513.0 0.001949 164.84306 504.86786
517.0 0.001934 164.93575 510.60422
538.0 0.001859 165.02484 517.13934
524.0 0.001908 165.11020 524.40320
566.0 0.001767 165.19176 532.30750
529.0 0.001890 165.26950 540.74463
545.0 0.001835 165.34335 549.58673
560.0 0.001786 165.41316 558.68439
549.0 0.001821 165.47897 567.86816
572.0 0.001748 165.54063 576.95062
583.0 0.001715 165.59810 585.72992
567.0 0.001764 165.65138 593.99664
627.0 0.001595 165.70027 601.54187
584.0 0.001712 165.74481 608.16779
581.0 0.001721 165.78485 613.69891
590.0 0.001695 165.82037 617.99219
503.0 0.001988 165.85126 620.94818
590.0 0.001695 165.87749 622.51563
603.0 0.001658 165.89888 622.69458
624.0 0.001603 165.91553 621.53424
570.0 0.001754 165.92723 619.12482
568.0 0.001761 165.93393 615.58984
566.0 0.001767 165.93559 611.07196
589.0 0.001698 165.93208 605.72211
604.0 0.001656 165.92336 599.68713
588.0 0.001701 165.90936 593.10022
539.0 0.001855 165.88994 586.07367
606.0 0.001650 165.86507 578.69403
561.0 0.001783 165.83466 571.02069
559.0 0.001789 165.79854 563.08521
621.0 0.001610 165.75681 554.89551
497.0 0.002012 165.70924 546.43878
571.0 0.001751 165.65584 537.68927
476.0 0.002101 165.59641 528.61407
500.0 0.002000 165.53093 519.18109
496.0 0.002016 165.45937 509.36560
510.0 0.001961 165.38152 499.15662
485.0 0.002062 165.29739 488.56058
505.0 0.001980 165.20679 477.60327
454.0 0.002203 165.10979 466.32965
423.0 0.002364 165.00610 454.80075
460.0 0.002174 164.89578 443.09039
431.0 0.002320 164.77869 431.27969
410.0 0.002439 164.65471 419.45264
406.0 0.002463 164.52379 407.69150
411.0 0.002433 164.38577 396.07318
381.0 0.002625 164.24065 384.66629
395.0 0.002532 164.08821 373.53027
367.0 0.002725 163.92850 362.71402
380.0 0.002632 163.76123 352.25671
319.0 0.003135 163.58653 342.18774
326.0 0.003067 163.40417 332.52814
334.0 0.002994 163.21397 323.29095
349.0 0.002865 163.01599 314.48325
310.0 0.003226 162.81000 306.10626
336.0 0.002976 162.59602 298.15714
287.0 0.003484 162.37373 290.62878
267.0 0.00375 162.14334 283.51202
279.0 0.00358 161.90448 276.79456
295.0 0.003390 161.65714 270.46286
286.0 0.003497 161.40126 264.50192
249.0 0.00402 161.13654 258.89529
274.0 0.00365 160.86313 253.62663
246.0 0.00407 160.58072 248.67860
245.0 0.00408 160.28932 244.03371
229.0 0.00437 159.98865 239.67430
220.0 0.00455 159.67886 235.58324
212.0 0.00472 159.35965 231.74315
227.0 0.00441 159.03085 228.13722
206.0 0.00485 158.69254 224.74930
230.0 0.00435 158.34436 221.56320
232.0 0.00431 157.98647 218.56398
239.0 0.00418 157.61845 215.73676
210.0 0.00476 157.24043 213.06802
235.0 0.00426 156.85208 210.54430
209.0 . . .
loop_
_refln_index_h
_refln_index_k
_refln_index_l
_pd_refln_wavelength_id
_refln_observed_status
_refln_F_squared_meas
_refln_F_squared_calc
_refln_phase_calc
_refln_d_spacing
0 1 1 1 o 143.073 57.880 180.00 4.98517
0 1 1 2 o 142.688 57.880 180.00 4.98517
0 1 3 1 o 612.380 621.579 180.00 3.27021
0 1 3 2 o 613.100 621.579 180.00 3.27021
1 1 2 1 o 73248.69 72468.84 180.00 3.26522
1 1 2 2 o 73670.05 72468.84 180.00 3.26522
0 0 4 1 o 51260.13 48529.03 180.00 3.06369
0 0 4 2 o 50542.94 48529.03 180.00 3.06369
0 2 0 1 o 41424.41 41127.66 180.00 2.72855
0 2 0 2 o 40988.47 41127.66 180.00 2.72855
0 2 2 1 o 1252.148 1398.353 180.00 2.49259
0 2 2 2 o 1208.208 1398.353 180.00 2.49259
1 1 4 1 o 3451.910 3707.070 180.00 2.39940
1 1 4 2 o 3423.398 3707.070 180.00 2.39940
2 1 1 1 o 2741.758 2952.633 0.00 2.39349
1 2 1 1 o 959.456 1043.213 180.00 2.39349
2 1 1 2 o 2680.907 2952.633 0.00 2.39349
1 2 1 2 o 935.286 1043.213 180.00 2.39349
0 1 5 1 o 1134.509 949.685 180.00 2.23580
0 1 5 2 o 1095.099 949.685 180.00 2.23580
2 1 3 1 o 26.398 21.757 180.00 2.09507
1 2 3 1 o 2676.277 2375.337 180.00 2.09507
2 1 3 2 o 26.070 21.757 180.00 2.09507
1 2 3 2 o 2655.020 2375.337 180.00 2.09507
0 2 4 1 o 62574.57 60809.20 0.00 2.03760
0 2 4 2 o 61714.25 60809.20 0.00 2.03760
2 2 0 1 o 52896.32 52119.73 180.00 1.92938
2 2 0 2 o 52251.28 52119.73 180.00 1.92938
1 1 6 1 o 44539.71 46603.16 0.00 1.80518
1 1 6 2 o 44244.54 46603.16 0.00 1.80518
2 2 2 1 o 6.072 4.926 180.00 1.84030
2 2 2 2 o 6.041 4.926 180.00 1.84030
0 3 1 1 o 83.782 86.907 180.00 1.79932
0 3 1 2 o 80.334 86.907 180.00 1.79932
1 2 5 1 o 261.073 359.391 0.00 1.72938
2 1 5 1 o 458.933 625.242 0.00 1.72938
1 2 5 2 o 279.152 359.391 0.00 1.72938
2 1 5 2 o 489.515 625.242 0.00 1.72938
0 1 7 1 o 376.750 359.515 180.00 1.66700
0 1 7 2 o 365.107 359.515 180.00 1.66700
0 2 6 1 o 22.978 22.147 0.00 1.63511
0 2 6 2 o 23.256 22.147 0.00 1.63511
0 3 3 1 o 270.491 269.976 180.00 1.66172
1 3 2 1 o 52348.95 52340.23 0.00 1.66107
3 1 2 1 o 33477.734 33472.203 180.00 1.66107
0 3 3 2 o 269.270 269.976 180.00 1.66172
1 3 2 2 o 52085.04 52340.23 0.00 1.66107
3 1 2 2 o 33309.813 33472.203 180.00 1.66107
2 2 4 1 o 43043.75 41338.81 0.00 1.63261
2 2 4 2 o 43542.54 41338.81 0.00 1.63261
0 0 8 1 o 26105.764 25393.553 0.00 1.53185
0 0 8 2 o 25553.234 25393.553 0.00 1.53185
3 1 4 1 o 5.548 6.335 0.00 1.50357
1 3 4 1 o 1.486 1.697 180.00 1.50357
3 1 4 2 o 5.618 6.335 0.00 1.50357
1 3 4 2 o 1.505 1.697 180.00 1.50357
1 1 8 2 o 468.359 688.323 180.00 1.42376
2 3 1 1 o 881.372 1020.035 0.00 1.50212
3 2 1 1 o 328.803 370.903 0.00 1.50212
3 2 1 2 o 337.090 370.903 0.00 1.50212
2 3 1 2 o 908.665 1020.035 0.00 1.50212
1 1 8 1 o 455.532 688.323 180.00 1.42376
0 3 5 1 o 320.215 401.248 180.00 1.46070
0 3 5 2 o 329.803 401.248 180.00 1.46070
1 2 7 1 o 15.184 29.997 180.00 1.42252
2 1 7 1 o 424.601 672.189 0.00 1.42252
1 2 7 2 o 16.507 29.997 180.00 1.42252
2 1 7 2 o 446.699 672.189 0.00 1.42252
2 2 6 1 o 0.071 0.094 0.00 1.40255
2 2 6 2 o 0.075 0.094 0.00 1.40255
2 3 3 1 o -0.036 0.312 180.00 1.41924
3 2 3 1 o 595.898 903.299 0.00 1.41924
3 2 3 2 o 639.746 903.299 0.00 1.41924
2 3 3 2 o 0.013 0.312 180.00 1.41924
0 1 9 1 o 66.297 62.190 180.00 1.32114
0 1 9 2 o 65.988 62.190 180.00 1.32114
0 2 8 1 o 38944.31 37689.26 180.00 1.33574
0 2 8 2 o 39316.44 37689.26 180.00 1.33574
0 4 0 2 o 33320.500 32793.980 0.00 1.36428
0 4 0 1 o 33199.402 32793.980 0.00 1.36428
3 1 6 1 o 44818.16 42896.91 0.00 1.31818
1 3 6 1 o 22804.207 21835.289 180.00 1.31818
1 3 6 2 o 22912.949 21835.289 180.00 1.31818
3 1 6 2 o 45033.68 42896.91 0.00 1.31818
0 4 2 1 o 1447.524 1378.381 180.00 1.33167
0 4 2 2 o 1474.090 1378.381 180.00 1.33167
1 4 1 1 o 6.874 6.191 0.00 1.31589
4 1 1 1 o 43.416 40.548 180.00 1.31589
4 1 1 2 o 43.527 40.548 180.00 1.31589
1 4 1 2 o 6.901 6.191 0.00 1.31589
2 3 5 1 o 317.794 345.235 0.00 1.28778
3 2 5 1 o 142.087 153.634 180.00 1.28778
2 3 5 2 o 308.939 345.235 0.00 1.28778
3 2 5 2 o 138.361 153.634 180.00 1.28778
0 3 7 1 o 238.720 226.976 180.00 1.26139
0 3 7 2 o 239.959 226.976 180.00 1.26139
4 1 3 1 o 89.264 83.981 180.00 1.25910
1 4 3 1 o 200.929 189.823 180.00 1.25910
0 4 4 1 o 28952.354 28348.521 180.00 1.24629
1 4 3 2 o 201.705 189.823 180.00 1.25910
4 1 3 2 o 89.633 83.981 180.00 1.25910
3 3 2 2 o 30697.133 29169.211 0.00 1.25882
0 4 4 2 o 28744.914 28348.521 180.00 1.24629
3 3 2 1 o 30616.031 29169.211 0.00 1.25882
1 2 9 1 o 490.324 500.514 0.00 1.18908
2 1 9 1 o 102.492 105.336 180.00 1.18908
2 2 8 2 o 26026.924 26099.867 180.00 1.19970
2 1 9 2 o 97.525 105.336 180.00 1.18908
1 2 9 2 o 472.533 500.514 0.00 1.18908
2 2 8 1 o 25595.975 26099.867 180.00 1.19970
1 1 10 1 o 23467.301 25350.775 180.00 1.16799
1 1 10 2 o 24001.273 25350.775 180.00 1.16799
2 4 0 1 o 33960.977 34250.070 0.00 1.22025
4 2 0 1 o 32936.988 33217.211 180.00 1.22025
4 2 0 2 o 32712.828 33217.211 180.00 1.22025
2 4 0 2 o 33729.816 34250.070 0.00 1.22025
2 4 2 1 o 233.253 233.313 0.00 1.19675
4 2 2 1 o 317.477 317.559 0.00 1.19675
2 4 2 2 o 236.672 233.313 0.00 1.19675
4 2 2 2 o 322.131 317.559 0.00 1.19675
3 3 4 1 o 449.938 484.828 180.00 1.18597
3 3 4 2 o 444.013 484.828 180.00 1.18597
1 4 5 1 o 151.852 158.051 0.00 1.16459
4 1 5 1 o 117.599 122.292 180.00 1.16459
3 1 8 1 o 2.274 1.775 0.00 1.14561
1 3 8 1 o 0.609 0.475 180.00 1.14561
0 2 10 1 o 277.387 240.735 0.00 1.11790
4 1 5 2 o 115.837 122.292 180.00 1.16459
1 4 5 2 o 149.524 158.051 0.00 1.16459
3 1 8 2 o 2.204 1.775 0.00 1.14561
1 3 8 2 o 0.590 0.475 180.00 1.14561
0 2 10 2 o 290.554 240.735 0.00 1.11790
3 2 7 1 o 14.257 12.244 0.00 1.14496
2 3 7 1 o 491.516 390.569 0.00 1.14496
0 1 11 1 o -0.015 0.030 180.00 1.09155
3 2 7 2 o 13.849 12.244 0.00 1.14496
2 3 7 2 o 471.077 390.569 0.00 1.14496
0 1 11 2 o -0.038 0.030 180.00 1.09155
0 4 6 1 o 35.181 33.107 0.00 1.13447
0 4 6 2 o 35.160 33.107 0.00 1.13447
4 2 4 1 o 23304.719 22131.588 0.00 1.13364
2 4 4 1 o 22991.783 21834.639 180.00 1.13364
4 2 4 2 o 23547.264 22131.588 0.00 1.13364
2 4 4 2 o 23230.990 21834.639 180.00 1.13364
0 3 9 2 o 25.758 26.418 180.00 1.09007
0 3 9 1 o 25.843 26.418 180.00 1.09007
3 3 6 1 o 20852.246 21732.115 180.00 1.08841
3 3 6 2 o 21116.266 21732.115 180.00 1.08841
0 0 12 1 o 27434.955 27899.475 180.00 1.02123
0 0 12 2 o 27651.496 27899.475 180.00 1.02123
0 5 1 1 o 0.867 0.894 0.00 1.08712
4 3 1 1 o 17.072 17.500 180.00 1.08712
3 4 1 1 o 0.079 0.121 180.00 1.08712
2 2 10 1 o 1.275 1.228 0.00 1.03445
4 3 1 2 o 17.219 17.500 180.00 1.08712
3 4 1 2 o 0.093 0.121 180.00 1.08712
0 5 1 2 o 0.875 0.894 0.00 1.08712
2 2 10 2 o 1.286 1.228 0.00 1.03445
2 1 11 1 o 198.546 187.292 0.00 1.01347
1 2 11 1 o 248.138 230.211 0.00 1.01347
1 4 7 1 o 84.688 81.985 180.00 1.05578
4 1 7 1 o 83.696 81.028 180.00 1.05578
1 2 11 2 o 250.487 230.211 0.00 1.01347
2 1 11 2 o 200.020 187.292 0.00 1.01347
4 1 7 2 o 83.026 81.028 180.00 1.05578
1 4 7 2 o 84.009 81.985 180.00 1.05578
4 2 6 1 o 8.518 8.224 180.00 1.04753
2 4 6 1 o 6.258 6.042 180.00 1.04753
4 2 6 2 o 8.293 8.224 180.00 1.04753
2 4 6 2 o 6.093 6.042 180.00 1.04753
0 5 3 2 o 61.078 59.654 0.00 1.05443
1 1 12 1 o 43.617 43.723 0.00 0.98724
1 1 12 2 o 43.330 43.723 0.00 0.98724
3 4 3 1 o 96.079 93.680 0.00 1.05443
0 5 3 1 o 61.131 59.654 0.00 1.05443
4 3 3 1 o 77.190 75.305 180.00 1.05443
1 5 2 1 o 17871.521 17361.461 180.00 1.05427
5 1 2 1 o 25504.469 24772.318 180.00 1.05427
4 3 3 2 o 77.127 75.305 180.00 1.05443
3 4 3 2 o 95.998 93.680 0.00 1.05443
1 5 2 2 o 17873.873 17361.461 180.00 1.05427
5 1 2 2 o 25507.871 24772.318 180.00 1.05427
3 1 10 1 o 16868.139 17232.574 180.00 0.99917
1 3 10 1 o 19362.414 19781.789 0.00 0.99917
3 2 9 1 o 356.157 326.085 180.00 1.01228
2 3 9 1 o 42.516 40.039 180.00 1.01228
0 4 8 1 o 18966.629 19325.209 0.00 1.01880
3 1 10 2 o 17255.316 17232.574 180.00 0.99917
1 3 10 2 o 19807.959 19781.789 0.00 0.99917
2 3 9 2 o 42.289 40.039 180.00 1.01228
3 2 9 2 o 353.396 326.085 180.00 1.01228
0 4 8 2 o 19734.541 19325.209 0.00 1.01880
0 2 12 1 o 13496.646 13572.963 0.00 0.95644
0 2 12 2 o 13600.580 13572.963 0.00 0.95644
1 5 4 1 o 4.281 3.966 0.00 1.01035
5 1 4 1 o 0.002 0.002 180.00 1.01035
1 5 4 2 o 4.281 3.966 0.00 1.01035
5 1 4 2 o 0.002 0.002 180.00 1.01035
2 5 1 1 o 130.992 123.150 0.00 1.00991
5 2 1 1 o 296.093 273.064 180.00 1.00991
3 3 8 1 o 170.120 171.043 180.00 0.98505
0 5 5 1 o 72.688 73.568 0.00 0.99703
4 3 5 1 o 135.304 136.964 180.00 0.99703
3 4 5 1 o 97.703 98.936 180.00 0.99703
2 5 1 2 o 131.975 123.150 0.00 1.00991
5 2 1 2 o 298.981 273.064 180.00 1.00991
3 3 8 2 o 166.668 171.043 180.00 0.98505
4 3 5 2 o 143.843 136.964 180.00 0.99703
3 4 5 2 o 104.041 98.936 180.00 0.99703
0 5 5 2 o 77.415 73.568 0.00 0.99703
0 3 11 1 o 0.014 0.000 180.00 0.95005
0 3 11 2 o -0.007 0.000 180.00 0.95005
2 5 3 1 o 225.559 231.134 180.00 0.98355
5 2 3 1 o 3.278 3.309 180.00 0.98355
5 2 3 2 o 3.238 3.309 180.00 0.98355
2 5 3 2 o 218.355 231.134 180.00 0.98355
1 4 9 1 o 44.056 43.966 0.00 0.94907
4 1 9 1 o 11.972 11.941 180.00 0.94907
4 2 8 1 o 14727.818 14777.961 180.00 0.95444
2 4 8 1 o 14417.589 14466.650 0.00 0.95444
1 4 9 2 o 43.595 43.966 0.00 0.94907
4 1 9 2 o 11.814 11.941 180.00 0.94907
2 4 8 2 o 14711.231 14466.650 0.00 0.95444
4 2 8 2 o 15027.904 14777.961 180.00 0.95444
1 5 6 1 o 21402.402 21610.256 0.00 0.94797
5 1 6 1 o 11582.433 11693.660 0.00 0.94797
4 4 0 2 o 11348.535 10908.133 0.00 0.96469
1 5 6 2 o 21616.115 21610.256 0.00 0.94797
5 1 6 2 o 11696.797 11693.660 0.00 0.94797
4 4 0 1 o 11627.345 10908.133 0.00 0.96469
4 4 2 1 o 0.034 0.033 0.00 0.95295
4 4 2 2 o 0.034 0.033 0.00 0.95295
