#------------------------------------------------------------------------------
#$Date: 2018-07-06 05:20:27 +0300 (Fri, 06 Jul 2018) $
#$Revision: 208877 $
#$URL: file:///home/coder/svn-repositories/cod/cif/2/30/06/2300640.cif $
#------------------------------------------------------------------------------
#
# This file is available in the Crystallography Open Database (COD),
# http://www.crystallography.net/. The original data for this entry
# were provided by IUCr Journals, http://journals.iucr.org/.
#
# The file may be used within the scientific community so long as
# proper attribution is given to the journal article from which the
# data were obtained.
#
data_2300640
loop_
_publ_author_name
'Wang, Yunchen'
'Yang, Taimin'
'Xu, Hongyi'
'Zou, Xiaodong'
'Wan, Wei'
_publ_section_title
;
 On the quality of the continuous rotation electron diffraction data for
 accurate atomic structure determination of inorganic compounds
;
_journal_issue                   4
_journal_name_full               'Journal of Applied Crystallography'
_journal_page_first
;
;
_journal_paper_doi               10.1107/S1600576718007604
_journal_volume                  51
_journal_year                    2018
_chemical_formula_sum            'O24 Si12'
_chemical_formula_weight         721.01
_space_group_crystal_system      orthorhombic
_space_group_IT_number           62
_space_group_name_Hall           '-P 2ac 2n'
_space_group_name_H-M_alt        'P n m a'
_symmetry_space_group_name_Hall  '-P 2ac 2n'
_symmetry_space_group_name_H-M   'P n m a'
_audit_creation_method           SHELXL-2018/3
_cell_angle_alpha                90
_cell_angle_beta                 90
_cell_angle_gamma                90
_cell_formula_units_Z            8
_cell_length_a                   20.022(4)
_cell_length_b                   19.899(4)
_cell_length_c                   13.383(3)
_cell_measurement_reflns_used    8815
_cell_measurement_temperature    293(2)
_cell_measurement_theta_max      0.826
_cell_measurement_theta_min      0.065
_cell_volume                     5332.0(19)
_computing_structure_refinement  'SHELXL-2018/3 (Sheldrick, 2018)'
_diffrn_ambient_temperature      293(2)
_diffrn_measured_fraction_theta_full 0.760
_diffrn_measured_fraction_theta_max 0.760
_diffrn_measurement_device_type  'JEOL JEM-2100'
_diffrn_radiation_wavelength     0.0251
_diffrn_reflns_av_R_equivalents  0.2321
_diffrn_reflns_av_unetI/netI     0.2200
_diffrn_reflns_Laue_measured_fraction_full 0.760
_diffrn_reflns_Laue_measured_fraction_max 0.760
_diffrn_reflns_limit_h_max       23
_diffrn_reflns_limit_h_min       -23
_diffrn_reflns_limit_k_max       20
_diffrn_reflns_limit_k_min       -20
_diffrn_reflns_limit_l_max       13
_diffrn_reflns_limit_l_min       -13
_diffrn_reflns_number            16752
_diffrn_reflns_point_group_measured_fraction_full 0.760
_diffrn_reflns_point_group_measured_fraction_max 0.760
_diffrn_reflns_theta_full        0.826
_diffrn_reflns_theta_max         0.826
_diffrn_reflns_theta_min         0.065
_exptl_absorpt_coefficient_mu    0.000
_exptl_crystal_colour            white
_exptl_crystal_density_diffrn    1.796
_exptl_crystal_description       plate
_exptl_crystal_F_000             939
_refine_diff_density_max         0.353
_refine_diff_density_min         -0.190
_refine_diff_density_rms         0.055
_refine_ls_extinction_coef       704(88)
_refine_ls_extinction_expression Fc^*^=kFc[1+0.001xFc^2^\l^3^/sin(2\q)]^-1/4^
_refine_ls_extinction_method     'SHELXL-2018/3 (Sheldrick 2018)'
_refine_ls_goodness_of_fit_ref   1.132
_refine_ls_hydrogen_treatment    undef
_refine_ls_matrix_type           full
_refine_ls_number_parameters     150
_refine_ls_number_reflns         3330
_refine_ls_number_restraints     48
_refine_ls_restrained_S_all      1.137
_refine_ls_R_factor_all          0.2400
_refine_ls_R_factor_gt           0.1953
_refine_ls_shift/su_max          0.003
_refine_ls_shift/su_mean         0.000
_refine_ls_structure_factor_coef Fsqd
_refine_ls_weighting_details
'w=1/[\s^2^(Fo^2^)+(0.2111P)^2^+2.3800P] where P=(Fo^2^+2Fc^2^)/3'
_refine_ls_weighting_scheme      calc
_refine_ls_wR_factor_gt          0.4677
_refine_ls_wR_factor_ref         0.5078
_reflns_Friedel_coverage         0.000
_reflns_number_gt                1743
_reflns_number_total             3330
_reflns_threshold_expression     'I > 2\s(I)'
_cod_data_source_file            kc5069sup1.cif
_cod_data_source_block           dataset7
_cod_database_code               2300640
_shelx_shelxl_version_number     2018/3
_shelx_space_group_comment
;
The symmetry employed for this shelxl refinement is uniquely defined
by the following loop, which should always be used as a source of
symmetry information in preference to the above space-group names.
They are only intended as comments.
;
_shelx_res_file
;

    temp.res created by SHELXL-2018/3 at 12:00:44 on 24-Apr-2018
TITL 3_a.res in Pnma
CELL  0.0251  20.0220  19.8990  13.3830   90.000   90.000   90.000
ZERR   8.000   0.0040   0.0040   0.0027    0.000    0.000    0.000
LATT 1
SYMM 1/2-x,-y,1/2+z
SYMM 1/2+x,1/2-y,1/2-z
SYMM -x,1/2+y,-z
REM  ------ Electron scattering factors ------
REM  SFAC Species a(1) b(1) a(2) b(2) a(3) b(3) =
REM  a(4) b(4) c f' f'' mu cov_radius weight
SFAC O      0.45480  23.78030   0.91730   7.62200   0.47190   2.14400 =
            0.13840   0.29590   0.00000   0.000   0.000   0.000   0.730  15.999
SFAC SI     2.12930  57.77480   2.53330  16.47560   0.83490   2.87960 =
            0.32160   0.38600   0.00000   0.000   0.000   0.000   1.110  28.086
UNIT 192 96
L.S. 10
BOND
LIST 6
FMAP 2
PLAN 20
SHEL 20 0.87
EQIV $1   x-1/2, y, -z-1/2
EQIV $2   -x+1/2, -y, z-1/2
EQIV $3   x, -y-1/2, z
EQIV $4   -x+1/2, -y, z+1/2
EQIV $5   x+1/2, y, -z-1/2

DFIX 1.61 0.015 Si01 O15 Si01 O01
DFIX 1.61 0.03  Si01 O16 Si01 O21_$5
DFIX 1.61 0.03 Si02 O06 Si02 O01 Si02 O02 Si02 O13
DFIX 1.61 0.01 Si03 O03 Si03 O19_$4
DFIX 1.61 0.03  Si03 O02 Si03 O20_$4
DFIX 1.61 0.01 Si04 O03
DFIX 1.61 0.03  Si04 O17_$4 Si04 O16_$4 Si04 O04
DFIX 1.61 0.015 Si05 O04
DFIX 1.61 0.03  Si05 O14 Si05 O21 Si05 O05
DFIX 1.61 0.015 Si06 O19
DFIX 1.61 0.03 Si06 O05  Si06 O18 Si06 O06
DFIX 1.61 0.015 Si07 O22_$5
DFIX 1.61 0.03 Si07 O07 Si07 O23  Si07 O17
DFIX 1.61 0.015 Si08 O12
DFIX 1.61 0.03 Si08 O13 Si08 O08 Si08 O07
DFIX 1.61 0.03 Si09 O18_$4 Si09 O25 Si09 O08 Si09 O09
DFIX 1.61 0.015 Si10 O15_$4
DFIX 1.61 0.03 Si10 O09 Si10 O26 Si10 O10
DFIX 1.61 0.015 Si11 O10 Si11 O22
DFIX 1.61 0.03  Si11 O11 Si11 O14
DFIX 1.61 0.015 Si12 O12
DFIX 1.61 0.03 Si12 O11 Si12 O20 Si12 O24
ACTA
WGHT    0.211100    2.380000
EXTI  703.981140
FVAR       1.16782
SI01  2    0.423067    0.057115   -0.334100    11.00000    0.01435
SI02  2    0.309259    0.029576   -0.186374    11.00000    0.01837
SI03  2    0.279400    0.061594    0.036113    11.00000    0.01640
SI04  2    0.122281    0.063668    0.030916    11.00000    0.01489
SI05  2    0.072278    0.028449   -0.182239    11.00000    0.01102
SI06  2    0.188293    0.059703   -0.323824    11.00000    0.01551
SI07  2    0.423147   -0.172048   -0.323147    11.00000    0.01407
SI08  2    0.309333   -0.130026   -0.180419    11.00000    0.01742
SI09  2    0.274268   -0.172413    0.034065    11.00000    0.01528
SI10  2    0.119382   -0.172602    0.030840    11.00000    0.01934
SI11  2    0.069462   -0.130414   -0.181331    11.00000    0.01244
SI12  2    0.187892   -0.172523   -0.314367    11.00000    0.02258
O01   1    0.374256    0.055199   -0.240698    11.00000    0.04098
O02   1    0.308135    0.058556   -0.074682    11.00000    0.03776
O03   1    0.200844    0.057791    0.029232    11.00000    0.04189
O04   1    0.095070    0.062712   -0.080705    11.00000    0.04935
O05   1    0.116408    0.054962   -0.271207    11.00000    0.03532
O06   1    0.245537    0.055588   -0.243301    11.00000    0.04861
O07   1    0.375304   -0.157015   -0.230323    11.00000    0.04040
O08   1    0.309310   -0.155402   -0.069000    11.00000    0.03750
O09   1    0.196647   -0.154172    0.024154    11.00000    0.02944
O10   1    0.086319   -0.163396   -0.076918    11.00000    0.06314
O11   1    0.117936   -0.159121   -0.264466    11.00000    0.04095
O12   1    0.244107   -0.154195   -0.236257    11.00000    0.05051
O13   1    0.307235   -0.050877   -0.175067    11.00000    0.07502
O14   1    0.078838   -0.051204   -0.171711    11.00000    0.04724
O15   1    0.416024    0.127555   -0.387889    11.00000    0.03520
O16   1    0.408278   -0.001858   -0.410892    11.00000    0.05253
O17   1    0.400888   -0.132260   -0.419570    11.00000    0.03877
O18   1    0.191508    0.130056   -0.379019    11.00000    0.03353
O19   1    0.192579    0.002359   -0.406027    11.00000    0.04691
O20   1    0.197668   -0.130376   -0.412916    11.00000    0.04665
O21   1   -0.002988    0.048887   -0.207747    11.00000    0.03210
O22   1   -0.003831   -0.151615   -0.210937    11.00000    0.03879
O23   1    0.423584   -0.250000   -0.350381    10.50000    0.04610
O24   1    0.191053   -0.250000   -0.347271    10.50000    0.03594
O25   1    0.285322   -0.250000    0.059910    10.50000    0.03230
O26   1    0.110363   -0.250000    0.061473    10.50000    0.03017

HKLF 4




REM  3_a.res in Pnma
REM wR2 = 0.5078, GooF = S = 1.132, Restrained GooF = 1.137 for all data
REM R1 = 0.1953 for 1743 Fo > 4sig(Fo) and 0.2400 for all 3330 data
REM 150 parameters refined using 48 restraints

END

WGHT      0.2000      0.0000

REM Highest difference peak  0.353,  deepest hole -0.190,  1-sigma level  0.055
Q1    1   0.1891 -0.2500  0.3202  10.50000  0.05    0.33
Q2    1   0.0770  0.2500 -0.1801  10.50000  0.05    0.29
Q3    1   0.4286  0.0614 -0.3078  11.00000  0.05    0.25
Q4    1  -0.0007 -0.0580 -0.4630  11.00000  0.05    0.25
Q5    1   0.4516 -0.2500  0.1736  10.50000  0.05    0.22
Q6    1  -0.0007  0.1675 -0.4559  11.00000  0.05    0.21
Q7    1   0.5026 -0.2500  0.0478  10.50000  0.05    0.20
Q8    1  -0.0006  0.1362 -0.4608  11.00000  0.05    0.19
Q9    1   0.4632 -0.2500 -0.1207  10.50000  0.05    0.19
Q10   1   0.4284 -0.1686 -0.2903  11.00000  0.05    0.19
Q11   1  -0.0102 -0.1386 -0.4385  11.00000  0.05    0.18
Q12   1   0.1937 -0.0103 -0.3762  11.00000  0.05    0.17
Q13   1  -0.0036 -0.2211 -0.4576  11.00000  0.05    0.16
Q14   1   0.0741 -0.2500 -0.4850  10.50000  0.05    0.16
Q15   1   0.0782  0.0163 -0.1594  11.00000  0.05    0.16
Q16   1   0.0411  0.1464 -0.3384  11.00000  0.05    0.16
Q17   1   0.2142  0.0006 -0.3931  11.00000  0.05    0.16
Q18   1   0.3121  0.0217 -0.1641  11.00000  0.05    0.16
Q19   1   0.3821  0.0521 -0.2194  11.00000  0.05    0.16
Q20   1   0.4662  0.1622 -0.1169  11.00000  0.05    0.16
;
_shelx_res_checksum              68589
_shelx_hkl_file
;
   0   2   1   61.00   46.80   1
   0   3   2   85.10   62.70   1
   0  -3  -2  187.10   63.10   1
   0   4   2  242.00  107.50   1
   0  -5  -3 5445.60 1460.60   1
   0   6   3  111.00   39.30   1
   0  -6  -3   32.00   39.10   1
   0   6   4  345.20  120.90   1
   0  -6  -4  240.70  120.80   1
   0   7   4  142.50   26.00   1
   0  -7  -4   14.00   25.40   1
   0  -8  -4 6036.80 1615.10   1
   0   8   5   68.10   48.40   1
   0  -8  -5   61.10   48.40   1
   0   9   5  124.00   70.50   1
   0   9   6   59.40   45.90   1
   0  -9  -6   57.40   46.00   1
   0 -10  -5   30.50   32.40   1
   0  10   6  807.50  238.70   1
   0 -10  -6  655.10  238.10   1
   0  10   7    6.50   14.90   1
   0 -11  -5   60.30   47.30   1
   0  11   6   81.00   48.80   1
   0 -11  -6   55.80   48.70   1
   0  11   7  147.90   81.90   1
   0 -11  -7  184.40   82.20   1
   0  12   6  201.00  112.50   1
   0 -12  -6  378.30  113.10   1
   0  12   8  109.60   65.30   1
   0 -12  -8  105.20   65.70   1
   0 -13  -6   22.40   28.30   1
   0  13   7 1760.10  514.40   1
   0  13   8   19.30   23.00   1
   0 -13  -8   13.40   23.00   1
   0  13   9  118.20   69.00   1
   0  14   7   56.50   45.60   1
   0  14   8  193.10   93.20   1
   0  14   9   12.70   22.60   1
   0 -14  -9   28.30   22.80   1
   0  14  10    4.70   13.00   1
   0 -15  -7  459.60  171.70   1
   0  15   8    9.80   10.60   1
   0 -15  -8   -0.00   10.00   1
   0 -15  -9   79.00   54.20   1
   0  15  10   -0.00    2.80   1
   0  16   8   69.20   51.00   1
   0  16   9    0.00   11.70   1
   0 -16  -9    9.90   11.80   1
   0  16  10   86.90   29.00   1
   0 -16 -10   16.40   28.60   1
   0 -17  -8   -0.00    6.80   1
   0 -17  -9   26.10   29.80   1
   0  18   9   18.70   16.70   1
   0 -18  -9    1.80   16.20   1
   1   0   0  158.90   89.90   1
  -1   0   0  850.90   95.40   1
   1   0  -1 1117.30  349.60   1
  -1   0   1 1153.30  349.80   1
   1   1   0   88.30   64.10   1
  -1  -1   0  124.20   64.10   1
   1  -1   0   90.30   64.40   1
  -1   1   0  202.00   64.80   1
   1   1   1  940.80  309.00   1
  -1  -1  -1  974.50  309.20   1
   1  -1  -1  927.00  308.40   1
  -1   1   1 1104.30  308.90   1
   1   2   1  951.00  294.00   1
  -1  -2  -1  880.00  293.90   1
   1  -2  -1  900.60  293.80   1
  -1   2   1  981.40  294.00   1
   1  -2  -2  168.70   83.80   1
  -1   2   2  160.70   83.80   1
   1   3   1 1793.40  323.20   1
  -1  -3  -1  964.70  316.10   1
   1  -3  -1 1368.40  318.80   1
  -1   3   1  794.00  315.30   1
   1   3   2  384.10  138.30   1
  -1  -3  -2  437.20  139.30   1
   1  -3  -2  326.90  137.80   1
  -1   3   2  333.60  137.80   1
   1  -3  -3 4091.00 1237.80   1
  -1   3   3 5357.50 1245.80   1
  -1  -4  -2  536.10  162.50   1
   1  -4  -2  409.40  162.20   1
  -1   4   2  397.30  162.30   1
   1  -4  -3   17.20   23.50   1
  -1   4   3   16.00   23.50   1
  -1   4   4    9.10   17.60   1
   1  -5  -2 2191.60  435.20   1
  -1   5   2 1190.40  429.90   1
   1  -5  -3 3819.90 1023.80   1
  -1   5   3 3662.00 1021.80   1
   1  -5  -4 1375.40  402.20   1
  -1   5   4 1301.70  401.40   1
   1  -6  -3   78.80   49.10   1
  -1   6   3   57.60   49.10   1
   1  -6  -4  442.40  184.70   1
  -1   6   4  653.00  185.20   1
   1  -6  -5   98.40   41.60   1
  -1   6   5   37.50   41.30   1
   1  -7  -3 2113.00  517.10   1
  -1   7   3 1496.80  516.30   1
   1  -7  -4  170.40   67.30   1
  -1   7   4   95.40   67.10   1
   1  -7  -5  329.80  132.20   1
  -1   7   5  323.80  132.00   1
  -1   7   6   93.80   60.10   1
   1  -8  -3  140.00   77.00   1
   1  -8  -4 1875.90  583.40   1
  -1   8   4 2397.50  587.80   1
   1  -8  -5  303.70  107.40   1
  -1   8   5  212.50  107.20   1
   1  -8  -6 2991.60  869.60   1
  -1   8   6 3312.60  872.20   1
   1  -9  -4   14.20   29.90   1
  -1   9   4   87.80   30.80   1
   1  -9  -5   17.90   19.60   1
  -1   9   5    6.40   19.60   1
   1  -9  -6   11.50   24.90   1
  -1   9   6   30.50   25.00   1
   1  -9  -7   46.50   36.20   1
  -1   9   7   33.30   36.00   1
   1 -10  -4   51.00   43.50   1
   1 -10  -5  186.10   85.90   1
  -1  10   5  156.70   85.90   1
   1 -10  -6  174.30   90.50   1
  -1  10   6  207.30   90.70   1
   1 -10  -7   17.60   20.90   1
  -1  10   7   10.20   20.80   1
  -1  10   8 1096.80  344.10   1
   1 -11  -5   95.70   60.30   1
  -1  11   5   92.30   60.70   1
   1 -11  -6    5.30   17.00   1
  -1  11   6   12.90   17.00   1
   1 -11  -7   88.90   54.80   1
  -1  11   7   73.40   54.90   1
   1 -11  -8   23.10   27.80   1
  -1  11   8   22.30   27.80   1
  -1  11   9   58.00   46.10   1
   1 -12  -5   32.60   34.50   1
   1 -12  -6  974.50  302.60   1
  -1  12   6  936.00  302.70   1
   1 -12  -7   18.50   23.50   1
  -1  12   7   14.60   23.40   1
   1 -12  -8  482.30  179.90   1
  -1  12   8  505.90  179.60   1
   1 -12  -9    2.60   17.10   1
  -1  12   9   14.60   17.00   1
   1 -13  -6  295.20  127.60   1
  -1  13   6  340.10  128.60   1
   1 -13  -7  419.60  136.00   1
  -1  13   7  306.20  134.80   1
   1 -13  -8   27.10   26.50   1
  -1  13   8   15.40   26.50   1
   1 -13  -9   67.70   56.00   1
  -1  13   9  106.90   56.10   1
  -1  13  10   78.00   54.20   1
   1 -14  -6   33.80   35.10   1
   1 -14  -7   28.00   28.10   1
  -1  14   7   17.80   28.10   1
   1 -14  -8   41.20   39.90   1
  -1  14   8   49.30   39.80   1
   1 -14  -9   19.90   27.10   1
  -1  14   9   25.10   27.30   1
   1 -14 -10   14.90   21.50   1
  -1  14  10   12.90   21.50   1
  -1  14  11    2.00    9.40   1
   1 -15  -7   27.90   25.00   1
  -1  15   7    3.80   25.50   1
   1 -15  -8   13.50   24.80   1
  -1  15   8   26.60   25.00   1
   1 -15  -9   71.50   28.70   1
  -1  15   9   11.60   28.50   1
   1 -15 -10   -0.00   14.50   1
  -1  15  10   15.40   14.50   1
   1 -15 -11   50.50   37.80   1
  -1  15  11   36.60   37.10   1
   1 -16  -7   10.90   15.00   1
  -1  16   7    0.00   14.80   1
   1 -16  -8   62.90   35.80   1
  -1  16   8   26.20   35.50   1
   1 -16  -9   26.90   23.00   1
  -1  16   9   10.80   22.70   1
   1  16  10   31.90   21.70   1
   1 -16 -10   11.40   21.60   1
  -1  16  10   12.00   21.70   1
   1 -17  -7   18.90   26.90   1
   1 -17  -8    0.00    5.60   1
  -1  17   8   -0.00    7.40   1
   1 -17  -9    4.50   16.20   1
  -1  17   9   13.60   16.50   1
   1 -17 -10   11.50   21.40   1
  -1  17  10   17.10   21.60   1
   1 -18  -8  237.20  102.70   1
  -1  18   8  178.10  104.50   1
   1 -18  -9   50.90   25.50   1
  -1  18   9    9.10   25.00   1
   1 -19  -8   -0.00   10.60   1
   2   0   0 2283.70  643.70   1
  -2   0   0 2244.70  643.30   1
   2   0   1  138.90   87.10   1
  -2   0  -1  120.00   87.00   1
   2   0  -1  238.80   86.80   1
  -2   0   1  237.50   86.80   1
   2   0  -2 1404.40  437.60   1
  -2   0   2 1552.10  438.40   1
   2   1   0  304.50  117.30   1
  -2  -1   0  236.80  117.10   1
   2  -1   0  273.90  117.50   1
  -2   1   0  332.90  117.70   1
   2   1   1  200.90   76.70   1
  -2  -1  -1  117.80   76.40   1
   2  -1  -1  129.80   76.40   1
  -2   1   1  111.20   76.30   1
  -2  -1   1  319.90   77.30   1
   2   1  -1  248.30   76.80   1
   2  -1  -2  501.20  167.00   1
  -2   1   2  414.40  166.70   1
   2  -1  -3  295.30  113.00   1
  -2   1   3  231.90  112.30   1
   2   2   0  902.40  244.50   1
  -2  -2   0  887.90  244.30   1
   2  -2   0  685.20  244.30   1
  -2   2   0  596.60  243.90   1
   2   2   1   27.30   24.00   1
  -2  -2  -1   26.80   24.00   1
   2  -2  -1   15.50   24.20   1
  -2   2   1   -1.70   24.10   1
  -2  -2   1   26.80   24.40   1
   2   2  -1   14.40   24.30   1
   2   2   2  103.60   71.60   1
  -2  -2  -2  132.00   71.70   1
   2  -2  -2  124.30   71.30   1
  -2   2   2  144.50   71.30   1
   2  -2  -3   39.00   33.30   1
  -2   2   3   26.10   33.30   1
   2   3   0 1024.10  352.40   1
  -2  -3   0 1358.20  354.20   1
   2   3   1  182.90   50.10   1
  -2  -3  -1  231.30   50.20   1
   2  -3  -1   22.20   49.90   1
  -2   3   1   74.50   50.10   1
   2   3   2 1219.40  308.50   1
  -2  -3  -2 1151.90  307.70   1
   2  -3  -2 1005.60  306.90   1
  -2   3   2  803.20  306.00   1
   2  -3  -3 1014.30  307.40   1
  -2   3   3  946.50  307.30   1
   2  -3  -4  961.60  283.20   1
  -2   3   4  820.90  282.40   1
   2   4   1  148.80   48.30   1
  -2  -4  -1  148.10   48.30   1
   2  -4  -1   38.90   48.50   1
  -2   4   1   27.90   48.60   1
   2   4   2   38.80   30.50   1
  -2  -4  -2   19.50   30.40   1
   2  -4  -2   27.10   30.60   1
  -2   4   2   35.00   30.60   1
   2   4   3   98.90   33.70   1
  -2  -4  -3   42.00   33.40   1
   2  -4  -3   73.30   33.00   1
  -2   4   3   12.20   32.80   1
   2  -4  -4   69.00   52.70   1
  -2   4   4   82.40   52.80   1
   2  -4  -5   51.70   46.20   1
  -2   4   5   67.90   46.30   1
   2  -5  -1   72.60   48.60   1
  -2   5   1   52.50   48.10   1
   2   5   2  927.20  315.60   1
  -2  -5  -2  946.70  315.60   1
   2  -5  -2 1035.40  316.70   1
  -2   5   2 1426.60  318.50   1
   2   5   3  597.40  172.50   1
  -2  -5  -3  665.40  173.30   1
   2  -5  -3  362.30  171.70   1
  -2   5   3  489.60  172.20   1
   2  -5  -4  871.40  191.10   1
  -2   5   4  447.90  189.80   1
   2  -5  -5   93.90   63.70   1
  -2   5   5  119.80   63.80   1
  -2   5   6   73.00   52.20   1
   2   6   2  145.60   65.70   1
  -2  -6  -2  150.70   65.60   1
   2  -6  -2  147.40   66.30   1
  -2   6   2   62.50   65.90   1
   2   6   3   23.30   26.90   1
  -2  -6  -3   16.70   26.90   1
   2  -6  -3   30.20   27.10   1
  -2   6   3   18.60   27.00   1
   2   6   4   75.20   45.50   1
  -2  -6  -4   61.60   45.80   1
   2  -6  -4   52.70   45.20   1
  -2   6   4   52.70   45.30   1
   2  -6  -5   17.00   23.60   1
  -2   6   5   16.20   23.60   1
   2  -6  -6  364.30  144.10   1
  -2   6   6  367.80  143.90   1
   2  -7  -2  145.00   86.10   1
  -2   7   2  224.80   87.00   1
   2   7   3   56.20   41.60   1
  -2  -7  -3   40.80   41.50   1
   2  -7  -3   42.10   42.10   1
  -2   7   3   90.60   42.30   1
   2   7   4  106.90   63.20   1
  -2  -7  -4  136.10   63.40   1
   2  -7  -4   79.80   63.20   1
  -2   7   4  123.70   63.30   1
   2  -7  -5   95.40   50.10   1
  -2   7   5   54.70   50.10   1
   2  -7  -6    4.90   10.90   1
  -2   7   6    1.70   10.90   1
   2  -7  -7    6.90   17.20   1
  -2   7   7   10.50   17.40   1
   2  -8  -3  137.50   63.30   1
  -2   8   3   82.60   62.90   1
   2   8   4 1001.70  315.30   1
   2  -8  -4 1000.90  315.10   1
  -2   8   4 1022.00  315.70   1
   2   8   5  154.20   45.00   1
   2  -8  -5   36.10   44.30   1
  -2   8   5   76.80   44.40   1
   2  -8  -6  121.80   47.70   1
  -2   8   6   46.90   47.50   1
   2  -8  -7  464.60  148.10   1
  -2   8   7  338.00  147.10   1
  -2   8   8   75.90   53.50   1
   2  -9  -3   11.50   17.90   1
  -2   9   3    0.80   18.10   1
  -2  -9  -4  107.60   34.60   1
   2  -9  -4   21.10   34.90   1
  -2   9   4   25.30   34.70   1
   2  -9  -5    8.00   18.10   1
  -2   9   5   12.30   18.20   1
   2  -9  -6   13.50   20.50   1
  -2   9   6   11.20   20.40   1
   2  -9  -7   32.20   35.90   1
  -2   9   7   42.80   35.90   1
   2  -9  -8    7.50   17.10   1
  -2   9   8    9.00   17.00   1
  -2   9   9   26.10   30.00   1
   2 -10  -4  219.20  106.50   1
  -2  10   4  264.80  106.80   1
   2 -10  -5   73.90   58.70   1
  -2  10   5  135.90   58.90   1
   2  10   6  156.80   58.20   1
   2 -10  -6  240.60   58.40   1
  -2  10   6   62.80   57.50   1
   2 -10  -7   49.50   47.70   1
  -2  10   7  136.40   48.10   1
   2 -10  -8   14.10   21.90   1
  -2  10   8   14.10   21.90   1
   2 -10  -9  116.10   66.70   1
  -2  10   9  107.20   66.20   1
   2 -11  -4   62.90   30.70   1
  -2  11   4    0.00   30.40   1
   2 -11  -5   16.30   14.60   1
  -2  11   5    0.00   13.60   1
   2 -11  -6   12.20   20.60   1
  -2  11   6   12.90   20.60   1
   2 -11  -7   15.70   22.40   1
  -2  11   7   13.50   22.50   1
   2 -11  -8    8.00   18.90   1
  -2  11   8   13.40   18.90   1
   2 -11  -9   44.80   30.00   1
  -2  11   9   19.10   29.70   1
  -2  11  10   12.50   21.00   1
   2 -12  -5   76.10   31.50   1
  -2  12   5    3.10   31.10   1
   2 -12  -6   45.40   32.40   1
  -2  12   6   17.50   32.50   1
   2 -12  -7  157.00   71.60   1
  -2  12   7  110.50   71.20   1
   2 -12  -8   27.40   31.00   1
  -2  12   8   29.00   31.20   1
   2 -12  -9   21.10   26.50   1
  -2  12   9   20.20   26.40   1
   2 -12 -10    1.90   11.80   1
  -2  12  10    4.70   11.50   1
  -2  12  11   14.30   22.50   1
   2 -13  -5  195.30   94.40   1
  -2  13   5  191.00   95.30   1
   2 -13  -6  171.80   41.60   1
  -2  13   6   32.50   40.00   1
   2 -13  -7  255.80   98.00   1
  -2  13   7  188.20   97.40   1
   2 -13  -8    0.00   16.80   1
  -2  13   8   25.10   17.20   1
   2 -13  -9   30.60   33.80   1
  -2  13   9   36.00   33.80   1
   2 -13 -10   27.20   29.70   1
  -2  13  10   24.60   29.60   1
   2 -13 -11   48.10   50.40   1
  -2  13  11  224.30   54.00   1
  -2  13  12   51.90   43.90   1
   2 -14  -5    9.60   20.50   1
   2 -14  -6    9.80   22.30   1
  -2  14   6   20.20   23.20   1
   2 -14  -7   10.90   18.30   1
  -2  14   7    7.30   18.80   1
   2 -14  -8   22.80   28.30   1
  -2  14   8   23.30   28.10   1
   2 -14  -9    4.10   10.80   1
  -2  14   9    2.20   10.90   1
   2 -14 -10    7.40   15.00   1
  -2  14  10    5.90   14.90   1
   2 -14 -11   11.30   13.30   1
  -2  14  11    1.30   13.00   1
   2 -15  -6   15.40   28.80   1
  -2  15   6   35.70   29.70   1
   2 -15  -7  106.30   40.90   1
  -2  15   7   32.90   39.80   1
   2 -15  -8    5.10   16.10   1
  -2  15   8    9.70   16.10   1
   2 -15  -9   15.50   27.70   1
  -2  15   9   41.50   28.10   1
   2 -15 -10    8.60   21.60   1
  -2  15  10   38.80   22.10   1
   2 -15 -11   47.30   43.50   1
  -2  15  11   57.80   43.50   1
   2 -16  -6   12.20   23.20   1
   2 -16  -7   30.70   30.60   1
  -2  16   7   20.10   31.10   1
   2 -16  -8   11.70   22.50   1
  -2  16   8   19.60   22.90   1
   2 -16  -9   48.30   22.70   1
  -2  16   9    7.20   22.10   1
   2 -16 -10   52.30   21.50   1
  -2  16  10   -0.00   21.30   1
   2 -17  -7    8.20   21.30   1
  -2  17   7   17.10   22.40   1
   2 -17  -8    9.10   25.20   1
  -2  17   8   26.00   25.00   1
   2 -17  -9   16.20   28.30   1
  -2  17   9   41.10   28.50   1
   2 -18  -7  130.00   75.20   1
   2 -18  -8   30.70   30.20   1
  -2  18   8   19.40   30.60   1
   2 -18  -9   58.00   35.30   1
  -2  18   9   22.80   35.30   1
   2 -19  -8    4.90   17.20   1
  -2  19   8    8.80   18.30   1
  -3   0   0   19.30   25.70   1
   3   0   1 1126.30  369.40   1
  -3   0  -1 1008.50  369.10   1
   3   0  -1 1782.70  372.10   1
  -3   0   1 1606.30  371.30   1
   3   0   2  136.80   41.70   1
  -3   0  -2  127.70   41.10   1
   3   0  -2   44.30   38.00   1
  -3   0   2   30.70   38.00   1
   3   0  -3 5858.80 1621.80   1
  -3   0   3 6233.40 1623.90   1
   3   1   0   80.40   38.70   1
  -3  -1   0   49.20   38.60   1
   3  -1   0   39.90   38.60   1
  -3   1   0   21.80   38.50   1
   3   1   1  154.90   68.80   1
  -3  -1  -1  149.90   68.80   1
   3  -1  -1  110.80   68.60   1
  -3   1   1  108.30   68.60   1
  -3   1  -1   79.80   69.20   1
   3  -1   1   82.20   69.20   1
  -3  -1   1  120.20   68.50   1
   3   1  -1  151.90   68.60   1
   3   1   2 1108.80  431.50   1
  -3  -1  -2 1465.90  433.00   1
   3  -1  -2 1355.90  431.20   1
  -3   1   2 1545.90  431.90   1
  -3  -1   2 2130.40  436.20   1
   3   1  -2 2237.10  437.10   1
   3  -1  -3  627.30  214.20   1
  -3   1   3  712.70  214.60   1
  -3  -1   3  529.00  216.20   1
   3   1  -3  527.20  216.80   1
   3  -1  -4 1003.40  306.30   1
  -3   1   4  923.20  304.70   1
   3   2   0  155.40   39.00   1
  -3  -2   0  100.20   38.70   1
   3  -2   0   25.60   38.80   1
  -3   2   0    7.30   38.60   1
   3   2   1  792.70  262.00   1
  -3  -2  -1  807.00  262.20   1
   3  -2  -1  784.10  261.60   1
  -3   2   1  816.80  261.70   1
  -3   2  -1  632.90  264.40   1
   3  -2   1  707.90  265.00   1
  -3  -2   1  961.80  262.90   1
   3   2  -1  850.20  262.50   1
   3   2   2   78.00   55.70   1
  -3  -2  -2   52.60   55.60   1
   3  -2  -2  144.40   55.80   1
  -3   2   2   80.30   55.70   1
  -3  -2   2  130.00   56.30   1
   3   2  -2  159.20   56.70   1
   3  -2  -3 1853.50  517.60   1
  -3   2   3 1729.30  517.20   1
   3  -2  -4  196.20   88.10   1
  -3   2   4  163.80   87.90   1
   3  -2  -5  282.60  132.20   1
  -3   2   5  374.70  133.00   1
   3   3   0   16.60   28.20   1
  -3  -3   0   26.80   28.20   1
   3  -3   0   29.50   29.90   1
  -3   3   0   37.40   29.50   1
   3   3   1  581.30  181.30   1
  -3  -3  -1  614.70  181.50   1
   3  -3  -1  419.40  181.00   1
  -3   3   1  395.00  181.00   1
  -3  -3   1  893.20  184.20   1
   3   3  -1  542.50  181.80   1
   3   3   2 1107.00  370.00   1
  -3  -3  -2 1252.70  370.50   1
   3  -3  -2 1335.70  370.90   1
  -3   3   2 1219.20  370.50   1
   3   3   3  459.80  187.10   1
  -3  -3  -3  496.40  187.30   1
   3  -3  -3  689.90  187.40   1
  -3   3   3  511.30  186.70   1
   3  -3  -4  334.20  126.60   1
  -3   3   4  285.10  126.40   1
   3  -3  -5  377.20  169.30   1
  -3   3   5 1088.30  175.00   1
   3   4   0  226.00   62.60   1
  -3  -4   0  160.20   62.30   1
   3  -4   0   49.00   64.00   1
  -3   4   0   18.20   63.40   1
   3   4   1   75.90   48.20   1
   3  -4  -1   91.40   48.60   1
  -3   4   1   37.80   48.40   1
   3   4   2  239.00   91.90   1
  -3  -4  -2  129.30   91.60   1
   3  -4  -2  326.50   92.30   1
  -3   4   2  330.50   92.30   1
   3   4   3  486.70  162.50   1
  -3  -4  -3  321.10  162.10   1
   3  -4  -3  656.80  163.30   1
  -3   4   3  603.20  163.10   1
   3  -4  -4   81.50   51.70   1
  -3   4   4   66.20   51.70   1
   3  -4  -5   19.90   20.90   1
  -3   4   5    6.40   20.90   1
   3  -4  -6  255.00  116.00   1
  -3   4   6  276.70  115.80   1
   3   5   0   14.40   21.60   1
  -3  -5   0   12.20   21.80   1
   3   5   1  287.30   92.10   1
  -3  -5  -1  250.90   91.90   1
   3  -5  -1  186.00   92.50   1
  -3   5   1  121.70   92.20   1
   3   5   2 4071.30  960.80   1
  -3  -5  -2 2910.10  956.30   1
   3  -5  -2 4349.40  966.10   1
  -3   5   2 3852.00  964.60   1
   3   5   3   46.70   32.20   1
  -3  -5  -3   23.20   32.20   1
   3  -5  -3   38.20   32.20   1
  -3   5   3   21.30   32.20   1
   3   5   4 1735.30  645.60   1
  -3  -5  -4 2427.40  649.80   1
   3  -5  -4 2732.30  647.10   1
  -3   5   4 2507.60  646.90   1
   3  -5  -5  325.60  132.00   1
  -3   5   5  325.10  131.90   1
   3  -5  -6 3817.40 1005.00   1
  -3   5   6 3519.50 1000.80   1
   3  -5  -7   16.10   22.60   1
  -3   5   7   13.20   23.00   1
   3   6   1  287.20   92.90   1
  -3  -6  -1  792.40   97.90   1
   3  -6  -1  124.30   93.30   1
  -3   6   1  157.50   93.70   1
   3   6   2  154.80   39.70   1
  -3  -6  -2  137.70   39.70   1
   3  -6  -2   26.90   39.80   1
  -3   6   2    7.90   39.70   1
   3   6   3  507.70  162.00   1
  -3  -6  -3  451.30  161.90   1
   3  -6  -3  368.10  161.60   1
  -3   6   3  447.50  161.70   1
   3   6   4   23.50   18.40   1
  -3  -6  -4    5.30   18.00   1
   3  -6  -4   12.40   18.20   1
  -3   6   4    2.40   18.20   1
   3  -6  -5  610.90   87.40   1
  -3   6   5  135.60   85.40   1
   3  -6  -6   36.30   33.90   1
  -3   6   6   30.40   33.80   1
   3  -6  -7  295.70  132.40   1
  -3   6   7  363.10  132.70   1
  -3   6   8   74.30   53.00   1
   3   7   2  335.00  108.10   1
  -3  -7  -2  242.10  107.80   1
   3  -7  -2  256.80  108.60   1
  -3   7   2  189.50  108.20   1
   3   7   3  149.90   76.50   1
  -3  -7  -3  118.30   76.40   1
   3  -7  -3  344.20   78.10   1
  -3   7   3  148.50   77.00   1
   3   7   4  333.70  140.10   1
  -3  -7  -4  455.90  140.40   1
   3  -7  -4  305.60  140.00   1
  -3   7   4  381.40  140.50   1
   3   7   5   77.10   48.20   1
  -3  -7  -5  116.00   48.80   1
   3  -7  -5   81.20   47.70   1
  -3   7   5   43.80   47.60   1
   3  -7  -6  128.00   49.20   1
  -3   7   6   48.80   48.90   1
   3  -7  -7    6.20   18.20   1
  -3   7   7   13.60   18.30   1
   3  -7  -8   19.60   33.10   1
  -3   7   8   58.80   33.40   1
   3   8   2    5.70   13.70   1
  -3  -8  -2    4.60   14.00   1
   3  -8  -2    3.00   17.80   1
  -3   8   2   14.50   19.50   1
   3   8   3  405.60  147.30   1
  -3  -8  -3  328.70  147.10   1
   3  -8  -3  422.50  147.50   1
  -3   8   3  375.90  147.30   1
   3   8   4  997.60  338.90   1
  -3  -8  -4 1470.00  341.50   1
   3  -8  -4 1181.50  339.50   1
  -3   8   4 1005.40  338.80   1
   3   8   5  466.50  165.40   1
  -3  -8  -5  399.10  164.90   1
   3  -8  -5  379.60  165.30   1
  -3   8   5  829.50  167.20   1
   3  -8  -6  192.80   99.20   1
  -3   8   6  240.10   99.40   1
   3  -8  -7  180.10   85.00   1
  -3   8   7  157.80   84.90   1
   3  -8  -8   65.40   55.20   1
  -3   8   8  110.00   55.40   1
   3  -8  -9   63.90   48.70   1
  -3   8   9   63.70   48.70   1
   3   9   3  170.50   48.20   1
  -3  -9  -3  133.70   47.60   1
   3  -9  -3  169.10   49.40   1
  -3   9   3    7.00   47.80   1
   3   9   4   54.70   42.90   1
  -3  -9  -4   57.60   42.90   1
   3  -9  -4   59.20   43.50   1
  -3   9   4   33.10   43.30   1
   3   9   5   49.40   42.90   1
  -3  -9  -5   56.60   42.90   1
   3  -9  -5   44.60   43.00   1
  -3   9   5   60.70   43.10   1
   3   9   6   61.10   56.30   1
  -3  -9  -6   82.60   56.80   1
   3  -9  -6   93.90   56.20   1
  -3   9   6   94.80   56.30   1
   3  -9  -7   40.10   27.50   1
  -3   9   7   13.20   27.40   1
   3  -9  -8   26.10   21.40   1
  -3   9   8    6.10   21.30   1
   3  -9  -9   19.20   22.50   1
  -3   9   9   11.10   22.20   1
  -3   9  10   13.30   21.80   1
   3 -10  -3 2661.40  680.60   1
  -3  10   3 2126.40  679.80   1
   3  10   4  254.00  110.20   1
  -3 -10  -4  266.60  110.30   1
   3 -10  -4  250.20  110.30   1
  -3  10   4  237.50  110.20   1
   3  10   5 1103.60  220.20   1
  -3 -10  -5  564.40  217.90   1
   3 -10  -5  639.40  218.10   1
  -3  10   5  569.80  218.10   1
   3  10   6   14.80   32.90   1
  -3 -10  -6   54.70   33.00   1
   3 -10  -6   40.20   33.20   1
  -3  10   6   34.90   33.00   1
   3 -10  -7  439.70  102.20   1
  -3  10   7  177.30  101.00   1
   3 -10  -8   33.60   23.90   1
  -3  10   8    8.60   23.70   1
   3 -10  -9   57.20   47.10   1
  -3  10   9   64.70   47.10   1
   3 -10 -10   18.80   29.70   1
  -3  10  10   33.80   29.80   1
  -3  10  11   42.50   39.20   1
   3 -11  -3   58.70   47.70   1
  -3 -11  -4   89.80   56.50   1
   3 -11  -4  166.30   57.90   1
  -3  11   4   58.10   56.80   1
   3  11   5   -0.00   15.70   1
  -3 -11  -5   31.70   15.90   1
   3 -11  -5   18.30   17.10   1
  -3  11   5    0.00   16.80   1
   3  11   6  108.70   52.80   1
  -3 -11  -6   82.10   52.70   1
   3 -11  -6  118.20   53.10   1
  -3  11   6   49.00   52.80   1
   3  11   7   -0.00   13.90   1
   3 -11  -7    3.30   13.80   1
  -3  11   7   11.20   13.70   1
   3 -11  -8   21.90   31.20   1
  -3  11   8   41.10   31.40   1
   3 -11  -9   21.70   26.40   1
  -3  11   9   19.30   26.30   1
   3 -11 -10   14.80   21.90   1
  -3  11  10   13.00   21.90   1
  -3  11  11    4.70   13.90   1
   3 -12  -4  414.50  130.30   1
  -3  12   4  251.30  129.40   1
   3  12   5  132.20   68.50   1
  -3 -12  -5  105.30   67.80   1
   3 -12  -5  118.50   68.30   1
  -3  12   5  119.70   68.20   1
   3  12   6   42.30   32.10   1
  -3 -12  -6   20.90   32.10   1
   3 -12  -6   30.40   32.40   1
  -3  12   6   37.00   32.60   1
   3  12   7   23.70   32.40   1
  -3 -12  -7   62.10   32.60   1
   3 -12  -7   36.90   32.80   1
  -3  12   7   22.30   32.50   1
   3 -12  -8   72.30   52.00   1
  -3  12   8   73.10   52.00   1
   3 -12  -9   29.80   31.10   1
  -3  12   9   26.60   31.10   1
   3 -12 -10   50.10   36.40   1
  -3  12  10   32.10   36.20   1
   3 -12 -11   23.90   31.00   1
  -3  12  11   30.50   30.90   1
  -3  12  12   12.60   21.40   1
   3 -13  -4   12.10   23.60   1
   3 -13  -5  410.80  110.40   1
  -3  13   5  190.80  108.80   1
   3  13   6   87.80   47.70   1
  -3 -13  -6   58.10   47.40   1
   3 -13  -6   99.40   48.50   1
  -3  13   6   42.60   48.00   1
   3 -13  -7   45.10   39.80   1
  -3  13   7   44.00   39.70   1
   3 -13  -8   49.70   29.00   1
  -3  13   8    9.80   28.80   1
   3 -13  -9   67.80   54.70   1
  -3  13   9  108.20   55.10   1
   3 -13 -10   72.80   50.40   1
  -3  13  10   66.20   50.30   1
   3 -13 -11   26.40   25.10   1
  -3  13  11   14.20   24.90   1
   3 -13 -12   10.70   25.60   1
  -3  13  12   57.20   26.40   1
   3 -14  -5  304.20  104.30   1
  -3  14   5  175.10  103.50   1
  -3 -14  -6   50.90   34.30   1
   3 -14  -6   15.10   34.80   1
  -3  14   6   45.70   34.80   1
   3  14   7   15.00   25.80   1
  -3 -14  -7   30.10   25.90   1
   3 -14  -7   17.00   26.30   1
  -3  14   7   26.70   26.70   1
   3 -14  -8   83.10   34.20   1
  -3  14   8   22.60   33.70   1
   3 -14  -9   30.10   36.30   1
  -3  14   9   58.00   36.80   1
   3 -14 -10    5.70   10.50   1
  -3  14  10   -0.00   10.60   1
   3 -14 -11   19.20   22.70   1
  -3  14  11   12.80   22.50   1
   3 -15  -5   64.10   50.60   1
   3 -15  -6  121.30   44.60   1
  -3  15   6   29.60   43.70   1
  -3 -15  -7    6.10   17.70   1
   3 -15  -7   72.50   20.20   1
  -3  15   7   20.70   19.50   1
   3 -15  -8   46.40   45.30   1
  -3  15   8   70.90   45.40   1
   3 -15  -9    8.30   22.40   1
  -3  15   9   20.00   22.20   1
   3 -15 -10  100.90   49.40   1
  -3  15  10   53.70   49.10   1
   3 -15 -11    2.70   14.70   1
  -3  15  11   11.90   14.80   1
   3 -16  -6   14.60   24.80   1
  -3  16   6   16.70   26.00   1
   3 -16  -7  118.20   48.20   1
  -3  16   7   42.20   47.50   1
   3 -16  -8   84.10   47.70   1
  -3  16   8   47.10   47.70   1
   3 -16  -9   38.70   28.30   1
  -3  16   9   16.10   28.00   1
   3 -16 -10   -0.00    4.30   1
  -3  16  10   -0.00    6.00   1
   3 -17  -6   18.00   28.00   1
   3 -17  -7    7.30   19.70   1
  -3  17   7   13.00   20.30   1
  -3 -17  -8    8.30   18.30   1
   3 -17  -8   25.40   19.90   1
  -3  17   8    8.40   19.70   1
   3 -17  -9    0.60   15.60   1
  -3  17   9   15.50   15.80   1
   3 -18  -7   34.20   40.30   1
  -3  18   7  105.70   43.10   1
   3 -18  -8   41.10   36.10   1
  -3  18   8   30.40   36.00   1
   3 -18  -9   28.50   35.40   1
  -3  18   9  186.80   38.90   1
   3 -19  -7   10.50   22.30   1
   3 -19  -8    3.80   21.50   1
  -3  19   8   32.80   22.50   1
   4   0   0 1377.30  390.00   1
  -4   0   0 1220.90  389.10   1
   4   0   1   15.30   28.50   1
  -4   0  -1   13.20   28.20   1
   4   0  -1   29.60   28.30   1
  -4   0   1   30.80   28.20   1
   4   0   2  457.60  189.60   1
  -4   0  -2  551.50  190.10   1
   4   0  -2  548.20  189.00   1
  -4   0   2  570.30  189.10   1
   4   0  -3 2798.30  789.90   1
  -4   0   3 2857.20  789.50   1
   4   0  -4 1517.40  465.00   1
  -4   0   4 1639.20  465.60   1
  -4   0   5   63.10   48.30   1
   4   1   0  381.80  129.20   1
  -4  -1   0  419.50  129.30   1
   4  -1   0  267.40  128.90   1
  -4   1   0  273.10  129.00   1
   4   1   1  164.40   77.70   1
  -4  -1  -1  166.30   77.80   1
   4  -1  -1  175.50   77.70   1
  -4   1   1  124.80   77.60   1
  -4   1  -1   95.40   77.80   1
   4  -1   1  130.00   77.90   1
  -4  -1   1  181.80   77.90   1
   4   1  -1  181.90   77.80   1
   4   1   2  689.80  222.10   1
  -4  -1  -2  637.30  221.90   1
   4  -1  -2  740.40  222.20   1
  -4   1   2  613.70  221.80   1
  -4   1  -2  824.50  227.40   1
   4  -1   2  589.30  224.40   1
  -4  -1   2  601.80  222.00   1
   4   1  -2  659.40  222.20   1
   4   1   3   13.80   24.00   1
  -4  -1  -3   12.60   23.00   1
   4  -1  -3   26.40   20.00   1
  -4   1   3   10.20   19.90   1
  -4  -1   3    8.50   19.90   1
   4   1  -3    2.40   19.70   1
   4  -1  -4   19.20   35.50   1
  -4   1   4   56.40   35.70   1
  -4  -1   4   43.20   35.80   1
   4   1  -4   47.70   35.90   1
   4  -1  -5    6.60   18.20   1
  -4   1   5   11.50   18.30   1
   4   2   0  157.10   82.90   1
  -4  -2   0  197.40   83.00   1
   4  -2   0  150.20   83.20   1
  -4   2   0  140.90   83.30   1
   4   2   1 2123.90  649.50   1
  -4  -2  -1 2398.60  651.30   1
   4  -2  -1 2587.90  649.90   1
  -4   2   1 2377.20  648.70   1
  -4   2  -1 1879.80  648.10   1
   4  -2   1 2010.20  648.70   1
  -4  -2   1 2554.50  648.60   1
   4   2  -1 2570.60  648.50   1
   4   2   2   25.10   25.90   1
  -4  -2  -2    8.00   25.70   1
   4  -2  -2   11.30   25.50   1
  -4   2   2    8.20   25.30   1
  -4  -2   2   32.80   25.50   1
   4   2  -2   38.00   25.60   1
   4   2   3  285.90  169.50   1
  -4  -2  -3  463.00  170.00   1
   4  -2  -3  859.40  170.80   1
  -4   2   3  637.80  170.00   1
  -4  -2   3  553.80  171.30   1
   4   2  -3  573.30  171.90   1
   4  -2  -4   32.00   25.50   1
  -4   2   4   11.30   25.30   1
   4  -2  -5  312.10  116.40   1
  -4   2   5  245.40  116.00   1
   4  -2  -6    5.40   11.30   1
  -4   2   6   -0.00   11.30   1
   4   3   0 3091.40  863.20   1
  -4  -3   0 3093.40  863.60   1
   4  -3   0 3234.50  863.90   1
  -4   3   0 3082.50  863.30   1
   4   3   1  309.50   82.80   1
  -4  -3  -1  312.40   82.80   1
   4  -3  -1  104.80   81.80   1
  -4   3   1  158.00   82.00   1
  -4   3  -1  316.20   85.60   1
   4  -3   1  614.80   89.90   1
  -4  -3   1  151.70   81.90   1
   4   3  -1  147.20   81.80   1
   4   3   2 3819.60  861.50   1
  -4  -3  -2 3961.20  862.40   1
   4  -3  -2 4107.50  866.30   1
  -4   3   2 2749.00  859.50   1
  -4  -3   2 2393.50  860.20   1
   4   3  -2 2504.40  860.80   1
   4   3   3   67.10   28.20   1
  -4  -3  -3   29.40   28.20   1
   4  -3  -3   28.70   27.90   1
  -4   3   3    4.40   27.60   1
   4   3   4 1074.00  290.30   1
  -4  -3  -4 1422.90  301.80   1
   4  -3  -4 1797.90  285.60   1
  -4   3   4  695.10  281.10   1
   4  -3  -5   15.10   32.90   1
  -4   3   5  104.90   33.30   1
   4  -3  -6 1159.50  416.00   1
  -4   3   6 4154.70  452.70   1
  -4   3   7   56.60   45.50   1
   4   4   0   37.60   34.90   1
  -4  -4   0   37.20   34.80   1
   4  -4   0   30.20   36.30   1
  -4   4   0   19.50   36.40   1
   4   4   1   81.70   55.80   1
  -4  -4  -1  126.30   55.90   1
   4  -4  -1   74.10   56.20   1
  -4   4   1   70.20   56.20   1
  -4  -4   1  102.70   55.90   1
   4   4  -1   61.70   55.80   1
   4   4   2    6.80   10.50   1
  -4  -4  -2    1.20   10.50   1
   4  -4  -2   -0.00   11.00   1
  -4   4   2    1.40   11.00   1
  -4  -4   2    0.90   11.90   1
   4   4  -2    7.00   11.70   1
   4   4   3  140.90   70.40   1
  -4  -4  -3  287.80   71.10   1
   4  -4  -3  101.00   70.30   1
  -4   4   3   99.20   70.20   1
   4   4   4   32.60   41.20   1
  -4  -4  -4   22.00   41.00   1
   4  -4  -4   44.60   40.30   1
  -4   4   4   78.60   40.50   1
   4  -4  -5   70.60   50.70   1
  -4   4   5   68.80   50.60   1
   4  -4  -6   39.00   39.80   1
  -4   4   6   52.20   39.90   1
   4  -4  -7   90.20   63.40   1
  -4   4   7  115.70   63.50   1
   4   5   0 1107.00  354.10   1
  -4  -5   0 1187.60  354.70   1
   4  -5   0 2031.50  363.80   1
  -4   5   0  940.70  355.10   1
   4   5   1  525.20  143.10   1
  -4  -5  -1  404.60  142.60   1
   4  -5  -1  411.00  143.00   1
  -4   5   1  250.50  142.60   1
  -4  -5   1  526.40  145.30   1
   4   5  -1  492.80  145.20   1
   4   5   2  608.70  164.80   1
  -4  -5  -2  324.30  163.90   1
   4  -5  -2  528.10  164.70   1
  -4   5   2  531.30  164.60   1
   4   5   3  116.50   62.80   1
  -4  -5  -3  101.10   62.80   1
   4  -5  -3   85.70   62.70   1
  -4   5   3  113.40   62.80   1
   4   5   4   59.10   39.40   1
  -4  -5  -4   23.50   39.30   1
   4  -5  -4   63.70   39.30   1
  -4   5   4   38.20   39.30   1
   4   5   5  152.80   69.60   1
   4  -5  -5  309.70   68.10   1
  -4   5   5   88.50   67.30   1
   4  -5  -6  826.50  245.40   1
  -4   5   6  681.20  244.70   1
   4  -5  -7   56.20   47.40   1
  -4   5   7   67.00   47.50   1
   4  -5  -8    7.30   16.60   1
  -4   5   8    7.90   17.00   1
   4   6   0  133.30   67.90   1
  -4  -6   0  462.50   70.60   1
   4  -6   0   54.70   68.40   1
   4   6   1    7.60   17.50   1
  -4  -6  -1    8.60   17.50   1
   4  -6  -1    3.90   19.90   1
  -4   6   1   27.40   20.00   1
   4   6   2   62.90   25.00   1
  -4  -6  -2    9.70   24.60   1
   4  -6  -2    7.90   25.40   1
  -4   6   2    6.30   25.50   1
   4   6   3   42.30   27.50   1
  -4  -6  -3   12.90   27.40   1
   4  -6  -3   23.90   27.70   1
  -4   6   3   26.90   27.60   1
   4   6   4   24.40   26.00   1
  -4  -6  -4   11.10   25.80   1
   4  -6  -4    5.80   25.80   1
  -4   6   4   53.10   26.10   1
   4   6   5  108.40   65.50   1
  -4  -6  -5  148.50   65.90   1
   4  -6  -5   76.10   64.90   1
  -4   6   5  255.40   65.70   1
   4  -6  -6   22.50   26.20   1
  -4   6   6   17.70   26.10   1
   4  -6  -7  356.30  139.10   1
  -4   6   7  341.70  138.90   1
   4  -6  -8   84.50   54.70   1
  -4   6   8   74.30   54.60   1
  -4   6   9   97.40   62.10   1
   4   7   0 1693.40  554.60   1
  -4  -7   0 2069.30  556.50   1
   4   7   1   46.70   38.50   1
  -4  -7  -1   30.60   38.40   1
   4  -7  -1   57.50   40.90   1
  -4   7   1  101.80   41.30   1
   4   7   2 1563.10  362.30   1
  -4  -7  -2 1080.40  360.60   1
   4  -7  -2 1479.80  362.50   1
  -4   7   2  985.10  360.70   1
   4   7   3   11.20   18.90   1
  -4  -7  -3    6.50   18.90   1
   4  -7  -3   19.50   19.40   1
  -4   7   3    7.40   19.60   1
   4   7   4   12.30   21.00   1
  -4  -7  -4   14.20   21.00   1
   4  -7  -4   12.70   21.10   1
   4   7   5   18.70   22.90   1
  -4  -7  -5    9.60   23.20   1
   4  -7  -5   12.00   23.10   1
  -4   7   5   19.50   23.10   1
   4   7   6  521.70  131.50   1
   4  -7  -6  260.40  121.90   1
  -4   7   6  335.80  122.30   1
   4  -7  -7   12.20   23.30   1
  -4   7   7   19.70   23.30   1
   4  -7  -8  586.40  211.00   1
  -4   7   8  635.50  211.30   1
   4  -7  -9    4.70   16.50   1
  -4   7   9    8.70   16.20   1
  -4   7  10  312.20  132.30   1
   4   8   1 1310.70  398.50   1
  -4  -8  -1 1186.50  395.50   1
   4  -8  -1 1696.90  412.20   1
   4   8   2   75.50   42.20   1
  -4  -8  -2   46.90   42.10   1
   4  -8  -2   67.60   43.60   1
  -4   8   2   16.80   43.00   1
   4   8   3 3086.10  854.10   1
  -4  -8  -3 2603.60  853.90   1
   4  -8  -3 3534.70  858.80   1
  -4   8   3 3672.00  859.80   1
   4   8   4  187.20   84.20   1
  -4  -8  -4  163.00   84.10   1
   4  -8  -4  167.50   84.20   1
  -4   8   4  150.80   84.10   1
   4   8   5 1140.90  315.50   1
  -4  -8  -5  815.80  314.10   1
   4  -8  -5 1304.20  316.20   1
  -4   8   5  979.10  314.70   1
   4   8   6  175.70   35.70   1
  -4  -8  -6   66.60   34.90   1
   4  -8  -6   51.10   33.60   1
  -4   8   6   12.80   33.30   1
   4  -8  -7 3608.40 1030.00   1
  -4   8   7 3941.60 1031.20   1
   4  -8  -8   22.90   29.70   1
  -4   8   8   27.90   29.70   1
   4  -8  -9   19.80   34.00   1
  -4   8   9   83.70   34.50   1
   4  -8 -10   22.10   26.90   1
  -4   8  10   18.80   27.10   1
   4   9   2   53.70   43.50   1
  -4  -9  -2   67.80   43.40   1
   4  -9  -2   41.60   45.10   1
  -4   9   2   22.60   45.30   1
   4   9   3   14.30   24.10   1
  -4  -9  -3   16.40   24.10   1
   4  -9  -3   30.60   25.00   1
  -4   9   3   20.70   25.20   1
   4   9   4   97.80   55.50   1
  -4  -9  -4  127.40   55.50   1
   4  -9  -4   51.80   55.60   1
  -4   9   4   68.00   55.80   1
   4   9   5   19.90   27.40   1
  -4  -9  -5   24.70   27.40   1
   4  -9  -5   22.00   27.50   1
  -4   9   5   22.50   27.60   1
   4   9   6   39.80   38.60   1
  -4  -9  -6  100.30   39.30   1
   4  -9  -6   54.80   38.90   1
  -4   9   6   25.10   38.60   1
   4  -9  -7   29.20   33.10   1
  -4   9   7   34.30   33.20   1
   4  -9  -8    7.10   16.40   1
  -4   9   8    8.10   16.30   1
   4  -9  -9    3.50    9.80   1
  -4   9   9    0.50   10.10   1
   4  -9 -10   30.00   31.50   1
  -4   9  10   26.30   31.30   1
  -4   9  11    9.80   19.30   1
  -4 -10  -2   18.90   24.90   1
   4 -10  -2    7.70   28.50   1
  -4  10   2   22.40   27.50   1
   4  10   3  154.70   83.80   1
  -4 -10  -3  277.00   84.30   1
   4 -10  -3  226.30   85.40   1
  -4  10   3  112.00   84.40   1
   4  10   4   22.90   32.50   1
  -4 -10  -4  103.80   32.80   1
   4 -10  -4   21.60   33.40   1
  -4  10   4   19.40   33.60   1
   4  10   5  254.30  138.10   1
  -4 -10  -5  510.20  139.10   1
   4 -10  -5  347.80  138.40   1
  -4  10   5  529.40  139.20   1
   4  10   6   31.90   25.20   1
  -4 -10  -6   16.20   25.30   1
   4 -10  -6   49.50   25.40   1
  -4  10   6    4.80   25.00   1
   4  10   7   48.50   49.40   1
  -4 -10  -7  111.20   50.80   1
   4 -10  -7   74.80   49.10   1
  -4  10   7   63.40   49.10   1
   4 -10  -8   13.60   14.80   1
  -4  10   8   -0.00   14.70   1
   4 -10  -9  240.30  109.60   1
  -4  10   9  252.90  109.60   1
   4 -10 -10   60.50   47.60   1
  -4  10  10   62.80   47.60   1
   4 -10 -11   11.90   25.40   1
  -4  10  11  228.60   32.10   1
  -4  10  12   73.40   53.40   1
   4  11   3    5.10   17.00   1
  -4 -11  -3    8.60   17.20   1
   4 -11  -3   18.90   20.80   1
  -4  11   3   31.90   21.70   1
   4  11   4    8.10   20.20   1
  -4 -11  -4    6.90   20.10   1
   4 -11  -4   43.80   21.30   1
  -4  11   4   51.40   21.90   1
   4  11   5    0.00    8.90   1
  -4 -11  -5   -0.00    9.00   1
   4 -11  -5    4.80   10.60   1
  -4  11   5   27.50   11.70   1
   4  11   6   23.20   26.70   1
  -4 -11  -6   15.40   26.80   1
   4 -11  -6  101.90   27.70   1
  -4  11   6   17.00   27.00   1
   4  11   7    1.90   17.10   1
  -4 -11  -7   37.30   18.30   1
   4 -11  -7   -0.00   17.40   1
  -4  11   7   17.50   17.70   1
   4 -11  -8  281.60  123.60   1
  -4  11   8  310.80  123.80   1
   4 -11  -9   15.60   22.40   1
  -4  11   9   13.60   22.40   1
   4 -11 -10   11.90   17.70   1
  -4  11  10    6.60   17.60   1
   4 -11 -11   23.40   27.80   1
  -4  11  11   20.90   27.60   1
   4 -11 -12   31.20   29.40   1
  -4  11  12   20.70   29.10   1
  -4  11  13    8.80   18.40   1
   4 -12  -3  467.00  152.70   1
  -4  12   3  316.30  151.00   1
   4  12   4   32.50   34.00   1
  -4 -12  -4   30.90   33.80   1
   4 -12  -4   27.00   35.70   1
  -4  12   4   50.00   35.30   1
   4  12   5  406.10  158.70   1
  -4 -12  -5  732.00  160.00   1
   4 -12  -5  303.00  158.70   1
  -4  12   5  533.80  159.70   1
   4  12   6   11.40   22.50   1
  -4 -12  -6   12.20   22.60   1
   4 -12  -6   35.40   23.00   1
  -4  12   6   11.60   23.00   1
   4  12   7 1674.00  499.00   1
  -4 -12  -7 1780.70  500.20   1
   4 -12  -7 1921.30  502.20   1
  -4  12   7 1541.30  498.70   1
   4  12   8   16.10   14.10   1
   4 -12  -8    0.00   12.70   1
  -4  12   8    4.00   13.50   1
   4 -12  -9  191.80  103.40   1
  -4  12   9  361.10  104.70   1
   4 -12 -10    4.00   11.80   1
  -4  12  10    3.50   11.70   1
   4 -12 -11   15.30   18.50   1
  -4  12  11    5.90   18.40   1
   4 -12 -12    3.50   10.80   1
  -4  12  12    1.50   10.00   1
  -4 -13  -4  694.10  269.90   1
   4 -13  -4  931.40  267.40   1
  -4  13   4  760.50  266.80   1
   4  13   5   33.40   18.70   1
  -4 -13  -5    4.40   18.40   1
   4 -13  -5    2.70   19.40   1
  -4  13   5   13.20   20.20   1
   4  13   6 3633.90 1000.50   1
  -4 -13  -6 4105.10 1003.50   1
   4 -13  -6 4269.60 1007.10   1
  -4  13   6 2928.10 1000.00   1
   4  13   7   46.30   44.70   1
  -4 -13  -7   62.50   44.70   1
   4 -13  -7   72.20   45.20   1
  -4  13   7   54.90   45.00   1
   4  13   8  478.00  152.10   1
  -4 -13  -8  414.80  152.90   1
   4 -13  -8  312.70  151.40   1
  -4  13   8  453.60  152.40   1
   4 -13  -9    4.10   14.20   1
  -4  13   9    6.40   14.00   1
   4 -13 -10   22.80   32.60   1
  -4  13  10  159.30   34.00   1
   4 -13 -11   25.70   30.00   1
  -4  13  11   26.20   29.90   1
   4 -13 -12  137.10   68.40   1
  -4  13  12  102.60   67.60   1
   4 -14  -4   21.00   27.10   1
  -4  14   4   10.60   24.80   1
  -4 -14  -5   58.80   39.10   1
   4 -14  -5   60.30   41.00   1
  -4  14   5   18.70   40.20   1
   4  14   6   47.00   42.40   1
  -4 -14  -6   45.10   42.30   1
   4 -14  -6   63.70   43.40   1
  -4  14   6   64.30   43.20   1
   4  14   7  131.20   71.70   1
  -4 -14  -7   92.80   71.60   1
   4 -14  -7  172.30   72.20   1
  -4  14   7  199.60   72.60   1
   4  14   8   -0.00    7.40   1
  -4 -14  -8   -0.00    8.50   1
   4 -14  -8    3.40    8.30   1
  -4  14   8    4.60    8.50   1
   4  14   9  109.60   35.50   1
   4 -14  -9   30.70   33.90   1
  -4  14   9   26.30   34.00   1
   4 -14 -10    1.10   12.30   1
  -4  14  10    9.70   12.90   1
   4 -14 -11   12.10   21.90   1
  -4  14  11   16.80   22.00   1
   4 -15  -5   37.40   41.40   1
  -4  15   5   56.90   42.10   1
   4  15   6  370.80  145.90   1
  -4 -15  -6  325.20  141.90   1
   4 -15  -6  313.80  141.50   1
  -4  15   6  630.50  145.10   1
   4  15   7   16.40   21.70   1
  -4 -15  -7    7.50   21.70   1
   4 -15  -7   80.00   23.80   1
  -4  15   7   34.90   23.30   1
   4  15   8   60.00   41.50   1
  -4 -15  -8   44.60   41.40   1
   4 -15  -8   43.10   41.70   1
  -4  15   8   49.60   41.60   1
   4  15   9   19.30   22.00   1
  -4 -15  -9   17.70   22.20   1
   4 -15  -9   10.40   22.40   1
  -4  15   9    9.80   21.90   1
   4 -15 -10   38.80   27.60   1
  -4  15  10   11.30   27.60   1
   4 -15 -11    8.80   17.50   1
  -4  15  11    9.30   17.70   1
   4 -16  -5   33.70   36.50   1
  -4  16   5   28.50   34.90   1
   4 -16  -6    8.20   23.30   1
  -4  16   6   17.00   23.10   1
   4  16   7   51.70   37.20   1
  -4 -16  -7   38.80   36.90   1
   4 -16  -7   58.80   38.10   1
  -4  16   7   25.60   37.40   1
  -4 -16  -8   14.90   17.70   1
   4 -16  -8    0.00   18.10   1
  -4  16   8    8.20   18.50   1
   4 -16  -9  153.70   28.60   1
  -4  16   9   13.30   26.20   1
   4  16  10   13.20   17.70   1
   4 -16 -10   11.40   17.60   1
  -4  16  10   -0.00   17.80   1
   4 -17  -5    0.00   12.50   1
   4 -17  -6   67.30   56.90   1
  -4  17   6  141.70   58.90   1
  -4 -17  -7    7.60   17.20   1
   4 -17  -7    7.40   18.30   1
  -4  17   7   19.00   19.90   1
   4  17   8   82.00   32.30   1
  -4 -17  -8   33.20   31.60   1
   4 -17  -8  226.70   36.30   1
  -4  17   8    0.70   32.40   1
  -4 -17  -9    4.30   12.90   1
   4 -17  -9    5.20   13.70   1
  -4  17   9    6.90   13.80   1
   4 -18  -6   15.70   32.10   1
  -4  18   6   43.60   32.10   1
   4 -18  -7  817.00  148.20   1
  -4  18   7  264.70  138.50   1
  -4 -18  -8    3.90   10.50   1
   4 -18  -8    2.50   13.30   1
  -4  18   8   -0.00   12.10   1
   4 -19  -6   25.20   32.30   1
   4 -19  -7   -0.00   17.00   1
  -4  19   7   13.40   18.50   1
   5   0   0   -0.10   22.00   1
  -5   0   0   31.20   22.10   1
   5   0   112769.30 2793.40   1
  -5   0  -112466.00 2793.70   1
   5   0  -1 9990.60 2772.10   1
  -5   0   1 9231.90 2770.70   1
   5   0   2   55.30   40.80   1
  -5   0  -2   40.30   40.70   1
   5   0  -2   36.80   40.10   1
  -5   0   2   51.00   40.10   1
   5   0   3 7437.70 1879.00   1
  -5   0  -3 7988.40 1892.90   1
   5   0  -3 7106.70 1857.30   1
  -5   0   3 6545.80 1854.40   1
   5   0  -4  392.80  132.90   1
  -5   0   4  288.30  132.40   1
   5   0  -5 1616.40  563.30   1
  -5   0   5 3426.20  578.10   1
   5   0  -6  112.60   68.70   1
  -5   0   6  119.60   68.60   1
   5   1   0   10.90   31.40   1
  -5  -1   0   25.20   31.50   1
   5  -1   0   51.30   31.90   1
  -5   1   0   69.70   31.90   1
   5   1   1  611.30  151.50   1
  -5  -1  -1  580.90  151.30   1
   5  -1  -1  541.80  151.50   1
  -5   1   1  529.20  151.50   1
   5  -1   1  229.30  150.80   1
   5   1   2 1323.80  309.30   1
  -5  -1  -2 1003.00  307.70   1
   5  -1  -2  962.90  307.10   1
  -5   1   2 1109.90  307.60   1
  -5   1  -2  595.50  307.00   1
   5  -1   2  998.10  308.60   1
  -5  -1   2 1298.00  308.30   1
   5   1  -2 1292.20  308.40   1
   5   1   3   86.40   38.00   1
  -5  -1  -3   48.40   38.00   1
   5  -1  -3   60.80   35.80   1
  -5   1   3    0.70   35.50   1
  -5  -1   3  197.00   36.70   1
   5   1  -3  213.00   37.00   1
   5  -1  -4 1337.70  361.10   1
  -5   1   4 1296.30  361.00   1
  -5  -1   4 1016.00  360.50   1
   5   1  -4 1105.40  361.10   1
   5  -1  -5   20.00   21.40   1
  -5   1   5   11.80   21.50   1
  -5  -1   5    7.40   22.00   1
   5   1  -5    9.50   21.90   1
   5  -1  -6   36.90   33.60   1
  -5   1   6   27.30   33.50   1
  -5   1   7   24.20   29.10   1
   5   2   0   38.50   36.00   1
  -5  -2   0   21.00   36.00   1
   5  -2   0   67.50   36.60   1
  -5   2   0   34.70   36.30   1
   5   2   1 1100.30  391.50   1
  -5  -2  -1 1180.00  392.00   1
   5  -2  -1 1270.90  391.60   1
  -5   2   1 1179.00  391.00   1
  -5   2  -1 1471.70  392.00   1
   5  -2   1 1434.30  391.80   1
  -5  -2   1 1367.40  391.70   1
   5   2  -1 1400.80  391.70   1
   5   2   2  174.00   87.50   1
  -5  -2  -2  235.30   87.80   1
   5  -2  -2  255.60   87.80   1
  -5   2   2  104.70   87.20   1
  -5   2  -2  247.10   89.80   1
   5  -2   2  312.00   90.40   1
  -5  -2   2  170.60   87.20   1
   5   2  -2  200.60   87.30   1
   5   2   3 2174.60  483.00   1
  -5  -2  -3 1395.80  480.50   1
   5  -2  -3 1806.50  481.20   1
  -5   2   3 1700.50  481.10   1
  -5  -2   3 1551.30  481.60   1
   5   2  -3 1501.90  481.40   1
   5   2   4  288.10   92.50   1
  -5  -2  -4  187.10   91.80   1
   5  -2  -4  156.60   89.30   1
  -5   2   4  174.40   89.30   1
  -5  -2   4  244.70   90.20   1
   5   2  -4  222.00   90.30   1
   5  -2  -5  143.00   35.80   1
  -5   2   5   17.10   35.10   1
   5  -2  -6   34.00   33.80   1
  -5   2   6   31.10   33.80   1
   5  -2  -7   86.40   54.60   1
  -5   2   7   72.00   54.40   1
   5   3   0  222.20   49.20   1
  -5  -3   0   60.10   48.60   1
   5  -3   0   74.90   49.40   1
  -5   3   0   19.10   49.00   1
   5   3   1  273.00   56.80   1
  -5  -3  -1   77.10   55.90   1
   5  -3  -1   89.20   56.10   1
  -5   3   1   72.80   56.10   1
  -5   3  -1   60.20   57.60   1
   5  -3   1   93.30   57.90   1
  -5  -3   1   78.80   55.80   1
   5   3  -1   76.90   55.90   1
   5   3   2  574.00  161.10   1
  -5  -3  -2  486.10  160.70   1
   5  -3  -2  396.00  160.60   1
  -5   3   2  298.10  160.30   1
  -5   3  -2  594.00  169.50   1
   5  -3   2  664.80  170.30   1
  -5  -3   2  627.60  162.20   1
   5   3  -2  690.30  162.70   1
   5   3   3  145.50   64.80   1
  -5  -3  -3   96.70   64.50   1
   5  -3  -3   98.30   64.20   1
  -5   3   3   99.30   64.30   1
   5   3   4  688.50  243.30   1
  -5  -3  -4  734.60  243.70   1
   5  -3  -4  667.60  242.40   1
  -5   3   4  800.90  242.90   1
  -5  -3   4 1039.20  252.50   1
   5   3  -4  995.00  254.00   1
   5  -3  -5   24.60   29.10   1
  -5   3   5   24.40   29.10   1
   5  -3  -6 1636.50  495.10   1
  -5   3   6 1758.40  496.30   1
   5  -3  -7  249.50  127.00   1
  -5   3   7  811.80  132.60   1
   5  -3  -8   12.60   19.20   1
  -5   3   8    7.80   19.50   1
   5   4   0   25.10   20.40   1
  -5  -4   0   -0.00   20.30   1
   5  -4   0   18.30   21.60   1
  -5   4   0   22.90   22.50   1
   5   4   1  742.80  196.60   1
  -5  -4  -1  618.70  196.30   1
   5  -4  -1  497.20  196.50   1
  -5   4   1  350.30  195.90   1
  -5   4  -1  663.50  198.70   1
   5  -4   1  696.50  198.90   1
  -5  -4   1  614.30  196.30   1
   5   4  -1  672.00  196.50   1
   5   4   2   19.70   25.70   1
  -5  -4  -2   26.40   25.80   1
   5  -4  -2   17.80   26.00   1
  -5   4   2   14.40   25.90   1
  -5  -4   2   15.30   26.00   1
   5   4  -2   23.00   26.10   1
   5   4   3    6.60   24.90   1
  -5  -4  -3   41.20   25.30   1
   5  -4  -3   22.20   25.10   1
  -5   4   3   39.60   25.00   1
  -5  -4   3    5.90   25.20   1
   5   4  -3   -0.00   25.20   1
   5   4   4   15.90   21.00   1
  -5  -4  -4   15.40   21.40   1
   5  -4  -4    6.90   20.30   1
  -5   4   4   11.90   20.20   1
   5   4   5  357.70   94.90   1
  -5  -4  -5  197.10   92.30   1
   5  -4  -5  212.20   90.50   1
  -5   4   5  157.30   90.30   1
   5  -4  -6   48.30   39.70   1
  -5   4   6   40.50   39.70   1
   5  -4  -7   13.50   16.90   1
  -5   4   7    1.60   17.10   1
   5  -4  -8    6.50   12.10   1
  -5   4   8   -0.00   12.00   1
  -5   4   9   37.90   36.90   1
   5   5   0   14.40   24.70   1
  -5  -5   0   19.30   24.70   1
   5  -5   0    8.30   26.40   1
  -5   5   0   49.50   27.30   1
   5   5   1   36.40   23.80   1
  -5  -5  -1   16.60   23.50   1
   5  -5  -1   15.30   24.60   1
  -5   5   1   12.90   24.20   1
  -5   5  -1    9.40   27.50   1
   5  -5   1   48.10   27.80   1
  -5  -5   1    8.60   23.60   1
   5   5  -1   10.10   23.50   1
   5   5   2 4278.20  944.60   1
  -5  -5  -2 3691.40  940.10   1
   5  -5  -2 3624.30  938.30   1
  -5   5   2 2645.60  934.90   1
  -5  -5   2 4078.90  952.80   1
   5   5  -2 3930.20  955.40   1
   5   5   3   24.20   24.10   1
   5  -5  -3   12.60   24.10   1
  -5   5   3   15.00   24.10   1
   5   5   4  485.60  178.30   1
  -5  -5  -4  460.00  178.00   1
   5  -5  -4  653.40  178.70   1
  -5   5   4  446.40  177.90   1
   5   5   5   59.50   33.70   1
  -5  -5  -5   -0.00   32.70   1
   5  -5  -5   27.50   31.90   1
  -5   5   5   42.20   32.10   1
   5  -5  -6  208.60   77.00   1
  -5   5   6  117.10   76.70   1
   5  -5  -7  135.20   68.30   1
  -5   5   7  105.20   68.10   1
   5  -5  -8   46.90   36.00   1
  -5   5   8   30.10   35.90   1
   5  -5  -9   14.70   25.20   1
  -5   5   9   19.70   25.10   1
  -5   5  10 4788.60 1395.30   1
   5   6   0   70.80   45.40   1
  -5  -6   0   53.30   45.30   1
   5  -6   0   19.90   47.10   1
  -5   6   0   88.30   48.00   1
   5   6   1  543.60  167.60   1
  -5  -6  -1  633.30  168.00   1
   5  -6  -1  711.20  168.80   1
  -5   6   1  918.30  170.00   1
  -5  -6   1  319.70  167.40   1
   5   6  -1  272.50  167.30   1
   5   6   2   36.10   38.20   1
  -5  -6  -2   66.90   38.40   1
   5  -6  -2   61.30   39.10   1
  -5   6   2    7.40   38.60   1
  -5  -6   2   67.10   38.80   1
   5   6   3  111.00   70.70   1
  -5  -6  -3  131.30   70.70   1
   5  -6  -3  120.60   70.80   1
  -5   6   3  142.40   70.90   1
   5   6   4   14.70   28.70   1
  -5  -6  -4   25.00   28.90   1
   5  -6  -4   17.20   28.70   1
  -5   6   4   50.60   28.80   1
   5   6   5   70.20   34.40   1
  -5  -6  -5  126.00   35.60   1
   5  -6  -5    8.40   33.60   1
  -5   6   5   37.50   33.80   1
   5   6   6   12.70   29.10   1
  -5  -6  -6   49.40   28.80   1
   5  -6  -6    6.10   26.60   1
  -5   6   6   39.60   26.70   1
   5  -6  -7  122.00   67.30   1
  -5   6   7  107.90   67.20   1
   5  -6  -8   -0.00   10.00   1
  -5   6   8    3.80    9.80   1
   5  -6  -9  159.90   95.20   1
  -5   6   9  599.70  101.40   1
   5  -6 -10   15.70   27.70   1
  -5   6  10   32.30   28.50   1
   5   7   0   28.10   30.40   1
  -5  -7   0   25.20   30.40   1
   5  -7   0   37.30   34.10   1
  -5   7   0   20.00   33.30   1
   5   7   1   23.50   27.50   1
  -5  -7  -1   19.70   27.50   1
   5  -7  -1   42.80   29.80   1
  -5   7   1   25.50   29.40   1
  -5  -7   1   22.10   28.00   1
   5   7  -1   17.70   27.80   1
   5   7   2  100.40   73.60   1
  -5  -7  -2  240.00   74.20   1
   5  -7  -2  364.40   75.70   1
  -5   7   2  116.40   74.10   1
   5   7   3   50.10   53.10   1
  -5  -7  -3   88.90   53.20   1
   5  -7  -3  119.10   53.50   1
  -5   7   3   86.90   53.40   1
   5   7   4  110.90   49.60   1
  -5  -7  -4   53.40   49.40   1
   5  -7  -4   63.50   49.50   1
  -5   7   4   64.30   49.60   1
   5   7   5   53.90   38.90   1
  -5  -7  -5   92.30   39.30   1
   5  -7  -5   32.20   38.60   1
  -5   7   5   27.40   38.60   1
   5   7   6   86.90   64.40   1
  -5  -7  -6  244.10   65.90   1
   5  -7  -6   76.50   63.60   1
  -5   7   6  174.40   64.10   1
   5  -7  -7   53.70   30.60   1
  -5   7   7   15.50   30.30   1
   5  -7  -8  341.90  147.80   1
  -5   7   8  434.20  148.20   1
   5  -7  -9   13.00   19.50   1
  -5   7   9    8.10   19.50   1
   5  -7 -10  126.90   47.50   1
  -5   7  10   46.80   45.90   1
  -5   7  11   56.50   46.10   1
   5   8   0   -0.00   10.90   1
  -5  -8   0    4.80   10.80   1
   5   8   1  157.70   82.60   1
  -5  -8  -1  185.10   82.70   1
   5  -8  -1  107.90   83.60   1
  -5   8   1  269.70   85.30   1
   5   8   2   83.60   55.30   1
  -5  -8  -2   83.00   55.20   1
   5  -8  -2   78.00   55.90   1
  -5   8   2   76.40   56.30   1
   5   8   3  721.50  183.40   1
  -5  -8  -3  440.80  182.50   1
   5  -8  -3  574.70  183.80   1
  -5   8   3  444.60  183.00   1
   5   8   4   69.90   45.60   1
  -5  -8  -4   58.20   45.50   1
   5  -8  -4   56.70   45.70   1
  -5   8   4   47.90   45.70   1
   5   8   5 1683.50  467.00   1
  -5  -8  -5 1570.80  466.30   1
   5  -8  -5 1644.90  466.90   1
  -5   8   5 1458.30  466.20   1
   5   8   6   26.10   33.50   1
  -5  -8  -6   65.60   34.40   1
   5  -8  -6   32.50   33.40   1
  -5   8   6   26.20   33.40   1
   5   8   7  319.20   96.20   1
   5  -8  -7  157.00   91.30   1
  -5   8   7  247.20   91.80   1
   5  -8  -8   46.80   41.50   1
  -5   8   8   49.70   41.50   1
   5  -8  -9  760.30  210.40   1
  -5   8   9  531.90  207.70   1
   5  -8 -10   29.10   36.10   1
  -5   8  10   48.00   36.30   1
   5  -8 -11    9.60   18.10   1
  -5   8  11    7.30   18.50   1
  -5   8  12    3.30   12.60   1
  -5  -9   0   -0.00    4.40   1
   5   9   1   37.40   38.30   1
  -5  -9  -1  102.50   38.60   1
   5  -9  -1    8.00   41.40   1
  -5   9   1    5.20   40.60   1
   5   9   2   37.40   31.50   1
  -5  -9  -2   30.70   31.40   1
   5  -9  -2   11.20   33.00   1
  -5   9   2   12.70   33.10   1
   5   9   3    6.70   20.90   1
  -5  -9  -3   21.20   21.00   1
   5  -9  -3   37.50   23.50   1
  -5   9   3    6.00   21.70   1
   5   9   4  310.10  110.50   1
  -5  -9  -4  221.60  110.20   1
   5  -9  -4  258.00  110.60   1
  -5   9   4  238.20  110.50   1
   5   9   5   24.80   27.60   1
  -5  -9  -5   19.70   27.60   1
   5  -9  -5   21.30   27.80   1
  -5   9   5   24.60   27.70   1
   5   9   6   21.50   22.00   1
   5  -9  -6    5.40   21.90   1
  -5   9   6   16.00   22.00   1
   5   9   7   20.60   21.60   1
  -5  -9  -7    0.90   22.20   1
   5  -9  -7    9.80   20.10   1
  -5   9   7   12.80   20.20   1
   5  -9  -8   18.40   30.40   1
  -5   9   8   40.50   30.60   1
   5  -9  -9    6.20   18.20   1
  -5   9   9   12.40   18.20   1
   5  -9 -10  147.10   84.00   1
  -5   9  10  186.40   84.30   1
   5  -9 -11    7.80   16.00   1
  -5   9  11    4.90   15.70   1
   5  -9 -12   11.70   22.10   1
  -5   9  12   16.40   22.60   1
  -5   9  13    7.00   16.30   1
   5  10   1 1448.30  493.50   1
  -5 -10  -1 1887.50  496.70   1
   5  10   2   -0.00    9.50   1
  -5 -10  -2   -0.00    9.40   1
   5 -10  -2    0.00   14.80   1
  -5  10   2   58.30   16.60   1
   5  10   3  409.20  150.60   1
  -5 -10  -3  328.20  150.30   1
   5 -10  -3  394.80  150.90   1
  -5  10   3  509.90  151.70   1
   5  10   4   22.00   25.10   1
  -5 -10  -4   22.10   25.10   1
   5 -10  -4   17.40   26.20   1
  -5  10   4    2.80   25.90   1
   5  10   5  211.80   35.00   1
  -5 -10  -5   36.80   33.40   1
   5 -10  -5   11.20   33.60   1
  -5  10   5   41.60   33.80   1
   5  10   6   21.00   32.30   1
  -5 -10  -6   44.50   32.60   1
   5 -10  -6   31.80   32.40   1
  -5  10   6   32.60   32.40   1
   5  10   7  131.10   77.90   1
  -5 -10  -7  121.90   78.30   1
   5 -10  -7  136.00   78.00   1
  -5  10   7  268.70   78.80   1
   5  10   8    3.50   31.20   1
   5 -10  -8   47.40   29.80   1
  -5  10   8   17.70   29.70   1
   5 -10  -9 2087.00  555.30   1
  -5  10   9 1788.20  553.10   1
   5 -10 -10   27.70   28.70   1
  -5  10  10   20.50   28.70   1
   5 -10 -11  148.40   67.80   1
  -5  10  11   98.00   67.00   1
   5 -10 -12    3.20   21.50   1
  -5  10  12   39.50   22.20   1
  -5  10  13    6.90   17.00   1
   5  11   2  174.30   56.70   1
  -5 -11  -2   82.10   55.30   1
   5 -11  -2  145.60   58.90   1
  -5  11   2   33.20   56.90   1
   5  11   3   24.30   25.30   1
  -5 -11  -3   17.10   25.20   1
   5 -11  -3   18.40   27.70   1
  -5  11   3    5.50   27.00   1
   5  11   4  102.90   56.40   1
  -5 -11  -4   67.80   56.30   1
   5 -11  -4   99.20   57.50   1
  -5  11   4   89.80   56.90   1
   5  11   5   25.70   24.60   1
  -5 -11  -5    5.10   24.60   1
   5 -11  -5   35.90   25.20   1
  -5  11   5   17.10   25.30   1
   5  11   6   12.80   25.40   1
  -5 -11  -6   15.30   25.50   1
   5 -11  -6   58.40   26.20   1
  -5  11   6   26.20   25.80   1
   5  11   7    5.30   19.50   1
  -5 -11  -7   23.60   19.60   1
   5 -11  -7    6.70   20.00   1
  -5  11   7    7.60   19.50   1
   5  11   8  261.60   72.10   1
  -5 -11  -8  138.50   71.50   1
   5 -11  -8  168.20   70.10   1
  -5  11   8   90.00   69.70   1
   5 -11  -9   12.10   19.20   1
  -5  11   9    8.80   19.20   1
   5 -11 -10   34.20   34.20   1
  -5  11  10   32.90   34.10   1
   5 -11 -11    4.30   13.50   1
  -5  11  11    5.00   13.40   1
   5 -11 -12   26.20   36.40   1
  -5  11  12   76.60   37.10   1
   5 -12  -2   73.60   54.00   1
   5  12   3  686.70  197.30   1
  -5 -12  -3  459.80  194.00   1
   5 -12  -3 1033.90  201.10   1
  -5  12   3  472.10  195.20   1
   5  12   4  124.40   67.00   1
  -5 -12  -4   99.60   66.80   1
   5 -12  -4  154.30   67.80   1
  -5  12   4   97.90   67.70   1
   5  12   5   58.70   39.40   1
  -5 -12  -5  179.40   40.30   1
   5 -12  -5   23.50   40.10   1
  -5  12   5   14.30   39.90   1
   5  12   6   21.90   33.80   1
  -5 -12  -6   87.40   34.00   1
   5 -12  -6   17.40   33.90   1
  -5  12   6   59.30   34.20   1
   5  12   7  153.40   77.70   1
  -5 -12  -7  158.30   77.90   1
   5 -12  -7  196.60   78.20   1
  -5  12   7  110.00   77.80   1
   5  12   8   31.50   25.70   1
  -5 -12  -8   18.20   26.30   1
   5 -12  -8   18.90   26.10   1
  -5  12   8    8.80   25.70   1
   5  12   9   26.30   30.30   1
   5 -12  -9   11.00   28.80   1
  -5  12   9   68.80   29.50   1
   5 -12 -10   21.10   28.30   1
  -5  12  10   26.60   28.50   1
   5 -12 -11  131.10   67.00   1
  -5  12  11  101.80   66.60   1
   5 -12 -12    4.60   15.80   1
  -5  12  12    8.70   15.70   1
  -5 -13  -3  265.30   84.50   1
   5 -13  -3  373.70   88.60   1
  -5  13   3   97.20   83.30   1
   5  13   4  229.20  105.00   1
  -5 -13  -4  297.10  105.20   1
   5 -13  -4  413.60  107.90   1
  -5  13   4  162.50  105.40   1
   5  13   5   75.40   45.40   1
  -5 -13  -5   64.90   45.40   1
   5 -13  -5   82.10   46.80   1
  -5  13   5   28.80   45.70   1
   5  13   6 1420.10  467.60   1
  -5 -13  -6 1694.50  468.80   1
   5 -13  -6 1773.90  471.20   1
  -5  13   6 1580.40  470.20   1
   5  13   7   15.20   25.80   1
  -5 -13  -7   21.20   26.00   1
   5 -13  -7   20.70   26.40   1
  -5  13   7   28.70   26.30   1
   5  13   8  147.20   66.60   1
  -5 -13  -8  110.90   66.20   1
   5 -13  -8   77.00   66.30   1
  -5  13   8  158.10   66.60   1
   5  13   9  132.50   50.50   1
  -5 -13  -9   33.10   49.60   1
   5 -13  -9   63.90   49.00   1
  -5  13   9   75.00   49.30   1
   5 -13 -10  140.80   85.50   1
  -5  13  10  272.90   86.80   1
   5 -13 -11   48.40   44.90   1
  -5  13  11   66.40   45.00   1
   5 -13 -12   48.70   46.10   1
  -5  13  12   72.00   46.30   1
   5 -14  -3  115.60   70.80   1
   5  14   4   11.10   21.40   1
  -5 -14  -4   14.90   21.40   1
   5 -14  -4   14.00   25.20   1
  -5  14   4   14.10   24.90   1
   5  14   5  622.10  275.50   1
  -5 -14  -5  828.90  276.80   1
   5 -14  -5 1114.00  278.50   1
  -5  14   5 1178.90  280.40   1
   5  14   6   56.80   24.40   1
  -5 -14  -6    8.90   24.10   1
   5 -14  -6    6.00   26.00   1
  -5  14   6   17.80   25.70   1
   5  14   7   79.90   35.40   1
  -5 -14  -7   40.20   35.20   1
   5 -14  -7   23.80   35.30   1
  -5  14   7   22.80   35.40   1
   5  14   8    7.90   17.20   1
  -5 -14  -8    5.90   17.60   1
   5 -14  -8   10.00   17.60   1
  -5  14   8   12.70   17.80   1
   5  14   9   42.60   43.80   1
  -5 -14  -9   57.20   44.40   1
   5 -14  -9  102.60   44.70   1
  -5  14   9   46.80   44.20   1
   5  14  10   -0.00   14.30   1
   5 -14 -10    9.40   12.50   1
  -5  14  10    0.70   12.30   1
   5 -14 -11   19.30   19.80   1
  -5  14  11    5.20   19.80   1
   5 -15  -4 2560.30  469.30   1
  -5  15   4 1074.10  441.50   1
   5  15   5   -0.00   10.70   1
  -5 -15  -5   -0.00   10.20   1
   5 -15  -5   40.00   16.80   1
  -5  15   5   13.30   15.80   1
   5  15   6   73.30   58.70   1
  -5 -15  -6  138.20   59.00   1
   5 -15  -6  152.50   60.40   1
  -5  15   6   68.90   59.10   1
   5  15   7    0.00    6.70   1
  -5 -15  -7    2.40    7.10   1
   5 -15  -7   -0.00    9.40   1
  -5  15   7    4.90   10.70   1
   5  15   8  110.40   48.60   1
  -5 -15  -8   59.50   48.20   1
   5 -15  -8   41.00   48.40   1
  -5  15   8   99.90   48.70   1
   5  15   9    9.40   21.90   1
  -5 -15  -9    9.70   21.80   1
   5 -15  -9   23.30   22.60   1
  -5  15   9   20.40   22.00   1
   5  15  10   27.90   27.90   1
   5 -15 -10   13.00   27.10   1
  -5  15  10  184.70   31.00   1
   5 -16  -4    4.50   20.00   1
  -5 -16  -5   21.90   29.50   1
   5 -16  -5   27.90   31.90   1
  -5  16   5   33.10   32.60   1
   5  16   6   23.90   23.00   1
  -5 -16  -6    6.40   22.70   1
   5 -16  -6   44.50   24.40   1
  -5  16   6   53.30   26.50   1
   5  16   7   22.80   31.70   1
  -5 -16  -7   34.20   31.70   1
   5 -16  -7  115.20   34.50   1
  -5  16   7   22.80   33.10   1
   5  16   8    6.50   20.60   1
  -5 -16  -8   13.30   20.90   1
   5 -16  -8   17.20   21.10   1
  -5  16   8   36.30   21.70   1
   5  16   9   24.80   32.50   1
  -5 -16  -9  174.80   34.70   1
   5 -16  -9   81.80   33.40   1
  -5  16   9   20.20   32.80   1
   5  16  10    5.70   16.60   1
  -5 -16 -10    9.30   17.50   1
   5 -16 -10    8.30   17.20   1
  -5  16  10    9.10   17.10   1
   5 -17  -5    8.00   22.50   1
  -5  17   5    9.70   22.60   1
  -5 -17  -6   15.10   26.60   1
   5 -17  -6   40.70   29.60   1
  -5  17   6   39.00   29.10   1
   5  17   7    4.40   16.90   1
  -5 -17  -7   18.20   16.90   1
   5 -17  -7    3.10   19.50   1
  -5  17   7   -0.00   17.90   1
   5  17   8   54.40   38.90   1
  -5 -17  -8   39.30   39.00   1
   5 -17  -8   38.10   39.60   1
  -5  17   8   39.30   40.00   1
   5  17   9    1.00    6.70   1
  -5 -17  -9    1.10    6.10   1
   5 -17  -9    0.00    7.60   1
  -5  17   9   -0.00    7.50   1
   5 -18  -5    3.20   18.10   1
   5 -18  -6    8.30   24.00   1
  -5  18   6   20.10   24.80   1
   5  18   7   49.40   29.90   1
  -5 -18  -7   32.60   29.10   1
   5 -18  -7   10.90   29.80   1
   5  18   8   14.40   24.90   1
  -5 -18  -8   20.10   24.90   1
   5 -18  -8   21.50   26.60   1
  -5  18   8   29.40   26.90   1
   5 -19  -6   87.60   42.10   1
  -5  19   6   24.40   40.80   1
  -5 -19  -7    7.60   16.80   1
   5 -19  -7   -0.00   20.30   1
  -5  19   7   16.90   19.90   1
   5 -20  -6    9.30   24.10   1
   6   0   0 2726.00  780.10   1
  -6   0   0 2853.40  780.10   1
   6   0   1 1138.00  383.50   1
  -6   0  -1 1076.90  383.40   1
   6   0  -1 2056.50  389.80   1
  -6   0   1 1821.60  387.80   1
   6   0   2   24.80   34.50   1
  -6   0  -2   26.10   34.60   1
   6   0  -2   46.60   34.40   1
  -6   0   2   35.40   34.30   1
   6   0   3 1040.70  402.30   1
  -6   0  -3 1360.10  403.60   1
   6   0  -3 1345.40  401.90   1
  -6   0   3 1867.80  403.50   1
   6   0   4   53.60   43.30   1
  -6   0  -4   31.50   42.40   1
   6   0  -4   42.70   40.30   1
  -6   0   4   50.10   40.20   1
   6   0  -5 1148.80  356.90   1
  -6   0   5 1178.60  357.40   1
   6   0  -6  872.40  297.60   1
  -6   0   6 1013.00  298.50   1
   6   0  -7  397.50  155.20   1
  -6   0   7  399.70  154.90   1
   6   1   0  836.80  259.30   1
  -6  -1   0  803.70  259.20   1
   6  -1   0  797.50  258.80   1
  -6   1   0  758.10  258.60   1
   6   1   1   82.10   47.60   1
  -6  -1  -1   98.80   47.70   1
   6  -1  -1   68.30   47.40   1
  -6   1   1   51.60   47.40   1
  -6   1  -1   44.50   48.00   1
   6  -1   1   41.20   48.10   1
  -6  -1   1   52.50   47.80   1
   6   1  -1   65.80   47.80   1
   6   1   2  306.40  145.40   1
  -6  -1  -2  264.10  145.20   1
   6  -1  -2  593.00  146.30   1
  -6   1   2  503.00  145.90   1
  -6   1  -2  468.90  146.30   1
   6  -1   2  440.70  146.00   1
  -6  -1   2  349.80  145.20   1
   6   1  -2  371.50  145.20   1
   6   1   3  100.00   75.80   1
  -6  -1  -3  195.10   76.20   1
   6  -1  -3  127.70   75.10   1
  -6   1   3  133.70   75.20   1
  -6   1  -3  117.10   76.90   1
   6  -1   3  108.40   77.20   1
  -6  -1   3  147.50   75.10   1
   6   1  -3  170.70   75.30   1
   6   1   4   15.10   53.20   1
  -6  -1  -4   67.30   53.80   1
   6  -1  -4   73.20   51.10   1
  -6   1   4  107.80   51.20   1
  -6  -1   4   77.40   51.20   1
   6   1  -4   53.90   51.20   1
   6  -1  -5   98.50   58.10   1
  -6   1   5  112.90   58.20   1
  -6  -1   5   74.90   58.20   1
   6   1  -5   72.80   58.20   1
   6  -1  -6   25.10   26.00   1
  -6   1   6   29.30   26.00   1
  -6  -1   6    9.00   26.50   1
   6   1  -6    8.20   26.30   1
   6  -1  -7   15.80   22.20   1
  -6   1   7   11.10   22.20   1
   6  -1  -8    9.70   19.00   1
  -6   1   8   11.00   19.70   1
   6   2   0   61.10   47.50   1
  -6  -2   0   53.40   47.50   1
   6  -2   0   68.90   47.70   1
  -6   2   0   65.60   47.80   1
   6   2   1  179.10   78.20   1
  -6  -2  -1  190.20   78.20   1
   6  -2  -1  211.50   78.30   1
  -6   2   1  204.60   78.20   1
  -6   2  -1   91.50   78.00   1
   6  -2   1  108.00   78.30   1
  -6  -2   1  163.10   78.10   1
   6   2  -1  158.10   78.10   1
   6   2   2   74.60   52.80   1
  -6  -2  -2   58.70   52.70   1
   6  -2  -2  121.60   53.00   1
  -6   2   2  125.10   52.90   1
  -6   2  -2   72.20   54.50   1
   6  -2   2   81.70   55.00   1
  -6  -2   2   60.30   52.50   1
   6   2  -2   63.90   52.50   1
   6   2   3   60.50   27.70   1
  -6  -2  -3   22.30   27.20   1
   6  -2  -3   29.80   27.00   1
  -6   2   3   35.20   27.00   1
  -6   2  -3   49.40   30.90   1
   6  -2   3   39.40   32.30   1
  -6  -2   3    3.20   27.00   1
   6   2  -3   -0.00   26.90   1
   6   2   4   50.90   30.40   1
  -6  -2  -4   12.10   30.40   1
   6  -2  -4   15.60   27.80   1
  -6   2   4   14.40   27.70   1
  -6  -2   4   41.10   28.20   1
   6   2  -4   27.10   28.30   1
   6   2   5   67.10   33.40   1
   6  -2  -5   28.80   29.20   1
  -6   2   5   32.60   29.10   1
  -6  -2   5    9.30   29.50   1
   6   2  -5   13.60   29.80   1
   6  -2  -6    7.10   26.90   1
  -6   2   6   32.30   27.20   1
  -6  -2   6   41.40   27.40   1
   6  -2  -7  140.10   87.70   1
  -6   2   7  310.10   88.80   1
   6  -2  -8   22.20   28.50   1
  -6   2   8   23.20   28.90   1
  -6   2   9   57.60   46.30   1
   6   3   0 1419.20  445.80   1
  -6  -3   0 1717.60  446.60   1
   6  -3   0 1502.50  447.20   1
  -6   3   0 1435.40  447.00   1
   6   3   1   24.20   35.90   1
  -6  -3  -1   45.40   36.00   1
   6  -3  -1   49.30   36.10   1
  -6   3   1   42.40   36.20   1
  -6   3  -1   24.10   38.10   1
   6  -3   1   22.80   37.70   1
  -6  -3   1   59.10   36.10   1
   6   3  -1   26.90   35.90   1
   6   3   2 2496.20  722.80   1
  -6  -3  -2 2300.60  721.90   1
   6  -3  -2 2297.80  722.00   1
  -6   3   2 2170.70  721.70   1
  -6   3  -2 3281.60  732.40   1
   6  -3   2 3680.10  734.70   1
  -6  -3   2 3212.10  726.80   1
   6   3  -2 3381.40  728.00   1
   6   3   3   70.10   40.20   1
  -6  -3  -3   26.00   39.70   1
   6  -3  -3   62.20   39.70   1
  -6   3   3   19.70   39.40   1
  -6  -3   3   64.10   39.70   1
   6   3  -3   65.20   39.60   1
   6   3   4  864.30  182.40   1
  -6  -3  -4  408.30  180.60   1
   6  -3  -4  505.20  180.10   1
  -6   3   4  489.80  180.10   1
  -6  -3   4  438.80  180.50   1
   6   3  -4  532.40  181.10   1
   6   3   5  179.90   80.90   1
  -6  -3  -5   98.00   79.60   1
   6  -3  -5  171.50   78.10   1
  -6   3   5  183.00   78.20   1
  -6  -3   5  112.90   78.60   1
   6   3  -5  100.70   78.40   1
   6  -3  -6  520.20  171.00   1
  -6   3   6  423.40  170.70   1
   6  -3  -7  209.70   97.50   1
  -6   3   7  203.20   97.50   1
   6  -3  -8  336.10  155.60   1
  -6   3   8 1323.50  169.80   1
   6  -3  -9   15.50   25.00   1
  -6   3   9   18.50   25.00   1
   6   4   0   78.30   35.20   1
  -6  -4   0   40.80   35.20   1
   6  -4   0   32.00   35.60   1
  -6   4   0    8.30   35.10   1
   6   4   1   17.40   31.80   1
  -6  -4  -1    3.40   31.40   1
   6  -4  -1   14.50   31.80   1
  -6   4   1    6.80   32.00   1
  -6   4  -1  191.50   36.40   1
   6  -4   1  130.30   34.80   1
  -6  -4   1   58.30   31.70   1
   6   4  -1   62.50   31.60   1
   6   4   2    4.20   15.70   1
  -6  -4  -2    4.10   15.60   1
   6  -4  -2    0.80   15.90   1
  -6   4   2    3.40   15.80   1
  -6   4  -2   -0.00   21.90   1
   6  -4   2   19.20   22.70   1
  -6  -4   2   19.10   16.10   1
   6   4  -2   17.50   16.20   1
   6   4   3   26.70   24.40   1
  -6  -4  -3   42.00   24.50   1
   6  -4  -3   13.60   24.10   1
  -6   4   3    7.80   23.90   1
  -6  -4   3   12.40   24.30   1
   6   4  -3   16.30   24.40   1
   6   4   4   11.70   21.40   1
  -6  -4  -4   18.80   21.10   1
   6  -4  -4   31.40   21.10   1
  -6   4   4    0.00   20.90   1
  -6  -4   4    4.50   21.60   1
   6   4  -4    9.30   21.50   1
   6   4   5  116.40   51.70   1
  -6  -4  -5   93.60   51.60   1
   6  -4  -5   40.60   50.00   1
  -6   4   5   92.00   50.10   1
   6   4   6   80.40   45.50   1
   6  -4  -6   60.20   43.60   1
  -6   4   6   45.40   43.50   1
   6  -4  -7   19.80   23.50   1
  -6   4   7   12.40   23.40   1
   6  -4  -8   32.60   38.40   1
  -6   4   8   56.30   38.60   1
   6  -4  -9   48.10   31.50   1
  -6   4   9   17.70   30.80   1
   6  -4 -10    3.20   15.50   1
  -6   4  10   13.00   17.00   1
   6   5   0 1219.70  435.90   1
  -6  -5   0 1340.50  436.10   1
   6  -5   0 2034.00  439.60   1
  -6   5   0 2150.90  441.00   1
   6   5   1  301.90  113.70   1
  -6  -5  -1  175.60  113.30   1
   6  -5  -1  231.30  113.90   1
  -6   5   1  280.40  114.20   1
  -6   5  -1  382.80  116.30   1
   6  -5   1  464.30  116.70   1
  -6  -5   1  364.80  114.00   1
   6   5  -1  359.50  113.90   1
   6   5   2 1825.80  475.40   1
  -6  -5  -2 1634.90  474.60   1
   6  -5  -2 1718.70  474.40   1
  -6   5   2 1591.80  474.30   1
  -6  -5   2 1510.90  474.80   1
   6   5  -2 1445.30  474.60   1
   6   5   3   47.20   37.60   1
  -6  -5  -3   55.50   37.50   1
   6  -5  -3   39.30   37.50   1
  -6   5   3   16.70   37.40   1
  -6  -5   3  110.90   38.70   1
   6   5  -3   70.90   38.40   1
   6   5   4  143.50   60.60   1
  -6  -5  -4   67.10   60.10   1
  -6   5   4  109.60   60.30   1
  -6  -5   4   94.50   60.40   1
   6   5   5   26.10   34.60   1
   6  -5  -5   11.30   33.60   1
  -6   5   5  107.90   34.30   1
   6   5   6 1194.20  313.50   1
   6  -5  -6  929.40  306.60   1
   6  -5  -7  188.70   94.70   1
  -6   5   7  208.00   94.70   1
   6  -5  -8   47.10   31.40   1
  -6   5   8   17.10   31.20   1
   6  -5  -9    9.40   19.40   1
  -6   5   9   10.80   19.40   1
   6  -5 -10   68.20   58.30   1
  -6   5  10  122.90   59.00   1
  -6   5  11  392.50  157.10   1
   6   6   0   59.80   50.60   1
  -6  -6   0   84.40   50.70   1
   6  -6   0   78.30   52.30   1
  -6   6   0   58.70   52.10   1
   6   6   1   19.20   29.50   1
  -6  -6  -1   71.80   29.90   1
   6  -6  -1   15.10   30.10   1
  -6   6   1   14.50   29.80   1
  -6   6  -1   21.80   32.70   1
   6  -6   1   18.40   33.90   1
  -6  -6   1   22.70   29.50   1
   6   6  -1   29.00   29.60   1
   6   6   2    7.80   19.00   1
  -6  -6  -2   10.20   19.10   1
   6  -6  -2   11.50   19.80   1
  -6   6   2   12.40   19.90   1
   6   6   3   51.00   37.00   1
  -6  -6  -3   27.70   36.90   1
   6  -6  -3   51.30   37.20   1
  -6   6   3   31.70   37.10   1
  -6  -6   3   45.10   37.50   1
   6   6  -3   40.70   37.30   1
   6   6   4   38.30   27.80   1
  -6  -6  -4    9.20   27.80   1
   6  -6  -4   27.20   27.80   1
  -6   6   4   18.50   27.60   1
   6   6   5    7.80   14.50   1
  -6  -6  -5   -0.00   14.00   1
   6  -6  -5    8.60   14.40   1
  -6   6   5    5.40   14.80   1
  -6  -6  -6    3.00   26.20   1
   6  -6  -6    6.00   24.90   1
  -6   6   6   52.90   25.40   1
   6  -6  -7   50.30   49.00   1
  -6   6   7   95.00   49.10   1
   6  -6  -8    4.30   20.10   1
  -6   6   8   20.10   20.20   1
   6  -6  -9  111.60   35.80   1
  -6   6   9   20.10   34.90   1
   6  -6 -10   71.20   60.80   1
  -6   6  10  231.80   62.80   1
   6  -6 -11   49.20   46.20   1
  -6   6  11   67.60   46.70   1
  -6   6  12    7.80   17.60   1
   6   7   0   52.50   38.40   1
  -6  -7   0   27.60   38.10   1
   6  -7   0   49.80   40.70   1
  -6   7   0  131.50   41.90   1
   6   7   1   89.70   23.40   1
  -6  -7  -1    4.40   22.90   1
   6  -7  -1   -0.00   24.80   1
  -6   7   1   26.20   25.40   1
  -6  -7   1   20.10   23.30   1
   6   7  -1    4.20   23.00   1
   6   7   2  291.70  108.90   1
  -6  -7  -2  222.40  108.70   1
   6  -7  -2  210.80  109.20   1
  -6   7   2  251.50  109.40   1
  -6  -7   2  302.00  110.30   1
   6   7  -2  258.00  110.00   1
   6   7   3   11.30   21.70   1
  -6  -7  -3   21.40   21.70   1
   6  -7  -3    1.70   21.80   1
  -6   7   3   20.60   22.00   1
   6   7   4   68.60   43.10   1
  -6  -7  -4   45.10   42.90   1
   6  -7  -4   52.40   43.10   1
  -6   7   4   45.10   43.20   1
   6   7   5   23.20   25.50   1
  -6  -7  -5   14.50   25.30   1
   6  -7  -5   30.00   25.50   1
  -6   7   5    8.10   25.40   1
   6   7   6   49.10   25.00   1
  -6  -7  -6    5.80   25.00   1
   6  -7  -6   13.60   23.50   1
  -6   7   6   11.80   23.30   1
   6   7   7   89.20   37.90   1
  -6  -7  -7   33.90   36.00   1
   6  -7  -7   19.50   34.30   1
  -6   7   7   56.50   34.50   1
   6  -7  -8   61.60   48.70   1
  -6   7   8   67.30   48.70   1
   6  -7  -9   69.10   48.50   1
  -6   7   9   59.00   48.40   1
   6  -7 -10   80.30   42.60   1
  -6   7  10   38.20   42.10   1
   6  -7 -11    8.50   26.10   1
  -6   7  11   32.30   26.10   1
  -6   7  12   19.50   27.20   1
   6   8   0  165.50   91.80   1
  -6  -8   0  206.40   92.00   1
   6  -8   0  252.40   95.90   1
  -6   8   0  193.70   94.50   1
   6   8   1   47.30   36.50   1
  -6  -8  -1   26.70   36.40   1
   6  -8  -1   10.90   38.20   1
  -6   8   1  146.90   39.60   1
  -6  -8   1   46.90   37.00   1
   6   8   2   37.60   32.10   1
  -6  -8  -2   22.90   31.90   1
   6  -8  -2   40.60   32.90   1
  -6   8   2   25.80   32.60   1
   6   8   3  313.70  148.80   1
  -6  -8  -3  471.00  149.40   1
   6  -8  -3  568.40  150.60   1
   6   8   4  118.50   73.20   1
  -6  -8  -4  136.50   73.30   1
   6  -8  -4  139.10   73.40   1
  -6   8   4  135.40   73.40   1
   6   8   5  205.70   85.10   1
  -6  -8  -5  167.20   85.10   1
   6  -8  -5  137.90   85.00   1
  -6   8   5  171.90   85.10   1
   6   8   6   65.20   39.20   1
  -6  -8  -6   19.40   38.70   1
   6  -8  -6   71.10   39.30   1
  -6   8   6   56.80   39.00   1
   6   8   7 1344.30  518.80   1
  -6  -8  -7 1623.10  522.60   1
   6  -8  -7 2142.10  520.40   1
  -6   8   7 2154.40  520.30   1
   6  -8  -8   93.30   62.20   1
  -6   8   8  106.80   62.30   1
   6  -8  -9  552.00  173.40   1
  -6   8   9  422.90  172.30   1
   6  -8 -10   92.70   68.30   1
  -6   8  10  205.10   69.40   1
   6  -8 -11  135.80   86.10   1
  -6   8  11  254.70   87.50   1
   6  -8 -12   -0.00   15.70   1
  -6   8  12   13.30   15.90   1
  -6   8  13   68.40   51.70   1
   6   9   0   50.80   46.70   1
  -6  -9   0  107.90   47.10   1
   6  -9   0   29.90   48.30   1
   6   9   1    6.90   12.00   1
  -6  -9  -1   -0.00   11.80   1
   6  -9  -1   19.80   16.90   1
  -6   9   1   18.50   16.70   1
  -6  -9   1    2.30   12.90   1
   6   9  -1   -0.00   12.00   1
   6   9   2    3.50   19.00   1
  -6  -9  -2   10.20   19.00   1
   6  -9  -2   22.00   21.50   1
  -6   9   2  156.60   25.30   1
   6   9   3   16.80   23.10   1
  -6  -9  -3    7.80   23.00   1
   6  -9  -3   44.60   24.80   1
  -6   9   3   19.50   24.60   1
   6   9   4    9.90   25.60   1
  -6  -9  -4   11.60   25.70   1
   6  -9  -4   24.00   25.90   1
  -6   9   4   62.10   26.40   1
   6   9   5   29.90   26.10   1
  -6  -9  -5   14.00   26.00   1
   6  -9  -5   13.50   26.30   1
  -6   9   5   27.70   26.40   1
   6   9   6   40.30   33.80   1
  -6  -9  -6   20.30   33.80   1
   6  -9  -6   15.10   33.90   1
  -6   9   6   73.60   34.00   1
   6   9   7   16.70   18.80   1
  -6  -9  -7   15.20   19.10   1
   6  -9  -7    7.30   17.50   1
  -6   9   7    2.50   17.90   1
   6   9   8   11.80   22.80   1
  -6  -9  -8   21.60   20.90   1
   6  -9  -8    6.60   19.30   1
  -6   9   8   11.30   19.50   1
   6  -9  -9   25.20   25.70   1
  -6   9   9   14.20   25.40   1
   6  -9 -10   17.80   26.00   1
  -6   9  10   20.50   25.90   1
   6  -9 -11    4.40   11.30   1
  -6   9  11    0.80   11.40   1
   6  -9 -12   13.10   26.30   1
  -6   9  12   26.30   26.30   1
   6  -9 -13    4.90   15.30   1
  -6   9  13    6.60   15.90   1
   6  10   0  268.50  126.60   1
  -6 -10   0  348.30  127.30   1
   6  10   1    9.90   24.40   1
  -6 -10  -1   20.90   24.40   1
   6 -10  -1   47.60   30.70   1
  -6  10   1   47.30   30.10   1
   6  10   2   36.70   29.70   1
  -6 -10  -2   21.20   29.50   1
   6 -10  -2   22.60   31.90   1
  -6  10   2   16.60   31.40   1
   6  10   3   95.20   43.60   1
  -6 -10  -3  312.30   45.00   1
   6 -10  -3   15.00   44.00   1
  -6  10   3   29.70   43.80   1
   6  10   4  119.70   46.60   1
  -6 -10  -4   35.90   46.20   1
   6 -10  -4   66.80   47.00   1
  -6  10   4  113.10   47.60   1
   6  10   5   53.50   29.60   1
  -6 -10  -5   23.50   29.30   1
   6 -10  -5   30.10   29.70   1
  -6  10   5    9.90   29.50   1
   6  10   6   14.40   23.90   1
  -6 -10  -6   31.50   24.10   1
   6 -10  -6   11.10   24.00   1
  -6  10   6   14.50   24.00   1
   6  10   7  259.00   86.60   1
  -6 -10  -7  141.30   85.80   1
   6 -10  -7  301.90   86.90   1
  -6  10   7  129.80   85.90   1
   6  10   8   26.50   26.20   1
  -6 -10  -8   18.90   26.60   1
   6 -10  -8   11.60   24.70   1
  -6  10   8   18.10   24.60   1
   6 -10  -9  259.70   85.30   1
  -6  10   9  135.90   84.60   1
   6 -10 -10  176.40   81.60   1
  -6  10  10  143.90   81.30   1
   6 -10 -11   12.50   17.60   1
  -6  10  11    5.50   17.50   1
   6 -10 -12   28.70   26.30   1
  -6  10  12   13.80   26.10   1
   6 -10 -13    5.10   23.50   1
  -6  10  13   63.40   24.70   1
   6  11   1   43.20   39.00   1
  -6 -11  -1   38.50   38.70   1
   6 -11  -1   57.90   41.50   1
   6  11   2  127.10   47.30   1
  -6 -11  -2   59.50   46.90   1
   6 -11  -2   53.40   48.80   1
  -6  11   2   19.60   48.30   1
   6  11   3   11.90   22.40   1
  -6 -11  -3   22.00   22.40   1
   6 -11  -3    6.20   24.00   1
  -6  11   3    5.30   25.60   1
   6  11   4  109.20   43.90   1
  -6 -11  -4   46.10   43.80   1
   6 -11  -4   48.20   44.70   1
  -6  11   4   22.50   44.70   1
   6  11   5   26.40   24.30   1
  -6 -11  -5    7.50   24.20   1
   6 -11  -5   13.30   24.60   1
  -6  11   5   25.90   24.70   1
   6  11   6   19.80   28.90   1
  -6 -11  -6   30.50   29.00   1
   6 -11  -6   25.40   29.30   1
  -6  11   6   23.90   29.30   1
   6  11   7   44.30   32.60   1
  -6 -11  -7   18.40   32.70   1
   6 -11  -7  116.20   33.90   1
  -6  11   7   17.40   32.20   1
   6  11   8  118.50   50.40   1
  -6 -11  -8   30.80   49.90   1
   6 -11  -8   67.40   49.70   1
  -6  11   8  103.60   50.30   1
   6  11   9   10.40   19.30   1
   6 -11  -9    8.80   14.80   1
  -6  11   9   -0.00   15.50   1
   6 -11 -10   12.50   23.00   1
  -6  11  10   18.80   23.10   1
   6 -11 -11    6.00   16.60   1
  -6  11  11    9.00   16.50   1
   6 -11 -12   49.90   48.20   1
  -6  11  12  101.30   48.90   1
  -6 -12  -1  120.10   70.20   1
   6  12   2   66.20   44.90   1
  -6 -12  -2   50.90   44.60   1
   6 -12  -2   98.40   48.70   1
  -6  12   2   25.00   47.20   1
   6  12   3   17.10   24.50   1
  -6 -12  -3   23.60   24.50   1
   6 -12  -3    9.00   27.60   1
  -6  12   3   -0.00   26.50   1
   6  12   4   63.40   32.30   1
  -6 -12  -4   20.10   32.10   1
   6 -12  -4   21.40   33.10   1
  -6  12   4   26.70   32.80   1
   6  12   5  130.10   43.70   1
  -6 -12  -5   39.00   43.10   1
   6 -12  -5   43.00   43.90   1
  -6  12   5   50.20   44.10   1
   6  12   6   22.80   23.40   1
  -6 -12  -6   13.30   22.90   1
   6 -12  -6   10.10   23.50   1
  -6  12   6   17.70   23.40   1
   6  12   7  436.20  169.40   1
  -6 -12  -7  469.70  169.80   1
   6 -12  -7  486.90  170.20   1
  -6  12   7  452.50  170.00   1
   6  12   8   23.80   24.30   1
  -6 -12  -8   21.10   23.80   1
   6 -12  -8    0.00   23.90   1
  -6  12   8   23.40   24.20   1
   6  12   9   46.10   23.30   1
  -6 -12  -9   26.20   23.90   1
   6 -12  -9   11.50   21.40   1
  -6  12   9    4.30   21.20   1
   6 -12 -10    9.50   13.80   1
  -6  12  10    0.00   14.00   1
   6 -12 -11   21.50   29.60   1
  -6  12  11   30.90   29.70   1
   6 -12 -12   11.00   16.30   1
  -6  12  12    4.50   16.20   1
   6  13   2 1708.70  578.80   1
  -6 -13  -2 1958.00  576.50   1
   6 -13  -2 2370.70  599.40   1
   6  13   3   62.70   46.50   1
  -6 -13  -3   69.90   46.50   1
   6 -13  -3   62.50   48.50   1
  -6  13   3   27.60   48.50   1
   6  13   4  296.00  125.30   1
  -6 -13  -4  294.40  125.10   1
   6 -13  -4  277.20  125.60   1
  -6  13   4  372.80  127.30   1
   6  13   5  101.90   67.20   1
  -6 -13  -5   94.70   67.20   1
   6 -13  -5  242.30   69.40   1
  -6  13   5  160.60   68.70   1
   6  13   6  275.90  126.60   1
  -6 -13  -6  268.60  126.70   1
   6 -13  -6  421.70  127.90   1
  -6  13   6  358.80  127.60   1
   6  13   7  185.50   98.50   1
  -6 -13  -7  235.60   98.70   1
   6 -13  -7  206.10   99.00   1
  -6  13   7  223.50   98.80   1
   6  13   8   63.90   35.10   1
  -6 -13  -8   15.90   35.10   1
   6 -13  -8   21.10   35.10   1
  -6  13   8  150.00   36.30   1
   6  13   9    1.90   20.50   1
  -6 -13  -9   -0.00   20.90   1
   6 -13  -9   18.70   20.50   1
  -6  13   9   30.10   21.00   1
   6  13  10  166.60   78.30   1
   6 -13 -10  165.20   75.30   1
  -6  13  10  115.80   75.00   1
   6 -13 -11   32.40   37.10   1
  -6  13  11   51.60   37.30   1
   6  14   3   13.90   21.50   1
  -6 -14  -3   12.90   21.30   1
   6 -14  -3   15.90   27.90   1
  -6  14   3    2.60   26.80   1
   6  14   4    2.40   13.40   1
  -6 -14  -4    7.00   13.50   1
   6 -14  -4    8.50   18.80   1
  -6  14   4    6.00   18.10   1
   6  14   5   89.60   53.60   1
  -6 -14  -5   72.30   53.40   1
   6 -14  -5   87.60   54.70   1
  -6  14   5   65.40   54.00   1
   6  14   6   55.40   46.30   1
  -6 -14  -6   65.90   46.50   1
   6 -14  -6   69.90   47.50   1
  -6  14   6   48.40   47.50   1
   6  14   7   51.80   57.10   1
  -6 -14  -7  139.70   57.50   1
   6 -14  -7  121.20   57.60   1
  -6  14   7  134.70   57.80   1
   6  14   8   13.00   20.70   1
  -6 -14  -8   11.40   20.90   1
   6 -14  -8   12.30   21.10   1
  -6  14   8   14.10   21.20   1
   6  14   9   15.70   27.90   1
  -6 -14  -9   22.80   27.70   1
   6 -14  -9   23.90   28.20   1
  -6  14   9   26.30   28.00   1
   6  14  10   26.00   23.00   1
  -6 -14 -10   -0.00   23.30   1
   6 -14 -10   20.30   21.80   1
  -6  14  10    7.20   21.80   1
   6 -14 -11    7.20   18.80   1
  -6  14  11   15.20   19.30   1
  -6 -15  -3   45.80   39.10   1
   6 -15  -3   34.30   42.40   1
   6  15   4   31.20   32.00   1
  -6 -15  -4   22.90   31.60   1
   6 -15  -4   42.00   34.60   1
  -6  15   4   46.60   34.80   1
   6  15   5   54.90   45.90   1
  -6 -15  -5   71.00   45.90   1
   6 -15  -5   34.80   46.70   1
  -6  15   5  102.30   48.70   1
   6  15   6   82.50   36.10   1
  -6 -15  -6   31.90   35.80   1
   6 -15  -6   33.70   37.20   1
  -6  15   6   15.60   37.00   1
   6  15   7   23.00   34.60   1
  -6 -15  -7   43.30   34.80   1
   6 -15  -7   40.90   35.20   1
  -6  15   7   58.80   35.70   1
   6  15   8   12.00   19.00   1
  -6 -15  -8    8.00   19.10   1
   6 -15  -8   16.80   19.90   1
  -6  15   8    8.00   19.60   1
   6  15   9   53.20   38.30   1
  -6 -15  -9   37.90   38.50   1
   6 -15  -9   40.10   38.60   1
  -6  15   9   35.70   38.20   1
   6  15  10   13.60   29.00   1
  -6 -15 -10   33.00   29.80   1
   6 -15 -10   40.90   29.50   1
  -6  15  10   23.90   29.50   1
  -6 -16  -4    5.40   15.30   1
   6 -16  -4    4.70   22.00   1
  -6  16   4    9.70   22.70   1
   6  16   5   90.90   66.90   1
  -6 -16  -5  144.50   67.20   1
   6 -16  -5  141.30   69.10   1
  -6  16   5   97.00   68.30   1
   6  16   6    0.40   14.00   1
  -6 -16  -6   12.20   14.00   1
   6 -16  -6   -0.00   16.80   1
  -6  16   6    6.30   15.80   1
   6  16   7   85.80   53.80   1
  -6 -16  -7   84.90   54.00   1
   6 -16  -7   74.90   54.80   1
  -6  16   7   60.00   54.60   1
   6  16   8   19.30   16.90   1
  -6 -16  -8   -0.00   16.50   1
   6 -16  -8   12.50   17.20   1
  -6  16   8    8.30   17.40   1
   6  16   9   17.80   27.00   1
  -6 -16  -9   46.10   27.40   1
   6 -16  -9   13.90   27.30   1
  -6  16   9   21.70   27.50   1
   6  16  10    1.80   20.20   1
  -6 -16 -10   10.70   20.20   1
   6 -16 -10   33.70   20.90   1
  -6  16  10   10.90   20.20   1
   6 -17  -4   19.80   31.30   1
   6  17   5   -0.00   10.40   1
  -6 -17  -5    2.70   10.40   1
   6 -17  -5   13.30   16.40   1
  -6  17   5   10.00   16.50   1
   6  17   6    5.20   16.50   1
  -6 -17  -6    7.80   16.40   1
   6 -17  -6   16.30   18.70   1
  -6  17   6   18.30   21.60   1
   6  17   7    6.80   19.20   1
  -6 -17  -7   18.70   19.30   1
   6 -17  -7    9.90   21.50   1
  -6  17   7    8.50   21.20   1
   6  17   8   49.30   31.30   1
  -6 -17  -8   18.80   31.20   1
   6 -17  -8   63.60   32.20   1
  -6  17   8    9.00   32.10   1
   6  17   9   11.30   18.80   1
  -6 -17  -9    6.80   18.60   1
   6 -17  -9    7.90   19.20   1
  -6  17   9   17.90   19.20   1
   6 -18  -4   10.20   23.10   1
  -6 -18  -5    6.50   20.00   1
   6 -18  -5   76.50   26.60   1
  -6  18   5   14.60   24.80   1
   6  18   6   -0.00   14.40   1
  -6 -18  -6    5.80   14.10   1
   6 -18  -6   29.40   20.10   1
  -6  18   6   21.10   18.60   1
   6  18   7  160.40   87.00   1
  -6 -18  -7  141.70   86.50   1
   6 -18  -7  190.30   87.90   1
  -6  18   7  250.90   88.60   1
   6  18   8   22.80   19.50   1
  -6 -18  -8    5.60   19.50   1
   6 -18  -8   13.80   21.70   1
  -6  18   8    0.00   21.00   1
   6 -19  -5   23.40   22.60   1
  -6  19   5   -0.00   15.90   1
  -6 -19  -6   62.50   34.60   1
   6 -19  -6   28.90   35.90   1
  -6  19   6   19.10   35.90   1
   6  19   7    0.00    9.90   1
  -6 -19  -7    3.10    9.50   1
  -6  19   7   11.80   16.30   1
   6 -20  -5   43.40   42.10   1
   7   0   0  194.20   76.30   1
  -7   0   0  113.50   76.00   1
   7   0   1  476.20  180.90   1
  -7   0  -1  417.70  180.70   1
   7   0  -1  673.60  181.70   1
  -7   0   1  549.00  181.10   1
   7   0   2  667.70  194.00   1
  -7   0  -2  648.90  193.80   1
   7   0  -2  459.50  192.50   1
  -7   0   2  561.80  192.80   1
   7   0   3 4686.10 1139.70   1
  -7   0  -3 5012.60 1144.40   1
   7   0  -3 3678.10 1133.60   1
  -7   0   3 4035.00 1135.10   1
   7   0   4 1709.20  287.10   1
  -7   0  -4  860.10  279.70   1
   7   0  -4  761.10  276.70   1
  -7   0   4  892.80  277.10   1
   7   0  -5   17.80   29.20   1
  -7   0   5   34.60   29.50   1
   7   0  -6 1054.40  343.00   1
  -7   0   6 1179.50  343.80   1
   7   0  -7  272.50  134.20   1
  -7   0   7  496.30  135.90   1
   7   0  -8  641.70  214.30   1
  -7   0   8  578.90  212.30   1
   7   1   0    0.00   10.20   1
  -7  -1   0    3.80   10.30   1
   7  -1   0    6.60   10.60   1
  -7   1   0   -0.00   10.90   1
   7   1   1  139.40   70.60   1
  -7  -1  -1  241.50   71.10   1
   7  -1  -1  111.00   70.50   1
  -7   1   1  101.50   70.50   1
  -7   1  -1  131.00   71.20   1
   7  -1   1  153.00   71.60   1
  -7  -1   1   97.80   70.70   1
   7   1  -1  132.80   70.90   1
   7   1   2  233.20   89.30   1
  -7  -1  -2  265.10   89.60   1
   7  -1  -2  113.40   88.60   1
  -7   1   2  116.10   88.70   1
  -7   1  -2  172.00   88.80   1
   7  -1   2  208.30   89.10   1
  -7  -1   2  314.60   89.20   1
   7   1  -2  359.60   89.30   1
   7   1   3  201.00   79.80   1
  -7  -1  -3  208.20   79.80   1
   7  -1  -3  246.40   79.80   1
  -7   1   3  129.00   79.30   1
  -7   1  -3   77.60   80.60   1
   7  -1   3  155.10   81.10   1
  -7  -1   3  141.10   79.20   1
   7   1  -3  127.50   79.20   1
   7   1   4  169.20   27.70   1
  -7  -1  -4  177.60   27.60   1
   7  -1  -4    0.70   20.60   1
  -7   1   4    3.60   20.40   1
  -7   1  -4    2.30   24.50   1
   7  -1   4   24.20   27.10   1
  -7  -1   4   15.90   20.50   1
   7   1  -4    7.70   20.40   1
   7   1   5   20.00   44.80   1
  -7  -1  -5  154.20   46.80   1
   7  -1  -5   44.20   41.60   1
  -7   1   5   40.80   41.60   1
  -7  -1   5   61.50   42.10   1
   7   1  -5   59.00   41.90   1
   7  -1  -6  198.00   66.30   1
  -7   1   6  152.70   65.80   1
  -7  -1   6   76.10   65.60   1
   7   1  -6   91.40   65.70   1
   7  -1  -7   21.60   33.40   1
  -7   1   7   44.90   33.70   1
  -7  -1   7   20.70   33.90   1
   7   1  -7   54.40   34.10   1
   7  -1  -8  139.40   74.90   1
  -7   1   8  145.40   74.80   1
  -7  -1   8  111.00   74.90   1
   7  -1  -9    7.90   19.70   1
  -7   1   9   14.00   20.40   1
   7   2   0   20.60   43.40   1
  -7  -2   0  265.80   45.10   1
   7  -2   0   50.70   43.50   1
  -7   2   0   77.80   43.80   1
   7   2   1   41.50   32.20   1
  -7  -2  -1   32.20   32.10   1
   7  -2  -1   24.70   32.20   1
  -7   2   1   28.80   32.30   1
  -7   2  -1   82.00   33.90   1
   7  -2   1   94.60   34.10   1
  -7  -2   1   13.40   32.00   1
   7   2  -1   22.00   32.10   1
   7   2   2  144.00   60.50   1
  -7  -2  -2  275.90   61.20   1
   7  -2  -2  133.30   60.30   1
  -7   2   2  117.90   60.20   1
  -7   2  -2  161.90   62.10   1
   7  -2   2  126.30   62.30   1
  -7  -2   2   51.30   60.00   1
   7   2  -2   67.10   60.10   1
   7   2   3   92.40   54.20   1
  -7  -2  -3   45.40   53.90   1
   7  -2  -3   96.50   53.70   1
  -7   2   3  100.10   53.80   1
  -7   2  -3   60.30   55.40   1
   7  -2   3   92.20   56.10   1
  -7  -2   3   70.80   53.30   1
   7   2  -3   70.30   53.30   1
   7   2   4  349.50  151.70   1
  -7  -2  -4  446.30  152.50   1
   7  -2  -4  303.00  150.70   1
  -7   2   4  466.00  151.20   1
  -7  -2   4  475.50  151.50   1
   7   2  -4  498.00  151.80   1
   7   2   5   23.80   35.60   1
  -7  -2  -5   68.90   37.60   1
   7  -2  -5   35.30   32.40   1
  -7   2   5   59.20   32.40   1
  -7  -2   5   12.30   32.70   1
   7   2  -5   13.00   32.40   1
   7  -2  -6   77.80   52.20   1
  -7   2   6   73.70   52.20   1
  -7  -2   6   80.80   52.50   1
   7   2  -6   58.70   52.40   1
   7  -2  -7    8.60   11.80   1
  -7   2   7    1.30   11.40   1
  -7  -2   7   -0.00   12.40   1
   7   2  -7    0.80   11.00   1
   7  -2  -8   46.40   39.00   1
  -7   2   8   38.30   38.90   1
   7  -2  -9   52.10   49.10   1
  -7   2   9   80.70   49.30   1
  -7   2  10    5.40   15.90   1
   7   3   0   42.40   25.70   1
  -7  -3   0    5.70   25.20   1
   7  -3   0   21.50   25.90   1
  -7   3   0   10.40   25.80   1
   7   3   1 1215.40  357.30   1
  -7  -3  -1 1069.90  356.70   1
   7  -3  -1 1333.60  357.10   1
  -7   3   1 1125.10  356.30   1
  -7   3  -1 1316.30  357.40   1
   7  -3   1 1362.10  357.50   1
  -7  -3   1 1240.90  356.80   1
   7   3  -1  919.00  355.90   1
   7   3   2  382.20  154.30   1
  -7  -3  -2  402.00  154.40   1
   7  -3  -2  462.40  154.60   1
  -7   3   2  391.40  154.40   1
  -7   3  -2  271.90  155.20   1
   7  -3   2  319.80  155.30   1
  -7  -3   2  616.10  155.10   1
   7   3  -2  681.00  155.30   1
   7   3   3  124.10   34.40   1
  -7  -3  -3   12.00   33.40   1
   7  -3  -3   42.30   33.10   1
  -7   3   3   38.40   33.20   1
  -7   3  -3   30.80   36.50   1
   7  -3   3  125.70   39.60   1
  -7  -3   3   15.60   32.90   1
   7   3  -3   24.20   32.80   1
   7   3   4  490.40  115.90   1
  -7  -3  -4  459.80  115.80   1
   7  -3  -4  459.90  115.80   1
  -7   3   4  149.30  114.50   1
  -7  -3   4  392.30  115.70   1
   7   3  -4  413.50  115.70   1
   7   3   5  162.30   77.80   1
  -7  -3  -5   88.00   77.30   1
   7  -3  -5  135.60   76.40   1
  -7   3   5  193.10   76.60   1
   7   3   6  127.30   60.40   1
  -7  -3  -6  157.80   60.40   1
   7  -3  -6   79.80   56.70   1
  -7   3   6   68.90   56.70   1
  -7  -3   6  187.70   59.00   1
   7   3  -6  159.90   58.50   1
   7  -3  -7    3.70    9.60   1
  -7   3   7   -0.00    8.80   1
   7  -3  -8  223.30   89.70   1
  -7   3   8  156.20   89.30   1
   7  -3  -9  173.90  100.10   1
  -7   3   9  322.10  101.50   1
   7  -3 -10   56.30   41.80   1
  -7   3  10   39.70   41.60   1
  -7   3  11   11.60   21.50   1
   7   4   0   41.30   32.60   1
  -7  -4   0   17.60   32.40   1
   7  -4   0   42.20   34.20   1
  -7   4   0   37.40   33.60   1
   7   4   1   -0.10   16.50   1
  -7  -4  -1    3.90   16.70   1
   7  -4  -1    5.40   16.70   1
  -7   4   1    6.00   17.00   1
  -7   4  -1   51.30   21.60   1
   7  -4   1   43.20   20.20   1
  -7  -4   1    7.10   16.10   1
   7   4  -1    4.20   16.20   1
   7   4   2  105.30   59.70   1
  -7  -4  -2  151.90   60.00   1
   7  -4  -2  195.70   60.20   1
  -7   4   2  124.70   59.80   1
  -7   4  -2   13.60   61.60   1
   7  -4   2   13.20   61.50   1
  -7  -4   2   86.60   59.60   1
   7   4  -2   76.60   59.60   1
   7   4   3   29.10   24.60   1
  -7  -4  -3   13.80   24.50   1
   7  -4  -3   15.40   24.30   1
  -7   4   3   21.30   24.30   1
   7  -4   3   14.10   27.90   1
  -7  -4   3    8.50   24.80   1
   7   4  -3   13.10   24.80   1
   7   4   4   13.30   29.20   1
  -7  -4  -4    4.00   29.10   1
   7  -4  -4   16.70   28.60   1
  -7   4   4   12.10   28.60   1
  -7  -4   4  185.00   30.20   1
   7   4  -4  232.30   31.10   1
   7   4   5   57.10   35.30   1
  -7  -4  -5   14.30   35.10   1
   7  -4  -5   17.00   33.40   1
  -7   4   5   77.00   34.00   1
  -7  -4   5   24.80   33.80   1
   7   4  -5   28.10   34.20   1
   7   4   6   41.20   38.80   1
  -7  -4  -6   12.00   38.40   1
   7  -4  -6   54.40   35.20   1
  -7   4   6   39.80   35.10   1
  -7  -4   6   16.00   35.10   1
   7  -4  -7   27.90   29.70   1
  -7   4   7   22.90   29.50   1
   7  -4  -8  121.60   73.40   1
  -7   4   8  140.50   73.40   1
   7  -4  -9    9.70   17.50   1
  -7   4   9    6.50   17.40   1
   7  -4 -10   24.50   32.40   1
  -7   4  10   32.30   32.40   1
   7  -4 -11    8.20   19.80   1
  -7   4  11   13.40   20.50   1
   7  -5   0   34.00   38.70   1
  -7   5   0   48.80   38.80   1
   7   5   1  169.60  100.40   1
  -7  -5  -1  306.00  100.90   1
   7  -5  -1  278.60  101.60   1
  -7   5   1  272.80  101.40   1
  -7   5  -1  123.40  101.40   1
   7  -5   1  182.80  101.60   1
  -7  -5   1  237.40  100.40   1
   7   5  -1  325.40  100.70   1
   7   5   2  374.90  140.20   1
  -7  -5  -2  224.30  139.80   1
   7  -5  -2  405.70  140.30   1
  -7   5   2  598.40  141.10   1
  -7   5  -2  320.20  142.90   1
   7  -5   2  547.80  146.00   1
  -7  -5   2  375.10  140.30   1
   7   5  -2  544.90  141.40   1
   7   5   3  174.40   77.00   1
  -7  -5  -3  193.10   77.10   1
   7  -5  -3  145.50   77.00   1
  -7   5   3  131.00   77.00   1
  -7  -5   3  114.60   77.10   1
   7   5  -3  117.30   77.10   1
   7   5   4  109.50   56.30   1
  -7  -5  -4  118.10   56.50   1
   7  -5  -4  154.30   56.60   1
  -7   5   4  158.00   56.50   1
  -7  -5   4   44.30   55.90   1
   7   5  -4   42.70   56.00   1
   7   5   5  184.90   87.80   1
  -7  -5  -5  200.60   88.00   1
   7  -5  -5  151.90   87.50   1
  -7   5   5  167.40   87.60   1
  -7  -5   5  268.90   90.00   1
   7   5  -5  204.40   89.20   1
   7   5   6  318.10  126.60   1
  -7  -5  -6  189.80  125.70   1
   7  -5  -6  348.70  125.50   1
  -7   5   6  675.90  127.50   1
   7   5   7   32.70   36.60   1
   7  -5  -7   29.20   33.10   1
  -7   5   7   33.30   33.20   1
   7  -5  -8  831.60  261.90   1
  -7   5   8  771.50  261.60   1
   7  -5  -9   91.30   49.70   1
  -7   5   9   52.30   49.40   1
   7  -5 -10   43.40   46.50   1
  -7   5  10   92.30   46.90   1
   7  -5 -11   41.80   36.30   1
  -7   5  11   31.10   36.00   1
  -7   5  12   12.30   22.10   1
   7   6   0   -0.00   26.30   1
  -7  -6   0   53.90   26.50   1
   7  -6   0   10.90   28.60   1
  -7   6   0   82.20   30.50   1
   7   6   1  111.70   39.10   1
  -7  -6  -1   81.20   38.90   1
   7  -6  -1   12.40   39.70   1
  -7   6   1   24.80   39.20   1
  -7   6  -1   47.80   41.70   1
   7  -6   1   20.50   40.80   1
  -7  -6   1   25.20   38.50   1
   7   6  -1   41.90   38.50   1
   7   6   2   26.20   40.50   1
  -7  -6  -2   43.10   40.60   1
   7  -6  -2   39.50   40.80   1
  -7   6   2   43.40   40.90   1
   7  -6   2  115.50   45.00   1
  -7  -6   2   59.50   40.70   1
   7   6  -2   83.50   40.80   1
   7   6   3   28.70   26.20   1
  -7  -6  -3   11.50   26.20   1
   7  -6  -3   10.30   26.50   1
  -7   6   3    8.40   26.30   1
  -7  -6   3  167.60   28.70   1
   7   6  -3  150.10   28.70   1
   7   6   4   42.40   22.60   1
  -7  -6  -4   10.30   22.30   1
   7  -6  -4   11.40   22.30   1
  -7   6   4   12.40   22.20   1
  -7  -6   4    8.00   23.00   1
   7   6  -4    5.80   22.80   1
   7   6   5   22.50   24.00   1
  -7  -6  -5   26.50   24.50   1
   7  -6  -5   16.70   23.50   1
  -7   6   5    5.10   23.20   1
   7   6   6   83.90   40.20   1
  -7  -6  -6   40.90   39.60   1
   7  -6  -6   16.50   38.50   1
  -7   6   6   81.70   39.00   1
   7   6   7   21.10   38.90   1
  -7  -6  -7   11.90   38.60   1
   7  -6  -7   46.90   36.00   1
  -7   6   7   36.30   35.60   1
   7  -6  -8   84.60   58.00   1
  -7   6   8   91.00   58.00   1
   7  -6  -9   39.00   32.70   1
  -7   6   9   24.00   32.40   1
   7  -6 -10   41.30   34.50   1
  -7   6  10   27.00   34.40   1
   7  -6 -11   37.90   42.40   1
  -7   6  11   67.60   42.70   1
   7  -6 -12    8.30   21.00   1
  -7   6  12   16.00   21.40   1
  -7   6  13    1.70   11.30   1
   7   7   0   -0.00   15.80   1
  -7  -7   0    9.70   15.80   1
   7  -7   0   21.00   20.80   1
  -7   7   0   23.30   19.60   1
   7   7   1  372.50  128.40   1
  -7  -7  -1  376.10  128.50   1
   7  -7  -1  287.40  128.60   1
  -7   7   1  213.00  128.40   1
  -7   7  -1  409.50  133.10   1
   7  -7   1  365.20  132.00   1
  -7  -7   1  374.10  128.90   1
   7   7  -1  401.30  129.10   1
   7   7   2    8.60   24.00   1
  -7  -7  -2   76.80   24.80   1
   7  -7  -2   22.30   25.20   1
  -7   7   2   18.80   25.10   1
  -7  -7   2    5.20   24.30   1
   7   7  -2   10.30   24.20   1
   7   7   3  187.90   77.30   1
  -7  -7  -3  179.30   77.20   1
   7  -7  -3  134.80   77.20   1
  -7   7   3  130.60   77.20   1
  -7  -7   3  123.90   77.50   1
   7   7  -3  101.80   77.50   1
   7   7   4  106.10   51.10   1
  -7  -7  -4   55.80   50.90   1
   7  -7  -4   84.30   51.10   1
  -7   7   4   59.20   51.00   1
   7   7   5  330.90  118.10   1
  -7  -7  -5  178.70  117.60   1
   7  -7  -5  408.60  118.80   1
  -7   7   5  390.60  118.30   1
   7   7   6   25.50   36.40   1
  -7  -7  -6   42.70   36.70   1
   7  -7  -6   51.40   36.40   1
  -7   7   6   32.50   36.60   1
   7   7   7   39.80   34.30   1
  -7  -7  -7   19.80   33.80   1
   7  -7  -7   12.00   32.00   1
  -7   7   7   88.80   32.80   1
   7   7   8   25.70   28.80   1
   7  -7  -8   26.30   25.30   1
  -7   7   8   11.50   25.10   1
   7  -7  -9    4.50   15.50   1
  -7   7   9    8.30   15.60   1
   7  -7 -10   37.80   31.70   1
  -7   7  10   20.70   31.70   1
   7  -7 -11   18.70   26.40   1
  -7   7  11   19.60   26.30   1
   7  -7 -12   11.70   27.50   1
  -7   7  12   39.40   28.00   1
   7  -7 -13   66.00   57.40   1
  -7   7  13  116.50   58.80   1
   7   8   0   47.80   27.80   1
  -7  -8   0    7.50   27.60   1
   7  -8   0   13.80   30.70   1
  -7   8   0   68.50   31.80   1
   7   8   1  335.30  158.80   1
  -7  -8  -1  485.60  159.30   1
   7  -8  -1  457.00  160.40   1
  -7   8   1  787.00  163.20   1
  -7   8  -1  558.00  168.50   1
   7  -8   1  903.00  177.10   1
  -7  -8   1  384.60  159.30   1
   7   8  -1  444.80  159.70   1
   7   8   2  271.20   83.90   1
  -7  -8  -2  198.80   83.60   1
   7  -8  -2  118.00   84.10   1
  -7   8   2  162.30   84.10   1
  -7  -8   2  130.60   83.80   1
   7   8  -2  133.80   83.90   1
   7   8   3  838.50  177.00   1
  -7  -8  -3  315.60  174.70   1
   7  -8  -3  863.50  177.50   1
  -7   8   3  734.00  176.90   1
  -7  -8   3  668.50  182.30   1
   7   8  -3  555.60  181.60   1
   7   8   4  646.30  225.20   1
  -7  -8  -4  582.50  224.90   1
   7  -8  -4  892.60  226.20   1
  -7   8   4  647.70  225.20   1
   7   8   5  173.30   87.20   1
  -7  -8  -5  211.50   87.50   1
   7  -8  -5  179.30   87.30   1
  -7   8   5  149.60   87.20   1
   7   8   6   38.00   39.60   1
  -7  -8  -6  167.90   41.50   1
   7  -8  -6   39.60   39.70   1
  -7   8   6   31.20   39.60   1
  -7  -8  -7   16.50   38.40   1
   7  -8  -7   32.60   37.80   1
  -7   8   7   77.70   38.00   1
   7   8   8  149.90   89.10   1
  -7  -8  -8  172.30   89.90   1
   7  -8  -8  191.00   87.40   1
  -7   8   8  168.00   87.40   1
   7  -8  -9   79.60   36.50   1
  -7   8   9   23.80   36.10   1
   7  -8 -10  467.00  170.70   1
  -7   8  10  451.30  170.30   1
   7  -8 -11  107.50   40.90   1
  -7   8  11   32.60   40.00   1
   7  -8 -12   17.10   23.30   1
  -7   8  12   12.60   22.70   1
   7  -8 -13  204.00   95.50   1
  -7   8  13  178.60   93.20   1
   7   9   0    4.60   17.50   1
  -7  -9   0   10.80   17.60   1
   7  -9   0   16.10   25.10   1
  -7   9   0   19.50   25.10   1
   7   9   1   50.00   36.40   1
  -7  -9  -1   31.80   36.20   1
   7  -9  -1   18.50   38.20   1
  -7   9   1   26.80   38.20   1
  -7  -9   1  164.40   37.90   1
   7   9  -1   28.10   36.60   1
   7   9   2    5.50   15.40   1
  -7  -9  -2    3.90   15.30   1
   7  -9  -2   10.10   16.70   1
  -7   9   2   14.30   16.80   1
  -7  -9   2   14.90   16.80   1
   7   9  -2    3.80   15.90   1
   7   9   3   26.30   19.00   1
  -7  -9  -3    2.00   18.40   1
   7  -9  -3   11.60   20.50   1
  -7   9   3   11.30   19.70   1
   7   9   4   13.10   29.40   1
  -7  -9  -4   38.30   29.30   1
   7  -9  -4   38.60   29.70   1
  -7   9   4   15.00   29.40   1
   7   9   5   31.10   31.90   1
  -7  -9  -5   23.30   31.80   1
   7  -9  -5   49.50   32.30   1
  -7   9   5   24.90   31.90   1
   7   9   6    3.30   20.30   1
  -7  -9  -6   20.80   20.80   1
   7  -9  -6   18.20   20.90   1
  -7   9   6    9.90   20.40   1
   7   9   7    4.60   22.30   1
  -7  -9  -7   21.50   22.70   1
   7  -9  -7   30.60   22.80   1
  -7   9   7    4.90   22.90   1
   7   9   8   35.90   39.80   1
  -7  -9  -8   79.40   40.50   1
   7  -9  -8   69.40   38.70   1
  -7   9   8   18.50   38.50   1
   7   9   9   21.80   25.90   1
   7  -9  -9    3.00   23.30   1
  -7   9   9   32.60   23.50   1
   7  -9 -10   53.40   26.00   1
  -7   9  10    7.80   25.50   1
   7  -9 -11    9.90   18.80   1
  -7   9  11    9.70   18.80   1
   7  -9 -12   17.00   28.80   1
  -7   9  12   34.10   29.00   1
   7  -9 -13   22.70   29.80   1
  -7   9  13   25.40   29.60   1
   7  10   0   21.60   21.20   1
  -7 -10   0    4.80   20.80   1
   7 -10   0   46.60   27.40   1
   7  10   1   25.90   28.40   1
  -7 -10  -1   19.50   28.30   1
   7 -10  -1   22.90   31.10   1
  -7  10   1   41.70   31.30   1
  -7 -10   1   10.20   28.90   1
   7  10  -1   49.20   29.40   1
   7  10   2   26.90   33.70   1
  -7 -10  -2   32.20   33.60   1
   7 -10  -2   57.70   36.20   1
  -7  10   2   52.90   36.30   1
   7  10   3  144.00   88.00   1
  -7 -10  -3  180.00   88.20   1
   7 -10  -3  300.30   90.10   1
  -7  10   3  194.80   88.90   1
   7  10   4  130.90   73.90   1
  -7 -10  -4  187.60   74.20   1
   7 -10  -4  191.00   74.50   1
  -7  10   4   82.30   74.20   1
   7  10   5    4.60   22.70   1
  -7 -10  -5   20.10   22.80   1
   7 -10  -5   19.20   23.20   1
  -7  10   5   29.70   23.20   1
   7  10   6   97.50   51.70   1
  -7 -10  -6  149.30   52.10   1
   7 -10  -6   76.60   51.70   1
  -7  10   6   39.70   51.50   1
   7  10   7   99.60   74.10   1
  -7 -10  -7  187.00   74.80   1
   7 -10  -7  151.90   74.50   1
  -7  10   7  135.90   74.40   1
   7  10   8   67.20   32.70   1
  -7 -10  -8   10.20   31.50   1
   7 -10  -8    7.50   31.00   1
  -7  10   8   60.00   31.20   1
   7  10   9   35.30   30.50   1
  -7 -10  -9   12.30   29.00   1
   7 -10  -9   12.60   27.10   1
  -7  10   9   40.10   27.50   1
   7 -10 -10    8.90   16.90   1
  -7  10  10    6.70   16.70   1
   7 -10 -11   53.60   31.90   1
  -7  10  11   19.60   31.60   1
   7 -10 -12   -0.00   14.60   1
  -7  10  12   12.70   14.80   1
   7  11   0   24.70   23.10   1
  -7 -11   0    7.40   22.90   1
   7  11   1   26.40   30.50   1
  -7 -11  -1   32.20   30.50   1
   7 -11  -1   56.30   36.50   1
  -7  11   1   19.60   34.60   1
  -7 -11   1   18.00   30.70   1
   7  11   2   31.00   32.50   1
  -7 -11  -2   24.80   32.40   1
   7 -11  -2   36.50   34.90   1
  -7  11   2   62.40   34.90   1
   7  11   3   12.60   24.40   1
  -7 -11  -3   36.60   24.50   1
   7 -11  -3   -0.00   25.70   1
  -7  11   3    8.90   25.70   1
   7  11   4   29.30   32.20   1
  -7 -11  -4   27.70   32.20   1
   7 -11  -4   55.40   33.60   1
  -7  11   4   18.90   33.00   1
   7  11   5   18.20   30.00   1
  -7 -11  -5   21.90   30.20   1
   7 -11  -5   37.30   30.40   1
  -7  11   5   34.90   30.50   1
   7  11   6   -0.00   13.90   1
  -7 -11  -6    9.00   14.00   1
   7 -11  -6    7.30   14.60   1
  -7  11   6    7.60   14.50   1
   7  11   7   68.60   29.10   1
  -7 -11  -7   16.80   29.00   1
   7 -11  -7   12.70   28.90   1
  -7  11   7   17.70   28.60   1
   7  11   8   18.50   30.40   1
  -7 -11  -8   48.20   31.00   1
   7 -11  -8   26.40   30.70   1
  -7  11   8   21.70   30.60   1
   7  11   9  100.20   26.70   1
  -7 -11  -9   11.40   25.00   1
   7 -11  -9   11.50   22.90   1
  -7  11   9    8.40   22.90   1
   7  11  10   61.10   46.70   1
   7 -11 -10   75.00   45.10   1
  -7  11  10   44.70   44.80   1
   7 -11 -11   14.30   26.70   1
  -7  11  11   30.90   26.90   1
   7 -11 -12    4.00   16.40   1
  -7  11  12   10.50   16.30   1
   7  12   0   35.10   35.20   1
  -7 -12   0   34.30   35.50   1
   7  12   1  157.40   77.00   1
  -7 -12  -1  119.70   76.50   1
   7 -12  -1  184.00   81.10   1
  -7  12   1  170.30   79.90   1
   7  12   2   81.40   54.20   1
  -7 -12  -2   86.10   54.20   1
   7 -12  -2   74.70   56.40   1
  -7  12   2   58.80   55.80   1
   7  12   3   32.70   33.60   1
  -7 -12  -3   43.90   33.70   1
   7 -12  -3    4.10   35.80   1
  -7  12   3   16.00   36.20   1
   7  12   4  468.00  203.20   1
  -7 -12  -4  650.30  204.20   1
   7 -12  -4  862.50  207.00   1
  -7  12   4  647.30  204.70   1
   7  12   5   41.50   33.60   1
  -7 -12  -5   21.00   33.70   1
   7 -12  -5   53.50   34.70   1
  -7  12   5   20.80   34.60   1
   7  12   6    8.10   19.10   1
  -7 -12  -6   11.70   18.90   1
   7 -12  -6    8.50   19.50   1
  -7  12   6   13.20   19.70   1
   7  12   7    2.00   19.30   1
  -7 -12  -7    8.70   19.40   1
   7 -12  -7   42.60   20.10   1
  -7  12   7    9.40   19.80   1
   7  12   8   42.00   39.30   1
  -7 -12  -8   46.70   39.60   1
   7 -12  -8   36.30   39.50   1
  -7  12   8   46.00   39.40   1
   7  12   9   55.40   32.00   1
  -7 -12  -9   34.80   31.50   1
   7 -12  -9   18.00   30.60   1
  -7  12   9   23.10   31.00   1
   7  12  10  204.50   78.90   1
   7 -12 -10  106.70   74.80   1
  -7  12  10  192.20   75.50   1
   7 -12 -11   19.60   21.50   1
  -7  12  11    7.00   21.60   1
   7 -12 -12   10.80   22.50   1
  -7  12  12   19.30   22.60   1
   7  13   1 1377.20  361.10   1
  -7 -13  -1 1007.20  349.10   1
   7  13   2  175.50   98.20   1
  -7 -13  -2  217.00   98.30   1
   7 -13  -2  317.50  102.80   1
  -7  13   2  210.70  101.40   1
   7  13   3  118.70   60.10   1
  -7 -13  -3  100.30   59.90   1
   7 -13  -3   79.10   62.00   1
  -7  13   3   64.60   61.50   1
   7  13   4  407.10  136.00   1
  -7 -13  -4  306.80  135.50   1
   7 -13  -4  365.20  136.40   1
  -7  13   4  304.90  136.20   1
   7  13   5  462.40  168.30   1
  -7 -13  -5  549.90  168.70   1
   7 -13  -5  524.80  169.90   1
  -7  13   5  357.40  168.60   1
   7  13   6  281.70   74.60   1
  -7 -13  -6  227.20   74.40   1
   7 -13  -6   76.50   73.40   1
  -7  13   6  315.50   75.50   1
   7  13   7   27.20   29.40   1
  -7 -13  -7   23.20   29.50   1
   7 -13  -7   49.10   30.20   1
  -7  13   7   13.30   29.80   1
   7  13   8  159.80   84.80   1
  -7 -13  -8  152.30   85.20   1
   7 -13  -8  177.50   85.20   1
  -7  13   8  179.50   85.20   1
   7  13   9  151.20   55.00   1
  -7 -13  -9  146.10   55.30   1
   7 -13  -9  220.90   56.10   1
  -7  13   9   35.80   54.10   1
   7  13  10  104.00   57.30   1
  -7 -13 -10  157.90   60.10   1
   7 -13 -10  111.10   56.30   1
  -7  13  10   61.80   55.80   1
   7 -13 -11   78.90   32.20   1
  -7  13  11   15.10   31.70   1
  -7 -14  -1   -0.00    6.70   1
   7  14   2   13.10   28.80   1
  -7 -14  -2   38.40   28.60   1
   7 -14  -2   -0.00   34.30   1
  -7  14   2   29.50   32.40   1
   7  14   3  105.30   62.90   1
  -7 -14  -3   95.10   62.80   1
   7 -14  -3  125.30   65.60   1
  -7  14   3   88.40   64.60   1
   7  14   4    8.70   23.30   1
  -7 -14  -4   21.50   23.30   1
   7 -14  -4   22.30   26.20   1
  -7  14   4   21.20   28.00   1
   7  14   5   21.60   17.50   1
  -7 -14  -5    1.10   17.30   1
   7 -14  -5   12.80   21.80   1
  -7  14   5    6.30   19.70   1
   7  14   6    8.60   25.10   1
  -7 -14  -6   32.10   25.30   1
   7 -14  -6   27.90   26.50   1
  -7  14   6    8.70   26.80   1
   7  14   7    1.90   19.30   1
  -7 -14  -7   15.60   18.80   1
   7 -14  -7    5.80   19.50   1
  -7  14   7   16.10   19.60   1
   7  14   8   12.30   24.30   1
  -7 -14  -8   25.40   24.50   1
   7 -14  -8   15.10   24.60   1
  -7  14   8   19.70   24.90   1
   7  14   9    8.40   19.40   1
  -7 -14  -9   15.50   19.70   1
   7 -14  -9    8.00   19.90   1
  -7  14   9    8.30   19.30   1
   7  14  10   22.80   20.80   1
  -7 -14 -10   44.70   21.70   1
   7 -14 -10    5.20   19.60   1
  -7  14  10    1.20   20.70   1
   7  14  11   21.80   34.30   1
   7 -14 -11   24.00   32.40   1
  -7  14  11   45.60   32.80   1
  -7 -15  -2   79.30   50.50   1
   7 -15  -2   51.20   52.20   1
   7  15   3  118.90   58.50   1
  -7 -15  -3   65.40   57.60   1
   7 -15  -3  149.10   61.60   1
  -7  15   3  106.00   61.80   1
   7  15   4   14.70   22.90   1
  -7 -15  -4   10.90   22.90   1
   7 -15  -4   29.90   27.80   1
  -7  15   4   41.80   27.40   1
   7  15   5   24.70   27.70   1
  -7 -15  -5   25.60   27.80   1
   7 -15  -5   12.40   28.80   1
  -7  15   5   17.00   29.20   1
   7  15   6   38.50   45.30   1
  -7 -15  -6   77.60   45.70   1
   7 -15  -6  204.10   49.10   1
  -7  15   6  106.50   47.30   1
   7  15   7   26.70   27.50   1
  -7 -15  -7   86.60   28.50   1
   7 -15  -7   -0.00   27.80   1
  -7  15   7   21.60   28.10   1
   7  15   8   18.90   29.20   1
  -7 -15  -8   30.50   29.40   1
   7 -15  -8   41.40   30.00   1
  -7  15   8   21.00   29.70   1
   7  15   9    5.20   17.50   1
  -7 -15  -9   48.20   19.00   1
   7 -15  -9   10.20   18.30   1
  -7  15   9   -0.00   17.80   1
   7  15  10   14.60   24.70   1
  -7 -15 -10   26.60   25.20   1
   7 -15 -10   16.60   24.80   1
  -7  15  10   10.70   24.90   1
   7  16   3  256.40  100.00   1
  -7 -16  -3  210.80   97.30   1
   7 -16  -3  252.20  101.30   1
  -7  16   3  140.60   98.30   1
   7  16   4   71.50   56.80   1
  -7 -16  -4   84.60   56.80   1
   7 -16  -4   97.30   59.20   1
  -7  16   4  106.30   59.30   1
   7  16   5   19.30   27.00   1
  -7 -16  -5   30.70   26.90   1
   7 -16  -5    4.60   28.50   1
  -7  16   5   13.80   30.30   1
   7  16   6   65.10   49.00   1
  -7 -16  -6   77.00   49.10   1
   7 -16  -6  134.00   51.40   1
  -7  16   6   40.80   49.60   1
   7  16   7   23.00   29.80   1
  -7 -16  -7   20.20   29.70   1
   7 -16  -7   35.40   31.10   1
  -7  16   7  132.20   33.60   1
   7  16   8   26.00   35.90   1
  -7 -16  -8   46.60   35.90   1
   7 -16  -8   52.20   36.30   1
  -7  16   8   32.00   36.20   1
   7  16   9    7.00   20.20   1
  -7 -16  -9   27.10   20.50   1
   7 -16  -9   21.60   20.90   1
  -7  16   9   -0.00   20.60   1
  -7 -17  -3   24.40   27.60   1
   7 -17  -3   13.20   31.10   1
   7  17   4    8.60   22.30   1
  -7 -17  -4   14.30   22.10   1
   7 -17  -4   29.50   27.40   1
  -7  17   4   28.20   28.80   1
   7  17   5   93.70   39.50   1
  -7 -17  -5   41.20   38.70   1
   7 -17  -5   24.80   41.50   1
  -7  17   5   29.90   40.80   1
   7  17   6   23.00   26.60   1
  -7 -17  -6   21.50   26.50   1
   7 -17  -6    9.80   27.70   1
  -7  17   6   24.30   28.40   1
   7  17   7   12.30   18.20   1
  -7 -17  -7    6.80   18.40   1
   7 -17  -7   23.20   21.20   1
  -7  17   7   -0.00   20.50   1
   7  17   8    7.00   16.20   1
  -7 -17  -8    3.40   16.60   1
   7 -17  -8   14.00   17.50   1
  -7  17   8   12.00   17.90   1
  -7 -18  -4  148.40   82.70   1
   7 -18  -4  257.50   88.80   1
  -7  18   4  118.30   83.80   1
   7  18   5   48.40   35.20   1
  -7 -18  -5   31.50   34.50   1
   7 -18  -5   42.40   37.60   1
  -7  18   5   21.50   36.80   1
   7  18   6   38.90   25.20   1
  -7 -18  -6   13.80   24.80   1
   7 -18  -6    0.00   26.50   1
  -7  18   6  135.30   32.30   1
   7  18   7   24.90   26.90   1
  -7 -18  -7   37.00   27.00   1
   7 -18  -7    6.30   29.50   1
  -7  18   7   -0.00   27.70   1
   7  18   8   28.10   31.10   1
  -7 -18  -8   23.40   31.20   1
  -7  18   8  179.00   36.60   1
   7 -19  -4   34.10   38.60   1
  -7 -19  -5   62.80   26.00   1
   7 -19  -5   -0.00   28.40   1
  -7  19   5    2.00   29.40   1
   7  19   6   30.30   24.00   1
  -7 -19  -6   10.30   23.50   1
   7 -19  -6   23.60   28.20   1
  -7  19   6   28.10   26.90   1
  -7 -20  -5   34.00   21.50   1
   7 -20  -5   -0.00   27.10   1
  -7  20   5   -0.00   24.10   1
   8   0   0 7475.70 2085.60   1
  -8   0   0 8228.00 2087.40   1
   8   0   1   28.90   38.30   1
  -8   0  -1   26.80   38.10   1
   8   0  -1   61.50   38.20   1
  -8   0   1   50.30   38.10   1
   8   0   2 1506.80  504.70   1
  -8   0  -2 1407.20  504.30   1
   8   0  -2 2484.70  508.10   1
  -8   0   2 2247.70  507.20   1
   8   0   3   41.60   47.30   1
  -8   0  -3   42.30   47.30   1
   8   0  -3  113.40   47.30   1
  -8   0   3   59.60   47.00   1
   8   0   4 4693.20 1694.00   1
  -8   0  -4 6077.50 1701.00   1
   8   0  -4 8545.50 1704.10   1
  -8   0   4 7468.50 1698.20   1
   8   0   5 1218.70  291.60   1
  -8   0  -5 1028.60  289.60   1
   8   0  -5  812.10  280.30   1
  -8   0   5  859.00  280.20   1
   8   0  -6 6799.90 1751.10   1
  -8   0   6 6308.90 1744.30   1
   8   0  -7   36.00   38.30   1
  -8   0   7   48.50   38.70   1
   8   0  -8 3352.60  872.50   1
  -8   0   8 2916.40  865.90   1
   8   0  -9   28.60   36.50   1
  -8   0   9   47.20   36.90   1
  -8   0  10  660.40  234.10   1
   8   1   0   24.80   23.40   1
  -8  -1   0    4.00   23.40   1
   8  -1   0   16.60   23.60   1
  -8   1   0   20.90   23.60   1
   8   1   1  702.10  194.10   1
  -8  -1  -1  497.30  193.30   1
   8  -1  -1  543.30  193.40   1
  -8   1   1  527.10  193.40   1
  -8   1  -1  511.90  193.90   1
   8  -1   1  520.50  193.80   1
  -8  -1   1  564.50  193.90   1
   8   1  -1  589.80  194.00   1
   8   1   2   29.30   27.40   1
  -8  -1  -2   35.60   27.90   1
   8  -1  -2   19.90   27.20   1
  -8   1   2   21.50   27.40   1
  -8   1  -2   28.40   27.70   1
   8  -1   2   36.80   28.60   1
  -8  -1   2   11.20   26.70   1
   8   1  -2    8.50   27.00   1
   8   1   3  279.40   93.40   1
  -8  -1  -3  192.80   92.60   1
   8  -1  -3  140.10   92.10   1
  -8   1   3  126.50   92.10   1
  -8   1  -3  296.00   94.50   1
   8  -1   3  275.40   94.20   1
  -8  -1   3  296.90   92.70   1
   8   1  -3  369.40   93.00   1
   8   1   4   85.10   53.30   1
  -8  -1  -4   85.90   53.80   1
   8  -1  -4   68.30   51.60   1
  -8   1   4   70.00   51.80   1
  -8   1  -4   16.00   53.60   1
   8  -1   4   27.20   53.50   1
  -8  -1   4   81.90   51.60   1
   8   1  -4   94.50   51.60   1
   8   1   5  302.10  103.30   1
  -8  -1  -5  259.10  102.80   1
   8  -1  -5  290.00  100.80   1
  -8   1   5  244.30  100.60   1
   8  -1   5  218.40  104.00   1
  -8  -1   5  148.20  100.30   1
   8   1  -5  223.00  100.70   1
   8   1   6   49.80   74.80   1
   8  -1  -6  176.90   74.20   1
  -8   1   6  151.60   74.00   1
  -8  -1   6  146.90   74.20   1
   8   1  -6  135.50   74.10   1
   8  -1  -7 1402.90  344.30   1
  -8   1   7 1778.30  348.10   1
  -8  -1   7 1012.70  341.70   1
   8   1  -7  845.10  340.70   1
   8  -1  -8  137.10   82.70   1
  -8   1   8  162.50   82.80   1
  -8  -1   8  173.80   83.50   1
   8   1  -8  198.70   84.00   1
   8  -1  -9   89.80   67.60   1
  -8   1   9  109.40   67.50   1
  -8  -1   9  230.10   70.80   1
   8   1  -9  164.70   69.30   1
   8  -1 -10   12.60   23.00   1
  -8   1  10   14.80   23.40   1
  -8   1  11   27.60   31.90   1
   8   2   0 1228.90  374.40   1
  -8  -2   0 1374.10  374.80   1
   8  -2   0 1218.70  374.40   1
  -8   2   0 1134.90  374.10   1
   8   2   1  116.90   67.90   1
  -8  -2  -1  119.30   68.00   1
   8  -2  -1  135.60   68.10   1
  -8   2   1  133.00   68.00   1
  -8   2  -1   75.40   68.50   1
   8  -2   1   77.30   68.40   1
  -8  -2   1  148.70   68.20   1
   8   2  -1  129.80   68.10   1
   8   2   2   55.90   47.70   1
  -8  -2  -2   28.20   47.70   1
   8  -2  -2   42.50   47.60   1
  -8   2   2   45.10   47.60   1
  -8   2  -2  229.50   49.60   1
   8  -2   2  199.60   49.40   1
  -8  -2   2  157.00   48.40   1
   8   2  -2  186.60   48.70   1
   8   2   3   74.70   41.10   1
  -8  -2  -3   23.10   40.50   1
   8  -2  -3   55.70   40.80   1
  -8   2   3   74.60   40.90   1
  -8   2  -3  132.30   44.30   1
   8  -2   3  275.10   46.90   1
  -8  -2   3   29.40   39.90   1
   8   2  -3   34.50   40.00   1
   8   2   4  501.30  177.90   1
  -8  -2  -4  442.80  177.70   1
   8  -2  -4  488.70  177.60   1
  -8   2   4  620.30  178.20   1
  -8   2  -4  376.80  180.10   1
   8  -2   4  947.10  188.80   1
  -8  -2   4  452.90  177.60   1
   8   2  -4  485.20  177.70   1
   8   2   5   42.90   32.00   1
  -8  -2  -5   18.20   31.70   1
   8  -2  -5   13.00   28.70   1
  -8   2   5   11.50   28.60   1
  -8  -2   5   88.70   29.80   1
   8   2  -5   36.40   29.00   1
   8   2   6  309.30  149.50   1
  -8  -2  -6  299.90  149.00   1
   8  -2  -6  342.30  146.10   1
  -8   2   6  749.50  147.80   1
  -8  -2   6  363.30  146.60   1
   8   2  -6  336.60  146.60   1
   8  -2  -7   47.40   39.90   1
  -8   2   7   44.00   39.90   1
  -8  -2   7   31.80   40.10   1
   8   2  -7   64.70   40.80   1
   8  -2  -8  593.00  206.80   1
  -8   2   8  569.20  206.80   1
  -8  -2   8  715.50  212.90   1
   8   2  -8  568.10  211.00   1
   8  -2  -9   25.80   28.10   1
  -8   2   9   18.30   28.10   1
   8  -2 -10   50.80   43.50   1
  -8   2  10   50.00   43.40   1
   8  -2 -11   11.90   16.20   1
  -8   2  11    0.30   16.80   1
   8   3   0  326.80  111.20   1
  -8  -3   0  170.20  110.60   1
   8  -3   0  502.50  112.90   1
  -8   3   0  612.90  114.20   1
   8   3   1   49.00   47.70   1
  -8  -3  -1   37.90   47.70   1
   8  -3  -1   54.50   47.80   1
  -8   3   1   42.50   47.90   1
  -8   3  -1  267.50   50.10   1
   8  -3   1  331.60   50.90   1
  -8  -3   1  123.20   48.50   1
   8   3  -1   92.50   48.20   1
   8   3   2    9.80   22.90   1
  -8  -3  -2   12.80   23.00   1
   8  -3  -2   11.30   23.00   1
  -8   3   2   18.70   23.00   1
  -8   3  -2   54.30   27.10   1
   8  -3   2   63.50   27.40   1
  -8  -3   2    9.00   22.80   1
   8   3  -2   19.90   23.00   1
   8   3   3 1237.30  366.90   1
  -8  -3  -3 1485.80  368.50   1
   8  -3  -3 1412.40  368.80   1
  -8   3   3  991.60  366.30   1
  -8   3  -3 1423.60  370.80   1
   8  -3   3 1368.90  370.20   1
  -8  -3   3 1099.40  365.90   1
   8   3  -3 1127.80  366.20   1
   8   3   4   33.10   38.80   1
  -8  -3  -4   40.20   38.60   1
   8  -3  -4   20.90   37.70   1
  -8   3   4   23.80   38.00   1
  -8   3  -4   52.60   40.70   1
   8  -3   4  224.70   47.10   1
  -8  -3   4   90.20   38.30   1
   8   3  -4   73.90   38.10   1
   8   3   5  475.00  139.60   1
  -8  -3  -5  265.80  138.30   1
   8  -3  -5  541.10  138.40   1
  -8   3   5  399.10  137.70   1
  -8  -3   5  295.40  137.50   1
   8   3  -5  281.80  137.40   1
   8   3   6  424.20  126.60   1
  -8  -3  -6  443.10  127.60   1
   8  -3  -6  240.10  122.80   1
  -8   3   6  310.60  123.00   1
  -8  -3   6  290.90  123.70   1
   8   3  -6  314.50  124.00   1
   8  -3  -7  485.60  180.50   1
  -8   3   7  459.40  180.20   1
  -8  -3   7  700.90  186.50   1
   8   3  -7  677.30  187.10   1
   8  -3  -8    7.20   16.80   1
  -8   3   8   14.60   16.90   1
  -8  -3   8   -0.00   16.90   1
   8  -3  -9    5.30   26.70   1
  -8   3   9   95.70   28.20   1
   8  -3 -10   67.10   53.60   1
  -8   3  10   83.30   53.70   1
   8  -3 -11   19.50   19.80   1
  -8   3  11   -0.00   20.10   1
  -8   3  12   -0.00    9.10   1
   8   4   0   21.00   33.30   1
  -8  -4   0   42.00   33.60   1
   8  -4   0   26.90   34.70   1
  -8   4   0   53.90   34.90   1
   8   4   1    3.70   29.10   1
  -8  -4  -1    6.10   29.00   1
   8  -4  -1   64.70   29.60   1
  -8   4   1   63.20   29.70   1
  -8   4  -1   41.20   30.00   1
   8  -4   1   50.80   30.10   1
  -8  -4   1   13.00   28.90   1
   8   4  -1   15.50   28.90   1
   8   4   2   95.50   57.20   1
  -8  -4  -2   72.70   57.20   1
   8  -4  -2   89.90   57.40   1
  -8   4   2   71.10   57.30   1
  -8   4  -2   67.20   59.30   1
   8  -4   2  100.60   59.80   1
  -8  -4   2   94.00   57.20   1
   8   4  -2   97.80   57.20   1
   8   4   3  210.00   75.50   1
  -8  -4  -3  184.80   75.50   1
   8  -4  -3  161.60   75.30   1
  -8   4   3  156.10   75.30   1
  -8   4  -3   10.00   77.10   1
   8  -4   3   66.00   78.00   1
  -8  -4   3  128.50   75.20   1
   8   4  -3  135.70   75.20   1
   8   4   4  288.70  108.70   1
  -8  -4  -4  153.10  107.90   1
   8  -4  -4  386.50  108.80   1
  -8   4   4  216.30  108.00   1
  -8  -4   4  417.70  109.30   1
   8   4  -4  387.40  109.00   1
   8   4   5   61.00   37.60   1
  -8  -4  -5   55.60   37.70   1
   8  -4  -5   28.30   36.90   1
  -8   4   5   20.30   36.80   1
  -8  -4   5   40.20   37.10   1
   8   4  -5   52.90   37.10   1
   8   4   6   56.50   39.00   1
  -8  -4  -6   58.90   38.80   1
   8  -4  -6   39.60   36.50   1
  -8   4   6   17.30   36.30   1
  -8  -4   6  107.60   37.90   1
   8   4  -6   56.50   37.30   1
   8   4   7  128.60   85.10   1
  -8  -4  -7   59.40   83.50   1
   8  -4  -7  211.10   82.40   1
  -8   4   7  224.20   82.40   1
  -8  -4   7  155.50   83.30   1
   8   4  -7  121.50   82.90   1
   8  -4  -8  108.50   61.10   1
  -8   4   8   86.10   61.10   1
   8  -4  -9   20.50   27.90   1
  -8   4   9   22.30   27.90   1
   8  -4 -10   14.50   31.40   1
  -8   4  10   63.40   31.90   1
   8  -4 -11    9.30   21.60   1
  -8   4  11   13.70   21.20   1
   8  -4 -12   21.40   25.60   1
  -8   4  12   13.70   26.00   1
  -8   4  13   26.30   31.20   1
   8   5   0   27.80   25.50   1
  -8  -5   0   18.40   25.20   1
   8  -5   0   14.10   26.40   1
  -8   5   0    8.30   25.80   1
   8   5   1  212.30  123.60   1
  -8  -5  -1  311.30  123.90   1
  -8   5  -1  287.60  125.10   1
   8  -5   1  622.50  127.60   1
   8   5  -1  409.00  124.00   1
   8   5   2   64.20   57.00   1
  -8  -5  -2  110.90   57.20   1
   8  -5  -2   48.20   57.10   1
  -8   5   2  160.20   57.70   1
  -8   5  -2  106.50   60.20   1
   8  -5   2  137.70   60.50   1
  -8  -5   2   87.60   57.20   1
   8   5  -2  140.40   57.50   1
   8   5   3 2070.60  647.90   1
  -8  -5  -3 2302.50  648.90   1
   8  -5  -3 2124.00  649.20   1
  -8   5   3 2059.40  649.80   1
  -8   5  -3 2628.80  686.00   1
   8  -5   3 2907.60  684.10   1
  -8  -5   3 2835.50  655.00   1
   8   5  -3 3029.20  657.40   1
   8   5   4   48.80   29.50   1
  -8  -5  -4   33.60   29.60   1
   8  -5  -4   11.20   29.30   1
  -8   5   4   53.70   29.40   1
  -8  -5   4    9.20   29.00   1
   8   5  -4   10.20   29.30   1
   8   5   5 1910.80  450.60   1
  -8  -5  -5 1285.30  447.10   1
   8  -5  -5 1904.40  449.40   1
  -8   5   5 1485.90  448.10   1
  -8  -5   5 1389.20  450.70   1
   8   5  -5 1363.00  451.70   1
   8   5   6  504.00  163.70   1
  -8  -5  -6  414.70  163.20   1
   8  -5  -6  432.00  162.00   1
  -8   5   6  394.90  161.90   1
  -8  -5   6  532.60  166.40   1
   8   5  -6  467.00  166.00   1
   8   5   7 4074.60  899.30   1
  -8  -5  -7 5310.90  937.30   1
   8  -5  -7 2531.00  874.30   1
  -8   5   7 3948.30  880.20   1
   8  -5  -8   48.90   45.70   1
  -8   5   8   67.70   45.80   1
   8  -5  -9 1257.30  345.60   1
  -8   5   9 1021.40  342.70   1
   8  -5 -10  106.90   56.90   1
  -8   5  10   70.90   56.50   1
   8  -5 -11   16.10   19.70   1
  -8   5  11    4.70   19.40   1
   8  -5 -12   16.80   26.00   1
  -8   5  12   18.20   25.80   1
   8  -5 -13  279.50  146.80   1
  -8   5  13  500.90  154.30   1
   8   6   0  336.20  152.20   1
  -8  -6   0  400.30  152.50   1
   8  -6   0  470.60  153.20   1
  -8   6   0  453.70  153.10   1
   8   6   1   15.00   16.90   1
  -8  -6  -1   -0.00   16.10   1
   8  -6  -1   16.00   18.00   1
  -8   6   1   10.10   18.50   1
  -8   6  -1   -0.00   21.30   1
   8  -6   1   20.70   22.10   1
  -8  -6   1    8.80   16.10   1
   8   6  -1    4.40   16.40   1
   8   6   2    8.60   29.00   1
  -8  -6  -2   13.80   28.80   1
   8  -6  -2   16.60   28.90   1
  -8   6   2   30.40   29.10   1
  -8   6  -2   14.10   33.40   1
   8  -6   2  130.70   37.60   1
  -8  -6   2   34.20   28.70   1
   8   6  -2   30.80   28.60   1
   8   6   3   23.80   33.20   1
  -8  -6  -3   31.10   33.40   1
   8  -6  -3   44.50   33.70   1
  -8   6   3   23.10   33.50   1
  -8  -6   3   33.10   33.60   1
   8   6  -3   49.00   33.70   1
   8   6   4   90.20   54.30   1
  -8  -6  -4   95.00   54.30   1
   8  -6  -4   95.80   54.30   1
  -8   6   4   41.00   54.00   1
  -8  -6   4  162.60   55.20   1
   8   6  -4  215.40   56.10   1
   8   6   5   -0.00   15.90   1
  -8  -6  -5   -0.00   15.00   1
   8  -6  -5   10.40   15.00   1
  -8   6   5   10.30   15.30   1
  -8  -6   5    3.70   16.30   1
   8   6  -5    5.60   15.60   1
   8   6   6   59.10   41.10   1
  -8  -6  -6   55.70   41.20   1
   8  -6  -6   39.00   40.70   1
  -8   6   6   41.30   40.50   1
   8   6   7   44.10   41.10   1
  -8  -6  -7   12.40   40.20   1
   8  -6  -7   93.40   39.30   1
  -8   6   7   31.20   39.10   1
   8   6   8  350.50  158.60   1
  -8  -6  -8  370.50  160.50   1
   8  -6  -8  431.60  154.60   1
  -8   6   8  397.10  154.50   1
   8  -6  -9   59.70   42.90   1
  -8   6   9   44.40   42.80   1
   8  -6 -10  198.10   70.30   1
  -8   6  10   97.60   69.20   1
   8  -6 -11   14.70   21.30   1
  -8   6  11    9.80   21.40   1
   8  -6 -12   23.20   36.30   1
  -8   6  12  131.50   38.50   1
   8  -6 -13   11.10   20.30   1
  -8   6  13    9.60   20.80   1
   8   7   0   92.50   62.30   1
  -8  -7   0   98.80   62.30   1
  -8   7   0  149.90   64.80   1
   8   7   1  275.50   77.30   1
  -8  -7  -1  122.50   76.60   1
   8  -7  -1  204.10   77.70   1
  -8   7   1   88.50   76.80   1
  -8   7  -1  208.00   79.50   1
   8  -7   1  150.30   78.50   1
  -8  -7   1  157.20   76.70   1
   8   7  -1  139.50   76.60   1
   8   7   2   14.80   29.10   1
  -8  -7  -2    7.90   29.10   1
   8  -7  -2  118.70   32.20   1
  -8   7   2   37.30   30.40   1
  -8   7  -2   28.00   33.00   1
   8  -7   2   51.00   34.40   1
  -8  -7   2   23.00   28.90   1
   8   7  -2   27.90   29.10   1
   8   7   3   52.40   39.20   1
  -8  -7  -3   62.60   39.20   1
   8  -7  -3   38.80   39.30   1
  -8   7   3   26.80   39.30   1
  -8  -7   3   39.80   39.50   1
   8   7  -3   43.70   39.40   1
   8   7   4   47.10   39.30   1
  -8  -7  -4   47.00   39.30   1
   8  -7  -4   58.20   39.50   1
  -8   7   4   46.40   39.50   1
  -8  -7   4   21.30   39.80   1
   8   7  -4   34.30   39.90   1
   8   7   5  311.70  140.40   1
  -8  -7  -5  376.40  140.80   1
   8  -7  -5  514.40  141.60   1
  -8   7   5  315.10  140.40   1
  -8  -7   5  375.80  143.60   1
   8   7   6   34.70   28.70   1
  -8  -7  -6   13.10   27.90   1
   8  -7  -6   24.30   27.90   1
  -8   7   6   17.90   27.90   1
   8   7   7  221.10   61.80   1
  -8  -7  -7   67.60   59.30   1
   8  -7  -7   78.60   58.80   1
  -8   7   7   99.40   59.00   1
   8   7   8   65.80   29.30   1
  -8  -7  -8   -0.00   27.80   1
   8  -7  -8   15.90   23.50   1
  -8   7   8   13.20   23.40   1
   8  -7  -9  125.30   72.40   1
  -8   7   9  130.60   72.40   1
   8  -7 -10   27.70   35.50   1
  -8   7  10   46.90   35.60   1
   8  -7 -11   69.50   55.80   1
  -8   7  11  100.20   56.00   1
   8  -7 -12   13.30   16.00   1
  -8   7  12   -0.00   16.00   1
   8  -7 -13   31.20   38.80   1
  -8   7  13   53.20   38.90   1
   8   8   0 1416.40  318.10   1
  -8  -8   0 1521.10  318.00   1
   8  -8   0 1171.70  318.90   1
  -8   8   0  666.00  315.70   1
   8   8   1   31.00   34.60   1
  -8  -8  -1   13.00   34.50   1
   8  -8  -1   96.50   36.20   1
  -8   8   1  128.10   36.90   1
  -8   8  -1   34.80   39.80   1
   8  -8   1   66.70   41.00   1
  -8  -8   1   34.70   34.80   1
   8   8  -1   42.90   34.90   1
   8   8   2  110.70   55.00   1
  -8  -8  -2  115.40   54.90   1
   8  -8  -2   75.90   55.50   1
  -8   8   2   49.70   55.50   1
  -8  -8   2   64.30   54.70   1
   8   8  -2   68.70   54.80   1
   8   8   3  539.70  161.50   1
  -8  -8  -3  356.50  160.80   1
   8  -8  -3  443.80  161.20   1
  -8   8   3  418.20  161.10   1
  -8  -8   3  391.80  161.60   1
   8   8  -3  510.50  163.20   1
   8   8   4  353.60  151.40   1
  -8  -8  -4  416.70  151.80   1
   8  -8  -4  552.70  152.50   1
  -8   8   4  342.00  151.50   1
  -8  -8   4  524.40  156.50   1
   8   8  -4  366.00  154.30   1
   8   8   5  466.80  158.70   1
  -8  -8  -5  410.50  158.50   1
   8  -8  -5  539.70  159.40   1
  -8   8   5  347.80  158.40   1
   8   8   6  326.80  119.90   1
  -8  -8  -6  206.40  119.10   1
   8  -8  -6  320.10  119.70   1
  -8   8   6  416.50  120.50   1
   8   8   7   45.30   41.50   1
  -8  -8  -7   77.40   42.20   1
   8  -8  -7   44.00   41.20   1
  -8   8   7   39.80   41.30   1
   8   8   8  296.50  161.50   1
  -8  -8  -8  487.80  163.70   1
   8  -8  -8  459.50  161.10   1
  -8   8   8  550.10  161.50   1
   8   8   9   10.10   26.60   1
   8  -8  -9    5.80   22.10   1
  -8   8   9   31.20   22.70   1
   8  -8 -10   48.50   29.00   1
  -8   8  10   13.40   28.70   1
   8  -8 -11   41.70   35.30   1
  -8   8  11   30.10   35.20   1
   8  -8 -12   58.60   52.30   1
  -8   8  12  103.20   52.80   1
   8  -8 -13   77.40   21.90   1
  -8   8  13    1.60   19.40   1
   8   9   0   17.90   33.00   1
  -8  -9   0   38.40   33.00   1
   8  -9   0   78.20   37.10   1
  -8   9   0   56.90   36.10   1
   8   9   1  129.70   81.20   1
  -8  -9  -1  205.20   81.50   1
   8  -9  -1  123.70   82.80   1
  -8   9   1  237.60   84.00   1
  -8   9  -1  133.50   84.10   1
   8  -9   1  161.50   84.60   1
  -8  -9   1  143.50   81.50   1
   8   9  -1  193.30   81.70   1
   8   9   2   37.40   31.10   1
  -8  -9  -2   19.30   31.10   1
   8  -9  -2   24.80   32.50   1
  -8   9   2   -0.00   31.70   1
  -8  -9   2   86.70   32.20   1
   8   9  -2   43.00   31.70   1
   8   9   3  147.50   95.20   1
  -8  -9  -3  294.90   95.90   1
   8  -9  -3  237.00   96.30   1
  -8   9   3  268.60   96.80   1
  -8  -9   3  212.60   96.60   1
   8   9  -3  214.40   96.90   1
   8   9   4   48.90   50.00   1
  -8  -9  -4   43.40   49.80   1
   8  -9  -4  205.10   51.00   1
  -8   9   4  225.20   51.20   1
   8   9   5   25.40   31.50   1
  -8  -9  -5   34.70   31.70   1
   8  -9  -5   34.50   31.80   1
  -8   9   5   21.90   31.70   1
   8   9   6   35.20   25.30   1
  -8  -9  -6   31.70   25.50   1
   8  -9  -6    8.00   25.20   1
  -8   9   6    8.10   24.90   1
   8   9   7   84.10   41.40   1
  -8  -9  -7   53.00   40.50   1
   8  -9  -7   40.90   40.70   1
  -8   9   7   29.50   40.20   1
   8   9   8   24.80   26.20   1
  -8  -9  -8   -0.00   24.90   1
   8  -9  -8   22.00   23.70   1
  -8   9   8   13.60   23.50   1
   8   9   9   47.40   30.40   1
  -8  -9  -9   12.00   29.50   1
   8  -9  -9   14.40   26.60   1
  -8   9   9   27.00   27.00   1
   8  -9 -10    3.40   17.50   1
  -8   9  10   14.10   17.60   1
   8  -9 -11   59.90   51.10   1
  -8   9  11   85.60   51.30   1
   8  -9 -12    7.90   16.20   1
  -8   9  12    5.70   15.90   1
   8  -9 -13   20.80   19.40   1
  -8   9  13    3.70   18.90   1
   8  10   0   54.20   53.10   1
  -8 -10   0   96.10   53.40   1
   8 -10   0  121.20   57.30   1
  -8  10   0  260.20   61.00   1
   8  10   1   71.30   46.60   1
  -8 -10  -1   78.50   46.60   1
   8 -10  -1   55.40   48.60   1
  -8  10   1   68.60   48.80   1
  -8 -10   1   66.20   46.80   1
   8  10  -1   33.90   46.60   1
   8  10   2  241.30   88.90   1
  -8 -10  -2  464.40   90.10   1
   8 -10  -2  121.80   89.20   1
  -8  10   2  121.70   89.30   1
  -8 -10   2  370.90   92.30   1
   8  10  -2  252.90   90.80   1
   8  10   3   30.90   29.10   1
  -8 -10  -3   29.30   29.10   1
   8 -10  -3   40.80   30.70   1
  -8  10   3   19.30   30.20   1
  -8 -10   3    7.30   29.20   1
   8  10   4 2025.20  396.60   1
  -8 -10  -4  961.70  391.10   1
   8 -10  -4 1836.70  396.40   1
  -8  10   4 1303.80  392.80   1
   8  10   5  178.50   84.20   1
  -8 -10  -5  134.30   84.00   1
   8 -10  -5  213.10   84.50   1
  -8  10   5  162.70   84.30   1
   8  10   6 1436.60  455.70   1
  -8 -10  -6 1967.80  458.20   1
   8 -10  -6 1628.30  457.80   1
  -8  10   6 1323.60  455.80   1
   8  10   7   17.80   23.30   1
  -8 -10  -7    8.50   23.20   1
   8 -10  -7   -0.00   23.10   1
  -8  10   7   33.70   23.20   1
   8  10   8  643.80  216.10   1
  -8 -10  -8 1072.90  221.10   1
   8 -10  -8  474.40  214.80   1
  -8  10   8 1115.10  219.80   1
   8  10   9   60.70   41.00   1
  -8 -10  -9  108.20   42.00   1
   8 -10  -9   24.10   38.90   1
  -8  10   9   54.30   39.20   1
   8  10  10   16.60   20.30   1
  -8  10  10    4.80   15.50   1
   8 -10 -11   18.10   26.60   1
  -8  10  11   22.50   26.60   1
   8 -10 -12   69.40   54.30   1
  -8  10  12   87.70   54.40   1
   8  11   0   58.80   40.30   1
  -8 -11   0   36.40   40.30   1
   8 -11   0   52.70   45.10   1
  -8  11   0   37.60   43.30   1
   8  11   1   44.30   41.50   1
  -8 -11  -1   47.20   41.40   1
   8 -11  -1   33.70   44.10   1
  -8  11   1   39.60   43.40   1
  -8 -11   1  150.90   43.10   1
   8  11  -1   43.60   42.00   1
   8  11   2   15.40   17.70   1
  -8 -11  -2    6.40   17.60   1
   8 -11  -2    4.20   21.70   1
  -8  11   2    8.90   23.40   1
  -8 -11   2    6.70   18.70   1
   8  11  -2    6.30   18.20   1
   8  11   3  121.10   49.40   1
  -8 -11  -3  274.60   50.80   1
   8 -11  -3   76.30   50.60   1
  -8  11   3   15.80   49.50   1
   8  11   4   14.60   21.90   1
  -8 -11  -4   10.30   21.80   1
   8 -11  -4   29.20   23.80   1
  -8  11   4    7.30   23.70   1
   8  11   5  167.40   68.10   1
  -8 -11  -5  122.80   67.60   1
   8 -11  -5   99.10   67.60   1
  -8  11   5  101.20   67.80   1
   8  11   6   31.10   30.00   1
  -8 -11  -6   31.10   30.00   1
   8 -11  -6   17.80   30.20   1
  -8  11   6   21.80   30.40   1
   8  11   7  124.10   47.90   1
  -8 -11  -7   46.90   47.60   1
   8 -11  -7   63.20   47.60   1
  -8  11   7   50.90   47.40   1
   8  11   8   10.70   17.50   1
  -8 -11  -8    0.00   16.10   1
   8 -11  -8   11.00   17.00   1
  -8  11   8    7.00   16.50   1
   8  11   9  125.00   41.70   1
  -8 -11  -9   37.60   39.70   1
   8 -11  -9   92.10   39.70   1
  -8  11   9   22.70   38.80   1
   8  11  10   26.40   23.60   1
  -8 -11 -10    1.60   22.00   1
   8 -11 -10    8.20   19.40   1
  -8  11  10   13.60   19.80   1
   8 -11 -11   20.60   32.40   1
  -8  11  11  177.70   34.50   1
   8 -11 -12    9.90   12.80   1
  -8  11  12   -0.00   12.40   1
   8  12   0  793.50  153.00   1
  -8 -12   0  300.80  146.00   1
   8 -12   0  821.00  172.10   1
   8  12   1  110.50   45.10   1
  -8 -12  -1   49.60   44.50   1
   8 -12  -1   39.50   48.00   1
  -8  12   1   22.40   48.80   1
  -8 -12   1   54.70   45.20   1
   8  12  -1   46.40   45.00   1
   8  12   2   41.70   35.80   1
  -8 -12  -2   37.80   35.70   1
   8 -12  -2   17.00   38.50   1
  -8  12   2   26.40   38.30   1
   8  12   3  111.80   43.20   1
  -8 -12  -3   25.90   42.80   1
   8 -12  -3   79.30   44.20   1
  -8  12   3   67.40   44.50   1
   8  12   4   22.80   22.80   1
  -8 -12  -4    9.70   23.00   1
   8 -12  -4    3.90   24.60   1
  -8  12   4   16.30   24.90   1
   8  12   5  148.60   56.70   1
  -8 -12  -5   49.40   56.10   1
   8 -12  -5  114.30   57.00   1
  -8  12   5   99.20   57.00   1
   8  12   6  120.50   63.10   1
  -8 -12  -6   84.40   62.90   1
   8 -12  -6  106.40   63.30   1
  -8  12   6  106.50   63.30   1
   8  12   7   38.40   37.20   1
  -8 -12  -7   35.30   37.30   1
   8 -12  -7   35.90   37.40   1
  -8  12   7   52.70   37.60   1
   8  12   8   42.10   39.70   1
  -8 -12  -8   49.90   40.00   1
   8 -12  -8   25.80   39.80   1
  -8  12   8   63.60   39.90   1
   8  12   9   10.50   23.80   1
  -8 -12  -9   51.20   25.80   1
   8 -12  -9   -0.00   24.00   1
  -8  12   9   40.30   25.00   1
   8  12  10   91.20   29.70   1
  -8 -12 -10    8.30   28.30   1
   8 -12 -10   19.40   26.20   1
  -8  12  10   13.90   26.40   1
   8  12  11    6.80   18.00   1
   8 -12 -11    9.40   13.60   1
  -8  12  11   -0.00   13.60   1
   8  13   0  483.20  162.80   1
  -8 -13   0  385.70  160.00   1
   8  13   1   49.40   42.20   1
  -8 -13  -1   74.80   42.40   1
   8 -13  -1  119.70   49.60   1
  -8  13   1   24.70   44.50   1
  -8 -13   1   32.40   42.20   1
   8  13   2    9.80   18.30   1
  -8 -13  -2   10.80   18.00   1
   8 -13  -2   -0.00   24.20   1
  -8  13   2   -0.00   23.20   1
   8  13   3 1004.20  359.60   1
  -8 -13  -3 1114.10  359.70   1
   8 -13  -3 1635.10  365.70   1
  -8  13   3 1285.00  364.70   1
   8  13   4   60.00   25.90   1
  -8 -13  -4   10.30   25.50   1
   8 -13  -4   32.80   28.90   1
  -8  13   4   -0.00   26.30   1
   8  13   5   89.10   34.70   1
  -8 -13  -5   14.50   33.90   1
   8 -13  -5  108.00   36.50   1
  -8  13   5   29.50   35.40   1
   8  13   6  166.20  108.00   1
  -8 -13  -6  302.30  108.90   1
   8 -13  -6  307.10  108.90   1
  -8  13   6  392.00  109.80   1
   8  13   7  176.50   96.30   1
  -8 -13  -7  191.40   96.50   1
   8 -13  -7  261.20   97.40   1
  -8  13   7  219.60   96.80   1
   8  13   8   27.60   35.00   1
  -8 -13  -8  180.70   37.30   1
   8 -13  -8   18.20   35.30   1
  -8  13   8   53.70   35.30   1
   8  13   9  110.80   64.30   1
  -8 -13  -9   97.20   63.90   1
   8 -13  -9  117.80   64.40   1
  -8  13   9   91.00   64.10   1
   8  13  10   63.40   32.00   1
  -8 -13 -10   19.20   31.20   1
   8 -13 -10   20.00   30.10   1
  -8  13  10   25.60   30.40   1
  -8 -13 -11   17.80   36.70   1
   8 -13 -11   30.60   35.80   1
  -8  13  11   70.50   36.40   1
  -8 -14   0   47.10   41.60   1
   8  14   1    2.00   16.60   1
  -8 -14  -1   11.10   16.10   1
   8 -14  -1    0.00   22.50   1
   8  14   2  376.90  148.70   1
  -8 -14  -2  476.40  149.30   1
   8 -14  -2  509.00  153.40   1
  -8  14   2  260.10  150.00   1
   8  14   3   57.30   45.20   1
  -8 -14  -3   62.00   45.00   1
   8 -14  -3   59.90   47.90   1
  -8  14   3   33.70   47.00   1
   8  14   4    8.70   23.20   1
  -8 -14  -4   46.00   23.70   1
   8 -14  -4    5.10   24.80   1
  -8  14   4    5.00   26.10   1
   8  14   5    9.10   25.40   1
  -8 -14  -5   35.20   25.90   1
   8 -14  -5   47.70   28.50   1
  -8  14   5   19.40   28.20   1
   8  14   6  132.60   73.50   1
  -8 -14  -6  157.10   73.80   1
   8 -14  -6  142.50   74.10   1
  -8  14   6   99.90   74.30   1
   8  14   7   -0.00    6.50   1
  -8 -14  -7    0.00    5.60   1
   8 -14  -7   -0.00    7.90   1
  -8  14   7    1.70    7.80   1
   8  14   8   45.90   33.10   1
  -8 -14  -8   19.50   33.00   1
   8 -14  -8   39.20   33.30   1
  -8  14   8   31.80   33.50   1
   8  14   9    5.30   11.40   1
  -8 -14  -9    4.60   12.00   1
   8 -14  -9   -0.00   12.60   1
  -8  14   9   -0.00   10.80   1
   8  14  10    0.00   15.30   1
  -8 -14 -10   23.50   17.70   1
   8 -14 -10   10.30   15.90   1
  -8  14  10    1.10   15.90   1
   8  15   1  928.90  347.80   1
  -8 -15  -1 1261.90  351.80   1
   8  15   2   14.00   22.40   1
  -8 -15  -2   16.00   21.80   1
   8 -15  -2    2.30   30.30   1
  -8  15   2   -0.00   27.30   1
   8  15   3  297.10  126.60   1
  -8 -15  -3  377.30  127.40   1
   8 -15  -3  268.30  128.20   1
  -8  15   3  288.70  128.50   1
   8  15   4   39.60   43.50   1
  -8 -15  -4   64.00   43.60   1
   8 -15  -4   86.20   45.90   1
  -8  15   4   47.90   46.10   1
   8  15   5  143.10   41.40   1
  -8 -15  -5   38.40   40.70   1
   8 -15  -5   99.00   43.50   1
  -8  15   5   23.10   41.30   1
   8  15   6   19.80   24.50   1
  -8 -15  -6   10.90   24.40   1
   8 -15  -6   30.30   26.60   1
  -8  15   6   24.90   26.10   1
   8  15   7  200.70   88.40   1
  -8 -15  -7  237.70   89.00   1
   8 -15  -7  149.00   88.20   1
  -8  15   7  162.60   88.50   1
   8  15   8   11.20   12.00   1
  -8 -15  -8   -0.00   12.20   1
   8 -15  -8   -0.00   13.20   1
  -8  15   8   -0.00   12.80   1
   8  15   9  160.80   58.90   1
  -8 -15  -9   50.60   58.30   1
   8 -15  -9  486.40   67.80   1
  -8  15   9  177.40   59.60   1
   8  15  10    3.90   14.70   1
  -8 -15 -10    5.50   14.10   1
   8 -15 -10    1.90   14.90   1
  -8  15  10    8.50   15.60   1
  -8 -16  -1   30.20   33.00   1
   8  16   2  166.00   97.80   1
  -8 -16  -2  217.20   98.10   1
   8 -16  -2  301.70  105.80   1
   8  16   3   58.70   23.20   1
  -8 -16  -3    6.40   21.90   1
   8 -16  -3    8.70   28.90   1
  -8  16   3   11.90   28.10   1
   8  16   4  337.00  116.50   1
  -8 -16  -4  253.70  115.40   1
   8 -16  -4  482.70  121.50   1
  -8  16   4  194.60  116.70   1
   8  16   5   45.30   42.90   1
  -8 -16  -5   48.50   42.90   1
   8 -16  -5   67.10   44.40   1
  -8  16   5   70.70   44.90   1
   8  16   6   50.80   34.20   1
  -8 -16  -6   22.40   34.10   1
   8 -16  -6   34.40   36.00   1
  -8  16   6   38.90   36.10   1
   8  16   7   12.50   27.20   1
  -8 -16  -7   30.00   27.70   1
   8 -16  -7   57.20   28.80   1
  -8  16   7   15.00   29.00   1
   8  16   8   13.50   29.40   1
  -8 -16  -8   48.30   29.40   1
   8 -16  -8    9.60   29.40   1
  -8  16   8   89.90   30.50   1
   8  16   9   23.60   30.80   1
  -8 -16  -9   46.20   31.10   1
   8 -16  -9   21.60   31.10   1
  -8  16   9   22.90   31.30   1
  -8 -17  -2    1.40   10.00   1
   8  17   3   42.20   30.90   1
  -8 -17  -3   23.10   30.20   1
   8 -17  -3   34.10   38.00   1
  -8  17   3    7.10   34.00   1
   8  17   4   25.10   23.40   1
  -8 -17  -4   13.20   23.10   1
   8 -17  -4   -0.00   27.10   1
  -8  17   4    8.50   27.40   1
   8  17   5   18.20   23.00   1
  -8 -17  -5   11.10   22.80   1
   8 -17  -5   12.00   25.90   1
  -8  17   5   56.40   28.10   1
   8  17   6   14.90   26.10   1
  -8 -17  -6   37.10   26.30   1
   8 -17  -6   18.30   29.00   1
  -8  17   6   11.50   27.30   1
   8  17   7   -0.00   13.90   1
  -8 -17  -7   11.60   14.50   1
   8 -17  -7   50.00   18.60   1
  -8  17   7    0.40   16.30   1
   8  17   8   10.20   15.10   1
  -8 -17  -8    0.00   15.40   1
   8 -17  -8    8.00   15.90   1
  -8  17   8    4.60   16.20   1
  -8 -18  -3   32.90   32.70   1
   8 -18  -3   19.50   37.60   1
   8  18   4  199.20   84.40   1
  -8 -18  -4  158.80   82.60   1
   8 -18  -4  225.70   86.60   1
  -8  18   4  106.70   84.40   1
   8  18   5  110.50   57.80   1
  -8 -18  -5   86.70   57.30   1
   8 -18  -5  137.30   60.90   1
  -8  18   5   49.90   59.10   1
   8  18   6    7.50   23.00   1
  -8 -18  -6   43.10   23.20   1
   8 -18  -6   11.00   24.80   1
   8  18   7    9.30   19.40   1
  -8 -18  -7   15.20   19.50   1
   8 -18  -7    1.40   22.00   1
  -8  18   7   13.20   22.30   1
  -8 -19  -3   32.40   22.20   1
   8 -19  -3   -0.00   23.50   1
   8  19   4   21.80   19.50   1
  -8 -19  -4    6.20   19.30   1
   8 -19  -4   14.60   26.60   1
  -8  19   4   -0.00   24.00   1
   8  19   5   15.70   21.50   1
  -8 -19  -5   12.50   21.20   1
   8 -19  -5   19.40   26.70   1
  -8  19   5   -0.00   25.30   1
   8  19   6    1.50   11.70   1
  -8 -19  -6    6.60   11.70   1
   8 -19  -6   -0.00   16.40   1
  -8  19   6   -0.00   18.20   1
  -8 -20  -4    3.00   12.20   1
   8 -20  -4   -0.00   21.40   1
   9   0   0   85.90   61.10   1
  -9   0   0  102.40   61.20   1
   9   0   1   40.80   43.30   1
  -9   0  -1   24.90   43.30   1
   9   0  -1   88.60   43.40   1
  -9   0   1   90.40   43.40   1
   9   0   2  313.90  124.10   1
  -9   0  -2  341.40  124.20   1
   9   0  -2  376.20  123.90   1
  -9   0   2  233.50  123.20   1
   9   0   3   48.00   47.40   1
  -9   0  -3   35.60   46.90   1
   9   0  -3  139.10   47.60   1
  -9   0   3   63.90   46.80   1
   9   0   4   83.00   60.20   1
  -9   0  -4   36.00   58.80   1
   9   0  -4   89.30   57.90   1
  -9   0   4  159.20   58.40   1
   9   0   5  549.40  120.50   1
  -9   0  -5  305.80  117.90   1
   9   0  -5  251.60  115.30   1
  -9   0   5  243.20  115.30   1
   9   0   6 1286.90  277.90   1
  -9   0  -6  760.60  265.50   1
   9   0  -6  818.60  255.10   1
  -9   0   6  709.70  254.60   1
   9   0  -7   36.60   43.60   1
  -9   0   7   81.90   44.00   1
   9   0  -8   61.80   57.70   1
  -9   0   8  196.50   58.80   1
   9   0  -9   92.80   71.10   1
  -9   0   9  293.20   73.70   1
   9   0 -10  204.10  103.60   1
  -9   0  10  235.70  103.60   1
  -9   0  11   91.00   60.70   1
   9   1   0    2.80    8.20   1
  -9  -1   0    1.30    7.90   1
   9  -1   0   -0.10    8.90   1
  -9   1   0   -0.00    8.70   1
   9   1   1   17.80   24.00   1
  -9  -1  -1   17.00   23.70   1
   9  -1  -1    9.40   23.70   1
  -9   1   1    4.00   23.50   1
  -9   1  -1   44.60   25.00   1
   9  -1   1   36.50   25.00   1
  -9  -1   1   16.20   24.30   1
   9   1  -1   15.30   24.50   1
   9   1   2    6.90   20.50   1
  -9  -1  -2    4.90   20.50   1
   9  -1  -2    4.70   20.30   1
  -9   1   2    6.80   20.10   1
  -9   1  -2    6.80   21.50   1
   9  -1   2   -0.00   21.70   1
  -9  -1   2   23.70   20.10   1
   9   1  -2   19.40   19.80   1
   9   1   3   -0.00   28.90   1
  -9  -1  -3    2.40   29.30   1
   9  -1  -3    9.80   28.30   1
  -9   1   3    4.20   28.10   1
  -9   1  -3   36.20   29.70   1
   9  -1   3   39.10   29.60   1
  -9  -1   3   56.70   28.40   1
   9   1  -3   38.70   28.10   1
   9   1   4   46.00   49.30   1
  -9  -1  -4   66.10   49.30   1
   9  -1  -4   60.70   48.80   1
  -9   1   4   46.80   48.60   1
  -9   1  -4  113.30   51.80   1
   9  -1   4  119.90   52.70   1
  -9  -1   4   52.10   48.40   1
   9   1  -4  114.40   48.80   1
   9  -1  -5   62.90   53.20   1
  -9   1   5   78.70   53.20   1
  -9   1  -5  121.90   57.50   1
   9  -1   5  129.20   58.10   1
  -9  -1   5   82.60   53.10   1
   9   1  -5   66.30   53.10   1
   9   1   6   15.10   30.80   1
  -9  -1  -6   -0.00   27.20   1
   9  -1  -6   14.00   22.90   1
  -9   1   6    6.70   22.80   1
  -9  -1   6   33.10   23.30   1
   9   1  -6   15.50   23.20   1
   9  -1  -7   19.50   29.20   1
  -9   1   7   22.20   29.20   1
  -9  -1   7   28.70   29.40   1
   9   1  -7   27.50   29.40   1
   9  -1  -8    6.50   23.60   1
  -9   1   8    3.80   23.30   1
  -9  -1   8   41.30   24.30   1
   9   1  -8   28.70   24.10   1
   9  -1  -9   10.40   25.60   1
  -9   1   9   39.40   25.80   1
  -9  -1   9   10.70   26.20   1
   9   1  -9   14.30   26.40   1
   9  -1 -10   21.80   20.60   1
  -9   1  10   10.90   19.70   1
  -9  -1  10    2.50   20.50   1
   9   1 -10    6.60   19.30   1
   9  -1 -11    2.90   13.80   1
  -9   1  11    4.20   14.80   1
  -9   1  12    9.30   19.90   1
   9   2   0    5.40   14.90   1
  -9  -2   0    4.20   14.50   1
   9  -2   0    7.00   15.10   1
  -9   2   0    6.30   15.10   1
   9   2   1   -0.00   19.50   1
  -9  -2  -1    8.40   19.60   1
   9  -2  -1    4.80   19.70   1
  -9   2   1    9.80   19.70   1
  -9   2  -1   39.70   21.80   1
   9  -2   1   24.00   21.80   1
  -9  -2   1   18.60   21.00   1
   9   2  -1   20.60   20.90   1
   9   2   2  242.20  117.30   1
  -9  -2  -2  233.10  117.40   1
   9  -2  -2  457.30  118.40   1
  -9   2   2  458.00  118.40   1
  -9   2  -2  217.40  117.50   1
   9  -2   2  206.70  117.60   1
  -9  -2   2  683.90  119.70   1
   9   2  -2  662.30  119.40   1
   9   2   3   30.20   21.30   1
  -9  -2  -3    8.10   21.10   1
   9  -2  -3    8.10   19.90   1
  -9   2   3    5.00   20.30   1
  -9   2  -3   29.70   24.40   1
   9  -2   3   46.50   24.50   1
  -9  -2   3    8.30   19.20   1
   9   2  -3    4.20   19.20   1
   9   2   4 1024.50  284.10   1
  -9  -2  -4  849.50  283.50   1
   9  -2  -4 1300.40  285.50   1
  -9   2   4  559.40  282.40   1
  -9   2  -4 1395.10  290.70   1
   9  -2   4 1323.40  289.80   1
  -9  -2   4 1167.20  284.30   1
   9   2  -4 1165.30  284.30   1
   9   2   5   77.90   42.00   1
  -9  -2  -5   94.70   41.70   1
   9  -2  -5   35.90   39.50   1
  -9   2   5   49.10   39.60   1
  -9   2  -5   33.70   42.80   1
   9  -2   5   89.30   45.80   1
  -9  -2   5   28.70   39.40   1
   9   2  -5   40.80   39.30   1
   9   2   6  393.90  109.30   1
  -9  -2  -6  289.80  108.30   1
   9  -2  -6  278.00  105.70   1
  -9   2   6  160.50  105.20   1
  -9  -2   6  391.50  107.00   1
   9   2  -6  328.90  106.50   1
   9   2   7   24.80   27.70   1
   9  -2  -7   35.20   22.80   1
  -9   2   7   10.30   22.50   1
  -9  -2   7    6.70   22.90   1
   9   2  -7    5.00   23.10   1
   9  -2  -8   30.10   44.50   1
  -9   2   8   61.80   44.70   1
  -9  -2   8   97.90   45.40   1
   9   2  -8   85.30   45.40   1
   9  -2  -9    7.90   12.00   1
  -9   2   9   -0.00   12.00   1
  -9  -2   9   -0.00   14.50   1
   9   2  -9    0.00   13.30   1
   9  -2 -10  125.90   40.20   1
  -9   2  10   24.30   38.50   1
  -9  -2  10   56.30   39.30   1
   9  -2 -11   13.90   26.80   1
  -9   2  11   23.60   26.70   1
   9  -2 -12   34.00   35.80   1
  -9   2  12   35.20   36.20   1
  -9   2  13    1.80   11.40   1
   9   3   0    5.60   23.30   1
  -9  -3   0   27.00   23.20   1
   9  -3   0    7.80   23.40   1
  -9   3   0   16.80   23.40   1
   9   3   1  311.70  123.20   1
  -9  -3  -1  348.60  123.30   1
   9  -3  -1  305.70  123.20   1
  -9   3   1  347.40  123.40   1
  -9   3  -1  379.00  124.60   1
   9  -3   1  394.20  124.80   1
  -9  -3   1  241.20  123.00   1
   9   3  -1  231.20  123.10   1
   9   3   2   28.40   27.50   1
  -9  -3  -2   19.70   27.60   1
   9  -3  -2   17.30   27.50   1
  -9   3   2   10.30   27.30   1
  -9   3  -2   29.90   29.80   1
   9  -3   2   13.70   28.70   1
  -9  -3   2   21.50   27.60   1
   9   3  -2   49.10   27.90   1
   9   3   3 2130.30  458.80   1
  -9  -3  -3 2016.40  457.90   1
   9  -3  -3 2658.40  463.10   1
  -9   3   3 2165.10  458.80   1
  -9   3  -3  976.80  454.80   1
   9  -3   3 1010.40  455.00   1
  -9  -3   3 1827.80  456.30   1
   9   3  -3 2254.70  458.20   1
   9   3   4   25.60   23.00   1
  -9  -3  -4   22.90   23.10   1
   9  -3  -4   -0.00   22.10   1
  -9   3   4   37.00   22.50   1
  -9   3  -4   49.60   30.70   1
   9  -3   4   60.90   30.80   1
  -9  -3   4    2.30   21.30   1
   9   3  -4    5.50   21.30   1
   9   3   5  693.90  273.40   1
  -9  -3  -5  898.80  274.40   1
   9  -3  -5 1067.10  274.50   1
  -9   3   5  807.40  273.60   1
  -9  -3   5  821.30  274.30   1
   9   3  -5 1036.60  276.10   1
   9   3   6   73.60   24.80   1
  -9  -3  -6    1.10   23.60   1
   9  -3  -6    7.00   19.40   1
  -9   3   6    9.60   19.40   1
  -9  -3   6   11.10   19.80   1
   9   3  -6    8.10   19.80   1
   9   3   7  374.10  159.00   1
  -9  -3  -7  309.60  158.00   1
   9  -3  -7  572.40  155.80   1
  -9   3   7  573.70  155.90   1
  -9  -3   7  244.70  155.20   1
   9   3  -7  876.90  162.90   1
   9  -3  -8   -0.00    8.90   1
  -9   3   8    0.90    8.80   1
  -9  -3   8   -0.00   12.40   1
   9   3  -8    6.50   12.20   1
   9  -3  -9  144.60   81.50   1
  -9   3   9  305.90   83.10   1
  -9  -3   9  103.30   81.90   1
   9  -3 -10   15.50   24.70   1
  -9   3  10   17.80   24.70   1
   9  -3 -11   93.60   65.80   1
  -9   3  11 1071.10  104.50   1
   9  -3 -12    9.60   26.10   1
  -9   3  12   28.60   26.10   1
  -9   3  13   34.70   36.10   1
   9   4   0   -0.00   18.60   1
  -9  -4   0    4.20   18.10   1
   9  -4   0   33.40   20.10   1
  -9   4   0    9.20   19.50   1
   9   4   1   93.50   32.40   1
  -9  -4  -1   27.80   31.50   1
   9  -4  -1   18.60   31.60   1
  -9   4   1   21.00   31.80   1
  -9   4  -1   24.80   31.90   1
   9  -4   1   26.80   32.30   1
  -9  -4   1   23.20   31.60   1
   9   4  -1   28.30   31.70   1
   9   4   2  121.80   45.70   1
  -9  -4  -2   74.00   45.50   1
   9  -4  -2   60.80   45.60   1
  -9   4   2   72.00   45.60   1
  -9   4  -2   58.00   47.30   1
   9  -4   2   80.90   48.60   1
  -9  -4   2   43.80   45.30   1
   9   4  -2   32.90   45.20   1
   9   4   3   -0.00   19.00   1
  -9  -4  -3   21.10   19.30   1
   9  -4  -3   11.60   19.00   1
  -9   4   3    9.70   18.90   1
  -9   4  -3   16.00   24.10   1
   9  -4   3   10.40   25.10   1
  -9  -4   3    9.30   18.90   1
   9   4  -3    9.30   18.90   1
   9   4   4   68.70   49.20   1
  -9  -4  -4   38.10   49.10   1
   9  -4  -4  104.40   49.20   1
  -9   4   4   39.70   48.60   1
  -9   4  -4   66.00   51.60   1
   9  -4   4  118.70   53.50   1
  -9  -4   4   77.50   48.70   1
   9   4  -4   73.00   48.60   1
   9   4   5   10.70   19.70   1
  -9  -4  -5    8.20   18.60   1
   9  -4  -5    1.90   18.10   1
  -9   4   5   25.10   18.60   1
  -9  -4   5    7.90   18.50   1
   9   4  -5    5.10   18.60   1
   9   4   6   32.20   31.90   1
  -9  -4  -6    0.00   30.70   1
   9  -4  -6   11.00   29.50   1
  -9   4   6   29.60   29.80   1
  -9  -4   6   37.30   29.80   1
   9   4  -6   50.10   30.00   1
   9   4   7   69.90   34.60   1
  -9  -4  -7    1.80   32.60   1
   9  -4  -7   44.70   29.20   1
  -9   4   7   25.40   29.10   1
  -9  -4   7    7.20   29.60   1
   9   4  -7    8.40   30.20   1
   9   4   8   81.70   44.20   1
   9  -4  -8   50.60   40.20   1
  -9   4   8   42.10   40.00   1
  -9  -4   8   44.20   40.80   1
   9   4  -8   35.30   40.40   1
   9  -4  -9    4.20   10.70   1
  -9   4   9   -0.00   10.30   1
   9  -4 -10   61.10   51.00   1
  -9   4  10   81.80   51.30   1
   9  -4 -11    7.90   18.80   1
  -9   4  11   10.60   18.80   1
   9  -4 -12   22.60   29.00   1
  -9   4  12   22.20   28.90   1
   9  -4 -13    3.50   14.40   1
  -9   4  13    5.40   15.00   1
   9   5   0   36.30   33.80   1
  -9  -5   0   47.80   33.80   1
   9  -5   0   -0.00   34.90   1
  -9   5   0   25.50   35.00   1
   9   5   1  256.10  108.90   1
  -9  -5  -1  250.30  108.80   1
   9  -5  -1  377.70  109.60   1
  -9   5   1  464.70  110.50   1
  -9   5  -1  201.30  109.10   1
   9  -5   1  336.00  109.60   1
  -9  -5   1  226.10  108.60   1
   9   5  -1  179.90  108.40   1
   9   5   2   36.50   38.50   1
  -9  -5  -2   35.70   38.40   1
   9  -5  -2   24.10   38.50   1
  -9   5   2   36.80   38.60   1
  -9   5  -2   35.60   42.00   1
   9  -5   2   57.20   41.50   1
  -9  -5   2   72.10   38.70   1
   9   5  -2   74.10   38.80   1
   9   5   3  256.10   76.70   1
  -9  -5  -3  146.10   76.20   1
   9  -5  -3  256.40   76.90   1
  -9   5   3  106.80   76.20   1
  -9   5  -3   82.30   78.80   1
   9  -5   3  156.90   80.60   1
  -9  -5   3  124.10   76.20   1
   9   5  -3  123.30   76.10   1
   9   5   4  220.80  102.00   1
  -9  -5  -4  238.30  102.10   1
   9  -5  -4  261.50  102.20   1
  -9   5   4  198.50  101.80   1
  -9  -5   4  200.80  101.90   1
   9   5  -4  220.30  102.00   1
   9   5   5  455.60  168.10   1
  -9  -5  -5  476.90  168.30   1
   9  -5  -5  420.10  167.60   1
  -9   5   5  484.70  167.90   1
  -9  -5   5  502.70  168.30   1
   9   5  -5  392.40  167.70   1
   9   5   6   38.20   44.40   1
  -9  -5  -6   64.60   45.10   1
   9  -5  -6  119.70   44.60   1
  -9   5   6   45.10   44.00   1
  -9  -5   6   42.60   44.30   1
   9   5  -6   44.70   44.40   1
   9   5   7  302.80   54.80   1
  -9  -5  -7   41.60   50.00   1
   9  -5  -7   81.80   48.50   1
  -9   5   7   42.40   48.40   1
  -9  -5   7   77.30   49.40   1
   9   5  -7   70.40   49.20   1
   9   5   8  135.80   43.70   1
  -9  -5  -8   12.30   38.90   1
   9  -5  -8   79.70   37.00   1
  -9   5   8   53.50   36.60   1
  -9  -5   8    7.60   36.70   1
   9  -5  -9   37.10   37.40   1
  -9   5   9   41.30   37.40   1
   9  -5 -10   49.00   50.30   1
  -9   5  10  148.70   51.30   1
   9  -5 -11   60.30   33.60   1
  -9   5  11   19.80   33.00   1
   9  -5 -12   23.50   23.70   1
  -9   5  12    9.90   23.10   1
   9  -5 -13   15.70   27.50   1
  -9   5  13   24.40   27.60   1
   9   6   0  109.50   33.90   1
  -9  -6   0   17.70   33.10   1
   9  -6   0   25.00   33.80   1
  -9   6   0   20.40   33.60   1
   9   6   1    6.90   24.00   1
  -9  -6  -1   10.30   24.20   1
   9  -6  -1   70.50   26.50   1
  -9   6   1   16.70   25.40   1
  -9   6  -1    4.70   27.90   1
   9  -6   1   29.10   27.90   1
  -9  -6   1   13.50   23.60   1
   9   6  -1   21.90   23.90   1
   9   6   2   52.90   35.90   1
  -9  -6  -2   32.70   35.50   1
   9  -6  -2  122.90   36.50   1
  -9   6   2   75.90   36.30   1
  -9   6  -2   13.80   37.90   1
   9  -6   2   19.90   39.00   1
  -9  -6   2   13.90   35.20   1
   9   6  -2   32.50   35.40   1
   9   6   3   12.30   13.30   1
  -9  -6  -3   -0.00   13.30   1
   9  -6  -3    2.70   13.90   1
  -9   6   3    2.80   13.70   1
  -9   6  -3   23.30   23.00   1
   9  -6   3    8.70   23.60   1
  -9  -6   3   -0.00   14.20   1
   9   6  -3    5.60   14.00   1
   9   6   4  109.30   44.60   1
  -9  -6  -4   21.80   44.20   1
   9  -6  -4   52.30   44.30   1
  -9   6   4   43.30   44.10   1
  -9  -6   4  193.50   45.70   1
   9   6  -4  172.30   45.60   1
   9   6   5   34.50   36.20   1
  -9  -6  -5   31.40   35.90   1
   9  -6  -5   24.10   35.80   1
  -9   6   5   15.60   35.50   1
  -9  -6   5  131.80   37.20   1
   9   6  -5  124.70   37.00   1
   9   6   6   27.90   25.40   1
  -9  -6  -6   15.20   24.50   1
   9  -6  -6   29.40   24.50   1
  -9   6   6   14.60   24.50   1
  -9  -6   6    3.40   25.70   1
   9   6  -6    5.20   25.10   1
   9   6   7   10.90   30.50   1
  -9  -6  -7    0.10   28.10   1
   9  -6  -7   21.90   27.20   1
  -9   6   7   29.30   27.70   1
  -9  -6   7   48.40   28.50   1
   9   6   8  302.30   87.10   1
  -9  -6  -8  330.20   88.70   1
   9  -6  -8  166.20   81.90   1
  -9   6   8  128.80   81.70   1
   9   6   9    3.70   25.30   1
   9  -6  -9   18.30   21.60   1
  -9   6   9    9.50   21.50   1
   9  -6 -10   21.70   33.90   1
  -9   6  10   58.40   34.30   1
   9  -6 -11    5.40   22.10   1
  -9   6  11   23.50   22.20   1
   9  -6 -12   57.70   32.00   1
  -9   6  12   18.60   31.30   1
   9  -6 -13   10.20   21.90   1
  -9   6  13   13.10   21.60   1
   9   7   0   -0.00   11.80   1
  -9  -7   0    6.90   12.10   1
   9  -7   0   -0.00   15.40   1
  -9   7   0   13.70   16.40   1
   9   7   1  408.70  102.80   1
  -9  -7  -1  195.20  101.90   1
   9  -7  -1  295.80  103.30   1
  -9   7   1  298.00  103.30   1
  -9   7  -1   73.90  102.40   1
   9  -7   1  275.60  104.20   1
  -9  -7   1  253.50  101.90   1
   9   7  -1  461.90  102.90   1
   9   7   2   19.80   24.50   1
  -9  -7  -2   17.20   24.10   1
   9  -7  -2   10.80   25.00   1
  -9   7   2    7.40   25.30   1
  -9   7  -2   69.40   31.50   1
   9  -7   2   75.30   31.80   1
  -9  -7   2   10.70   24.10   1
   9   7  -2   17.10   24.30   1
   9   7   3  540.40  153.60   1
  -9  -7  -3  406.00  152.90   1
   9  -7  -3  400.40  152.90   1
  -9   7   3  308.60  152.60   1
   9  -7   3  268.70  155.60   1
  -9  -7   3  568.10  154.40   1
   9   7  -3  586.70  154.40   1
   9   7   4   33.40   26.60   1
  -9  -7  -4   15.80   26.50   1
   9  -7  -4   18.20   26.60   1
  -9   7   4   13.70   26.80   1
  -9  -7   4   19.80   26.80   1
   9   7  -4   22.00   26.90   1
   9   7   5  748.90  228.80   1
  -9  -7  -5  631.40  228.20   1
   9  -7  -5  761.40  228.90   1
  -9   7   5  659.90  228.40   1
  -9  -7   5  596.80  230.00   1
   9   7  -5  623.80  231.30   1
   9   7   6   17.80   17.60   1
  -9  -7  -6   12.10   18.00   1
   9  -7  -6   10.00   16.80   1
  -9   7   6    1.40   16.10   1
  -9  -7   6   -0.00   17.20   1
   9   7  -6    3.80   16.00   1
   9   7   7  128.40   75.40   1
  -9  -7  -7  203.40   76.60   1
   9  -7  -7  197.30   75.50   1
  -9   7   7  103.60   74.80   1
   9   7   8   32.10   29.20   1
  -9  -7  -8   -0.00   26.90   1
   9  -7  -8   14.30   24.90   1
  -9   7   8   26.30   25.30   1
   9   7   9   68.10   47.50   1
  -9  -7  -9   -0.00   44.30   1
   9  -7  -9   64.50   42.90   1
  -9   7   9   63.20   42.90   1
   9  -7 -10   10.10   19.70   1
  -9   7  10   11.00   19.60   1
   9  -7 -11  124.80   65.30   1
  -9   7  11   96.00   64.90   1
   9  -7 -12    6.80   15.70   1
  -9   7  12    5.80   16.00   1
   9  -7 -13  176.80   96.30   1
  -9   7  13  224.30   96.80   1
   9   8   0   28.40   37.80   1
  -9  -8   0  210.60   39.00   1
   9  -8   0   33.40   40.50   1
  -9   8   0   11.40   40.30   1
   9   8   1  124.10   23.50   1
  -9  -8  -1   12.30   22.40   1
   9  -8  -1   10.20   23.80   1
  -9   8   1   13.80   23.20   1
  -9   8  -1    3.70   27.00   1
   9  -8   1   13.40   26.30   1
  -9  -8   1    7.50   22.20   1
   9   8  -1    6.80   22.30   1
   9   8   2  193.80   58.10   1
  -9  -8  -2   51.10   57.50   1
   9  -8  -2   65.70   58.30   1
  -9   8   2   57.50   57.90   1
  -9   8  -2  251.80   64.80   1
   9  -8   2  187.70   63.60   1
  -9  -8   2  229.90   58.90   1
   9   8  -2  123.10   57.80   1
   9   8   3   14.90   26.10   1
  -9  -8  -3   79.00   26.90   1
   9  -8  -3    9.90   26.10   1
  -9   8   3   28.30   26.30   1
  -9  -8   3    9.80   26.00   1
   9   8  -3   11.80   25.80   1
   9   8   4 3061.60  994.60   1
  -9  -8  -4 3985.00 1001.90   1
   9  -8  -4 4332.80 1000.30   1
  -9   8   4 3557.80  996.30   1
  -9  -8   4 3352.10 1004.50   1
   9   8  -4 4584.10 1026.40   1
   9   8   5  117.90   46.40   1
  -9  -8  -5   54.70   46.00   1
   9  -8  -5   80.70   46.20   1
  -9   8   5   33.20   45.90   1
  -9  -8   5   56.70   46.70   1
   9   8  -5   51.20   46.70   1
   9   8   6  717.50  170.60   1
  -9  -8  -6  304.70  168.00   1
   9  -8  -6  523.70  169.40   1
  -9   8   6  733.60  170.70   1
   9   8   7   16.20   24.20   1
  -9  -8  -7   -0.00   23.60   1
   9  -8  -7   25.60   23.90   1
  -9   8   7   23.50   23.90   1
   9   8   8  607.20  174.00   1
  -9  -8  -8  334.80  171.10   1
   9  -8  -8  419.90  170.40   1
  -9   8   8  873.70  173.90   1
   9   8   9   44.40   23.40   1
  -9  -8  -9  220.40   34.80   1
   9  -8  -9    1.60   17.70   1
  -9   8   9    8.60   17.80   1
   9   8  10  445.80  120.00   1
   9  -8 -10  192.80   98.40   1
  -9   8  10  223.60   98.60   1
   9  -8 -11   66.20   48.80   1
  -9   8  11   62.30   48.70   1
   9  -8 -12  125.10   51.20   1
  -9   8  12   54.40   50.10   1
   9  -8 -13   15.40   29.40   1
  -9   8  13   48.90   30.10   1
   9   9   0   27.00   30.10   1
  -9  -9   0   26.50   30.00   1
   9  -9   0   -0.00   34.10   1
  -9   9   0   39.70   33.70   1
   9   9   1  122.60   62.20   1
  -9  -9  -1   64.60   62.00   1
   9  -9  -1  237.80   64.30   1
  -9   9   1  101.50   63.30   1
  -9   9  -1  165.20   66.60   1
   9  -9   1  172.40   66.90   1
  -9  -9   1   95.10   62.20   1
   9   9  -1  100.00   62.30   1
   9   9   2   23.30   26.90   1
  -9  -9  -2   23.00   26.80   1
   9  -9  -2   10.90   29.00   1
  -9   9   2   10.40   28.30   1
   9  -9   2    9.90   30.90   1
  -9  -9   2   33.00   27.10   1
   9   9  -2   13.30   27.10   1
   9   9   3   23.30   33.30   1
  -9  -9  -3   35.80   33.40   1
   9  -9  -3   15.60   33.70   1
  -9   9   3    5.50   34.10   1
  -9  -9   3  160.60   35.40   1
   9   9  -3  103.70   34.40   1
   9   9   4   15.70   25.50   1
  -9  -9  -4   21.50   25.40   1
   9  -9  -4    9.70   25.90   1
  -9   9   4   28.80   26.00   1
  -9  -9   4   20.60   26.50   1
   9   9  -4   15.30   26.30   1
   9   9   5   -0.00   19.70   1
  -9  -9  -5   19.80   19.80   1
   9  -9  -5   25.70   20.10   1
  -9   9   5    5.90   20.10   1
  -9  -9   5    7.70   20.30   1
   9   9   6    4.50   14.00   1
  -9  -9  -6   -0.00   13.70   1
   9  -9  -6    7.80   13.80   1
  -9   9   6    4.80   13.20   1
   9   9   7   -0.00   26.00   1
  -9  -9  -7    9.30   26.90   1
   9  -9  -7   77.90   27.00   1
  -9   9   7   17.30   26.20   1
   9   9   8   15.20   26.00   1
  -9  -9  -8   17.30   27.80   1
   9  -9  -8   25.70   25.70   1
  -9   9   8   13.20   25.80   1
   9   9   9  128.50   31.40   1
  -9  -9  -9    6.70   28.10   1
   9  -9  -9   25.30   26.10   1
  -9   9   9    6.00   26.40   1
   9   9  10   27.00   30.90   1
   9  -9 -10   21.80   26.00   1
  -9   9  10   15.40   26.20   1
   9  -9 -11   13.80   21.70   1
  -9   9  11   12.90   21.90   1
   9  -9 -12    8.70   15.90   1
  -9   9  12    4.70   15.50   1
   9  10   0   24.50   29.50   1
  -9 -10   0   21.60   29.50   1
   9 -10   0   10.30   33.20   1
  -9  10   0   74.70   33.60   1
   9  10   1   47.10   29.10   1
  -9 -10  -1   25.00   29.00   1
   9 -10  -1  129.00   34.10   1
  -9  10   1   49.90   32.70   1
  -9  10  -1    0.50   32.30   1
   9 -10   1    9.30   37.00   1
  -9 -10   1   18.30   29.20   1
   9  10  -1    3.50   29.10   1
   9  10   2   27.30   35.50   1
  -9 -10  -2  116.20   36.30   1
   9 -10  -2   43.10   36.50   1
  -9  10   2    6.80   36.10   1
  -9 -10   2   30.70   35.90   1
   9  10  -2   69.60   36.30   1
   9  10   3   26.90   25.60   1
  -9 -10  -3    9.60   25.00   1
   9 -10  -3   17.20   27.40   1
  -9  10   3    0.50   26.30   1
  -9 -10   3  126.40   28.10   1
   9  10  -3   77.70   27.70   1
   9  10   4  331.00  126.70   1
  -9 -10  -4  298.20  126.70   1
   9 -10  -4  328.60  126.90   1
  -9  10   4  262.00  126.60   1
  -9 -10   4  373.90  130.50   1
   9  10  -4  329.60  130.50   1
   9  10   5   -0.00    6.40   1
  -9 -10  -5    1.60    7.10   1
   9 -10  -5   -0.00    8.70   1
  -9  10   5   -0.00    8.50   1
   9  10   6   39.10   41.20   1
  -9 -10  -6   73.70   41.40   1
   9 -10  -6   37.20   41.20   1
  -9  10   6   48.20   41.40   1
   9  10   7   32.00   33.60   1
  -9 -10  -7   21.00   33.90   1
   9 -10  -7   52.50   34.60   1
  -9  10   7   27.60   33.70   1
   9  10   8  245.80  118.90   1
  -9 -10  -8  251.70  118.70   1
   9 -10  -8  296.20  119.00   1
  -9  10   8  343.50  119.60   1
   9  10   9  124.90   28.20   1
  -9 -10  -9    9.60   23.40   1
   9 -10  -9    5.40   22.00   1
   9  10  10  152.20   47.40   1
  -9 -10 -10   98.30   46.80   1
   9 -10 -10   34.60   42.40   1
  -9  10  10   66.20   42.80   1
   9 -10 -11   27.30   28.30   1
  -9  10  11   18.30   28.40   1
   9 -10 -12   23.70   19.60   1
  -9  10  12    3.80   19.10   1
   9  11   0   -0.00   13.50   1
  -9 -11   0    9.40   13.70   1
   9 -11   0   14.80   23.10   1
  -9  11   0    0.00   23.20   1
   9  11   1   61.90   48.20   1
  -9 -11  -1   40.40   48.00   1
   9 -11  -1   65.30   50.50   1
  -9  11   1  103.70   50.80   1
   9 -11   1  169.90   55.00   1
  -9 -11   1   87.70   48.50   1
   9  11  -1  161.80   49.40   1
   9  11   2   10.10   21.40   1
  -9 -11  -2    8.00   21.30   1
   9 -11  -2   31.50   24.40   1
  -9  11   2   -0.00   24.00   1
  -9 -11   2   45.20   22.70   1
   9  11  -2   12.00   22.80   1
   9  11   3   18.00   23.70   1
  -9 -11  -3   20.20   23.70   1
   9 -11  -3    8.90   26.60   1
  -9  11   3   20.00   25.50   1
  -9 -11   3    4.60   24.60   1
   9  11  -3   14.90   24.30   1
   9  11   4    1.90   12.20   1
  -9 -11  -4   -0.00   12.40   1
   9 -11  -4    3.50   15.10   1
  -9  11   4   18.10   15.70   1
   9  11   5  153.20   65.90   1
  -9 -11  -5  128.80   65.40   1
   9 -11  -5   95.30   65.50   1
  -9  11   5   86.80   65.60   1
   9  11   6   -0.00    9.40   1
  -9 -11  -6    2.90    9.50   1
   9 -11  -6   -0.00   10.40   1
  -9  11   6    4.70   10.50   1
   9  11   7   23.50   27.60   1
  -9 -11  -7   18.80   27.60   1
   9 -11  -7   21.60   27.70   1
   9  11   8    9.80   18.30   1
  -9 -11  -8    5.20   18.60   1
   9 -11  -8    2.40   17.90   1
  -9  11   8   12.90   18.30   1
   9  11   9   58.30   41.40   1
  -9 -11  -9   54.90   42.50   1
   9 -11  -9   28.80   40.90   1
  -9  11   9   72.80   41.80   1
   9  11  10   34.00   37.60   1
  -9 -11 -10   23.00   37.50   1
   9 -11 -10   80.30   36.30   1
  -9  11  10   22.40   36.00   1
   9  11  11   88.60   35.10   1
   9 -11 -11   15.40   28.30   1
  -9  11  11   30.60   28.50   1
   9 -11 -12   -0.00   10.50   1
  -9  11  12    5.00   10.60   1
   9  12   0   -0.00   16.50   1
  -9 -12   0   12.20   16.60   1
   9 -12   0   45.40   28.30   1
  -9  12   0    8.90   23.30   1
   9  12   1   -0.00   19.30   1
  -9 -12  -1    4.30   19.10   1
   9 -12  -1   -0.00   24.60   1
  -9  12   1   -0.00   23.00   1
  -9 -12   1   62.60   20.60   1
   9  12  -1   28.20   20.20   1
   9  12   2  339.80  140.40   1
  -9 -12  -2  309.30  140.10   1
   9 -12  -2  608.20  144.90   1
  -9  12   2  357.10  142.60   1
  -9 -12   2  409.10  143.80   1
   9  12  -2  381.50  143.90   1
   9  12   3   14.10   15.60   1
  -9 -12  -3    2.00   15.40   1
   9 -12  -3    5.30   18.20   1
  -9  12   3    1.90   17.40   1
  -9 -12   3    7.00   16.40   1
   9  12   4 1918.10  439.30   1
  -9 -12  -4 1481.60  436.70   1
   9 -12  -4 2564.30  450.10   1
  -9  12   4 1087.60  435.80   1
   9  12   5    7.00   15.70   1
  -9 -12  -5    9.60   15.60   1
   9 -12  -5    0.60   16.30   1
  -9  12   5    3.00   17.30   1
   9  12   6  290.40  120.80   1
  -9 -12  -6  279.20  120.70   1
   9 -12  -6  284.20  120.90   1
  -9  12   6  283.50  120.90   1
   9  12   7   -0.00   10.70   1
  -9 -12  -7   -0.00   10.90   1
   9 -12  -7    3.10   11.40   1
  -9  12   7   10.30   11.80   1
   9  12   8   90.50   54.70   1
  -9 -12  -8  120.90   55.50   1
   9 -12  -8   59.80   54.80   1
  -9  12   8   68.70   54.40   1
   9  12   9   16.00   14.90   1
  -9 -12  -9    2.80   13.40   1
   9 -12  -9   -0.00   13.90   1
  -9  12   9   -0.00   13.30   1
   9  12  10  444.30  101.90   1
  -9 -12 -10  171.50   96.60   1
   9 -12 -10  317.20   96.80   1
  -9  12  10  158.10   95.20   1
   9  12  11   13.30   27.10   1
  -9 -12 -11   -0.00   26.30   1
   9 -12 -11   18.70   24.00   1
  -9  12  11   21.30   24.50   1
   9  13   0   61.30   26.60   1
  -9 -13   0    6.00   25.90   1
   9 -13   0   31.90   32.80   1
   9  13   1  620.00  208.20   1
  -9 -13  -1  615.30  208.30   1
   9 -13  -1  995.10  217.70   1
  -9  13   1  550.30  211.70   1
  -9 -13   1  443.50  208.20   1
   9  13  -1  724.90  214.90   1
   9  13   2   42.50   40.50   1
  -9 -13  -2   50.00   40.30   1
   9 -13  -2   99.30   44.90   1
  -9  13   2   43.20   43.10   1
  -9 -13   2   31.90   40.70   1
   9  13   3 2746.70  776.40   1
  -9 -13  -3 2360.70  774.70   1
   9 -13  -3 3005.40  780.90   1
  -9  13   3 3794.70  789.10   1
   9  13   4   13.20   22.20   1
  -9 -13  -4   19.60   22.70   1
   9 -13  -4    0.00   25.70   1
  -9  13   4   13.50   24.90   1
   9  13   5 1244.00  436.80   1
  -9 -13  -5 2348.30  445.40   1
   9 -13  -5 2181.00  446.70   1
  -9  13   5 1193.50  438.70   1
   9  13   6   54.90   24.00   1
  -9 -13  -6    6.10   22.80   1
   9 -13  -6   12.40   23.40   1
  -9  13   6   10.50   23.40   1
   9  13   7  176.70   88.80   1
  -9 -13  -7  164.70   88.70   1
   9 -13  -7  191.10   89.30   1
  -9  13   7  184.60   89.00   1
   9  13   8   19.30   21.60   1
  -9 -13  -8   10.70   21.90   1
   9 -13  -8   30.80   22.00   1
  -9  13   8   -0.10   21.50   1
   9  13   9  304.80  123.30   1
  -9 -13  -9  665.10  128.50   1
   9 -13  -9  217.10  122.40   1
  -9  13   9  340.40  123.90   1
   9  13  10   18.50   29.10   1
  -9 -13 -10   35.70   30.90   1
   9 -13 -10   19.30   28.80   1
  -9  13  10   33.50   29.80   1
   9  13  11  173.80   95.50   1
  -9 -13 -11  141.40   95.70   1
   9 -13 -11  195.70   94.30   1
  -9  13  11  253.70   95.00   1
   9  14   0    4.90   26.90   1
  -9 -14   0   38.50   26.90   1
   9  14   1   22.10   31.50   1
  -9 -14  -1   22.80   31.50   1
   9 -14  -1   66.30   39.20   1
  -9  14   1   31.40   35.80   1
  -9 -14   1   44.90   32.50   1
   9  14  -1   32.00   31.80   1
   9  14   2   19.40   36.90   1
  -9 -14  -2   75.10   37.20   1
   9 -14  -2  337.00   48.80   1
  -9  14   2   37.40   39.90   1
   9  14   3   11.00   14.40   1
  -9 -14  -3   -0.00   14.20   1
   9 -14  -3   10.00   21.80   1
  -9  14   3    6.30   21.50   1
   9  14   4  125.50   42.20   1
  -9 -14  -4   43.00   41.60   1
   9 -14  -4   63.50   43.20   1
  -9  14   4   19.30   42.30   1
   9  14   5    9.10   15.50   1
  -9 -14  -5    4.10   15.40   1
   9 -14  -5   -0.00   19.00   1
  -9  14   5    8.50   19.20   1
   9  14   6   17.40   26.10   1
  -9 -14  -6   56.50   26.40   1
   9 -14  -6    0.00   26.50   1
  -9  14   6   11.70   27.20   1
   9  14   7   -0.00   19.80   1
  -9 -14  -7   20.90   19.70   1
   9 -14  -7    7.10   20.40   1
  -9  14   7   20.50   20.70   1
   9  14   8   14.30   22.30   1
  -9 -14  -8   20.30   22.40   1
   9 -14  -8    7.50   22.50   1
  -9  14   8   14.70   23.10   1
   9  14   9   -0.00    8.50   1
  -9 -14  -9   -0.00   10.70   1
   9 -14  -9    0.10   11.10   1
  -9  14   9    2.00    8.30   1
   9  14  10   52.40   37.80   1
  -9 -14 -10   33.60   37.00   1
   9 -14 -10   26.90   37.50   1
  -9  14  10   46.30   37.50   1
   9  15   0    0.20    8.90   1
  -9 -15   0   -0.00   10.20   1
   9  15   1   50.90   35.30   1
  -9 -15  -1   69.20   35.30   1
   9 -15  -1   88.70   43.10   1
  -9  15   1   14.60   37.00   1
  -9 -15   1   17.90   34.50   1
   9  15   2   42.50   33.70   1
  -9 -15  -2   19.00   33.30   1
   9 -15  -2  100.80   39.90   1
  -9  15   2   51.00   38.30   1
   9  15   3  362.30  105.50   1
  -9 -15  -3  271.70  104.10   1
   9 -15  -3  378.90  108.70   1
  -9  15   3  131.50  105.00   1
   9  15   4    6.60   18.60   1
  -9 -15  -4    7.50   18.70   1
   9 -15  -4   28.80   21.90   1
  -9  15   4   34.40   23.80   1
   9  15   5   43.30   41.40   1
  -9 -15  -5   37.60   41.50   1
   9 -15  -5  124.60   44.50   1
  -9  15   5   71.80   43.30   1
   9  15   6   24.70   26.80   1
  -9 -15  -6   28.10   26.90   1
   9 -15  -6    4.70   28.40   1
  -9  15   6    8.10   28.50   1
   9  15   7   67.90   47.40   1
  -9 -15  -7  103.10   47.80   1
   9 -15  -7   31.50   47.30   1
  -9  15   7  123.30   48.60   1
   9  15   8   12.90   24.90   1
  -9 -15  -8   23.10   25.10   1
   9 -15  -8   40.90   26.00   1
  -9  15   8    9.40   25.40   1
   9  15   9    8.40   21.20   1
  -9 -15  -9   22.90   21.70   1
   9 -15  -9    0.60   21.50   1
  -9  15   9   30.60   22.00   1
  -9 -16   0   13.70   22.90   1
   9  16   1   38.10   24.90   1
  -9 -16  -1    5.80   24.00   1
   9 -16  -1   20.20   27.00   1
   9  16   2  195.70  117.70   1
  -9 -16  -2  412.50  120.40   1
   9 -16  -2  793.90  141.60   1
  -9  16   2  376.90  127.40   1
   9  16   3    4.90   12.10   1
  -9 -16  -3   -0.00   11.80   1
   9 -16  -3   12.00   20.70   1
  -9  16   3   19.40   19.80   1
   9  16   4   25.10   34.00   1
  -9 -16  -4   32.60   34.00   1
   9 -16  -4  167.60   40.40   1
  -9  16   4   48.40   37.90   1
   9  16   5   21.30   27.70   1
  -9 -16  -5   26.80   27.70   1
   9 -16  -5   19.20   30.00   1
  -9  16   5   15.50   29.00   1
   9  16   6   53.60   42.10   1
  -9 -16  -6   41.50   42.20   1
   9 -16  -6   56.20   43.90   1
  -9  16   6   57.20   43.90   1
   9  16   7    8.20   19.00   1
  -9 -16  -7    3.60   19.30   1
   9 -16  -7   10.90   20.40   1
  -9  16   7   45.10   21.50   1
   9  16   8   44.00   34.50   1
  -9 -16  -8   24.20   34.00   1
   9 -16  -8   29.50   34.50   1
  -9  16   8   50.40   34.90   1
   9  16   9    9.00   20.40   1
  -9 -16  -9   17.90   20.50   1
   9 -16  -9    5.90   20.90   1
  -9  16   9   13.70   21.20   1
  -9 -17  -1   73.70   53.50   1
   9  17   2    5.60   15.40   1
  -9 -17  -2    3.40   14.80   1
   9 -17  -2   -0.00   24.30   1
  -9  17   2   19.50   20.20   1
   9  17   3   29.90   40.60   1
  -9 -17  -3   78.10   41.10   1
   9 -17  -3   99.40   45.80   1
  -9  17   3   49.10   45.30   1
   9  17   4   -0.00    8.90   1
  -9 -17  -4    0.00    8.50   1
   9 -17  -4   -0.00   19.10   1
  -9  17   4   34.50   17.90   1
   9  17   5   86.40   46.60   1
  -9 -17  -5   40.10   46.10   1
   9 -17  -5  113.90   48.30   1
  -9  17   5  126.90   50.10   1
   9  17   6   -0.00   12.90   1
  -9 -17  -6   10.90   13.30   1
   9 -17  -6   -0.00   17.90   1
  -9  17   6   16.00   16.60   1
  -9 -17  -7   12.80   19.90   1
   9 -17  -7    6.80   22.70   1
  -9  17   7    8.80   22.70   1
   9  17   8   20.70   20.00   1
  -9 -17  -8    8.30   19.90   1
   9 -17  -8   -0.00   20.00   1
  -9  17   8   17.20   20.80   1
   9  18   2  289.60   94.80   1
  -9 -18  -2  176.50   87.80   1
   9 -18  -2  125.30   89.20   1
   9  18   3   10.10   20.80   1
  -9 -18  -3    9.90   20.10   1
   9 -18  -3   37.40   29.40   1
  -9  18   3   13.10   25.40   1
   9  18   4  604.30  214.60   1
  -9 -18  -4  609.10  213.80   1
   9 -18  -4  690.50  217.80   1
  -9  18   4  542.80  216.00   1
   9  18   5    0.60   18.40   1
  -9 -18  -5   17.70   18.40   1
   9 -18  -5   19.30   22.60   1
  -9  18   5   27.00   24.40   1
   9  18   6   59.90   49.60   1
  -9 -18  -6   82.90   49.80   1
   9 -18  -6   89.80   51.60   1
  -9  18   6   50.50   50.50   1
   9  18   7   -0.00   13.90   1
  -9 -18  -7   12.80   14.50   1
   9 -18  -7   27.70   19.00   1
  -9  18   7   10.20   18.10   1
  -9 -19  -2   -0.00    7.30   1
   9  19   3   30.20   37.40   1
  -9 -19  -3  110.60   39.50   1
   9 -19  -3   38.40   42.50   1
  -9  19   3   27.00   39.30   1
   9  19   4    4.10    9.90   1
  -9 -19  -4   -0.00    9.50   1
   9 -19  -4   -0.00   19.70   1
  -9  19   4   -0.00   21.10   1
   9  19   5    7.50   18.50   1
  -9 -19  -5    9.30   18.30   1
   9 -19  -5   19.20   25.40   1
  -9  19   5   18.10   23.70   1
  -9 -20  -3    5.80   16.80   1
   9 -20  -3    9.80   23.70   1
  10   0   0 7510.90 2021.50   1
 -10   0   0 7638.10 2019.30   1
  10   0   1   39.60   28.30   1
 -10   0  -1   58.70   28.50   1
  10   0  -1    7.80   27.80   1
 -10   0   1   11.50   27.80   1
  10   0   2 5091.50 1111.00   1
 -10   0  -2 4538.20 1108.90   1
  10   0  -2 3868.40 1101.40   1
 -10   0   2 3510.70 1101.00   1
  10   0   3  202.90   58.70   1
 -10   0  -3  123.70   57.20   1
  10   0  -3  102.80   56.40   1
 -10   0   3   48.00   56.00   1
  10   0   4  538.40  192.80   1
 -10   0  -4  569.20  193.20   1
  10   0  -4  536.40  192.40   1
 -10   0   4  532.20  192.30   1
  10   0   5  148.70   62.30   1
 -10   0  -5   80.00   60.70   1
  10   0  -5  136.90   58.70   1
 -10   0   5   62.40   58.30   1
  10   0   6   70.70   63.30   1
 -10   0  -6   16.40   62.10   1
  10   0  -6  148.80   60.10   1
 -10   0   6   98.60   59.90   1
  10   0  -7   43.10   36.30   1
 -10   0   7   31.00   36.20   1
  10   0  -8 2181.30  623.20   1
 -10   0   8 2147.90  622.90   1
  10   0  -9   33.70   34.70   1
 -10   0   9   32.70   34.70   1
  10   0 -10  721.90  231.20   1
 -10   0  10  629.20  228.90   1
  10   0 -11   44.90   40.60   1
 -10   0  11   41.90   40.60   1
  10   0 -12   10.00   21.80   1
 -10   0  12   16.10   22.50   1
 -10   0  13    5.10   15.20   1
  10   1   0   54.00   41.70   1
 -10  -1   0   27.30   41.50   1
  10  -1   0   64.10   41.90   1
 -10   1   0   69.10   41.90   1
  10   1   1  265.00  107.00   1
 -10  -1  -1  233.70  106.80   1
  10  -1  -1  198.40  106.70   1
 -10   1   1  198.30  106.70   1
 -10   1  -1  312.80  107.60   1
  10  -1   1  309.00  107.50   1
 -10  -1   1  222.70  107.10   1
  10   1  -1  263.90  107.40   1
  10   1   2   43.60   31.70   1
 -10  -1  -2   20.30   31.30   1
  10  -1  -2   28.70   31.60   1
 -10   1   2   37.70   31.50   1
 -10   1  -2   43.70   32.30   1
  10  -1   2   35.00   32.60   1
 -10  -1   2    8.70   31.40   1
  10   1  -2   15.00   31.80   1
  10   1   3   25.10   24.30   1
 -10  -1  -3   19.80   23.90   1
  10  -1  -3   14.20   23.90   1
 -10   1   3   22.30   23.60   1
 -10   1  -3    9.60   23.70   1
  10  -1   3   12.90   23.50   1
 -10  -1   3    9.10   22.90   1
  10   1  -3    8.00   23.00   1
  10   1   4    7.80   18.90   1
 -10  -1  -4   -0.00   18.80   1
  10  -1  -4   19.10   18.90   1
 -10   1   4   21.60   17.90   1
 -10   1  -4   17.20   22.00   1
  10  -1   4   -0.00   23.20   1
 -10  -1   4    0.30   17.20   1
  10   1  -4    6.00   17.30   1
  10   1   5   23.20   37.40   1
 -10  -1  -5   18.40   36.30   1
  10  -1  -5   32.50   34.60   1
 -10   1   5   67.60   34.90   1
 -10   1  -5   43.30   37.90   1
  10  -1   5    6.70   37.80   1
 -10  -1   5   31.50   34.30   1
  10   1  -5   29.20   34.50   1
  10   1   6   -0.00   26.70   1
 -10  -1  -6    2.50   26.30   1
  10  -1  -6   17.90   20.90   1
 -10   1   6   14.20   20.80   1
 -10   1  -6    5.80   26.60   1
  10  -1   6   -0.00   27.50   1
 -10  -1   6   14.30   21.00   1
  10   1  -6    8.20   20.60   1
  10   1   7   11.10   39.60   1
 -10  -1  -7   60.30   40.20   1
  10  -1  -7   30.40   36.20   1
 -10   1   7   66.90   36.40   1
 -10  -1   7   25.90   36.60   1
  10   1  -7   34.10   36.70   1
  10  -1  -8   50.10   39.30   1
 -10   1   8   39.30   39.00   1
 -10  -1   8   41.30   39.10   1
  10   1  -8   39.00   39.10   1
  10  -1  -9  210.30   68.90   1
 -10   1   9  263.40   69.60   1
 -10  -1   9   94.00   67.90   1
  10   1  -9   76.60   67.70   1
  10  -1 -10   10.20   23.30   1
 -10   1  10   17.60   23.10   1
 -10  -1  10   10.80   24.20   1
  10   1 -10   18.60   23.90   1
  10  -1 -11   31.40   24.20   1
 -10   1  11   12.40   23.20   1
 -10  -1  11    0.00   23.80   1
  10   1 -11   17.10   23.30   1
  10  -1 -12    6.30   19.20   1
 -10   1  12   20.70   19.90   1
 -10  -1  12    2.50   19.20   1
 -10   1  13   21.50   28.80   1
  10   2   0  796.70  269.50   1
 -10  -2   0  728.50  269.30   1
  10  -2   0  984.10  269.90   1
 -10   2   0  849.20  269.50   1
  10   2   1   55.30   50.80   1
 -10  -2  -1   67.00   51.10   1
  10  -2  -1   88.70   51.30   1
 -10   2   1   63.60   50.90   1
 -10   2  -1   60.30   52.40   1
  10  -2   1   69.00   52.30   1
 -10  -2   1   69.00   51.00   1
  10   2  -1   98.80   51.50   1
  10   2   2  142.90   37.50   1
 -10  -2  -2   99.20   37.10   1
  10  -2  -2   86.70   36.90   1
 -10   2   2   55.40   36.70   1
 -10   2  -2   17.40   37.60   1
  10  -2   2   16.00   38.20   1
 -10  -2   2    0.30   36.40   1
  10   2  -2   18.50   36.90   1
  10   2   3   52.40   36.10   1
 -10  -2  -3  266.30   39.20   1
  10  -2  -3   12.70   35.20   1
 -10   2   3    7.10   34.80   1
 -10   2  -3   21.40   37.10   1
  10  -2   3   24.60   36.00   1
 -10  -2   3   46.60   34.80   1
  10   2  -3   53.30   34.90   1
  10   2   4   75.20   56.40   1
 -10  -2  -4  136.80   56.60   1
  10  -2  -4   93.20   55.50   1
 -10   2   4   65.70   55.40   1
 -10   2  -4  143.40   58.60   1
 -10  -2   4   64.40   55.00   1
  10   2  -4   78.90   55.20   1
  10   2   5   25.60   32.40   1
 -10  -2  -5   50.70   33.40   1
  10  -2  -5   49.30   31.50   1
 -10   2   5   34.60   31.30   1
 -10   2  -5   63.40   36.80   1
  10  -2   5  263.70   43.20   1
 -10  -2   5   11.60   30.60   1
  10   2  -5   19.90   30.80   1
  10   2   6  182.40   33.20   1
 -10  -2  -6   91.90   30.20   1
  10  -2  -6   21.10   25.30   1
 -10   2   6    3.50   24.90   1
  10  -2   6   51.60   29.60   1
 -10  -2   6   20.40   25.20   1
  10   2  -6    8.80   25.40   1
  10   2   7   77.80   57.50   1
 -10  -2  -7  131.10   56.50   1
  10  -2  -7   84.90   52.00   1
 -10   2   7   76.20   52.00   1
 -10  -2   7   64.50   52.10   1
  10   2  -7   54.80   52.10   1
  10  -2  -8   84.20   59.50   1
 -10   2   8  116.30   59.70   1
 -10  -2   8   79.20   59.80   1
  10   2  -8   91.90   59.80   1
  10  -2  -9   12.00   29.90   1
 -10   2   9   46.50   30.30   1
 -10  -2   9   26.10   30.60   1
  10   2  -9   23.60   30.60   1
  10  -2 -10  242.40   84.10   1
 -10   2  10  130.50   82.80   1
 -10  -2  10  144.60   83.90   1
  10   2 -10  194.20   85.30   1
  10  -2 -11   14.30   23.70   1
 -10   2  11    7.10   23.40   1
 -10  -2  11   48.10   24.90   1
  10  -2 -12    6.70   26.40   1
 -10   2  12  145.20   30.70   1
  10  -2 -13   11.40   22.90   1
 -10   2  13   16.20   23.40   1
  10   3   0  190.90   79.90   1
 -10  -3   0  120.80   79.50   1
  10  -3   0  186.90   79.70   1
 -10   3   0  131.80   79.50   1
  10   3   1  177.70   73.10   1
 -10  -3  -1   76.20   72.60   1
  10  -3  -1  136.10   73.00   1
 -10   3   1  120.40   73.10   1
 -10   3  -1  128.30   73.70   1
  10  -3   1  133.80   73.70   1
 -10  -3   1  249.70   73.80   1
  10   3  -1  245.50   73.60   1
  10   3   2   -0.00   18.00   1
 -10  -3  -2   14.10   18.20   1
  10  -3  -2    0.00   18.20   1
 -10   3   2    9.90   18.00   1
 -10   3  -2   10.10   20.10   1
  10  -3   2   11.50   19.70   1
 -10  -3   2   14.80   18.70   1
  10   3  -2   19.10   18.70   1
  10   3   3  124.10   41.20   1
 -10  -3  -3  159.10   41.50   1
  10  -3  -3   24.20   40.50   1
 -10   3   3   34.40   40.30   1
 -10   3  -3   31.50   42.30   1
  10  -3   3   86.60   43.60   1
 -10  -3   3   15.80   40.00   1
  10   3  -3   86.30   40.40   1
  10   3   4   42.50   45.20   1
 -10  -3  -4   13.90   44.80   1
  10  -3  -4  156.40   45.90   1
 -10   3   4   15.00   44.60   1
 -10   3  -4   40.40   47.00   1
  10  -3   4   94.00   48.00   1
 -10  -3   4  108.20   44.70   1
  10   3  -4  100.60   44.70   1
  10   3   5  400.60  150.90   1
 -10  -3  -5  604.90  152.10   1
  10  -3  -5  448.80  151.00   1
 -10   3   5  282.30  150.30   1
 -10   3  -5  272.80  153.00   1
  10  -3   5  516.50  157.80   1
 -10  -3   5  456.50  151.00   1
  10   3  -5  449.20  151.00   1
  10   3   6   70.40   47.60   1
 -10  -3  -6   17.30   46.00   1
  10  -3  -6   64.30   45.40   1
 -10   3   6   58.50   45.40   1
 -10  -3   6   70.50   45.40   1
  10   3  -6   60.00   45.50   1
  10   3   7   67.40   41.40   1
 -10  -3  -7   10.80   40.20   1
  10  -3  -7   25.00   37.20   1
 -10   3   7  200.00   38.80   1
 -10  -3   7   83.70   38.10   1
  10   3  -7   19.10   37.50   1
  10   3   8   -0.00   27.60   1
 -10  -3  -8   22.30   22.80   1
  10  -3  -8    8.50   18.20   1
 -10   3   8   -0.00   18.30   1
 -10  -3   8  117.80   22.30   1
  10  -3  -9   91.60   66.10   1
 -10   3   9  117.80   66.20   1
 -10  -3   9  125.50   67.30   1
  10   3  -9  154.30   68.30   1
  10  -3 -10    6.80   12.60   1
 -10   3  10    3.60   12.60   1
 -10  -3  10    1.30   14.50   1
  10   3 -10   -0.00   12.50   1
  10  -3 -11   -0.00   11.60   1
 -10   3  11    5.00   11.70   1
  10  -3 -12   23.30   33.80   1
 -10   3  12   41.80   34.10   1
  10  -3 -13    9.70   17.70   1
 -10   3  13    4.00   17.40   1
  10   4   0  726.80  142.80   1
 -10  -4   0  366.40  140.70   1
  10  -4   0  353.00  141.30   1
 -10   4   0  257.30  140.80   1
  10   4   1    3.20   16.50   1
 -10  -4  -1    5.90   16.30   1
  10  -4  -1   13.30   16.80   1
 -10   4   1   11.80   16.90   1
 -10   4  -1    3.00   18.50   1
  10  -4   1    8.90   19.60   1
 -10  -4   1    2.70   16.90   1
  10   4  -1    7.20   16.90   1
  10   4   2  102.20   63.30   1
 -10  -4  -2   99.90   63.30   1
  10  -4  -2  117.50   63.50   1
 -10   4   2   96.50   63.40   1
 -10   4  -2  154.00   65.00   1
  10  -4   2  132.60   64.50   1
 -10  -4   2   87.60   63.30   1
  10   4  -2   87.20   63.30   1
  10   4   3   38.60   26.40   1
 -10  -4  -3   40.90   26.50   1
  10  -4  -3   15.70   26.10   1
 -10   4   3   20.80   26.10   1
 -10   4  -3   -0.00   30.10   1
  10  -4   3   35.40   32.40   1
 -10  -4   3    7.50   26.30   1
  10   4  -3    6.90   26.10   1
  10   4   4   17.20   35.20   1
 -10  -4  -4  225.90   38.30   1
  10  -4  -4   13.10   35.20   1
 -10   4   4    3.30   34.90   1
 -10   4  -4   -0.00   39.30   1
  10  -4   4   23.50   39.90   1
 -10  -4   4   76.10   34.90   1
  10   4  -4   85.10   35.10   1
  10   4   5    8.50   20.70   1
 -10  -4  -5    6.50   20.80   1
  10  -4  -5   -0.00   18.80   1
 -10   4   5   -0.00   19.30   1
  10  -4   5   12.70   25.30   1
 -10  -4   5   17.90   19.10   1
  10   4  -5   22.10   19.10   1
  10   4   6   22.50   29.60   1
 -10  -4  -6   -0.00   30.10   1
  10  -4  -6   46.10   29.20   1
 -10   4   6   22.10   29.10   1
 -10  -4   6   16.90   28.80   1
  10   4  -6   25.00   28.80   1
  10   4   7   38.10   23.90   1
 -10  -4  -7   16.60   22.90   1
  10  -4  -7    4.60   18.20   1
 -10   4   7   11.00   18.30   1
 -10  -4   7    7.40   18.80   1
  10   4  -7    6.20   18.90   1
  10   4   8   44.80   36.70   1
 -10  -4  -8    4.70   34.80   1
  10  -4  -8   41.70   31.20   1
 -10   4   8   39.50   31.10   1
 -10  -4   8    9.40   32.20   1
  10   4  -8    6.90   31.80   1
  10  -4  -9    7.40   22.20   1
 -10   4   9   13.70   22.10   1
 -10  -4   9   28.40   24.00   1
  10   4  -9   19.80   23.70   1
  10  -4 -10   10.90   24.20   1
 -10   4  10   27.70   24.10   1
 -10  -4  10    9.00   24.40   1
  10  -4 -11    3.40   10.70   1
 -10   4  11   -0.00   10.00   1
  10  -4 -12   16.00   17.60   1
 -10   4  12   -0.00   17.40   1
  10  -4 -13   18.90   22.70   1
 -10   4  13    7.80   22.50   1
  10   5   0    1.00   18.80   1
 -10  -5   0   19.60   19.30   1
  10  -5   0   13.40   20.40   1
 -10   5   0    9.30   20.50   1
  10   5   1  929.00  288.10   1
 -10  -5  -1 1527.00  292.70   1
  10  -5  -1 1270.00  289.60   1
 -10   5   1 1073.40  288.60   1
 -10   5  -1  730.50  287.00   1
  10  -5   1  903.10  287.60   1
 -10  -5   1 1282.30  288.90   1
  10   5  -1  656.90  286.60   1
  10   5   2   20.50   30.10   1
 -10  -5  -2    2.30   30.00   1
  10  -5  -2   22.50   30.30   1
 -10   5   2   52.50   30.50   1
 -10   5  -2   21.10   32.90   1
  10  -5   2   13.30   34.70   1
 -10  -5   2   73.10   30.60   1
  10   5  -2   45.50   30.40   1
  10   5   3   75.80   52.30   1
 -10  -5  -3   46.60   52.10   1
  10  -5  -3   97.80   52.60   1
 -10   5   3   66.90   52.40   1
 -10   5  -3   35.60   54.20   1
  10  -5   3   43.20   54.40   1
 -10  -5   3  121.80   52.30   1
  10   5  -3   97.30   52.40   1
  10   5   4   45.40   28.30   1
 -10  -5  -4   17.20   28.20   1
  10  -5  -4  103.80   29.10   1
 -10   5   4   20.60   28.00   1
 -10   5  -4   -0.00   34.00   1
  10  -5   4   45.10   37.70   1
 -10  -5   4    7.80   28.00   1
  10   5  -4   11.20   28.10   1
  10   5   5   18.70   25.00   1
 -10  -5  -5    5.90   24.20   1
  10  -5  -5   29.10   24.10   1
 -10   5   5   27.40   23.90   1
 -10  -5   5    6.50   23.50   1
  10   5  -5   11.90   23.50   1
  10   5   6   -0.00   23.60   1
 -10  -5  -6   43.30   24.40   1
  10  -5  -6   15.40   23.40   1
 -10   5   6   16.70   23.20   1
 -10  -5   6   14.70   23.50   1
  10   5  -6   12.60   23.60   1
  10   5   7  186.30   80.20   1
 -10  -5  -7  116.80   78.80   1
  10  -5  -7  137.70   78.10   1
 -10   5   7  190.50   78.30   1
 -10  -5   7  124.40   78.30   1
  10   5  -7  130.00   78.50   1
  10   5   8   59.70   36.40   1
 -10  -5  -8   40.20   37.10   1
  10  -5  -8   15.10   32.60   1
 -10   5   8   48.80   33.00   1
 -10  -5   8   31.20   33.70   1
  10   5  -8   24.50   33.50   1
  10   5   9 2290.30  605.60   1
  10  -5  -9 1827.70  553.10   1
 -10   5   9 1928.80  553.00   1
 -10  -5   9 2098.50  596.10   1
  10  -5 -10   21.50   31.50   1
 -10   5  10   36.90   31.60   1
  10  -5 -11   45.00   47.30   1
 -10   5  11  124.90   48.40   1
  10  -5 -12   13.70   30.40   1
 -10   5  12   88.50   31.80   1
  10  -5 -13   38.90   36.10   1
 -10   5  13   32.30   35.70   1
  10   6   0  368.20  149.00   1
 -10  -6   0  402.50  149.20   1
  10  -6   0  433.50  150.30   1
 -10   6   0  358.20  149.60   1
  10   6   1   32.20   26.30   1
 -10  -6  -1   14.50   26.20   1
  10  -6  -1    3.80   26.80   1
 -10   6   1   12.40   26.70   1
 -10   6  -1    0.00   27.70   1
  10  -6   1   15.10   27.80   1
 -10  -6   1    9.50   25.50   1
  10   6  -1   43.20   25.60   1
  10   6   2   73.10   35.80   1
 -10  -6  -2   18.10   35.20   1
  10  -6  -2   18.10   35.40   1
 -10   6   2    7.10   35.10   1
 -10   6  -2   26.90   38.60   1
  10  -6   2   37.70   39.10   1
 -10  -6   2   58.30   35.20   1
  10   6  -2  112.00   35.50   1
  10   6   3   -0.00   10.40   1
 -10  -6  -3    2.70   10.70   1
  10  -6  -3   -0.00   11.40   1
 -10   6   3   -0.00   11.20   1
 -10   6  -3    4.50   21.60   1
  10  -6   3   12.30   22.90   1
 -10  -6   3    2.90   10.80   1
  10   6  -3    8.50   11.00   1
  10   6   4   19.20   27.70   1
 -10  -6  -4   22.90   27.80   1
  10  -6  -4   34.10   27.70   1
 -10   6   4   12.40   27.50   1
  10  -6   4   26.10   32.90   1
 -10  -6   4   26.30   28.10   1
  10   6  -4   21.10   28.20   1
  10   6   5   20.60   26.00   1
 -10  -6  -5   17.90   26.40   1
  10  -6  -5   -0.00   26.10   1
 -10   6   5   50.00   26.40   1
 -10  -6   5   12.00   25.30   1
  10   6  -5   19.40   25.70   1
  10   6   6   30.40   34.40   1
 -10  -6  -6   33.60   34.20   1
  10  -6  -6    8.80   33.30   1
 -10   6   6   27.10   33.60   1
 -10  -6   6   60.50   33.90   1
  10   6  -6   58.60   34.20   1
  10   6   7    2.30   17.20   1
 -10  -6  -7   -0.00   19.40   1
  10  -6  -7   18.00   16.30   1
 -10   6   7   -0.00   16.00   1
 -10  -6   7    3.90   17.00   1
  10   6  -7    8.40   17.20   1
  10   6   8  102.60   36.20   1
 -10  -6  -8   18.30   33.70   1
  10  -6  -8   23.60   31.40   1
 -10   6   8   27.30   31.50   1
 -10  -6   8   24.30   32.10   1
  10   6  -8   27.30   31.70   1
  10   6   9   -0.00   32.30   1
 -10  -6  -9    7.60   29.90   1
  10  -6  -9   36.50   26.90   1
 -10   6   9   13.60   26.80   1
  10  -6 -10  105.40   62.70   1
 -10   6  10   96.00   62.70   1
  10  -6 -11    0.50    8.90   1
 -10   6  11    1.80    8.70   1
  10  -6 -12    7.80   17.70   1
 -10   6  12    7.50   17.50   1
  10  -6 -13   -0.00   15.20   1
 -10   6  13   10.50   15.10   1
  10   7   0   35.00   33.50   1
 -10  -7   0   30.80   33.60   1
  10  -7   0   22.10   34.30   1
 -10   7   0   38.20   34.40   1
  10   7   1   52.10   37.40   1
 -10  -7  -1   36.80   37.20   1
  10  -7  -1   14.60   38.30   1
 -10   7   1   29.00   38.30   1
 -10   7  -1   24.40   39.30   1
  10  -7   1   44.00   40.30   1
 -10  -7   1   73.10   37.30   1
  10   7  -1   30.80   37.10   1
  10   7   2   41.70   30.60   1
 -10  -7  -2   32.20   30.70   1
  10  -7  -2   41.90   31.10   1
 -10   7   2   48.20   31.30   1
 -10   7  -2    6.20   33.30   1
  10  -7   2   17.30   33.60   1
 -10  -7   2   13.60   30.00   1
  10   7  -2   17.80   30.10   1
  10   7   3   26.60   36.00   1
 -10  -7  -3   32.40   36.10   1
  10  -7  -3   52.40   36.50   1
 -10   7   3   35.20   36.40   1
 -10   7  -3   11.60   39.50   1
  10  -7   3   48.10   42.90   1
 -10  -7   3   36.30   36.50   1
  10   7  -3   98.20   37.10   1
  10   7   4    6.30   16.50   1
 -10  -7  -4    5.00   16.30   1
  10  -7  -4   -0.00   16.60   1
 -10   7   4    7.40   16.60   1
 -10  -7   4   13.70   16.90   1
  10   7  -4   16.30   17.40   1
  10   7   5   49.30   22.50   1
 -10  -7  -5    9.50   22.30   1
  10  -7  -5   11.60   22.30   1
 -10   7   5   -0.00   21.90   1
 -10  -7   5    8.00   22.20   1
  10   7  -5   21.40   22.80   1
  10   7   6   25.30   23.70   1
 -10  -7  -6    1.50   22.80   1
  10  -7  -6   25.00   23.10   1
 -10   7   6   23.50   22.80   1
 -10  -7   6    3.50   23.20   1
  10   7  -6    7.20   23.30   1
  10   7   7   31.80   38.20   1
 -10  -7  -7  101.40   38.90   1
  10  -7  -7   23.80   37.60   1
 -10   7   7   64.50   38.20   1
 -10  -7   7   32.60   38.40   1
  10   7  -7   28.80   38.00   1
  10   7   8   25.40   28.90   1
 -10  -7  -8    8.00   26.40   1
  10  -7  -8   27.50   25.00   1
 -10   7   8    7.90   25.20   1
  10   7   9   70.00   39.80   1
 -10  -7  -9   80.20   41.10   1
  10  -7  -9   41.30   35.80   1
 -10   7   9   24.10   35.60   1
  10   7  10   15.50   27.70   1
  10  -7 -10   17.50   22.30   1
 -10   7  10   10.30   22.20   1
  10  -7 -11    3.00   18.40   1
 -10   7  11   14.60   18.20   1
  10  -7 -12   10.10   14.20   1
 -10   7  12   -0.00   13.90   1
  10  -7 -13   21.80   22.00   1
 -10   7  13    6.80   21.70   1
  10   8   0   36.90   28.10   1
 -10  -8   0   10.30   27.80   1
  10  -8   0   24.40   29.50   1
 -10   8   0   48.70   31.10   1
  10   8   1   42.10   41.80   1
 -10  -8  -1   54.50   41.80   1
  10  -8  -1  116.70   44.20   1
 -10   8   1   82.80   42.70   1
 -10   8  -1   51.70   43.90   1
  10  -8   1   59.60   45.20   1
 -10  -8   1   28.30   41.40   1
  10   8  -1   49.20   41.50   1
  10   8   2   52.50   36.70   1
 -10  -8  -2   28.20   36.60   1
  10  -8  -2   77.00   38.20   1
 -10   8   2   10.90   37.40   1
 -10   8  -2  100.10   42.20   1
  10  -8   2   16.70   42.10   1
 -10  -8   2   34.10   36.30   1
  10   8  -2   39.70   36.50   1
  10   8   3   10.10   24.20   1
 -10  -8  -3   21.10   24.10   1
  10  -8  -3   23.00   24.20   1
 -10   8   3   16.70   24.20   1
 -10   8  -3   11.40   27.80   1
  10  -8   3   47.10   33.10   1
 -10  -8   3    9.60   23.70   1
  10   8  -3   15.20   23.80   1
  10   8   4  347.30  141.60   1
 -10  -8  -4  405.20  142.20   1
  10  -8  -4  577.40  143.10   1
 -10   8   4  336.80  141.70   1
 -10  -8   4  343.70  142.10   1
  10   8  -4  276.20  141.70   1
  10   8   5   33.40   36.80   1
 -10  -8  -5   31.20   36.90   1
  10  -8  -5   32.50   36.80   1
 -10   8   5   36.70   36.80   1
 -10  -8   5  115.50   39.00   1
  10   8  -5   83.70   38.40   1
  10   8   6  554.10  135.80   1
 -10  -8  -6  391.70  135.00   1
  10  -8  -6  429.10  135.30   1
 -10   8   6  216.40  133.70   1
 -10  -8   6  590.00  142.50   1
  10   8  -6  568.70  143.40   1
  10   8   7   16.20   33.40   1
 -10  -8  -7   42.40   33.10   1
  10  -8  -7   32.10   32.90   1
 -10   8   7   36.10   32.90   1
 -10  -8   7   18.20   32.50   1
  10   8   8  229.80   96.80   1
 -10  -8  -8  175.00   96.80   1
  10  -8  -8  242.70   96.40   1
 -10   8   8  176.50   95.80   1
  10   8   9   41.90   35.90   1
 -10  -8  -9   -0.00   34.00   1
  10  -8  -9   73.70   32.70   1
 -10   8   9   17.30   32.30   1
  10   8  10   32.80   31.00   1
 -10  -8 -10   -0.00   27.90   1
  10  -8 -10    6.70   25.10   1
 -10   8  10   58.60   25.90   1
  10  -8 -11   20.00   26.10   1
 -10   8  11   18.50   26.10   1
  10  -8 -12   19.40   22.10   1
 -10   8  12    9.30   21.80   1
  10   9   0    1.80   13.80   1
 -10  -9   0    7.90   13.90   1
  10  -9   0   14.60   20.60   1
 -10   9   0    0.90   18.30   1
  10   9   1   13.10   27.30   1
 -10  -9  -1   62.20   28.00   1
  10  -9  -1   38.50   28.80   1
 -10   9   1   15.10   28.60   1
 -10   9  -1    7.30   31.20   1
  10  -9   1   30.70   32.80   1
 -10  -9   1   -0.00   27.30   1
  10   9  -1   59.10   27.80   1
  10   9   2    4.90   14.60   1
 -10  -9  -2    1.50   13.90   1
  10  -9  -2    5.40   17.00   1
 -10   9   2    4.80   17.30   1
 -10   9  -2   13.40   21.50   1
  10  -9   2   -0.00   27.70   1
 -10  -9   2    9.70   14.30   1
  10   9  -2    4.30   14.70   1
  10   9   3   46.30   38.90   1
 -10  -9  -3   38.10   38.50   1
  10  -9  -3   47.60   39.00   1
 -10   9   3   19.80   38.90   1
 -10  -9   3   40.30   38.60   1
  10   9  -3   64.30   38.90   1
  10   9   4   12.10   32.80   1
 -10  -9  -4   44.20   33.00   1
  10  -9  -4   37.90   33.20   1
 -10   9   4   37.30   33.50   1
 -10  -9   4   51.60   34.00   1
  10   9  -4   28.20   33.80   1
  10   9   5   27.60   21.80   1
 -10  -9  -5   15.00   21.50   1
  10  -9  -5    8.60   21.90   1
 -10   9   5   10.40   21.70   1
 -10  -9   5    7.60   23.20   1
  10   9  -5   -0.00   23.20   1
  10   9   6   21.30   17.90   1
 -10  -9  -6   -0.00   17.90   1
  10  -9  -6   10.70   17.80   1
 -10   9   6    4.70   17.60   1
 -10  -9   6    5.20   18.50   1
  10   9   7   22.20   23.10   1
 -10  -9  -7    3.00   22.60   1
  10  -9  -7    9.00   22.10   1
 -10   9   7   17.80   22.50   1
  10   9   8    4.00   24.40   1
 -10  -9  -8   29.50   24.40   1
  10  -9  -8   23.70   24.10   1
 -10   9   8    4.00   24.50   1
  10   9   9  134.70   64.00   1
 -10  -9  -9   61.40   62.10   1
  10  -9  -9   90.30   61.70   1
 -10   9   9  148.20   62.30   1
  10   9  10   14.80   23.10   1
 -10  -9 -10   14.20   25.50   1
  10  -9 -10    4.50   18.30   1
 -10   9  10   12.60   18.60   1
  10   9  11   46.00   43.90   1
  10  -9 -11   46.20   40.50   1
 -10   9  11   45.10   40.50   1
  10  -9 -12   -0.00    6.50   1
 -10   9  12   -0.00    5.90   1
  10  10   0 2198.60  506.10   1
 -10 -10   0 1902.40  503.00   1
  10 -10   0 2152.90  510.60   1
 -10  10   0 1234.20  502.40   1
  10  10   1    5.70   20.60   1
 -10 -10  -1   32.40   21.00   1
  10 -10  -1    7.40   23.10   1
 -10  10   1    3.00   24.30   1
 -10  10  -1   22.40   27.70   1
  10 -10   1  120.60   30.10   1
 -10 -10   1    2.30   20.80   1
  10  10  -1   10.90   20.90   1
  10  10   2  130.40   35.40   1
 -10 -10  -2   26.20   34.60   1
  10 -10  -2   12.60   36.40   1
 -10  10   2   17.20   35.60   1
 -10  10  -2   40.60   37.90   1
  10 -10   2  154.90   43.70   1
 -10 -10   2   13.10   34.60   1
  10  10  -2   69.80   35.10   1
  10  10   3   19.20   26.30   1
 -10 -10  -3   17.70   26.70   1
  10 -10  -3    8.70   28.00   1
 -10  10   3    5.00   27.90   1
 -10 -10   3   30.20   26.50   1
  10  10  -3   24.70   26.70   1
  10  10   4   50.70   47.10   1
 -10 -10  -4   43.90   46.90   1
  10 -10  -4   54.10   47.00   1
 -10  10   4   99.20   47.50   1
 -10 -10   4   65.40   47.60   1
  10  10  -4   89.70   47.90   1
  10  10   5    3.50   12.70   1
 -10 -10  -5    8.20   13.00   1
  10 -10  -5    9.40   14.30   1
 -10  10   5   -0.00   13.80   1
 -10 -10   5    1.20   14.50   1
  10  10  -5   -0.00   13.70   1
  10  10   6  132.30   71.60   1
 -10 -10  -6  123.10   71.50   1
  10 -10  -6  120.10   71.60   1
 -10  10   6  125.60   71.80   1
  10  10   7    9.20   36.20   1
 -10 -10  -7   79.40   37.30   1
  10 -10  -7   76.90   37.50   1
 -10  10   7   42.50   36.40   1
  10  10   8  619.00  134.40   1
 -10 -10  -8  532.10  132.60   1
  10 -10  -8  749.40  135.20   1
 -10  10   8  200.60  129.90   1
  10  10   9   22.80   26.20   1
 -10 -10  -9   34.90   28.50   1
  10 -10  -9   11.10   25.50   1
 -10  10   9   16.20   25.30   1
  10  10  10   32.30   33.10   1
 -10 -10 -10   19.00   32.60   1
  10 -10 -10   10.70   30.30   1
 -10  10  10   59.70   30.80   1
  10  10  11   28.30   27.70   1
 -10 -10 -11    4.20   23.70   1
  10 -10 -11   -0.00   21.00   1
 -10  10  11   51.60   21.70   1
  10 -10 -12   35.60   25.60   1
 -10  10  12   10.00   25.30   1
  10  11   0   26.00   26.90   1
 -10 -11   0   14.80   26.80   1
  10 -11   0   56.80   33.20   1
 -10  11   0   11.30   29.90   1
  10  11   1   46.00   43.50   1
 -10 -11  -1   94.20   43.60   1
  10 -11  -1   25.00   46.10   1
 -10  11   1   27.30   45.90   1
 -10  11  -1   45.20   47.80   1
  10 -11   1   66.60   49.00   1
 -10 -11   1   60.70   43.70   1
  10  11  -1   41.70   43.60   1
  10  11   2    4.70   14.10   1
 -10 -11  -2    7.60   14.20   1
  10 -11  -2   -0.00   16.30   1
 -10  11   2    8.50   16.10   1
 -10 -11   2   -0.00   14.50   1
  10  11  -2   10.20   15.00   1
  10  11   3   70.40   46.60   1
 -10 -11  -3   35.90   46.30   1
  10 -11  -3  153.60   48.60   1
 -10  11   3   33.20   47.10   1
 -10 -11   3  130.30   47.80   1
  10  11  -3   62.00   46.90   1
  10  11   4   31.10   20.90   1
 -10 -11  -4    7.60   20.20   1
  10 -11  -4    8.70   21.80   1
 -10  11   4    4.10   21.90   1
 -10 -11   4    8.00   21.70   1
  10  11  -4    5.40   21.00   1
  10  11   5   11.10   32.10   1
 -10 -11  -5   23.30   31.80   1
  10 -11  -5   50.60   32.70   1
 -10  11   5  194.00   34.70   1
 -10 -11   5   22.30   32.30   1
  10  11   6   23.50   27.20   1
 -10 -11  -6   26.10   27.20   1
  10 -11  -6   17.40   27.60   1
 -10  11   6   14.60   27.50   1
  10  11   7   57.80   32.70   1
 -10 -11  -7   35.00   32.60   1
  10 -11  -7   40.00   32.70   1
 -10  11   7    4.80   32.40   1
  10  11   8   15.50   24.00   1
 -10 -11  -8    8.10   23.60   1
  10 -11  -8   10.20   23.40   1
 -10  11   8   24.90   23.80   1
  10  11   9   -0.00   26.30   1
 -10 -11  -9   27.30   26.40   1
  10 -11  -9   49.00   26.60   1
 -10  11   9    6.50   26.50   1
  10  11  10   21.00   21.30   1
 -10 -11 -10    9.00   20.20   1
  10 -11 -10    7.30   17.10   1
 -10  11  10    2.20   17.60   1
  10  11  11   31.30   30.00   1
 -10 -11 -11   28.30   30.20   1
  10 -11 -11   11.20   25.70   1
 -10  11  11   26.90   26.20   1
  10  12   0    3.70   15.30   1
 -10 -12   0    5.70   15.20   1
  10 -12   0   42.40   25.90   1
 -10  12   0   -0.00   24.60   1
  10  12   1   74.90   46.40   1
 -10 -12  -1   45.30   46.20   1
  10 -12  -1   50.10   49.20   1
 -10  12   1   75.70   49.10   1
 -10  12  -1   52.00   49.40   1
  10 -12   1   71.60   52.30   1
 -10 -12   1   57.40   46.50   1
  10  12  -1   67.00   46.70   1
  10  12   2  135.50   65.20   1
 -10 -12  -2   75.10   64.90   1
  10 -12  -2  175.70   67.00   1
 -10  12   2  110.50   67.70   1
 -10 -12   2  138.40   65.90   1
  10  12  -2  108.70   65.90   1
  10  12   3   14.40   26.10   1
 -10 -12  -3   17.70   26.40   1
  10 -12  -3   16.50   30.00   1
 -10  12   3    8.80   27.70   1
 -10 -12   3   59.40   28.40   1
  10  12  -3   30.60   27.80   1
  10  12   4   18.40   29.70   1
 -10 -12  -4   35.70   29.90   1
  10 -12  -4   18.00   31.80   1
 -10  12   4   30.90   31.60   1
 -10 -12   4   20.70   30.30   1
  10  12   5   15.90   29.50   1
 -10 -12  -5   46.10   29.80   1
  10 -12  -5   12.70   29.70   1
 -10  12   5   29.90   30.10   1
  10  12   6   12.50   25.50   1
 -10 -12  -6   20.50   25.80   1
  10 -12  -6   11.70   26.20   1
 -10  12   6   40.70   26.40   1
  10  12   7   56.70   47.30   1
 -10 -12  -7   65.00   47.30   1
  10 -12  -7   46.70   47.20   1
 -10  12   7  105.70   48.00   1
  10  12   8   18.90   26.50   1
 -10 -12  -8   24.80   27.40   1
  10 -12  -8   -0.00   27.10   1
 -10  12   8   33.10   26.60   1
  10  12   9   13.70   23.10   1
 -10 -12  -9    9.50   23.00   1
  10 -12  -9   17.20   23.60   1
 -10  12   9   14.10   23.30   1
  10  12  10   51.00   26.40   1
 -10 -12 -10    4.80   27.70   1
  10 -12 -10   20.10   25.20   1
 -10  12  10    5.20   25.30   1
  10  12  11   14.90   19.90   1
 -10 -12 -11   -0.00   19.30   1
  10 -12 -11    3.40   15.90   1
 -10  12  11    8.60   16.30   1
  10  13   0  185.40   99.20   1
 -10 -13   0  243.30   99.70   1
  10 -13   0  337.50  106.80   1
 -10  13   0  175.20  102.80   1
  10  13   1   55.50   42.40   1
 -10 -13  -1   76.60   42.50   1
  10 -13  -1   74.80   47.00   1
 -10  13   1   39.50   45.20   1
  10 -13   1   53.60   46.10   1
 -10 -13   1   24.60   42.30   1
  10  13  -1   61.70   42.80   1
  10  13   2   62.40   47.10   1
 -10 -13  -2   46.30   46.90   1
  10 -13  -2  216.20   53.80   1
 -10  13   2   44.80   49.60   1
 -10 -13   2   92.50   48.30   1
  10  13  -2   81.50   48.50   1
  10  13   3  166.30   39.20   1
 -10 -13  -3   20.80   37.90   1
  10 -13  -3   62.70   39.40   1
 -10  13   3   24.90   39.40   1
 -10 -13   3   79.70   40.00   1
  10  13  -3   68.60   39.50   1
  10  13   4   58.60   37.30   1
 -10 -13  -4   37.10   37.10   1
  10 -13  -4   28.30   38.60   1
 -10  13   4   16.10   39.00   1
  10  13   5  249.40  114.70   1
 -10 -13  -5  278.10  115.00   1
  10 -13  -5  288.30  115.60   1
 -10  13   5  245.50  115.60   1
  10  13   6  102.70   60.20   1
 -10 -13  -6  117.70   59.90   1
  10 -13  -6  185.90   61.00   1
 -10  13   6   54.30   59.90   1
  10  13   7   27.40   35.00   1
 -10 -13  -7   58.50   35.50   1
  10 -13  -7  174.60   38.10   1
 -10  13   7   18.00   35.30   1
  10  13   8   27.60   30.80   1
 -10 -13  -8   24.10   31.10   1
  10 -13  -8   24.70   31.10   1
 -10  13   8   32.10   31.20   1
  10  13   9   49.30   38.40   1
 -10 -13  -9   38.70   38.40   1
  10 -13  -9   59.30   39.10   1
 -10  13   9   23.10   38.20   1
  10  13  10   -0.00   21.80   1
 -10 -13 -10    9.40   22.20   1
  10 -13 -10   13.30   21.60   1
 -10  13  10   34.70   22.90   1
  10  14   0   42.70   45.10   1
 -10 -14   0   74.60   45.40   1
  10 -14   0   61.80   51.00   1
 -10  14   0   57.40   48.60   1
  10  14   1   10.20   19.20   1
 -10 -14  -1    4.00   18.90   1
  10 -14  -1   -0.00   28.50   1
 -10  14   1   -0.00   26.60   1
 -10 -14   1   30.50   19.90   1
  10  14  -1    6.40   20.10   1
  10  14   2  107.70   61.40   1
 -10 -14  -2   85.50   61.10   1
  10 -14  -2  140.30   65.30   1
 -10  14   2   65.30   63.10   1
 -10 -14   2  135.40   63.20   1
  10  14  -2  115.60   62.80   1
  10  14   3   13.30   25.20   1
 -10 -14  -3   16.20   25.20   1
  10 -14  -3   31.70   27.90   1
 -10  14   3   43.30   29.70   1
  10  14   4   33.70   29.00   1
 -10 -14  -4   20.70   29.00   1
  10 -14  -4   14.90   32.10   1
 -10  14   4   15.80   30.40   1
  10  14   5    6.00   12.70   1
 -10 -14  -5   -0.00   11.60   1
  10 -14  -5    4.10   16.00   1
 -10  14   5    9.90   16.00   1
  10  14   6  158.20   61.30   1
 -10 -14  -6   88.00   60.90   1
  10 -14  -6   67.20   60.70   1
 -10  14   6  109.20   61.10   1
  10  14   7    7.80   23.10   1
 -10 -14  -7   20.80   23.10   1
  10 -14  -7   32.30   23.90   1
 -10  14   7    7.70   23.70   1
  10  14   8   15.20   19.80   1
 -10 -14  -8    7.30   19.70   1
  10 -14  -8   11.50   20.10   1
 -10  14   8    9.50   20.30   1
  10  14   9    8.20   16.30   1
 -10 -14  -9    8.20   17.70   1
  10 -14  -9   -0.00   17.30   1
 -10  14   9    8.50   16.50   1
  10  14  10    9.30   24.80   1
 -10 -14 -10   46.20   25.20   1
  10 -14 -10    4.50   25.10   1
 -10  14  10   15.30   25.80   1
  10  15   0   54.80   39.00   1
 -10 -15   0   31.40   38.20   1
  10 -15   0   73.20   43.20   1
  10  15   1  125.30   35.80   1
 -10 -15  -1   24.10   34.10   1
  10 -15  -1   34.80   40.70   1
 -10  15   1   -0.00   38.60   1
 -10 -15   1   31.00   34.90   1
  10  15  -1   43.00   35.40   1
  10  15   2   15.90   18.00   1
 -10 -15  -2   -0.00   17.60   1
  10 -15  -2   33.00   25.30   1
 -10  15   2   23.60   23.90   1
 -10 -15   2    9.60   19.00   1
  10  15   3   27.70   35.20   1
 -10 -15  -3  247.20   37.90   1
  10 -15  -3   20.40   39.00   1
 -10  15   3   29.00   38.20   1
  10  15   4   22.90   26.50   1
 -10 -15  -4   19.80   26.30   1
  10 -15  -4   20.50   28.20   1
 -10  15   4   13.00   27.80   1
  10  15   5   33.90   35.30   1
 -10 -15  -5   33.60   35.50   1
  10 -15  -5   27.90   36.90   1
 -10  15   5   58.30   37.70   1
  10  15   6    1.30   11.90   1
 -10 -15  -6    0.90   12.80   1
  10 -15  -6   19.80   15.80   1
 -10  15   6    0.00   16.70   1
  10  15   7   15.20   29.00   1
 -10 -15  -7   51.10   29.00   1
  10 -15  -7   -0.00   29.00   1
 -10  15   7   62.90   29.80   1
  10  15   8   12.30   16.30   1
 -10 -15  -8    5.90   16.60   1
  10 -15  -8   -0.00   17.50   1
 -10  15   8    6.60   17.10   1
  10  15   9   76.70   44.10   1
 -10 -15  -9   62.80   44.20   1
  10 -15  -9   30.60   44.00   1
 -10  15   9   63.10   44.40   1
  10  16   0  802.70  221.30   1
 -10 -16   0  528.00  209.50   1
  10  16   1   72.50   24.90   1
 -10 -16  -1    8.00   23.20   1
  10 -16  -1   14.60   31.10   1
 -10  16   1   13.50   27.40   1
 -10 -16   1   10.30   23.90   1
  10  16   2   55.70   41.50   1
 -10 -16  -2   48.80   41.40   1
  10 -16  -2   65.80   45.40   1
 -10  16   2    5.50   45.40   1
  10  16   3   10.60   15.60   1
 -10 -16  -3   -0.00   15.30   1
  10 -16  -3   37.70   24.40   1
 -10  16   3   18.30   22.40   1
  10  16   4  110.30   77.10   1
 -10 -16  -4  146.00   77.20   1
  10 -16  -4  211.10   79.50   1
 -10  16   4  217.70   80.70   1
  10  16   5   16.10   22.00   1
 -10 -16  -5   17.30   22.20   1
  10 -16  -5   -0.00   26.00   1
 -10  16   5    4.80   23.90   1
  10  16   6   73.40   23.90   1
 -10 -16  -6    0.80   22.70   1
  10 -16  -6   44.60   26.40   1
 -10  16   6    7.30   24.60   1
  10  16   7   15.10   22.70   1
 -10 -16  -7   19.80   22.70   1
  10 -16  -7   19.50   23.30   1
 -10  16   7   -0.00   23.10   1
  10  16   8   33.00   27.80   1
 -10 -16  -8   25.30   27.60   1
  10 -16  -8   14.40   28.10   1
 -10  16   8   14.10   28.10   1
  10  17   0    4.10   13.00   1
 -10 -17   0    3.30   13.90   1
  10  17   1   49.00   23.10   1
 -10 -17  -1    4.10   21.50   1
  10 -17  -1   15.10   28.60   1
  10  17   2    1.50   11.30   1
 -10 -17  -2   -0.00   10.70   1
  10 -17  -2   11.90   24.60   1
 -10  17   2   33.30   23.00   1
  10  17   3   13.90   14.70   1
 -10 -17  -3   -0.00   14.30   1
  10 -17  -3    7.90   22.40   1
 -10  17   3   -0.00   21.30   1
  10  17   4   15.50   23.10   1
 -10 -17  -4   14.10   23.00   1
  10 -17  -4   15.70   28.70   1
 -10  17   4   21.70   27.40   1
  10  17   5   34.90   25.60   1
 -10 -17  -5   13.70   25.50   1
  10 -17  -5    4.40   27.40   1
 -10  17   5   17.00   27.50   1
  10  17   6    3.00   11.60   1
 -10 -17  -6    6.70   12.60   1
  10 -17  -6   -0.00   16.30   1
 -10  17   6   -0.00   17.00   1
  10  17   7    8.00   24.00   1
 -10 -17  -7   23.60   24.80   1
  10 -17  -7   39.10   26.30   1
 -10  17   7   20.90   26.60   1
 -10 -18   0   52.00   44.40   1
  10  18   1   24.80   34.40   1
 -10 -18  -1   44.10   34.80   1
  10  18   2   26.30   26.40   1
 -10 -18  -2   13.60   25.70   1
  10 -18  -2   26.10   32.80   1
 -10  18   2  221.60   48.60   1
  10  18   3    2.90   13.40   1
 -10 -18  -3    5.80   13.20   1
  10 -18  -3   -0.00   21.90   1
 -10  18   3    5.40   21.80   1
  10  18   4   12.10   17.00   1
 -10 -18  -4    0.40   16.70   1
  10 -18  -4   32.30   24.70   1
 -10  18   4   49.60   23.80   1
  10  18   5   14.80   21.20   1
 -10 -18  -5    7.90   21.10   1
  10 -18  -5  111.80   27.00   1
 -10  18   5   11.20   26.10   1
  10  18   6   84.80   20.60   1
 -10 -18  -6    5.90   19.50   1
  10 -18  -6    4.40   23.80   1
 -10  18   6   -0.00   21.20   1
 -10 -19  -1    1.50   10.90   1
  10  19   2   -0.00   17.00   1
 -10 -19  -2   11.90   17.20   1
  10 -19  -2   46.90   26.80   1
  10  19   3   12.40   20.90   1
 -10 -19  -3   14.00   20.40   1
  10 -19  -3    0.00   28.40   1
 -10  19   3    0.00   26.60   1
  10  19   4    7.90   12.90   1
 -10 -19  -4    0.00   12.70   1
  10 -19  -4   15.10   21.60   1
 -10  19   4    4.50   19.70   1
  10  19   5   -0.00   18.90   1
 -10 -19  -5   15.00   18.80   1
  10 -19  -5   36.80   25.20   1
 -10  19   5   37.00   25.00   1
 -10 -20  -2   50.40   43.60   1
  11   0   0   73.40   66.20   1
 -11   0   0  210.00   67.00   1
  11   0   1  420.10  139.70   1
 -11   0  -1  347.90  139.50   1
  11   0  -1  338.50  139.50   1
 -11   0   1  312.00  139.30   1
  11   0   2  802.00  252.40   1
 -11   0  -2  680.30  252.00   1
  11   0  -2  816.60  252.70   1
 -11   0   2  790.30  252.70   1
  11   0   3  500.30  152.20   1
 -11   0  -3  268.40  151.00   1
  11   0  -3  442.50  150.90   1
 -11   0   3  459.90  151.00   1
  11   0   4  337.20  128.10   1
 -11   0  -4  259.70  127.80   1
  11   0  -4  538.30  128.60   1
 -11   0   4  261.90  127.40   1
  11   0   5   54.10   43.40   1
 -11   0  -5   32.10   41.10   1
  11   0  -5   55.80   39.60   1
 -11   0   5   34.50   39.70   1
  11   0   6 1234.40  309.90   1
 -11   0  -6  909.80  306.80   1
  11   0  -6  971.20  303.30   1
 -11   0   6  898.90  303.10   1
  11   0   7  149.10   68.50   1
 -11   0  -7   65.10   64.60   1
  11   0  -7  118.70   62.20   1
 -11   0   7   89.20   61.90   1
  11   0  -8  117.10   73.10   1
 -11   0   8  145.60   73.30   1
  11   0  -9   67.70   48.60   1
 -11   0   9   58.80   48.60   1
  11   0 -10  334.60  128.40   1
 -11   0  10  285.10  127.40   1
  11   0 -11   54.00   51.30   1
 -11   0  11  100.10   52.20   1
  11   0 -12   91.90   62.20   1
 -11   0  12   97.30   62.20   1
  11   0 -13   18.20   30.10   1
 -11   0  13   35.00   30.80   1
  11   1   0    7.00   15.80   1
 -11  -1   0   18.90   16.30   1
  11  -1   0   -0.20   16.80   1
 -11   1   0   -0.00   16.20   1
  11   1   1   71.80   56.70   1
 -11  -1  -1   66.90   56.70   1
  11  -1  -1   78.20   56.60   1
 -11   1   1   74.00   56.60   1
 -11   1  -1   89.00   57.30   1
  11  -1   1   71.20   56.90   1
 -11  -1   1  177.60   57.50   1
  11   1  -1  218.30   58.00   1
  11   1   2  147.00   48.10   1
 -11  -1  -2   75.90   47.40   1
  11  -1  -2   37.50   47.20   1
 -11   1   2   42.10   47.10   1
 -11   1  -2   62.00   48.50   1
  11  -1   2   53.10   48.50   1
 -11  -1   2   59.70   47.80   1
  11   1  -2   83.40   48.30   1
  11   1   3   81.70   54.80   1
 -11  -1  -3  101.30   54.90   1
  11  -1  -3  120.40   54.50   1
 -11   1   3   41.80   53.60   1
 -11   1  -3   44.80   54.00   1
  11  -1   3   90.90   55.00   1
 -11  -1   3  101.30   53.90   1
  11   1  -3  108.30   54.20   1
  11   1   4   15.80   29.90   1
 -11  -1  -4   -0.00   29.10   1
  11  -1  -4   32.40   28.90   1
 -11   1   4    6.20   28.50   1
 -11   1  -4   46.50   31.60   1
  11  -1   4   15.40   30.70   1
 -11  -1   4   41.00   29.30   1
  11   1  -4   63.90   29.30   1
  11   1   5   44.10   47.20   1
 -11  -1  -5   38.30   47.60   1
  11  -1  -5   68.20   45.60   1
 -11   1   5   88.30   46.00   1
 -11   1  -5  156.10   50.30   1
  11  -1   5  116.20   50.10   1
 -11  -1   5   37.30   45.20   1
  11   1  -5   47.70   45.30   1
  11   1   6  313.00   49.90   1
  11  -1  -6   21.20   40.70   1
 -11   1   6   20.10   40.60   1
 -11   1  -6   22.70   46.20   1
  11  -1   6   55.80   47.20   1
 -11  -1   6   96.10   41.10   1
  11   1  -6  132.40   41.30   1
  11   1   7   55.10   37.60   1
 -11  -1  -7   35.60   37.20   1
  11  -1  -7    9.20   29.30   1
 -11   1   7   46.00   29.70   1
  11  -1   7   23.70   34.30   1
 -11  -1   7   21.80   29.50   1
  11   1  -7   23.50   29.70   1
  11   1   8   80.10   56.70   1
  11  -1  -8   67.50   53.80   1
 -11   1   8   87.30   53.80   1
 -11  -1   8   73.30   54.10   1
  11   1  -8   77.70   54.00   1
  11  -1  -9    9.30   23.00   1
 -11   1   9   11.10   23.00   1
 -11  -1   9   17.60   22.80   1
  11   1  -9   16.60   22.80   1
  11  -1 -10    9.20   28.30   1
 -11   1  10   10.00   28.00   1
 -11  -1  10   75.60   29.70   1
  11   1 -10   52.30   29.00   1
  11  -1 -11    7.80   26.70   1
 -11   1  11   60.50   27.60   1
 -11  -1  11   22.80   27.60   1
  11   1 -11   12.40   27.60   1
  11  -1 -12   65.60   31.60   1
 -11   1  12   57.10   30.90   1
 -11  -1  12   14.30   30.70   1
  11   1 -12    7.80   29.90   1
  11  -1 -13   14.90   16.90   1
 -11   1  13    4.10   17.00   1
 -11  -1  13   -0.00   16.40   1
  11   2   0   18.40   24.20   1
 -11  -2   0    4.20   24.00   1
  11  -2   0   22.30   24.70   1
 -11   2   0   32.30   24.70   1
  11   2   1   28.60   32.10   1
 -11  -2  -1   21.10   32.10   1
  11  -2  -1   28.30   32.40   1
 -11   2   1   42.00   32.30   1
 -11   2  -1   35.40   33.10   1
  11  -2   1   29.20   33.00   1
 -11  -2   1   26.00   32.50   1
  11   2  -1   23.60   32.60   1
  11   2   2  172.50   39.60   1
 -11  -2  -2  102.60   39.30   1
  11  -2  -2   10.30   38.40   1
 -11   2   2    9.40   38.40   1
 -11   2  -2   38.30   40.40   1
  11  -2   2   63.80   40.50   1
 -11  -2   2   87.50   39.20   1
  11   2  -2   86.70   39.20   1
  11   2   3    7.50   28.80   1
 -11  -2  -3   10.00   29.00   1
  11  -2  -3   53.40   29.20   1
 -11   2   3   14.50   28.80   1
 -11   2  -3    6.50   28.80   1
  11  -2   3    4.90   29.20   1
 -11  -2   3   33.90   28.20   1
  11   2  -3   40.10   28.30   1
  11   2   4  129.70   52.30   1
 -11  -2  -4   66.20   51.80   1
  11  -2  -4   74.70   51.00   1
 -11   2   4   73.20   51.10   1
 -11   2  -4   68.70   52.60   1
  11  -2   4  112.50   53.70   1
 -11  -2   4   48.40   50.40   1
  11   2  -4   70.30   50.70   1
  11   2   5   16.90   29.60   1
 -11  -2  -5   12.10   29.90   1
  11  -2  -5   17.40   29.60   1
 -11   2   5    5.10   29.10   1
 -11   2  -5   16.60   33.70   1
  11  -2   5   13.20   34.40   1
 -11  -2   5   67.70   29.10   1
  11   2  -5   30.80   29.00   1
  11   2   6   29.90   29.80   1
 -11  -2  -6    8.10   27.20   1
  11  -2  -6   35.20   25.60   1
 -11   2   6   47.60   25.70   1
 -11   2  -6   -0.00   29.40   1
  11  -2   6   18.00   36.10   1
 -11  -2   6    3.80   25.20   1
  11   2  -6    8.50   25.50   1
  11   2   7    8.50   27.50   1
 -11  -2  -7   36.20   27.90   1
  11  -2  -7    7.70   21.60   1
 -11   2   7    1.70   21.80   1
  11   2  -7   91.50   23.60   1
  11   2   8   38.80   29.00   1
 -11  -2  -8   -0.00   24.80   1
  11  -2  -8   14.30   19.00   1
 -11   2   8    8.20   18.90   1
 -11  -2   8    6.10   19.60   1
  11   2  -8    7.90   20.10   1
  11  -2  -9   14.80   23.60   1
 -11   2   9   25.30   23.60   1
 -11  -2   9    9.70   23.70   1
  11   2  -9   10.00   23.80   1
  11  -2 -10   25.30   31.70   1
 -11   2  10   26.40   31.70   1
 -11  -2  10   18.50   32.40   1
  11   2 -10   54.00   32.80   1
  11  -2 -11   12.90   22.20   1
 -11   2  11    7.00   22.30   1
 -11  -2  11   24.20   24.00   1
  11   2 -11   15.40   22.90   1
  11  -2 -12   36.00   37.60   1
 -11   2  12   34.60   37.30   1
 -11  -2  12   51.50   38.30   1
  11  -2 -13   11.80   25.40   1
 -11   2  13   20.40   25.20   1
  11   3   0   30.00   23.50   1
 -11  -3   0    7.30   23.00   1
  11  -3   0    8.00   23.70   1
 -11   3   0   14.70   23.30   1
  11   3   1 1100.80  333.90   1
 -11  -3  -1  722.80  332.50   1
  11  -3  -1 1048.10  333.70   1
 -11   3   1  943.30  333.30   1
 -11   3  -1 1735.70  339.20   1
  11  -3   1 2207.20  344.60   1
 -11  -3   1 1400.70  335.60   1
  11   3  -1 1891.60  338.30   1
  11   3   2  110.20   41.40   1
 -11  -3  -2   22.60   40.90   1
  11  -3  -2  138.60   41.60   1
 -11   3   2   62.80   41.10   1
 -11   3  -2   24.70   41.80   1
  11  -3   2   48.00   42.20   1
 -11  -3   2   24.10   41.00   1
  11   3  -2   45.60   41.20   1
  11   3   3  156.90   88.10   1
 -11  -3  -3  144.70   88.00   1
  11  -3  -3  158.00   88.10   1
 -11   3   3  149.70   87.90   1
 -11   3  -3  225.90   89.80   1
  11  -3   3  265.70   89.70   1
 -11  -3   3  213.80   88.30   1
  11   3  -3  209.50   88.30   1
  11   3   4   38.90   39.60   1
 -11  -3  -4   60.20   39.80   1
  11  -3  -4   35.30   38.70   1
 -11   3   4   86.90   39.40   1
 -11   3  -4   42.00   42.30   1
  11  -3   4  126.60   44.00   1
 -11  -3   4   30.10   38.20   1
  11   3  -4   31.70   38.30   1
  11   3   5   -0.00   27.00   1
 -11  -3  -5   56.10   26.90   1
  11  -3  -5   12.20   25.40   1
 -11   3   5   26.80   25.70   1
 -11   3  -5   25.50   31.90   1
  11  -3   5   17.80   32.60   1
 -11  -3   5   15.30   25.30   1
  11   3  -5   15.00   25.40   1
  11   3   6   42.10   38.60   1
 -11  -3  -6   41.90   38.90   1
  11  -3  -6   34.20   36.90   1
 -11   3   6   73.90   37.10   1
 -11   3  -6   24.80   39.00   1
  11  -3   6   35.00   41.20   1
 -11  -3   6   38.20   36.80   1
  11   3  -6   22.20   36.60   1
  11   3   7   47.70   28.40   1
 -11  -3  -7   40.90   26.50   1
  11  -3  -7   10.90   21.50   1
 -11   3   7   18.40   21.70   1
 -11  -3   7    2.20   21.90   1
  11   3  -7    8.30   22.10   1
  11   3   8  126.40   43.10   1
 -11  -3  -8   33.40   39.30   1
  11  -3  -8   40.90   34.00   1
 -11   3   8   21.80   34.00   1
 -11  -3   8   21.00   34.30   1
  11   3  -8   48.30   34.80   1
  11   3   9  108.80   57.50   1
  11  -3  -9   63.90   52.90   1
 -11   3   9   79.80   52.90   1
 -11  -3   9  112.20   54.40   1
  11   3  -9   60.10   53.80   1
  11  -3 -10   23.60   17.20   1
 -11   3  10    1.10   16.70   1
 -11  -3  10    4.60   18.70   1
  11   3 -10   -0.00   18.00   1
  11  -3 -11   14.20   22.40   1
 -11   3  11   32.10   22.70   1
 -11  -3  11   -0.00   23.50   1
  11   3 -11    6.80   22.90   1
  11  -3 -12    5.20   19.50   1
 -11   3  12   28.60   20.00   1
 -11  -3  12    1.10   20.20   1
  11  -3 -13   47.10   44.70   1
 -11   3  13   58.40   44.70   1
  11   4   0   13.50   20.30   1
 -11  -4   0    3.10   19.50   1
  11  -4   0   11.60   20.90   1
 -11   4   0   19.40   21.90   1
  11   4   1   20.40   27.40   1
 -11  -4  -1   41.50   27.50   1
  11  -4  -1   21.30   27.60   1
 -11   4   1   17.50   27.60   1
 -11   4  -1   -0.00   29.90   1
  11  -4   1    3.40   29.60   1
 -11  -4   1   47.90   27.80   1
  11   4  -1    6.30   27.30   1
  11   4   2   -0.00   22.60   1
 -11  -4  -2    3.50   22.60   1
  11  -4  -2    0.00   22.90   1
 -11   4   2    6.30   22.80   1
 -11   4  -2    8.00   23.90   1
  11  -4   2    8.30   24.60   1
 -11  -4   2   82.60   23.80   1
  11   4  -2   97.10   23.90   1
  11   4   3   22.20   19.40   1
 -11  -4  -3   21.10   19.20   1
  11  -4  -3    3.70   19.20   1
 -11   4   3    5.70   18.80   1
 -11   4  -3   16.70   23.00   1
  11  -4   3   23.70   25.10   1
 -11  -4   3    8.00   19.20   1
  11   4  -3    1.30   19.20   1
  11   4   4    6.30   17.80   1
 -11  -4  -4    5.90   18.20   1
  11  -4  -4    2.10   18.50   1
 -11   4   4   40.90   18.60   1
 -11   4  -4   13.10   22.80   1
  11  -4   4   -0.00   25.00   1
 -11  -4   4    4.50   17.10   1
  11   4  -4   -0.00   17.00   1
  11   4   5    9.80   19.60   1
 -11  -4  -5   11.00   20.70   1
  11  -4  -5   34.90   19.00   1
 -11   4   5    1.60   18.50   1
 -11   4  -5   13.50   23.80   1
  11  -4   5   29.00   30.70   1
 -11  -4   5    3.90   17.30   1
  11   4  -5   -0.00   17.70   1
  11   4   6   -0.00   22.90   1
 -11  -4  -6   19.30   23.40   1
  11  -4  -6   33.80   23.30   1
 -11   4   6   19.70   22.60   1
 -11  -4   6    5.10   22.40   1
  11   4  -6   12.30   22.90   1
  11   4   7   -0.00   27.50   1
 -11  -4  -7   -0.00   25.60   1
  11  -4  -7   12.60   24.20   1
 -11   4   7   33.10   24.60   1
 -11  -4   7   22.20   24.40   1
  11   4  -7   13.80   24.40   1
  11   4   8   12.80   33.70   1
 -11  -4  -8   29.30   34.50   1
  11  -4  -8   33.90   29.50   1
 -11   4   8   31.30   29.60   1
 -11  -4   8   15.90   29.70   1
  11   4  -8   13.20   30.20   1
  11   4   9   82.90   43.30   1
 -11  -4  -9   35.60   39.50   1
  11  -4  -9   20.80   36.20   1
 -11   4   9   68.60   36.60   1
 -11  -4   9   44.20   37.50   1
  11   4  -9   24.10   37.40   1
  11  -4 -10   28.60   36.40   1
 -11   4  10   44.30   36.60   1
 -11  -4  10   41.70   37.80   1
  11   4 -10   50.70   38.00   1
  11  -4 -11    7.80   23.50   1
 -11   4  11   18.50   23.70   1
 -11  -4  11   61.80   26.60   1
  11  -4 -12   -0.00   12.40   1
 -11   4  12    6.40   12.50   1
  11  -4 -13   68.30   22.10   1
 -11   4  13    2.30   20.00   1
  11   5   0   11.50   24.90   1
 -11  -5   0   17.50   24.80   1
  11  -5   0   31.60   26.90   1
 -11   5   0   13.00   26.20   1
  11   5   1 1268.30  231.00   1
 -11  -5  -1  771.40  226.70   1
  11  -5  -1  701.90  226.10   1
 -11   5   1  553.50  225.40   1
 -11   5  -1  507.90  225.10   1
  11  -5   1  804.60  226.60   1
 -11  -5   1  699.70  225.60   1
  11   5  -1  746.00  225.70   1
  11   5   2   25.00   39.20   1
 -11  -5  -2   25.00   39.10   1
  11  -5  -2   50.30   39.50   1
 -11   5   2   33.80   39.50   1
 -11   5  -2   67.60   42.10   1
  11  -5   2   97.40   41.70   1
 -11  -5   2   87.90   39.70   1
  11   5  -2   67.60   39.50   1
  11   5   3  539.50  153.00   1
 -11  -5  -3  501.30  152.60   1
  11  -5  -3  536.40  153.40   1
 -11   5   3  620.60  154.20   1
 -11   5  -3  336.40  153.80   1
  11  -5   3  408.30  154.40   1
 -11  -5   3  298.30  151.80   1
  11   5  -3  356.80  151.90   1
  11   5   4   15.70   26.00   1
 -11  -5  -4   15.60   26.10   1
  11  -5  -4   30.10   26.20   1
 -11   5   4    9.40   25.60   1
 -11   5  -4   -0.00   31.90   1
  11  -5   4   38.30   32.70   1
 -11  -5   4   23.70   25.80   1
  11   5  -4   27.00   25.90   1
  11   5   5  101.10   68.60   1
 -11  -5  -5   71.10   68.50   1
  11  -5  -5  264.70   69.70   1
 -11   5   5  100.50   68.50   1
 -11   5  -5  148.20   72.00   1
  11  -5   5  120.00   72.70   1
 -11  -5   5  136.20   68.30   1
  11   5  -5  141.80   68.40   1
  11   5   6   43.80   47.10   1
 -11  -5  -6   38.40   46.30   1
  11  -5  -6   93.50   46.50   1
 -11   5   6   52.80   46.30   1
 -11  -5   6   73.70   46.40   1
  11   5  -6   57.00   46.50   1
  11   5   7  324.10  160.10   1
 -11  -5  -7  487.80  162.20   1
  11  -5  -7  461.40  160.20   1
 -11   5   7  744.40  162.30   1
 -11  -5   7  376.50  160.50   1
  11   5  -7  377.50  160.70   1
  11   5   8  265.50  104.10   1
 -11  -5  -8  330.90  104.90   1
  11  -5  -8  161.70  100.60   1
 -11   5   8  279.60  101.50   1
 -11  -5   8  240.30  102.30   1
  11   5  -8  272.40  103.10   1
  11   5   9   39.30   47.10   1
 -11  -5  -9  120.00   48.80   1
  11  -5  -9  180.80   44.40   1
 -11   5   9   30.00   42.80   1
 -11  -5   9   69.80   45.10   1
  11   5  -9   59.40   44.30   1
  11   5  10   24.70   40.20   1
  11  -5 -10   46.30   38.40   1
 -11   5  10   44.70   38.30   1
 -11  -5  10   32.10   39.20   1
  11  -5 -11   25.20   25.80   1
 -11   5  11   13.90   25.50   1
  11  -5 -12  130.30   58.50   1
 -11   5  12   70.60   57.60   1
  11  -5 -13    7.80   22.40   1
 -11   5  13   22.80   23.00   1
  11   6   0   14.30   15.90   1
 -11  -6   0    3.50   15.10   1
  11  -6   0   -0.00   18.60   1
 -11   6   0   -0.00   18.20   1
  11   6   1   10.90   31.30   1
 -11  -6  -1   11.10   30.90   1
 -11   6   1   67.70   32.80   1
 -11   6  -1   24.70   32.20   1
  11  -6   1   27.00   32.30   1
 -11  -6   1   32.50   31.10   1
  11   6  -1   43.40   31.10   1
  11   6   2   22.80   30.70   1
 -11  -6  -2   36.30   30.50   1
  11  -6  -2   58.00   31.30   1
 -11   6   2   19.30   30.70   1
 -11   6  -2   24.80   33.80   1
  11  -6   2   27.00   34.60   1
 -11  -6   2   16.50   30.40   1
  11   6  -2   25.00   30.40   1
  11   6   3   12.80   24.70   1
 -11  -6  -3   19.40   24.70   1
  11  -6  -3   21.50   24.80   1
 -11   6   3   15.20   24.80   1
 -11   6  -3   48.70   29.40   1
  11  -6   3   78.00   30.70   1
 -11  -6   3   10.00   24.60   1
  11   6  -3   15.30   24.70   1
  11   6   4   14.40   21.80   1
 -11  -6  -4    9.00   21.60   1
  11  -6  -4   19.40   21.70   1
 -11   6   4   19.90   21.40   1
 -11   6  -4   14.90   28.00   1
  11  -6   4   48.00   32.40   1
 -11  -6   4    9.10   21.70   1
  11   6  -4   -0.00   22.00   1
  11   6   5    3.70   21.90   1
 -11  -6  -5   13.40   22.70   1
  11  -6  -5   77.60   23.60   1
 -11   6   5   39.70   22.40   1
 -11  -6   5   -0.00   21.70   1
  11   6  -5   -0.00   21.70   1
  11   6   6   36.80   22.40   1
 -11  -6  -6   21.90   22.90   1
  11  -6  -6   19.00   21.90   1
 -11   6   6    3.30   21.40   1
 -11  -6   6    5.20   20.40   1
  11   6  -6    2.80   20.40   1
  11   6   7    4.50   20.90   1
 -11  -6  -7   19.20   21.40   1
  11  -6  -7    3.20   20.00   1
 -11   6   7   -0.00   19.20   1
 -11  -6   7   25.90   20.90   1
  11   6  -7   34.70   21.20   1
  11   6   8   39.30   33.90   1
 -11  -6  -8   12.90   31.20   1
  11  -6  -8   19.80   29.60   1
 -11   6   8   23.30   30.00   1
 -11  -6   8   38.70   31.40   1
  11   6  -8   32.60   31.00   1
  11   6   9   -0.00   31.10   1
 -11  -6  -9   -0.00   31.50   1
  11  -6  -9   46.50   27.20   1
 -11   6   9   20.70   26.80   1
 -11  -6   9    6.80   28.00   1
  11   6  -9   15.20   27.60   1
  11   6  10   20.00   26.10   1
  11  -6 -10    9.10   17.30   1
 -11   6  10    5.30   17.40   1
  11  -6 -11   13.60   18.30   1
 -11   6  11    5.30   18.00   1
  11  -6 -12   -0.00   12.80   1
 -11   6  12    7.20   12.90   1
  11   7   0   21.90   24.60   1
 -11  -7   0   29.40   24.40   1
  11  -7   0    6.40   26.10   1
 -11   7   0   -0.00   24.70   1
  11   7   1   43.30   37.40   1
 -11  -7  -1   40.80   37.50   1
  11  -7  -1   52.10   39.30   1
 -11   7   1   16.00   38.10   1
 -11   7  -1   31.40   40.20   1
  11  -7   1   28.70   39.70   1
 -11  -7   1   53.60   37.10   1
  11   7  -1   32.00   37.20   1
  11   7   2   20.70   41.60   1
 -11  -7  -2   61.20   41.90   1
  11  -7  -2   68.30   42.20   1
 -11   7   2   64.60   42.20   1
 -11   7  -2   36.80   44.60   1
  11  -7   2  100.10   45.70   1
 -11  -7   2  120.80   41.90   1
  11   7  -2   25.90   41.20   1
  11   7   3   20.90   28.10   1
 -11  -7  -3   22.30   28.00   1
  11  -7  -3   14.20   28.40   1
 -11   7   3   -0.00   28.30   1
 -11   7  -3  156.40   38.20   1
  11  -7   3  219.00   41.20   1
 -11  -7   3   35.30   28.40   1
  11   7  -3   35.00   28.30   1
  11   7   4   43.50   34.00   1
 -11  -7  -4   13.60   33.80   1
  11  -7  -4   17.10   33.80   1
 -11   7   4   26.30   33.90   1
 -11   7  -4   24.70   37.80   1
  11  -7   4   49.00   40.20   1
 -11  -7   4   75.80   34.40   1
  11   7  -4  110.40   35.10   1
  11   7   5   56.30   55.80   1
 -11  -7  -5   66.30   56.00   1
  11  -7  -5   94.90   56.10   1
 -11   7   5   84.60   55.90   1
 -11  -7   5  149.50   56.70   1
  11   7  -5  160.70   57.10   1
  11   7   6   45.20   32.40   1
 -11  -7  -6   25.60   32.20   1
  11  -7  -6   47.20   32.00   1
 -11   7   6   19.70   31.90   1
 -11  -7   6   17.60   31.30   1
  11   7  -6   21.70   31.40   1
  11   7   7    8.60   22.30   1
 -11  -7  -7    4.70   21.10   1
  11  -7  -7    8.40   20.90   1
 -11   7   7   17.20   21.50   1
 -11  -7   7   13.00   21.40   1
  11   7  -7   15.60   22.50   1
  11   7   8    2.70   21.40   1
 -11  -7  -8   10.20   23.70   1
  11  -7  -8   14.80   20.10   1
 -11   7   8   10.50   19.70   1
 -11  -7   8    7.30   20.70   1
  11   7  -8    9.00   20.20   1
  11   7   9   44.70   30.00   1
 -11  -7  -9    6.90   28.80   1
  11  -7  -9    9.10   25.20   1
 -11   7   9   23.90   25.60   1
 -11  -7   9  114.70   31.00   1
  11   7  10  136.70   50.40   1
 -11  -7 -10   20.10   45.70   1
  11  -7 -10   75.70   43.90   1
 -11   7  10   44.10   43.80   1
  11  -7 -11   39.00   41.40   1
 -11   7  11   57.60   41.40   1
  11  -7 -12    4.20   11.30   1
 -11   7  12    0.80   11.00   1
  11   8   0    4.80   33.60   1
 -11  -8   0   94.50   34.40   1
  11  -8   0   59.40   35.00   1
 -11   8   0   38.10   35.10   1
  11   8   1   80.50   40.10   1
 -11  -8  -1   30.30   39.60   1
  11  -8  -1   17.40   41.20   1
 -11   8   1   53.10   41.10   1
 -11   8  -1   45.40   41.80   1
  11  -8   1   64.80   43.70   1
 -11  -8   1   28.10   39.20   1
  11   8  -1   79.80   39.60   1
  11   8   2  251.80  113.30   1
 -11  -8  -2  244.50  113.20   1
  11  -8  -2  355.80  114.70   1
 -11   8   2  561.20  117.00   1
 -11   8  -2  182.80  114.40   1
  11  -8   2  216.60  115.30   1
 -11  -8   2  259.40  113.00   1
  11   8  -2  264.50  113.10   1
 -11  -8  -3   11.10   22.80   1
  11  -8  -3   32.80   23.50   1
 -11   8   3   20.70   23.30   1
 -11   8  -3   63.00   32.10   1
  11  -8   3    8.10   32.00   1
 -11  -8   3    2.50   22.80   1
  11   8  -3   11.30   22.70   1
  11   8   4   35.80   34.60   1
 -11  -8  -4   29.50   35.00   1
  11  -8  -4   19.00   35.20   1
 -11   8   4   15.60   35.00   1
 -11  -8   4   63.30   35.20   1
  11   8  -4   58.80   35.10   1
  11   8   5   36.70   34.10   1
 -11  -8  -5   44.30   34.10   1
  11  -8  -5   31.50   34.00   1
 -11   8   5   24.00   33.90   1
 -11  -8   5   35.20   34.30   1
  11   8  -5   24.90   34.30   1
  11   8   6  335.40  123.90   1
 -11  -8  -6  374.60  124.30   1
  11  -8  -6  497.50  125.60   1
 -11   8   6  298.10  123.60   1
 -11  -8   6  171.90  123.30   1
  11   8  -6  286.30  124.80   1
  11   8   7   14.50   28.50   1
 -11  -8  -7   72.90   30.30   1
  11  -8  -7   19.60   28.10   1
 -11   8   7    4.70   27.50   1
 -11  -8   7   24.50   28.50   1
  11   8  -7   25.20   28.60   1
  11   8   8  154.30   78.20   1
 -11  -8  -8  173.90   78.60   1
  11  -8  -8  175.00   77.90   1
 -11   8   8  112.70   77.50   1
 -11  -8   8  122.50   79.10   1
  11   8   9   17.20   27.60   1
 -11  -8  -9   -0.00   25.70   1
  11  -8  -9   26.00   24.10   1
 -11   8   9   12.80   24.50   1
  11   8  10  467.70  127.90   1
 -11  -8 -10  406.90  128.60   1
  11  -8 -10  322.50  120.60   1
 -11   8  10  227.70  120.10   1
  11   8  11   -0.00   33.10   1
  11  -8 -11   62.10   29.70   1
 -11   8  11   14.20   29.30   1
  11  -8 -12   18.40   30.10   1
 -11   8  12   34.50   30.10   1
  11   9   0    5.60   13.90   1
 -11  -9   0    5.00   13.70   1
  11  -9   0   -0.00   18.90   1
 -11   9   0    3.70   20.30   1
  11   9   1  103.60   38.10   1
 -11  -9  -1   41.80   37.70   1
  11  -9  -1   35.50   39.40   1
 -11   9   1   34.30   38.00   1
 -11   9  -1   61.10   40.60   1
  11  -9   1   55.10   42.50   1
 -11  -9   1   29.10   37.40   1
  11   9  -1   29.20   37.40   1
  11   9   2    2.00   16.20   1
 -11  -9  -2   -0.00   16.60   1
  11  -9  -2   16.30   19.90   1
 -11   9   2    0.50   17.40   1
 -11   9  -2   -0.00   25.10   1
  11  -9   2   75.70   28.70   1
 -11  -9   2   17.10   16.80   1
  11   9  -2   11.90   17.00   1
  11   9   3   30.50   37.40   1
 -11  -9  -3   42.70   37.50   1
  11  -9  -3   65.90   38.10   1
 -11   9   3   28.60   37.80   1
 -11   9  -3   52.50   41.60   1
  11  -9   3   26.90   42.40   1
 -11  -9   3   36.50   37.20   1
  11   9  -3   38.70   37.30   1
  11   9   4   21.60   24.80   1
 -11  -9  -4    8.50   24.70   1
  11  -9  -4   -0.00   25.10   1
 -11  -9   4   42.80   25.60   1
  11   9  -4   48.40   25.70   1
  11   9   5   12.60   23.10   1
 -11  -9  -5    8.80   23.00   1
  11  -9  -5    1.50   23.50   1
 -11   9   5   10.60   23.30   1
 -11  -9   5   69.20   24.80   1
  11   9  -5   46.60   24.60   1
  11   9   6   11.10   21.30   1
 -11  -9  -6   10.10   21.50   1
  11  -9  -6   40.60   21.80   1
 -11   9   6    2.10   21.40   1
 -11  -9   6    5.80   22.80   1
  11   9  -6   14.10   23.50   1
  11   9   7   20.40   21.20   1
 -11  -9  -7   16.10   20.80   1
  11  -9  -7   17.20   21.40   1
 -11   9   7   13.10   21.10   1
 -11  -9   7   -0.00   20.60   1
  11   9  -7    1.00   19.90   1
  11   9   8   22.90   35.90   1
 -11  -9  -8   24.70   34.40   1
  11  -9  -8   40.40   34.90   1
 -11   9   8   44.70   35.20   1
  11   9   9   20.00   31.50   1
 -11  -9  -9   37.60   33.20   1
  11  -9  -9   26.50   30.50   1
 -11   9   9   22.70   30.20   1
  11   9  10   77.60   30.00   1
 -11  -9 -10   23.40   27.00   1
  11  -9 -10   12.30   24.50   1
 -11   9  10   10.20   24.60   1
  11   9  11   11.10   32.10   1
 -11  -9 -11   25.10   29.20   1
  11  -9 -11   27.60   26.30   1
 -11   9  11   13.20   26.20   1
  11  -9 -12    0.20   11.90   1
 -11   9  12    6.40   12.00   1
  11  10   0   61.00   34.30   1
 -11 -10   0   26.20   34.00   1
  11 -10   0   10.00   38.30   1
 -11  10   0    5.30   36.50   1
  11  10   1   41.40   48.60   1
 -11 -10  -1   52.10   48.70   1
  11 -10  -1   96.00   50.10   1
 -11  10   1   71.50   49.90   1
 -11  10  -1   52.40   51.70   1
  11 -10   1   71.50   52.80   1
 -11 -10   1   99.80   49.00   1
  11  10  -1  110.90   49.20   1
  11  10   2  168.00   44.00   1
 -11 -10  -2   70.20   42.90   1
  11 -10  -2   33.80   44.40   1
 -11  10   2   42.90   44.50   1
 -11  10  -2   30.50   46.50   1
  11 -10   2   36.80   50.60   1
 -11 -10   2   61.30   43.00   1
  11  10  -2   22.40   42.70   1
  11  10   3   11.00   30.80   1
 -11 -10  -3   11.50   30.90   1
  11 -10  -3   68.10   32.80   1
 -11  10   3   81.60   33.60   1
  11 -10   3   20.60   34.50   1
 -11 -10   3   25.40   30.70   1
  11  10  -3   36.00   31.20   1
  11  10   4   30.20   36.80   1
 -11 -10  -4   31.70   36.10   1
  11 -10  -4   25.70   36.30   1
 -11  10   4   42.40   36.70   1
 -11 -10   4   40.60   36.30   1
  11  10  -4   70.60   37.10   1
  11  10   5   64.40   49.70   1
 -11 -10  -5   99.20   50.00   1
  11 -10  -5   71.00   50.30   1
 -11  10   5   66.50   50.00   1
 -11 -10   5   46.70   50.20   1
  11  10  -5   53.90   50.50   1
  11  10   6  422.60  145.70   1
 -11 -10  -6  349.70  145.20   1
  11 -10  -6  374.60  145.70   1
 -11  10   6  324.40  145.60   1
 -11 -10   6  464.30  151.70   1
  11  10  -6  442.60  152.60   1
  11  10   7   84.80   42.00   1
 -11 -10  -7   87.70   42.30   1
  11 -10  -7   29.00   41.80   1
 -11  10   7   38.70   41.40   1
 -11 -10   7   28.70   41.40   1
  11  10   8   37.50   40.80   1
 -11 -10  -8   87.30   42.10   1
  11 -10  -8   70.40   41.20   1
 -11  10   8   21.80   40.50   1
  11  10   9   19.70   27.50   1
 -11 -10  -9   27.90   28.10   1
  11 -10  -9   12.10   27.00   1
 -11  10   9   28.20   27.70   1
  11  10  10  114.70   51.40   1
 -11 -10 -10   67.60   49.90   1
  11 -10 -10   41.30   48.10   1
 -11  10  10   91.80   48.80   1
  11  10  11   72.00   50.50   1
 -11 -10 -11   26.10   49.80   1
  11 -10 -11   79.40   47.60   1
 -11  10  11   58.90   47.50   1
  11  11   0   19.70   26.70   1
 -11 -11   0   17.10   26.60   1
  11 -11   0   43.70   32.90   1
 -11  11   0   24.70   30.60   1
  11  11   1   -0.10   18.10   1
 -11 -11  -1   16.60   18.50   1
  11 -11  -1    5.80   21.20   1
 -11  11   1   59.30   23.60   1
 -11  11  -1   23.40   28.30   1
  11 -11   1   13.80   27.00   1
 -11 -11   1    8.50   18.50   1
  11  11  -1    5.60   18.70   1
  11  11   2    6.70   19.60   1
 -11 -11  -2   27.70   20.00   1
  11 -11  -2   21.50   23.30   1
 -11  11   2    1.60   21.00   1
 -11  11  -2   -0.00   26.60   1
  11 -11   2   -0.00   31.90   1
 -11 -11   2    7.00   20.00   1
  11  11  -2    9.40   20.30   1
  11  11   3   -0.00   19.10   1
 -11 -11  -3   12.20   18.80   1
  11 -11  -3   68.10   23.10   1
 -11  11   3   -0.00   20.50   1
 -11 -11   3    4.60   19.00   1
  11  11  -3   15.00   19.80   1
  11  11   4   54.30   38.20   1
 -11 -11  -4   15.30   37.90   1
  11 -11  -4   36.10   38.70   1
 -11  11   4   32.30   38.90   1
 -11 -11   4   61.50   38.40   1
  11  11  -4  139.10   40.80   1
  11  11   5   73.20   30.40   1
 -11 -11  -5   15.20   29.40   1
  11 -11  -5   32.40   30.30   1
 -11  11   5   20.60   30.10   1
 -11 -11   5   22.10   30.90   1
  11  11  -5   15.00   31.00   1
  11  11   6    4.30   17.80   1
 -11 -11  -6    6.20   17.90   1
  11 -11  -6   11.00   18.80   1
 -11  11   6   10.50   18.50   1
 -11 -11   6   14.70   19.10   1
  11  11   7   13.40   18.70   1
 -11 -11  -7   12.70   18.70   1
  11 -11  -7   11.50   18.70   1
 -11  11   7   -0.00   18.30   1
  11  11   8   31.50   32.70   1
 -11 -11  -8   36.30   33.20   1
  11 -11  -8   29.70   32.90   1
 -11  11   8   18.40   32.60   1
  11  11   9   38.30   21.10   1
 -11 -11  -9   -0.00   18.40   1
  11 -11  -9    6.10   19.10   1
 -11  11   9    8.90   19.80   1
  11  11  10    1.60   16.90   1
 -11 -11 -10   20.30   19.60   1
  11 -11 -10    6.00   15.70   1
 -11  11  10    3.40   15.00   1
  11  11  11   36.00   21.20   1
 -11 -11 -11   82.70   23.00   1
  11 -11 -11   -0.00   15.60   1
 -11  11  11    0.00   16.80   1
  11  12   0   18.50   28.30   1
 -11 -12   0   27.50   28.40   1
  11 -12   0   29.60   34.80   1
 -11  12   0   10.30   33.20   1
  11  12   1   46.70   45.60   1
 -11 -12  -1   56.20   45.70   1
  11 -12  -1  127.80   50.70   1
 -11  12   1   29.60   48.30   1
 -11  12  -1   46.70   49.80   1
  11 -12   1  130.40   54.90   1
 -11 -12   1   49.90   45.80   1
  11  12  -1  112.00   46.60   1
  11  12   2   14.10   24.80   1
 -11 -12  -2   16.10   24.80   1
  11 -12  -2   15.90   27.20   1
 -11  12   2   12.40   26.70   1
  11 -12   2   13.40   32.00   1
 -11 -12   2   26.80   25.40   1
  11  12  -2   21.30   25.30   1
  11  12   3   25.00   35.20   1
 -11 -12  -3   30.90   35.10   1
  11 -12  -3   24.50   37.60   1
 -11  12   3   19.90   37.40   1
 -11 -12   3  188.10   38.20   1
  11  12  -3   50.60   35.60   1
  11  12   4  158.40   91.50   1
 -11 -12  -4  233.50   92.20   1
  11 -12  -4  176.70   92.80   1
 -11  12   4  199.20   93.00   1
 -11 -12   4  220.50   93.90   1
  11  12  -4  197.80   93.70   1
  11  12   5   23.60   20.20   1
 -11 -12  -5   -0.00   19.70   1
  11 -12  -5    0.00   20.20   1
 -11  12   5   21.20   20.40   1
 -11 -12   5    7.50   20.80   1
  11  12  -5   10.00   19.50   1
  11  12   6   26.00   28.90   1
 -11 -12  -6   26.40   28.90   1
  11 -12  -6   13.50   29.40   1
 -11  12   6   25.90   29.30   1
  11  12   7   15.80   16.60   1
 -11 -12  -7    4.60   16.30   1
  11 -12  -7   -0.00   16.50   1
 -11  12   7    7.20   17.00   1
  11  12   8   32.40   31.80   1
 -11 -12  -8   52.50   32.60   1
  11 -12  -8   22.70   32.40   1
 -11  12   8   17.00   31.70   1
  11  12   9   37.20   31.30   1
 -11 -12  -9   30.20   31.60   1
  11 -12  -9   16.80   30.30   1
 -11  12   9   21.60   30.60   1
  11  12  10   40.50   38.30   1
 -11 -12 -10   53.90   39.00   1
  11 -12 -10   27.60   37.90   1
 -11  12  10   55.40   38.90   1
  11  13   0   11.60   22.50   1
 -11 -13   0    7.90   22.40   1
  11 -13   0  150.30   35.60   1
 -11  13   0   36.10   31.10   1
  11  13   1  884.70  235.80   1
 -11 -13  -1  757.00  234.40   1
  11 -13  -1 1001.20  241.70   1
 -11  13   1  401.90  234.30   1
 -11  13  -1  572.40  242.40   1
  11 -13   1 1523.30  279.90   1
 -11 -13   1 1101.40  240.50   1
  11  13  -1  930.80  238.30   1
  11  13   2    3.10   17.80   1
 -11 -13  -2    0.90   17.70   1
  11 -13  -2   -0.00   21.50   1
 -11  13   2    5.30   23.20   1
 -11 -13   2   17.70   18.70   1
  11  13  -2   54.30   19.40   1
  11  13   3   64.70   36.40   1
 -11 -13  -3   34.00   36.40   1
  11 -13  -3  225.00   42.60   1
 -11  13   3   23.60   37.00   1
 -11 -13   3   21.70   37.20   1
  11  13  -3   15.90   37.10   1
  11  13   4  126.60   50.90   1
 -11 -13  -4   38.80   50.10   1
  11 -13  -4   67.50   52.00   1
 -11  13   4  120.70   52.50   1
 -11 -13   4   92.20   52.00   1
  11  13  -4  128.80   53.20   1
  11  13   5   14.70   30.30   1
 -11 -13  -5   30.30   30.00   1
  11 -13  -5   35.00   31.20   1
 -11  13   5   20.80   31.50   1
  11  13   6   25.80   33.80   1
 -11 -13  -6   37.40   33.60   1
  11 -13  -6   18.70   34.30   1
 -11  13   6   48.00   34.40   1
  11  13   7    8.40   18.10   1
 -11 -13  -7   -0.00   18.40   1
  11 -13  -7   36.20   20.00   1
 -11  13   7    5.70   18.80   1
  11  13   8   33.90   33.10   1
 -11 -13  -8   31.80   33.30   1
  11 -13  -8   29.10   33.40   1
 -11  13   8   26.90   33.30   1
  11  13   9  116.60   82.00   1
 -11 -13  -9  183.90   83.10   1
  11 -13  -9  225.20   84.00   1
 -11  13   9  170.20   82.70   1
  11  13  10   28.80   24.80   1
 -11 -13 -10    9.80   23.20   1
  11 -13 -10   13.30   23.90   1
 -11  13  10   11.70   23.80   1
  11  14   0    7.80   19.60   1
 -11 -14   0   14.10   19.70   1
  11 -14   0   -0.00   31.10   1
 -11  14   0    6.10   29.50   1
  11  14   1    4.00   18.30   1
 -11 -14  -1   10.50   18.10   1
  11 -14  -1   91.20   29.70   1
 -11  14   1   23.50   25.10   1
  11 -14   1   -0.00   25.30   1
 -11 -14   1   -0.00   18.40   1
  11  14  -1   13.70   18.80   1
  11  14   2    9.10   24.80   1
 -11 -14  -2   38.40   25.00   1
  11 -14  -2   22.00   31.50   1
 -11  14   2   -0.00   28.60   1
 -11 -14   2    8.70   25.80   1
  11  14  -2   24.60   26.50   1
  11  14   3   19.90   20.90   1
 -11 -14  -3    5.40   20.80   1
  11 -14  -3   12.70   22.90   1
 -11  14   3   15.90   23.20   1
 -11 -14   3   11.30   22.40   1
  11  14  -3   14.80   22.50   1
  11  14   4    4.10   11.80   1
 -11 -14  -4    4.50   12.30   1
  11 -14  -4   -0.00   18.20   1
 -11  14   4    3.30   16.70   1
 -11 -14   4   -0.00   12.80   1
  11  14   5    4.80   19.50   1
 -11 -14  -5   13.80   20.30   1
  11 -14  -5   41.10   23.30   1
 -11  14   5   -0.00   22.70   1
  11  14   6   16.00   17.00   1
 -11 -14  -6    3.20   17.00   1
  11 -14  -6   -0.00   17.40   1
 -11  14   6    7.30   17.90   1
  11  14   7    8.40   17.10   1
 -11 -14  -7   11.70   17.50   1
  11 -14  -7   -0.00   18.00   1
 -11  14   7   10.10   17.90   1
  11  14   8    8.20   15.00   1
 -11 -14  -8    7.20   15.00   1
  11 -14  -8    5.50   15.70   1
 -11  14   8   -0.00   15.70   1
  11  14   9   23.60   26.40   1
 -11 -14  -9   22.50   26.90   1
  11 -14  -9   16.10   26.90   1
 -11  14   9   14.30   26.50   1
  11  15   0    1.70   23.10   1
 -11 -15   0   65.40   24.30   1
  11 -15   0    7.70   32.90   1
 -11  15   0   29.70   29.90   1
  11  15   1    6.30   29.20   1
 -11 -15  -1   25.30   29.20   1
  11 -15  -1   40.40   35.00   1
 -11  15   1  103.50   37.80   1
 -11 -15   1   28.80   29.50   1
  11  15  -1   59.80   30.50   1
  11  15   2   24.80   32.90   1
 -11 -15  -2   29.30   32.90   1
  11 -15  -2   65.70   38.80   1
 -11  15   2   23.20   37.00   1
 -11 -15   2   37.60   34.20   1
  11  15  -2   42.60   34.40   1
  11  15   3   27.20   25.00   1
 -11 -15  -3   15.80   24.80   1
  11 -15  -3   19.20   27.80   1
 -11  15   3   18.80   30.60   1
 -11 -15   3    3.60   25.90   1
  11  15   4   31.60   28.50   1
 -11 -15  -4   13.80   28.30   1
  11 -15  -4   63.50   32.40   1
 -11  15   4   18.90   29.30   1
  11  15   5   18.80   23.30   1
 -11 -15  -5   13.00   22.90   1
  11 -15  -5   11.10   26.50   1
 -11  15   5   13.30   25.50   1
  11  15   6   23.80   30.40   1
 -11 -15  -6   10.00   30.30   1
  11 -15  -6   51.80   32.00   1
 -11  15   6   52.30   32.10   1
  11  15   7   27.50   29.40   1
 -11 -15  -7   15.60   28.60   1
  11 -15  -7   57.40   29.60   1
 -11  15   7   13.20   29.50   1
  11  15   8   26.80   33.40   1
 -11 -15  -8   37.80   33.60   1
  11 -15  -8   62.30   34.60   1
 -11  15   8   20.80   33.80   1
  11  16   0   35.60   22.10   1
 -11 -16   0    3.40   21.00   1
  11 -16   0   16.30   28.90   1
  11  16   1   18.10   23.00   1
 -11 -16  -1   12.60   22.80   1
  11 -16  -1    7.10   31.90   1
 -11  16   1   15.70   29.60   1
 -11 -16   1   14.00   23.60   1
  11  16  -1   13.00   24.00   1
  11  16   2   64.60   41.40   1
 -11 -16  -2   37.40   41.00   1
  11 -16  -2   35.40   45.00   1
 -11  16   2   42.80   44.60   1
 -11 -16   2   68.30   42.70   1
  11  16  -2   59.00   42.30   1
  11  16   3   26.30   29.10   1
 -11 -16  -3   25.60   29.00   1
  11 -16  -3   18.00   34.40   1
 -11  16   3   10.00   32.60   1
  11  16   4   84.50   52.50   1
 -11 -16  -4   67.60   52.30   1
  11 -16  -4   56.90   53.20   1
 -11  16   4  101.90   54.20   1
  11  16   5   18.00   30.60   1
 -11 -16  -5   67.50   31.40   1
  11 -16  -5   40.90   34.00   1
 -11  16   5   10.20   32.80   1
  11  16   6   30.00   38.60   1
 -11 -16  -6   69.10   39.00   1
  11 -16  -6   55.50   40.60   1
 -11  16   6   29.60   40.20   1
  11  16   7   13.80   20.60   1
 -11 -16  -7   15.00   20.90   1
  11 -16  -7    9.60   20.80   1
 -11  16   7    4.20   21.00   1
  11  16   8   12.10   20.90   1
 -11 -16  -8   25.70   20.90   1
  11 -16  -8    8.20   21.70   1
 -11  16   8   -0.00   21.40   1
  11  17   0   -0.00   10.70   1
 -11 -17   0    1.20    9.80   1
  11  17   1   21.40   34.80   1
 -11 -17  -1   40.80   34.60   1
  11 -17  -1   86.60   43.20   1
 -11  17   1   14.80   39.00   1
 -11 -17   1   40.30   35.80   1
  11  17  -1   53.80   35.80   1
  11  17   2    1.70   11.00   1
 -11 -17  -2   -0.00   10.50   1
  11 -17  -2   17.90   20.40   1
 -11  17   2   -0.00   22.30   1
 -11 -17   2    6.60   12.40   1
  11  17   3   20.70   28.00   1
 -11 -17  -3   16.10   27.80   1
  11 -17  -3   98.30   35.50   1
 -11  17   3   54.80   33.30   1
  11  17   4    4.40   14.70   1
 -11 -17  -4    4.90   14.70   1
  11 -17  -4   15.60   19.50   1
 -11  17   4   18.20   22.60   1
  11  17   5   15.70   24.00   1
 -11 -17  -5   17.50   24.00   1
  11 -17  -5   31.20   28.70   1
 -11  17   5   11.60   25.50   1
  11  17   6   11.10   17.10   1
 -11 -17  -6    6.50   17.10   1
 -11  17   6   -0.00   20.10   1
  11  17   7   13.70   17.90   1
 -11 -17  -7    5.40   18.70   1
  11 -17  -7    7.10   20.00   1
 -11  17   7    0.00   21.10   1
  11  18   0   15.40   26.10   1
 -11 -18   0   20.20   26.20   1
  11  18   1   19.70   26.20   1
 -11 -18  -1   17.60   25.70   1
  11 -18  -1   31.30   32.40   1
 -11 -18   1   14.80   26.60   1
  11  18   2   22.60   30.90   1
 -11 -18  -2   26.50   30.80   1
  11 -18  -2  118.50   40.00   1
 -11  18   2   23.10   37.10   1
  11  18   3    4.10   14.70   1
 -11 -18  -3    1.60   14.30   1
  11 -18  -3   21.40   23.90   1
 -11  18   3   57.40   23.50   1
  11  18   4   95.40   49.40   1
 -11 -18  -4  152.60   50.00   1
  11 -18  -4   33.60   51.80   1
 -11  18   4   23.80   51.10   1
  11  18   5   19.30   28.50   1
 -11 -18  -5  115.30   29.80   1
  11 -18  -5   16.40   30.70   1
 -11  18   5    5.40   30.40   1
 -11 -19   0   -0.00    9.20   1
  11  19   1    5.80   24.90   1
 -11 -19  -1   46.00   25.50   1
  11 -19  -1   14.70   28.60   1
  11  19   2    9.60   16.20   1
 -11 -19  -2    4.30   15.20   1
  11 -19  -2    4.90   25.80   1
 -11  19   2    2.80   22.40   1
  11  19   3   24.80   23.30   1
 -11 -19  -3    9.70   22.90   1
  11 -19  -3   27.40   29.30   1
 -11  19   3    0.00   29.30   1
  11  19   4   -0.00   12.60   1
 -11 -19  -4    6.40   12.20   1
  11 -19  -4   12.40   22.50   1
 -11  19   4   -0.00   19.40   1
  12   0   0  499.00  187.00   1
 -12   0   0  543.90  187.10   1
  12   0   1  250.00  116.90   1
 -12   0  -1  250.40  116.80   1
  12   0  -1  325.40  117.10   1
 -12   0   1  294.70  116.90   1
  12   0   2 2020.30  673.00   1
 -12   0  -2 2369.20  674.60   1
  12   0  -2 3138.40  681.70   1
 -12   0   2 2660.10  677.60   1
  12   0   3  344.60  132.90   1
 -12   0  -3  266.30  132.30   1
  12   0  -3  383.30  132.60   1
 -12   0   3  326.40  132.20   1
  12   0   4 1263.80  406.60   1
 -12   0  -4 1269.80  406.70   1
  12   0  -4 2016.30  410.60   1
 -12   0   4 1269.80  406.50   1
  12   0   5 1239.70  351.10   1
 -12   0  -5 1269.30  352.50   1
  12   0  -5 1103.70  349.40   1
 -12   0   5 1029.40  348.90   1
  12   0   6  129.50   69.20   1
 -12   0  -6   93.60   68.50   1
  12   0  -6  102.40   65.70   1
 -12   0   6  112.70   65.70   1
  12   0   7 1622.70  329.20   1
 -12   0  -7 1071.70  321.70   1
  12   0  -7  853.90  311.10   1
 -12   0   7 1069.70  312.00   1
  12   0   8  392.50  178.40   1
 -12   0  -8  455.40  182.10   1
  12   0  -8  458.50  172.30   1
 -12   0   8  498.40  172.60   1
  12   0  -9   87.80   59.70   1
 -12   0   9   94.30   59.80   1
  12   0 -10  103.50   66.10   1
 -12   0  10  113.20   66.20   1
  12   0 -11  118.00   63.80   1
 -12   0  11   89.50   63.30   1
  12   0 -12  214.40   90.50   1
 -12   0  12  154.80   88.70   1
  12   0 -13   -0.00   13.50   1
 -12   0  13    2.60   12.60   1
  12   1   0   15.90   30.20   1
 -12  -1   0   19.70   30.30   1
  12  -1   0   38.30   30.60   1
 -12   1   0   40.00   30.50   1
  12   1   1   98.50   59.90   1
 -12  -1  -1   73.70   59.80   1
  12  -1  -1   82.00   59.80   1
 -12   1   1   83.30   60.00   1
 -12   1  -1   93.40   60.30   1
  12  -1   1  156.70   60.80   1
 -12  -1   1   95.50   60.00   1
  12   1  -1  103.70   60.20   1
  12   1   2  112.90   67.70   1
 -12  -1  -2  158.10   68.00   1
  12  -1  -2  132.20   67.70   1
 -12   1   2  117.60   67.60   1
 -12   1  -2   90.30   68.60   1
  12  -1   2  115.40   68.50   1
 -12  -1   2   73.60   67.60   1
  12   1  -2  151.40   68.20   1
  12   1   3  131.10   33.50   1
 -12  -1  -3  136.10   33.10   1
  12  -1  -3   23.40   30.30   1
 -12   1   3   19.60   30.40   1
 -12   1  -3   25.40   31.40   1
  12  -1   3   32.60   32.30   1
 -12  -1   3   13.40   29.60   1
  12   1  -3    7.70   29.50   1
  12   1   4  119.50   58.80   1
 -12  -1  -4  153.00   58.50   1
  12  -1  -4   34.30   56.60   1
 -12   1   4   81.40   57.20   1
 -12   1  -4   85.50   58.00   1
  12  -1   4   58.10   57.50   1
 -12  -1   4  203.20   58.00   1
  12   1  -4  204.30   57.80   1
  12   1   5   14.40   20.50   1
 -12  -1  -5   20.30   20.70   1
  12  -1  -5   17.10   20.00   1
 -12   1   5   24.80   20.00   1
 -12   1  -5   -0.00   21.20   1
  12  -1   5   18.70   25.10   1
 -12  -1   5    2.10   18.30   1
  12   1  -5    1.10   18.80   1
  12   1   6   65.40   34.50   1
 -12  -1  -6    0.60   30.50   1
  12  -1  -6   13.50   28.40   1
 -12   1   6   12.60   28.50   1
 -12   1  -6   55.60   34.70   1
  12  -1   6   40.60   35.90   1
 -12  -1   6   46.10   28.80   1
  12   1  -6   24.80   28.60   1
  12   1   7  256.50   92.80   1
 -12  -1  -7  176.40   91.50   1
  12  -1  -7  221.20   88.80   1
 -12   1   7  156.40   88.30   1
 -12   1  -7   85.40   90.10   1
  12  -1   7  269.20   96.20   1
 -12  -1   7  166.80   88.40   1
  12   1  -7  236.20   89.00   1
  12   1   8   28.10   35.40   1
 -12  -1  -8   10.30   30.60   1
  12  -1  -8   14.90   25.50   1
 -12   1   8   18.20   25.80   1
 -12  -1   8   21.70   25.80   1
  12   1  -8   20.30   26.00   1
  12  -1  -9   15.40   17.80   1
 -12   1   9    0.80   17.50   1
 -12  -1   9    3.70   17.90   1
  12   1  -9   13.60   18.20   1
  12  -1 -10   15.30   30.10   1
 -12   1  10   83.40   31.10   1
 -12  -1  10   18.10   30.00   1
  12   1 -10   23.50   30.10   1
  12  -1 -11   19.20   34.00   1
 -12   1  11   29.30   34.10   1
 -12  -1  11   70.20   35.10   1
  12   1 -11   34.30   34.40   1
  12  -1 -12   21.20   25.20   1
 -12   1  12    7.00   24.90   1
 -12  -1  12   19.00   25.80   1
  12   1 -12   28.80   26.50   1
  12  -1 -13   21.10   19.90   1
 -12   1  13   15.60   18.50   1
 -12  -1  13   -0.00   18.80   1
  12   1 -13   -0.00   18.80   1
  12   2   0   71.60   49.20   1
 -12  -2   0   56.30   49.00   1
  12  -2   0   76.10   49.40   1
 -12   2   0   62.00   49.30   1
  12   2   1  295.90  127.70   1
 -12  -2  -1  276.70  127.50   1
  12  -2  -1  295.10  127.70   1
 -12   2   1  288.60  127.50   1
 -12   2  -1  324.20  128.10   1
  12  -2   1  350.20  128.10   1
 -12  -2   1  329.40  128.10   1
  12   2  -1  326.10  128.20   1
  12   2   2   33.00   46.70   1
 -12  -2  -2   84.80   47.20   1
  12  -2  -2   60.00   46.70   1
 -12   2   2   47.50   46.50   1
 -12   2  -2   49.20   47.70   1
  12  -2   2   66.80   48.10   1
 -12  -2   2   88.10   47.40   1
  12   2  -2   94.10   47.40   1
  12   2   3  119.80   75.90   1
 -12  -2  -3  139.20   75.90   1
  12  -2  -3  271.80   77.20   1
 -12   2   3  134.60   75.90   1
 -12   2  -3  142.10   76.10   1
  12  -2   3  181.40   76.60   1
 -12  -2   3   95.20   75.60   1
  12   2  -3  142.90   75.80   1
  12   2   4   36.10   58.40   1
 -12  -2  -4   67.60   58.60   1
  12  -2  -4  123.60   58.80   1
 -12   2   4   59.50   58.70   1
 -12   2  -4   65.50   59.90   1
  12  -2   4   91.80   59.80   1
 -12  -2   4  203.20   58.80   1
  12   2  -4  247.30   59.10   1
  12   2   5   46.60   52.30   1
 -12  -2  -5   58.00   51.90   1
  12  -2  -5  136.70   52.20   1
 -12   2   5   37.80   51.10   1
 -12  -2   5  116.60   51.60   1
  12   2  -5  107.60   51.40   1
  12   2   6   12.80   32.60   1
 -12  -2  -6   17.60   33.70   1
  12  -2  -6   36.20   30.00   1
 -12   2   6   98.40   30.60   1
 -12   2  -6   -0.00   36.70   1
  12  -2   6   60.50   37.90   1
 -12  -2   6   14.30   29.20   1
  12   2  -6    8.40   29.40   1
  12   2   7   49.20   60.40   1
 -12  -2  -7  248.90   63.50   1
  12  -2  -7   80.90   57.90   1
 -12   2   7   59.10   57.60   1
 -12   2  -7   64.30   60.90   1
  12  -2   7  186.10   66.40   1
 -12  -2   7  161.30   58.50   1
  12   2  -7  133.00   58.30   1
  12   2   8  145.40   61.90   1
 -12  -2  -8  202.70   63.90   1
  12  -2  -8   63.50   55.60   1
 -12   2   8  106.10   55.90   1
 -12  -2   8   62.30   55.90   1
  12   2  -8   94.60   56.10   1
  12   2   9  127.30   45.70   1
  12  -2  -9   34.50   36.50   1
 -12   2   9   72.50   37.00   1
 -12  -2   9   22.20   37.00   1
  12   2  -9   26.40   37.10   1
  12  -2 -10   13.50   19.90   1
 -12   2  10   -0.00   19.60   1
 -12  -2  10   98.30   22.80   1
  12   2 -10    6.00   19.90   1
  12  -2 -11   26.30   31.80   1
 -12   2  11   14.70   31.70   1
 -12  -2  11   46.60   32.60   1
  12   2 -11   58.20   33.30   1
  12  -2 -12   19.20   29.50   1
 -12   2  12   24.50   29.60   1
 -12  -2  12   31.10   30.40   1
  12   2 -12   24.30   30.60   1
  12  -2 -13   39.50   29.40   1
 -12   2  13   22.50   28.70   1
 -12  -2  13    5.20   29.40   1
  12   2 -13   32.30   29.00   1
  12   3   0 2165.30  581.60   1
 -12  -3   0 2316.40  582.00   1
  12  -3   0 1877.40  579.90   1
 -12   3   0 1857.80  580.00   1
  12   3   1  158.90   79.20   1
 -12  -3  -1  152.60   79.30   1
  12  -3  -1  131.40   79.20   1
 -12   3   1  117.70   79.20   1
 -12   3  -1  126.30   80.10   1
  12  -3   1  171.00   80.60   1
 -12  -3   1  162.90   79.70   1
  12   3  -1  239.60   80.30   1
  12   3   2   66.00   33.90   1
 -12  -3  -2    8.90   33.20   1
  12  -3  -2   59.10   33.70   1
 -12   3   2  199.90   35.40   1
 -12   3  -2   16.20   35.20   1
  12  -3   2   -0.00   36.10   1
 -12  -3   2    5.50   33.00   1
  12   3  -2  189.30   35.20   1
  12   3   3  387.60  134.70   1
 -12  -3  -3  266.00  134.30   1
  12  -3  -3  279.50  134.30   1
 -12   3   3  363.50  134.70   1
 -12   3  -3  441.90  135.80   1
  12  -3   3  522.00  136.20   1
 -12  -3   3  290.40  134.30   1
  12   3  -3  339.00  134.50   1
  12   3   4  198.80   42.70   1
 -12  -3  -4   23.80   40.30   1
  12  -3  -4    7.60   39.70   1
 -12   3   4   14.50   39.50   1
 -12   3  -4   15.70   40.80   1
  12  -3   4   75.80   43.20   1
 -12  -3   4   63.10   39.20   1
  12   3  -4  105.90   39.60   1
  12   3   5  141.60   56.80   1
 -12  -3  -5   89.00   56.10   1
  12  -3  -5   58.80   54.80   1
 -12   3   5  118.10   55.40   1
 -12   3  -5   52.10   57.40   1
  12  -3   5  115.80   58.20   1
 -12  -3   5   73.30   54.60   1
  12   3  -5   68.70   54.70   1
  12   3   6  305.60  121.80   1
 -12  -3  -6  305.50  122.10   1
  12  -3  -6  313.80  121.40   1
 -12   3   6  360.60  121.80   1
 -12   3  -6  245.70  125.00   1
  12  -3   6  349.40  127.70   1
 -12  -3   6  234.60  120.90   1
  12   3  -6  246.40  121.00   1
  12   3   7  382.00  118.60   1
 -12  -3  -7  192.80  115.50   1
  12  -3  -7  399.00  115.60   1
 -12   3   7  191.70  114.40   1
 -12  -3   7  384.40  115.90   1
  12   3  -7  343.20  115.80   1
  12   3   8   93.00   64.20   1
 -12  -3  -8  102.60   64.80   1
  12  -3  -8   93.10   61.70   1
 -12   3   8  144.30   62.10   1
 -12  -3   8   87.40   62.10   1
  12   3  -8   78.00   61.80   1
  12   3   9  143.30   50.50   1
 -12  -3  -9   79.40   46.30   1
  12  -3  -9   58.80   41.60   1
 -12   3   9   62.40   41.80   1
 -12  -3   9   28.30   41.90   1
  12   3  -9   34.00   41.90   1
  12  -3 -10   27.60   42.40   1
 -12   3  10   69.40   42.70   1
 -12  -3  10   86.30   43.90   1
  12   3 -10   98.30   44.70   1
  12  -3 -11   38.00   36.90   1
 -12   3  11   41.50   36.90   1
 -12  -3  11   37.10   38.00   1
  12   3 -11   29.40   38.00   1
  12  -3 -12   15.90   19.50   1
 -12   3  12    5.70   19.30   1
 -12  -3  12    7.40   21.30   1
  12   3 -12    9.00   19.80   1
  12  -3 -13   20.50   33.00   1
 -12   3  13  128.30   35.90   1
 -12  -3  13   26.10   33.90   1
  12   4   0    1.40   14.70   1
 -12  -4   0    8.60   14.90   1
  12  -4   0    6.10   15.80   1
 -12   4   0    2.30   15.90   1
  12   4   1   92.60   36.40   1
 -12  -4  -1   68.50   36.10   1
  12  -4  -1   86.80   36.70   1
 -12   4   1   55.90   36.30   1
 -12   4  -1   -0.00   37.10   1
  12  -4   1    3.10   37.40   1
 -12  -4   1   12.70   36.10   1
  12   4  -1   12.00   36.00   1
  12   4   2    7.30   16.70   1
 -12  -4  -2   -0.00   16.30   1
  12  -4  -2   -0.00   16.60   1
 -12   4   2   -0.00   16.50   1
 -12   4  -2    9.60   17.90   1
  12  -4   2   24.40   19.70   1
 -12  -4   2   20.20   17.30   1
  12   4  -2   16.00   17.30   1
  12   4   3   23.30   27.30   1
 -12  -4  -3   25.40   27.30   1
  12  -4  -3   14.00   27.00   1
 -12   4   3   12.80   27.10   1
 -12   4  -3  107.10   32.40   1
  12  -4   3   68.50   31.10   1
 -12  -4   3   15.50   27.20   1
  12   4  -3   17.50   27.10   1
  12   4   4   68.10   41.00   1
 -12  -4  -4   49.60   41.00   1
  12  -4  -4   68.80   41.20   1
 -12   4   4   42.40   40.60   1
 -12   4  -4   55.90   44.10   1
  12  -4   4   70.50   45.20   1
 -12  -4   4   33.90   40.30   1
  12   4  -4   31.20   40.20   1
  12   4   5   27.80   31.50   1
 -12  -4  -5   15.90   31.10   1
  12  -4  -5   35.90   31.20   1
 -12   4   5   13.80   30.60   1
 -12   4  -5   20.60   36.20   1
  12  -4   5  161.40   41.40   1
 -12  -4   5   26.30   29.90   1
  12   4  -5   25.70   30.00   1
  12   4   6   27.80   34.00   1
 -12  -4  -6   19.60   33.10   1
  12  -4  -6   47.40   32.70   1
 -12   4   6   21.20   32.40   1
 -12   4  -6   -0.00   36.50   1
  12  -4   6   -0.00   40.60   1
 -12  -4   6   32.40   32.50   1
  12   4  -6   42.10   32.80   1
  12   4   7  209.70   87.50   1
 -12  -4  -7  156.70   87.90   1
  12  -4  -7  140.90   85.80   1
 -12   4   7  142.20   85.90   1
 -12  -4   7  233.00   86.70   1
  12   4  -7  241.80   86.80   1
  12   4   8   37.60   31.40   1
 -12  -4  -8   26.90   30.80   1
  12  -4  -8   18.30   26.20   1
 -12   4   8    5.50   26.00   1
 -12  -4   8   30.50   27.10   1
  12   4  -8   28.10   26.70   1
  12   4   9   37.50   37.10   1
 -12  -4  -9   33.50   36.90   1
  12  -4  -9   20.40   29.60   1
 -12   4   9   32.80   29.50   1
 -12  -4   9   15.10   30.00   1
  12   4  -9   25.20   30.20   1
  12   4  10    0.00   24.30   1
  12  -4 -10   12.00   16.20   1
 -12   4  10    4.70   16.00   1
 -12  -4  10    0.60   18.50   1
  12   4 -10    6.90   18.00   1
  12  -4 -11    8.60   17.90   1
 -12   4  11    8.70   17.80   1
 -12  -4  11   10.70   20.30   1
  12   4 -11    5.00   19.60   1
  12  -4 -12    5.80   14.90   1
 -12   4  12    7.30   15.00   1
 -12  -4  12   -0.00   16.50   1
  12   5   0  229.20   75.70   1
 -12  -5   0  182.40   75.20   1
  12  -5   0  158.70   75.80   1
 -12   5   0   63.30   75.10   1
  12   5   1  313.20  130.90   1
 -12  -5  -1  280.60  130.40   1
  12  -5  -1  307.10  130.60   1
 -12   5   1  356.90  131.00   1
 -12   5  -1  273.20  131.00   1
  12  -5   1  389.10  132.00   1
 -12  -5   1  315.70  130.50   1
  12   5  -1  374.50  130.80   1
  12   5   2  338.70  136.30   1
 -12  -5  -2  245.80  135.90   1
  12  -5  -2  425.50  136.90   1
 -12   5   2  279.60  136.20   1
 -12   5  -2  397.20  137.50   1
  12  -5   2  427.00  137.50   1
 -12  -5   2  344.20  136.40   1
  12   5  -2  715.70  138.90   1
  12   5   3  192.40   90.20   1
 -12  -5  -3  157.30   89.90   1
  12  -5  -3  173.70   90.20   1
 -12   5   3  205.60   90.50   1
 -12   5  -3   93.50   90.90   1
  12  -5   3  233.80   93.60   1
 -12  -5   3  209.70   90.10   1
  12   5  -3  352.60   90.80   1
  12   5   4  368.30  122.60   1
 -12  -5  -4  318.20  122.50   1
  12  -5  -4  379.60  122.90   1
 -12   5   4  300.90  122.40   1
 -12   5  -4  244.60  124.00   1
  12  -5   4  328.40  125.10   1
 -12  -5   4  230.40  121.80   1
  12   5  -4  273.20  122.00   1
  12   5   5   59.00   37.90   1
 -12  -5  -5   26.30   37.60   1
  12  -5  -5   19.50   37.20   1
 -12   5   5   59.30   37.60   1
 -12   5  -5    0.30   42.20   1
  12  -5   5   55.30   44.20   1
 -12  -5   5   39.20   36.60   1
  12   5  -5   38.40   36.50   1
  12   5   6  122.70   74.50   1
 -12  -5  -6  132.00   74.70   1
  12  -5  -6  204.10   74.30   1
 -12   5   6  217.10   74.60   1
  12  -5   6  200.90   80.40   1
 -12  -5   6   88.90   73.20   1
  12   5  -6  106.00   73.40   1
  12   5   7 1216.80  465.80   1
 -12  -5  -7 1988.70  471.80   1
  12  -5  -7 2124.30  470.80   1
 -12   5   7 1573.90  467.10   1
 -12  -5   7 1604.00  470.90   1
  12   5  -7 1570.80  470.60   1
  12   5   8   70.70   55.10   1
 -12  -5  -8   34.40   53.50   1
  12  -5  -8   72.60   52.50   1
 -12   5   8  216.80   54.00   1
 -12  -5   8   57.90   52.50   1
  12   5  -8   88.40   52.90   1
  12   5   9   17.50   48.50   1
 -12  -5  -9   76.00   49.90   1
  12  -5  -9  157.20   47.00   1
 -12   5   9   47.20   45.90   1
 -12  -5   9   56.60   46.70   1
  12   5  -9   51.60   46.80   1
  12   5  10   32.50   48.70   1
 -12  -5 -10   98.60   49.90   1
  12  -5 -10  124.40   45.60   1
 -12   5  10   48.80   44.70   1
 -12  -5  10   29.70   45.40   1
  12   5 -10   56.30   46.10   1
  12  -5 -11   90.90   45.30   1
 -12   5  11   39.30   44.70   1
 -12  -5  11   93.60   47.40   1
  12   5 -11   58.50   45.90   1
  12  -5 -12  129.20   26.90   1
 -12   5  12   13.30   23.30   1
 -12  -5  12    6.20   23.80   1
  12   6   0   38.80   38.10   1
 -12  -6   0   41.20   38.20   1
  12  -6   0   38.10   39.20   1
 -12   6   0   43.60   39.50   1
  12   6   1   31.20   41.60   1
 -12  -6  -1   13.80   41.40   1
  12  -6  -1   91.80   42.40   1
 -12   6   1   57.60   42.40   1
 -12   6  -1   28.60   41.60   1
  12  -6   1   71.80   42.90   1
 -12  -6   1   55.80   41.70   1
  12   6  -1   92.40   41.80   1
  12   6   2   38.20   25.70   1
 -12  -6  -2   23.50   25.30   1
  12  -6  -2   15.90   25.60   1
 -12   6   2   14.10   26.00   1
 -12   6  -2   17.80   30.30   1
  12  -6   2   20.60   29.00   1
 -12  -6   2   10.60   25.30   1
  12   6  -2   11.40   25.20   1
  12   6   3   12.80   25.50   1
 -12  -6  -3   13.30   25.70   1
  12  -6  -3   17.00   26.00   1
 -12   6  -3   33.90   30.40   1
  12  -6   3   60.70   32.40   1
 -12  -6   3   14.20   25.60   1
  12   6  -3   25.60   25.50   1
  12   6   4   10.40   20.20   1
 -12  -6  -4   12.70   19.90   1
  12  -6  -4   11.00   20.00   1
 -12   6   4    6.80   19.90   1
 -12   6  -4   -0.00   28.30   1
  12  -6   4    4.10   28.70   1
 -12  -6   4    9.70   20.10   1
  12   6  -4   15.40   19.90   1
  12   6   5   17.20   24.90   1
  12  -6  -5   60.20   25.80   1
 -12   6   5   15.80   24.60   1
 -12   6  -5   26.50   30.70   1
  12  -6   5    9.80   34.00   1
 -12  -6   5    7.80   24.20   1
  12   6  -5    6.90   24.40   1
  12   6   6   10.80   15.00   1
 -12  -6  -6   -0.00   13.30   1
  12  -6  -6    2.20   14.20   1
 -12   6   6    4.80   12.90   1
 -12  -6   6   -0.00   12.50   1
  12   6  -6    0.90   12.50   1
  12   6   7  140.90   58.70   1
 -12  -6  -7   82.90   57.40   1
  12  -6  -7   46.70   57.00   1
 -12   6   7  121.50   57.70   1
 -12  -6   7  103.40   57.50   1
  12   6  -7   89.30   57.70   1
  12   6   8   83.50   68.20   1
 -12  -6  -8  205.60   70.90   1
  12  -6  -8   85.10   67.00   1
 -12   6   8  170.50   67.70   1
 -12  -6   8  107.00   67.50   1
  12   6  -8  135.20   68.40   1
  12   6   9   81.10   34.40   1
 -12  -6  -9   16.80   31.30   1
  12  -6  -9   17.70   28.40   1
 -12   6   9   30.20   28.70   1
 -12  -6   9    8.60   29.50   1
  12   6  -9   31.80   30.00   1
  12   6  10   -0.00   26.00   1
 -12  -6 -10    4.90   24.70   1
  12  -6 -10   32.50   17.80   1
 -12   6  10   -0.00   17.30   1
 -12  -6  10    5.80   19.50   1
  12   6 -10   -0.00   18.40   1
  12   6  11   29.20   27.00   1
  12  -6 -11   19.80   21.20   1
 -12   6  11    7.90   21.00   1
 -12  -6  11    2.50   22.60   1
  12  -6 -12   14.60   19.40   1
 -12   6  12    6.80   18.80   1
  12   7   0 1482.80  300.40   1
 -12  -7   0  896.70  297.20   1
  12  -7   0 1557.60  303.30   1
 -12   7   0  699.30  297.10   1
  12   7   1    0.00   26.50   1
 -12  -7  -1    7.80   26.70   1
  12  -7  -1    3.40   27.70   1
 -12   7   1    6.70   28.00   1
 -12   7  -1   14.50   28.80   1
  12  -7   1   21.10   27.80   1
 -12  -7   1   41.30   26.60   1
  12   7  -1   54.30   26.60   1
  12   7   2  237.60   88.50   1
 -12  -7  -2  183.10   88.00   1
  12  -7  -2  178.20   87.90   1
 -12   7   2  204.70   88.10   1
 -12   7  -2   61.00   88.40   1
  12  -7   2  243.20   91.10   1
 -12  -7   2  291.40   88.00   1
  12   7  -2  167.40   87.40   1
  12   7   3   18.00   25.10   1
 -12  -7  -3   12.40   24.90   1
  12  -7  -3    6.70   25.60   1
 -12   7   3   34.90   25.60   1
 -12   7  -3    9.20   30.00   1
  12  -7   3   34.50   32.70   1
 -12  -7   3   19.50   25.30   1
  12   7  -3   19.50   25.10   1
  12   7   4   40.20   49.20   1
 -12  -7  -4  118.70   49.80   1
  12  -7  -4  177.30   50.70   1
 -12   7   4   37.80   49.50   1
 -12   7  -4   45.20   53.60   1
  12  -7   4   87.40   58.20   1
 -12  -7   4   61.50   49.40   1
  12   7  -4  106.70   49.80   1
  12   7   5   18.80   23.20   1
 -12  -7  -5    5.80   23.10   1
  12  -7  -5   36.10   23.30   1
 -12   7   5    6.40   22.90   1
  12  -7   5    6.40   28.90   1
 -12  -7   5    9.60   23.20   1
  12   7  -5   19.30   23.50   1
  12   7   6  167.20   83.70   1
 -12  -7  -6   86.60   83.20   1
  12  -7  -6  208.20   84.10   1
 -12   7   6  207.90   84.00   1
 -12  -7   6  224.00   83.90   1
  12   7  -6  216.10   84.00   1
  12   7   7   17.40   24.30   1
 -12  -7  -7   25.20   24.30   1
  12  -7  -7   -0.00   23.00   1
 -12   7   7    7.40   23.10   1
 -12  -7   7   16.30   22.30   1
  12   7  -7   14.50   22.50   1
  12   7   8  161.00   75.00   1
 -12  -7  -8  232.90   76.30   1
  12  -7  -8  189.90   74.90   1
 -12   7   8   78.60   73.90   1
 -12  -7   8  206.50   76.40   1
  12   7  -8  207.80   77.10   1
  12   7   9   -0.00   25.40   1
 -12  -7  -9   14.30   23.30   1
  12  -7  -9   10.30   21.10   1
 -12   7   9   17.70   21.70   1
 -12  -7   9   12.70   22.60   1
  12   7  -9    7.40   22.50   1
  12   7  10  112.10   56.40   1
 -12  -7 -10  113.90   57.10   1
  12  -7 -10   79.10   52.70   1
 -12   7  10   57.40   52.50   1
 -12  -7  10  169.60   58.80   1
  12   7  11   -0.00   33.70   1
 -12  -7 -11   19.40   31.80   1
  12  -7 -11   26.70   28.90   1
 -12   7  11   25.30   28.90   1
  12  -7 -12   11.80   14.80   1
 -12   7  12    0.50   14.30   1
  12   8   0  247.20   92.40   1
 -12  -8   0  256.80   92.40   1
  12  -8   0  409.70   94.60   1
 -12   8   0  105.90   92.10   1
  12   8   1  427.30  161.40   1
 -12  -8  -1  406.10  161.30   1
  12  -8  -1  584.40  163.50   1
 -12   8   1  501.00  163.10   1
 -12   8  -1  997.90  169.50   1
  12  -8   1 1010.10  167.90   1
 -12  -8   1  279.60  160.60   1
  12   8  -1  738.80  162.90   1
  12   8   2  616.90  149.10   1
 -12  -8  -2  233.80  146.90   1
  12  -8  -2  499.00  148.80   1
 -12   8   2  543.90  149.40   1
 -12   8  -2  296.30  148.80   1
  12  -8   2  442.50  150.50   1
 -12  -8   2  428.40  147.40   1
  12   8  -2  474.90  147.60   1
  12   8   3  551.40  176.90   1
 -12  -8  -3  489.70  176.50   1
  12  -8  -3  751.60  177.90   1
 -12   8   3  386.60  176.00   1
 -12   8  -3  633.70  182.80   1
  12  -8   3  987.00  188.20   1
 -12  -8   3  391.20  176.00   1
  12   8  -3  461.40  176.30   1
  12   8   4  385.60  151.80   1
 -12  -8  -4  381.40  152.10   1
  12  -8  -4  415.40  152.20   1
 -12   8   4  377.70  151.80   1
 -12   8  -4  426.20  159.30   1
  12  -8   4  384.60  158.00   1
 -12  -8   4  369.20  152.00   1
  12   8  -4  464.50  153.00   1
  12   8   5  479.60  173.50   1
 -12  -8  -5  487.70  173.50   1
  12  -8  -5  392.90  173.20   1
 -12   8   5  482.50  174.00   1
 -12  -8   5  609.00  175.70   1
  12   8  -5  497.80  174.60   1
  12   8   6   33.50   22.80   1
 -12  -8  -6   16.20   22.80   1
  12  -8  -6    7.00   22.80   1
 -12   8   6    6.00   21.90   1
 -12  -8   6   12.10   22.30   1
  12   8  -6   10.00   22.40   1
  12   8   7  319.50   72.90   1
 -12  -8  -7   68.10   69.60   1
  12  -8  -7  107.00   69.80   1
 -12   8   7  133.30   70.00   1
 -12  -8   7  278.30   72.80   1
  12   8  -7  260.60   73.20   1
  12   8   8   83.20   55.40   1
 -12  -8  -8  101.40   55.00   1
  12  -8  -8   49.60   54.40   1
 -12   8   8   94.90   55.10   1
 -12  -8   8  111.30   56.30   1
  12   8  -8  108.10   56.60   1
  12   8   9  771.90  180.00   1
 -12  -8  -9  593.00  179.30   1
  12  -8  -9  588.70  175.40   1
 -12   8   9  360.20  173.80   1
 -12  -8   9  508.10  183.70   1
  12   8  -9  362.50  180.30   1
  12   8  10   41.50   31.20   1
 -12  -8 -10   13.90   27.80   1
  12  -8 -10   13.30   24.90   1
 -12   8  10   20.40   25.30   1
  12   8  11  212.60   64.00   1
 -12  -8 -11   73.50   57.50   1
  12  -8 -11  188.40   56.10   1
 -12   8  11   56.30   54.70   1
  12   9   0   -0.00   23.70   1
 -12  -9   0   45.00   24.30   1
  12  -9   0   20.90   26.50   1
 -12   9   0   23.80   26.60   1
  12   9   1    7.00   17.20   1
 -12  -9  -1   16.70   17.00   1
  12  -9  -1   14.70   20.90   1
 -12   9   1   -0.00   19.80   1
 -12   9  -1   -0.00   20.80   1
  12  -9   1   14.00   24.00   1
 -12  -9   1    8.10   16.30   1
  12   9  -1   -0.00   16.30   1
  12   9   2    6.20   18.80   1
 -12  -9  -2   -0.00   19.50   1
  12  -9  -2   16.50   21.60   1
 -12   9   2   16.10   21.80   1
 -12   9  -2   65.30   26.80   1
  12  -9   2   78.00   29.90   1
 -12  -9   2    4.10   18.70   1
  12   9  -2    8.20   18.80   1
  12   9   3   21.60   29.10   1
 -12  -9  -3   30.40   29.40   1
  12  -9  -3   15.20   29.60   1
 -12   9   3   43.30   29.90   1
 -12   9  -3   -0.00   37.40   1
  12  -9   3   46.80   41.60   1
 -12  -9   3   18.60   28.80   1
  12   9  -3   20.30   29.00   1
  12   9   4   81.90   45.10   1
 -12  -9  -4   42.20   44.80   1
  12  -9  -4   58.80   45.40   1
 -12   9   4   64.60   45.20   1
  12  -9   4   23.10   48.80   1
 -12  -9   4   64.70   45.50   1
  12   9  -4   45.80   45.20   1
  12   9   5   11.90   25.90   1
 -12  -9  -5   16.70   25.80   1
  12  -9  -5    7.10   26.40   1
 -12   9   5   20.90   26.40   1
 -12  -9   5   33.50   26.30   1
  12   9  -5   27.40   26.40   1
  12   9   6   21.30   29.30   1
 -12  -9  -6   29.30   29.60   1
  12  -9  -6   23.50   29.50   1
 -12   9   6   10.80   29.30   1
 -12  -9   6   85.30   31.10   1
  12   9  -6   27.60   30.90   1
  12   9   7   42.20   40.10   1
 -12  -9  -7   25.80   40.40   1
  12  -9  -7   80.60   40.90   1
 -12   9   7   46.90   40.00   1
 -12  -9   7   32.40   40.20   1
  12   9  -7   47.00   41.10   1
  12   9   8   47.00   26.80   1
 -12  -9  -8   21.40   25.80   1
  12  -9  -8   53.20   26.20   1
 -12   9   8    8.70   25.40   1
 -12  -9   8    4.10   25.20   1
  12   9  -8   -0.00   24.50   1
  12   9   9   12.00   18.70   1
 -12  -9  -9   12.80   19.90   1
  12  -9  -9    9.10   17.90   1
 -12   9   9   -0.00   17.60   1
 -12  -9   9    7.80   17.50   1
  12   9  10   -0.00   27.00   1
 -12  -9 -10   -0.00   24.50   1
  12  -9 -10   26.60   23.00   1
 -12   9  10   14.10   23.40   1
  12   9  11   -0.00   19.20   1
 -12  -9 -11   -0.00   19.40   1
  12  -9 -11    8.50   12.50   1
 -12   9  11   -0.00   12.00   1
  12  10   0    7.80   26.60   1
 -12 -10   0   59.20   27.10   1
  12 -10   0    0.00   30.30   1
 -12  10   0   13.40   31.80   1
  12  10   1   41.20   35.00   1
 -12 -10  -1   16.30   35.00   1
  12 -10  -1   51.90   36.90   1
 -12  10   1   11.10   35.30   1
 -12  10  -1   63.60   39.50   1
 -12 -10   1   33.70   34.70   1
  12  10  -1   70.90   35.20   1
  12  10   2  429.10  132.10   1
 -12 -10  -2  224.20  130.90   1
  12 -10  -2  368.70  133.10   1
 -12  10   2  285.40  132.40   1
 -12  10  -2  319.90  134.80   1
  12 -10   2  499.30  138.20   1
 -12 -10   2  422.50  132.10   1
  12  10  -2  471.10  132.60   1
  12  10   3  174.80   77.40   1
 -12 -10  -3   90.20   76.50   1
  12 -10  -3  411.30   80.40   1
 -12  10   3  121.90   77.50   1
 -12  10  -3  615.60  104.80   1
  12 -10   3  190.90   83.40   1
 -12 -10   3  183.60   77.20   1
  12  10  -3  152.60   77.00   1
  12  10   4  239.90   97.50   1
 -12 -10  -4  201.50   96.80   1
  12 -10  -4  208.10   97.00   1
 -12  10   4  195.60   97.00   1
 -12 -10   4  182.40   96.90   1
  12  10  -4  199.20   97.10   1
  12  10   5  602.60   96.90   1
 -12 -10  -5  179.50   92.50   1
  12 -10  -5  270.60   93.40   1
 -12  10   5  141.40   92.30   1
 -12 -10   5  289.20   94.30   1
  12  10  -5  148.00   92.70   1
  12  10   6  123.80   66.50   1
 -12 -10  -6   92.60   66.30   1
  12 -10  -6  115.30   66.50   1
 -12  10   6  104.40   66.60   1
 -12 -10   6  145.30   67.80   1
  12  10  -6  108.70   67.90   1
  12  10   7  163.50   53.60   1
 -12 -10  -7   63.40   52.60   1
  12 -10  -7   65.50   52.70   1
 -12  10   7   56.40   52.50   1
 -12 -10   7   98.90   54.20   1
  12  10  -7   69.50   53.30   1
  12  10   8   55.30   40.80   1
 -12 -10  -8   30.10   40.50   1
  12 -10  -8   91.70   41.20   1
 -12  10   8   23.20   40.50   1
 -12 -10   8   51.10   41.20   1
  12  10   9   20.40   27.30   1
 -12 -10  -9   39.50   26.70   1
  12 -10  -9    8.00   26.10   1
 -12  10   9   13.90   26.90   1
  12  10  10   88.10   45.00   1
 -12 -10 -10   36.40   44.80   1
  12 -10 -10   34.60   42.80   1
 -12  10  10   68.70   43.20   1
  12  10  11   50.80   33.40   1
 -12 -10 -11    8.70   31.40   1
  12 -10 -11   23.40   28.70   1
 -12  10  11   22.50   29.00   1
  12  11   0   59.90   30.90   1
 -12 -11   0   11.40   30.50   1
  12 -11   0   31.30   36.60   1
 -12  11   0   19.40   34.10   1
  12  11   1   14.10   27.70   1
 -12 -11  -1   29.40   27.80   1
  12 -11  -1   19.20   30.30   1
 -12  11   1   15.20   30.20   1
 -12  11  -1   28.00   32.10   1
  12 -11   1   31.70   35.60   1
 -12 -11   1   26.30   27.90   1
  12  11  -1   19.40   27.70   1
  12  11   2   94.60   51.70   1
 -12 -11  -2  132.80   52.00   1
  12 -11  -2   59.00   53.90   1
 -12  11   2   60.60   52.70   1
 -12  11  -2   25.60   55.50   1
  12 -11   2  115.40   59.00   1
 -12 -11   2   48.40   51.50   1
  12  11  -2   63.60   51.60   1
  12  11   3    3.60   16.90   1
 -12 -11  -3   13.40   17.60   1
  12 -11  -3   -0.00   20.50   1
 -12  11   3   11.50   19.60   1
  12 -11   3   12.00   28.80   1
 -12 -11   3    6.00   17.10   1
  12  11  -3    6.80   17.20   1
  12  11   4   21.90   27.20   1
 -12 -11  -4   21.80   27.50   1
  12 -11  -4    8.20   27.80   1
 -12  11   4    7.00   27.50   1
 -12 -11   4   37.70   27.60   1
  12  11  -4   24.70   27.20   1
  12  11   5   12.50   22.10   1
 -12 -11  -5    5.70   21.80   1
  12 -11  -5   25.50   22.80   1
 -12  11   5    7.60   22.30   1
 -12 -11   5   26.60   23.90   1
  12  11  -5   16.50   23.40   1
  12  11   6   18.20   28.00   1
 -12 -11  -6   12.20   28.00   1
  12 -11  -6   38.50   28.60   1
 -12  11   6   28.10   28.50   1
 -12 -11   6   34.20   29.60   1
  12  11  -6   14.00   29.00   1
  12  11   7   38.70   29.50   1
 -12 -11  -7   -0.00   29.40   1
  12 -11  -7   43.40   29.80   1
 -12  11   7  123.90   30.90   1
 -12 -11   7   -0.00   30.20   1
  12  11   8   28.10   39.10   1
 -12 -11  -8   45.60   39.90   1
  12 -11  -8   55.00   40.20   1
 -12  11   8   48.50   39.40   1
  12  11   9   25.50   37.80   1
 -12 -11  -9   53.50   38.00   1
  12 -11  -9   68.00   38.30   1
 -12  11   9   24.40   36.90   1
  12  11  10   29.90   24.60   1
 -12 -11 -10   42.50   26.30   1
  12 -11 -10   12.30   23.90   1
 -12  11  10   -0.00   24.10   1
  12  12   0  307.40  103.10   1
 -12 -12   0  242.60  102.50   1
  12 -12   0  324.20  106.70   1
 -12  12   0  124.80  104.00   1
  12  12   1  418.50  171.50   1
 -12 -12  -1  347.40  171.20   1
  12 -12  -1  757.80  176.40   1
 -12  12   1  489.60  174.50   1
 -12  12  -1  562.50  178.40   1
  12 -12   1  923.20  185.40   1
 -12 -12   1  551.80  172.90   1
  12  12  -1  618.20  173.90   1
  12  12   2   11.80   25.80   1
 -12 -12  -2   21.20   26.10   1
  12 -12  -2   33.00   28.40   1
 -12  12   2   18.00   27.20   1
 -12  12  -2    6.90   33.50   1
  12 -12   2   36.10   39.50   1
 -12 -12   2   17.00   26.40   1
  12  12  -2   24.30   26.60   1
  12  12   3  170.30  108.50   1
 -12 -12  -3  347.60  109.50   1
  12 -12  -3  258.60  110.60   1
 -12  12   3  293.50  110.80   1
 -12 -12   3  317.70  110.20   1
  12  12  -3  261.60  109.70   1
  12  12   4   71.20   46.90   1
 -12 -12  -4   45.60   46.60   1
  12 -12  -4   61.80   47.40   1
 -12  12   4   54.20   47.80   1
 -12 -12   4   63.20   46.80   1
  12  12  -4   56.20   46.80   1
  12  12   5  424.40  147.20   1
 -12 -12  -5  356.60  146.20   1
  12 -12  -5  367.40  146.20   1
 -12  12   5  339.50  146.30   1
 -12 -12   5  411.40  149.80   1
  12  12  -5  432.40  151.90   1
  12  12   6   26.40   27.30   1
 -12 -12  -6   22.90   27.40   1
  12 -12  -6   12.80   28.00   1
 -12  12   6   15.60   27.90   1
 -12 -12   6   53.30   30.00   1
  12  12  -6   12.80   28.10   1
  12  12   7  118.10   67.90   1
 -12 -12  -7  157.60   68.10   1
  12 -12  -7  137.30   68.30   1
 -12  12   7  141.30   68.50   1
 -12 -12   7   47.00   67.60   1
  12  12   8    0.00   11.20   1
 -12 -12  -8    6.20   12.50   1
  12 -12  -8    3.70   12.60   1
 -12  12   8   -0.00   11.50   1
  12  12   9  202.40   92.80   1
 -12 -12  -9  147.10   92.10   1
  12 -12  -9  191.30   92.40   1
 -12  12   9  259.50   93.70   1
  12  12  10    4.70   14.30   1
 -12 -12 -10   -0.00   12.50   1
  12 -12 -10   -0.00   12.20   1
 -12  12  10    7.20   14.50   1
  12  13   0 4019.90  970.90   1
 -12 -13   0 3638.90  966.50   1
  12 -13   0 3942.30  981.70   1
 -12  13   0 2656.00  966.70   1
  12  13   1  188.00   64.20   1
 -12 -13  -1  121.70   63.60   1
  12 -13  -1  116.50   67.70   1
 -12  13   1   46.70   65.20   1
 -12  13  -1   52.90   68.10   1
  12 -13   1  148.50   69.60   1
 -12 -13   1   89.90   63.70   1
  12  13  -1   98.40   63.90   1
  12  13   2  269.60   76.30   1
 -12 -13  -2  156.30   75.50   1
  12 -13  -2  114.60   76.40   1
 -12  13   2  129.10   76.70   1
 -12  13  -2  214.60   83.40   1
  12 -13   2  133.10   80.20   1
 -12 -13   2   90.50   75.50   1
  12  13  -2  148.10   76.10   1
  12  13   3  469.30  123.60   1
 -12 -13  -3  400.20  122.90   1
  12 -13  -3  693.70  129.20   1
 -12  13   3  290.50  123.30   1
 -12 -13   3  183.20  121.90   1
  12  13  -3  191.30  122.30   1
  12  13   4  148.20   36.30   1
 -12 -13  -4   32.60   35.10   1
  12 -13  -4   35.10   36.90   1
 -12  13   4   30.90   36.20   1
 -12 -13   4   40.00   35.70   1
  12  13  -4   -0.00   35.60   1
  12  13   5   87.10   50.60   1
 -12 -13  -5   61.70   50.40   1
  12 -13  -5  110.80   51.20   1
 -12  13   5   34.00   50.30   1
 -12 -13   5  112.60   52.50   1
  12  13  -5   71.50   51.00   1
  12  13   6  595.40  208.20   1
 -12 -13  -6  622.80  208.50   1
  12 -13  -6  769.50  209.40   1
 -12  13   6  506.40  207.00   1
 -12 -13   6  579.30  220.10   1
  12  13   7  238.10  104.80   1
 -12 -13  -7  231.40  104.60   1
  12 -13  -7  224.00  105.00   1
 -12  13   7  219.90  104.70   1
  12  13   8  610.30  157.20   1
 -12 -13  -8  302.00  154.10   1
  12 -13  -8  841.50  163.50   1
 -12  13   8  402.20  155.60   1
  12  13   9  123.70   44.10   1
 -12 -13  -9   39.30   43.70   1
  12 -13  -9   61.90   44.00   1
 -12  13   9   33.00   42.80   1
  12  14   0   26.70   28.70   1
 -12 -14   0   19.60   28.20   1
  12 -14   0   22.40   35.70   1
 -12  14   0   23.00   34.80   1
  12  14   1   26.40   23.80   1
 -12 -14  -1    5.40   23.60   1
  12 -14  -1   21.00   30.90   1
 -12  14   1    9.90   28.90   1
 -12  14  -1   11.80   30.40   1
  12 -14   1    9.80   33.80   1
 -12 -14   1   11.30   23.90   1
  12  14  -1   29.20   24.40   1
  12  14   2   18.30   23.20   1
 -12 -14  -2   18.90   23.30   1
  12 -14  -2   -0.00   26.90   1
 -12  14   2   31.20   28.60   1
  12 -14   2    0.00   27.20   1
 -12 -14   2   20.90   24.00   1
  12  14  -2    5.70   23.90   1
  12  14   3   29.80   25.20   1
 -12 -14  -3   24.40   25.50   1
  12 -14  -3   -0.00   27.20   1
 -12  14   3   12.70   26.40   1
 -12 -14   3   10.50   26.30   1
  12  14  -3    9.60   26.20   1
  12  14   4    7.00   11.20   1
 -12 -14  -4   -0.00   10.60   1
  12 -14  -4   -0.00   16.30   1
 -12  14   4   -0.00   15.70   1
 -12 -14   4    2.50   13.90   1
  12  14  -4   -0.00   12.40   1
  12  14   5   13.60   20.90   1
 -12 -14  -5    0.00   21.20   1
  12 -14  -5   14.40   23.50   1
 -12  14   5   15.60   23.90   1
 -12 -14   5   24.90   22.80   1
  12  14   6   17.80   36.60   1
 -12 -14  -6   51.70   36.80   1
  12 -14  -6   50.30   37.00   1
 -12  14   6   38.50   37.20   1
  12  14   7   -0.00   11.20   1
 -12 -14  -7    5.90   11.70   1
  12 -14  -7    6.80   13.20   1
 -12  14   7   -0.00   12.80   1
  12  14   8   -0.00    7.20   1
 -12 -14  -8   -0.00    7.20   1
  12 -14  -8    0.00    8.00   1
 -12  14   8   -0.00    9.80   1
  12  14   9   -0.00   21.00   1
 -12 -14  -9   17.40   21.70   1
  12 -14  -9   13.10   22.00   1
 -12  14   9   26.20   21.70   1
  12  15   0   23.90   31.70   1
 -12 -15   0   27.70   31.70   1
  12 -15   0  106.00   42.00   1
  12  15   1   45.30   19.50   1
 -12 -15  -1   -0.00   18.70   1
  12 -15  -1   11.30   27.00   1
 -12  15   1   -0.00   25.00   1
 -12  15  -1   33.50   25.50   1
  12 -15   1   -0.00   28.90   1
 -12 -15   1    3.40   19.10   1
  12  15  -1   11.60   19.30   1
  12  15   2   69.30   41.00   1
 -12 -15  -2   81.00   41.00   1
  12 -15  -2   80.30   45.30   1
 -12  15   2   33.50   43.40   1
 -12 -15   2   24.90   41.10   1
  12  15  -2   22.70   41.30   1
  12  15   3    7.70   13.50   1
 -12 -15  -3   -0.00   13.10   1
  12 -15  -3   -0.00   16.80   1
 -12  15   3    4.00   17.60   1
 -12 -15   3   -0.00   15.80   1
  12  15  -3   29.50   16.90   1
  12  15   4   10.30   23.20   1
 -12 -15  -4   25.10   23.80   1
  12 -15  -4   30.10   28.20   1
 -12  15   4   -0.00   25.80   1
 -12 -15   4    9.00   24.90   1
  12  15  -4   39.40   24.90   1
  12  15   5   24.30   19.40   1
 -12 -15  -5    5.10   18.80   1
  12 -15  -5    3.20   22.40   1
 -12  15   5   -0.00   21.20   1
  12  15   6  112.70   65.20   1
 -12 -15  -6  108.20   65.10   1
  12 -15  -6  100.90   65.30   1
 -12  15   6   98.20   65.70   1
  12  15   7    7.80   23.90   1
 -12 -15  -7   26.90   23.50   1
  12 -15  -7   10.40   24.00   1
 -12  15   7   14.70   24.40   1
  12  15   8   31.70   26.80   1
 -12 -15  -8   13.80   26.60   1
  12 -15  -8   13.40   27.60   1
 -12  15   8   20.70   27.30   1
  12  16   0   12.40   26.00   1
 -12 -16   0   31.60   26.20   1
  12 -16   0   40.90   36.30   1
 -12  16   0   -0.00   30.70   1
  12  16   1   66.90   54.20   1
 -12 -16  -1   81.60   54.30   1
  12 -16  -1   90.50   58.00   1
 -12  16   1  120.80   59.30   1
  12 -16   1   64.50   57.90   1
 -12 -16   1   63.50   54.30   1
  12  16  -1  109.80   55.30   1
  12  16   2   86.70   55.00   1
 -12 -16  -2   80.50   54.90   1
  12 -16  -2  152.50   60.00   1
 -12  16   2   65.60   57.40   1
 -12 -16   2   65.70   55.50   1
  12  16  -2   66.50   55.90   1
  12  16   3   15.00   21.90   1
 -12 -16  -3    8.70   21.90   1
  12 -16  -3    6.80   26.30   1
 -12  16   3  111.10   31.40   1
 -12 -16   3    9.50   23.70   1
  12  16  -3   18.10   23.20   1
  12  16   4   47.80   42.90   1
 -12 -16  -4   50.90   43.00   1
  12 -16  -4  115.90   45.60   1
 -12  16   4   35.90   44.00   1
 -12 -16   4   47.20   44.10   1
  12  16   5  126.70   67.00   1
 -12 -16  -5   98.20   66.90   1
  12 -16  -5  126.80   68.60   1
 -12  16   5  101.60   68.60   1
  12  16   6    1.00   14.80   1
 -12 -16  -6    8.40   16.40   1
  12 -16  -6   -0.00   18.50   1
 -12  16   6   30.40   19.50   1
  12  16   7   17.00   24.40   1
 -12 -16  -7   -0.00   24.70   1
  12 -16  -7   12.50   25.40   1
 -12  16   7   67.00   26.30   1
  12  17   0  108.50   77.40   1
 -12 -17   0  191.20   78.60   1
  12 -17   0  237.80   88.20   1
 -12  17   0  172.70   84.20   1
  12  17   1    7.20   14.40   1
 -12 -17  -1    5.70   14.50   1
  12 -17  -1   -0.00   27.00   1
 -12  17   1   11.00   23.90   1
 -12 -17   1    3.60   15.20   1
  12  17  -1    0.60   16.00   1
  12  17   2   21.20   26.20   1
 -12 -17  -2   14.90   26.00   1
  12 -17  -2   36.60   32.50   1
 -12  17   2   64.70   32.70   1
 -12 -17   2   17.80   27.50   1
  12  17  -2   15.20   27.20   1
  12  17   3   33.40   34.90   1
 -12 -17  -3   54.30   35.10   1
  12 -17  -3   31.60   39.20   1
 -12  17   3    9.10   37.80   1
 -12 -17   3   24.70   35.70   1
  12  17   4   14.80   28.20   1
 -12 -17  -4   45.40   28.50   1
  12 -17  -4   10.50   30.40   1
 -12  17   4   27.40   31.90   1
  12  17   5    0.70   12.80   1
 -12 -17  -5    9.70   13.50   1
  12 -17  -5    8.80   20.00   1
 -12  17   5    4.90   17.00   1
  12  17   6   71.90   43.90   1
 -12 -17  -6   93.50   43.90   1
  12 -17  -6   33.00   45.20   1
 -12  17   6   21.50   44.40   1
  12  18   0   -0.00   17.00   1
 -12 -18   0   10.60   16.10   1
  12 -18   0    7.30   22.60   1
  12  18   1  176.70   83.80   1
 -12 -18  -1  223.00   84.40   1
  12 -18  -1  438.10  103.50   1
 -12  18   1   65.70   84.80   1
 -12 -18   1  248.50   87.30   1
  12  18  -1  396.60   98.90   1
  12  18   2   49.00   43.50   1
 -12 -18  -2   52.30   43.50   1
  12 -18  -2   57.40   48.00   1
 -12  18   2   39.90   47.60   1
 -12 -18   2   73.20   45.50   1
  12  18   3  180.00   67.30   1
 -12 -18  -3  439.60   72.80   1
  12 -18  -3   74.20   68.50   1
 -12  18   3   72.20   68.10   1
  12  18   4  103.40   60.60   1
 -12 -18  -4   75.00   60.20   1
  12 -18  -4  148.50   63.50   1
 -12  18   4  125.60   64.60   1
  12  19   0    0.00   21.10   1
 -12 -19   0   85.50   23.80   1
  12  19   1   13.30   16.00   1
 -12 -19  -1    0.30   15.40   1
  12 -19  -1   17.20   26.50   1
 -12  19   1   -0.00   20.60   1
 -12 -19   1   11.10   16.90   1
  12  19  -1    3.50   16.10   1
  12  19   2   19.10   15.70   1
 -12 -19  -2    2.30   15.50   1
  12 -19  -2    0.00   24.70   1
 -12  19   2   -0.00   23.70   1
 -12 -19   2   -0.00   16.40   1
  13   0   0   -0.00   11.10   1
 -13   0   0   -0.00   11.70   1
  13   0   1  571.20  193.00   1
 -13   0  -1  476.30  192.50   1
  13   0  -1  639.60  193.50   1
 -13   0   1  555.90  192.90   1
  13   0   2   -0.00   31.00   1
 -13   0  -2   20.20   31.80   1
  13   0  -2   36.40   31.50   1
 -13   0   2   59.40   31.40   1
  13   0   311678.50 2977.00   1
 -13   0  -3 9123.90 2957.60   1
  13   0  -316222.80 2992.90   1
 -13   0   311183.40 2962.10   1
  13   0   4 1091.90  252.40   1
 -13   0  -4  901.30  250.50   1
  13   0  -4  787.30  249.30   1
 -13   0   4  592.90  248.30   1
  13   0   5 1356.60  416.40   1
 -13   0  -5 1593.10  418.10   1
  13   0  -5 1362.20  415.60   1
 -13   0   5 1315.90  415.20   1
  13   0   6  162.10   77.20   1
 -13   0  -6  107.00   75.80   1
  13   0  -6  110.70   74.10   1
 -13   0   6  197.40   74.70   1
  13   0   7 1157.90  353.30   1
 -13   0  -7  965.20  351.60   1
  13   0  -7 1283.30  348.40   1
 -13   0   7 1073.80  347.30   1
  13   0   8  136.50   75.80   1
 -13   0  -8   96.30   72.20   1
  13   0  -8  114.20   69.20   1
 -13   0   8  124.10   69.20   1
  13   0   9  206.10   86.90   1
  13   0  -9  150.70   80.00   1
 -13   0   9  144.00   80.00   1
  13   0 -10  132.30   80.40   1
 -13   0  10  175.00   80.70   1
  13   0 -11  770.70  272.90   1
 -13   0  11  893.30  274.70   1
  13   0 -12    3.00   12.40   1
 -13   0  12    2.70   12.60   1
  13   1   0   -0.00   13.10   1
 -13  -1   0   12.80   13.40   1
  13  -1   0   -0.10   13.80   1
  13   1   1   27.20   29.20   1
 -13  -1  -1   28.50   29.20   1
  13  -1  -1   27.70   29.00   1
 -13   1   1   28.80   29.50   1
 -13   1  -1   22.70   29.70   1
  13  -1   1   17.40   29.80   1
 -13  -1   1   15.70   29.00   1
  13   1  -1   20.60   29.50   1
  13   1   2  687.20  133.90   1
 -13  -1  -2  558.80  133.50   1
  13  -1  -2 1042.40  138.30   1
 -13   1   2  892.60  136.70   1
 -13   1  -2 1105.40  141.70   1
  13  -1   2 1053.80  139.80   1
 -13  -1   2  194.30  131.70   1
  13   1  -2  202.60  131.70   1
 -13  -1  -3  127.00   27.70   1
  13  -1  -3    3.60   23.40   1
 -13   1   3    3.20   23.10   1
 -13   1  -3   16.70   25.50   1
  13  -1   3    7.60   26.60   1
 -13  -1   3   11.00   23.50   1
  13   1  -3   10.80   23.50   1
  13   1   4  128.10   71.50   1
 -13  -1  -4  213.50   72.60   1
  13  -1  -4  193.60   71.30   1
 -13   1   4  189.00   71.20   1
 -13   1  -4   81.70   70.70   1
  13  -1   4  106.20   71.10   1
 -13  -1   4  104.90   70.50   1
  13   1  -4   95.90   70.50   1
  13   1   5   21.50   33.80   1
 -13  -1  -5   16.40   34.40   1
  13  -1  -5   59.70   34.00   1
 -13   1   5   25.40   33.40   1
 -13   1  -5   75.60   38.20   1
  13  -1   5   75.00   38.70   1
 -13  -1   5   20.80   33.10   1
  13   1  -5   26.70   33.10   1
  13   1   6 1049.50  241.60   1
 -13  -1  -6  991.80  242.60   1
  13  -1  -6  618.60  236.30   1
 -13   1   6  822.40  237.40   1
 -13   1  -6  905.20  242.00   1
  13  -1   6  560.00  238.20   1
 -13  -1   6  668.80  236.10   1
  13   1  -6  636.10  236.10   1
  13   1   7   36.50   31.40   1
 -13  -1  -7   13.00   29.70   1
  13  -1  -7    6.60   23.90   1
 -13   1   7    7.30   23.60   1
 -13   1  -7   -0.00   31.70   1
  13  -1   7    6.30   31.60   1
 -13  -1   7   23.70   23.70   1
  13   1  -7   24.60   23.90   1
  13   1   8  137.90   57.00   1
 -13  -1  -8   99.70   56.70   1
  13  -1  -8  129.80   50.50   1
 -13   1   8   40.10   49.90   1
 -13   1  -8   85.20   55.00   1
  13  -1   8   63.20   55.20   1
 -13  -1   8  111.10   50.40   1
  13   1  -8   46.70   49.90   1
  13   1   9    7.60   26.90   1
 -13  -1  -9   11.00   21.20   1
  13  -1  -9    0.00   14.90   1
 -13   1   9    3.10   14.50   1
 -13  -1   9   11.50   15.70   1
  13   1  -9    8.30   15.90   1
  13  -1 -10   43.80   36.30   1
 -13   1  10   30.50   36.00   1
 -13  -1  10   43.80   36.50   1
  13   1 -10   29.50   36.30   1
  13  -1 -11   15.90   24.30   1
 -13   1  11   12.70   23.90   1
 -13  -1  11   17.90   24.10   1
  13   1 -11   14.90   24.40   1
  13  -1 -12   40.60   44.10   1
 -13   1  12   44.60   44.10   1
 -13  -1  12   72.40   45.00   1
  13   1 -12   89.00   45.30   1
  13   2   0    3.40   20.90   1
 -13  -2   0   15.10   20.90   1
  13  -2   0   11.90   21.10   1
 -13   2   0   17.70   21.20   1
  13   2   1  302.00  111.70   1
 -13  -2  -1  267.30  111.50   1
  13  -2  -1  286.00  111.60   1
 -13   2   1  274.60  111.30   1
 -13   2  -1  195.60  111.30   1
  13  -2   1  208.60  111.30   1
 -13  -2   1  245.60  111.50   1
  13   2  -1  365.70  112.50   1
  13   2   2    7.60   18.10   1
 -13  -2  -2   15.50   18.10   1
  13  -2  -2    5.70   17.50   1
 -13   2   2    0.30   17.60   1
 -13   2  -2   43.70   22.80   1
  13  -2   2   24.60   22.40   1
 -13  -2   2    1.60   19.50   1
  13   2  -2    3.50   19.50   1
  13   2   3  515.20  178.80   1
 -13  -2  -3  586.70  179.20   1
  13  -2  -3  637.90  179.80   1
 -13   2   3  489.80  178.50   1
 -13   2  -3  456.80  178.70   1
  13  -2   3  847.00  182.00   1
 -13  -2   3  330.10  177.70   1
  13   2  -3  753.90  179.90   1
  13   2   4   56.50   42.80   1
 -13  -2  -4   71.90   42.70   1
  13  -2  -4   27.30   41.10   1
 -13   2   4   17.00   40.70   1
 -13   2  -4   31.60   41.90   1
  13  -2   4   52.20   42.50   1
 -13  -2   4   62.90   40.90   1
  13   2  -4   89.70   41.30   1
  13   2   5  256.70   71.90   1
 -13  -2  -5  175.50   70.30   1
  13  -2  -5  152.10   69.10   1
 -13   2   5  182.60   69.40   1
 -13   2  -5   22.30   69.80   1
  13  -2   5  368.90   76.50   1
 -13  -2   5   84.90   68.50   1
  13   2  -5  122.90   68.80   1
  13   2   6   29.50   30.60   1
 -13  -2  -6    0.00   30.40   1
  13  -2  -6   22.70   29.40   1
 -13   2   6   37.50   29.20   1
 -13   2  -6   38.70   34.60   1
  13  -2   6   17.50   35.50   1
 -13  -2   6   18.50   28.50   1
  13   2  -6   22.50   28.50   1
  13   2   7  111.30   63.70   1
 -13  -2  -7   73.80   62.30   1
  13  -2  -7  113.30   61.10   1
 -13   2   7   72.00   60.80   1
 -13   2  -7  112.20   66.10   1
  13  -2   7  121.20   66.80   1
 -13  -2   7  100.30   60.80   1
  13   2  -7  108.50   61.10   1
  13   2   8   29.00   30.40   1
 -13  -2  -8   36.40   30.20   1
  13  -2  -8   16.30   24.30   1
 -13   2   8   10.10   24.20   1
  13  -2   8   24.30   30.00   1
 -13  -2   8   18.50   24.40   1
  13   2  -8   13.50   24.40   1
  13   2   9   87.60   42.10   1
 -13  -2  -9   36.00   36.90   1
  13  -2  -9   19.70   32.70   1
 -13   2   9   21.50   32.70   1
 -13  -2   9   39.80   33.20   1
  13   2  -9   52.20   33.40   1
  13   2  10   41.80   33.50   1
  13  -2 -10   24.40   29.10   1
 -13   2  10   23.40   29.30   1
 -13  -2  10   25.30   29.60   1
  13   2 -10   18.30   29.70   1
  13  -2 -11  117.70   59.60   1
 -13   2  11   64.10   58.70   1
 -13  -2  11  173.90   61.10   1
  13   2 -11   96.20   59.60   1
  13  -2 -12   -0.00   13.60   1
 -13   2  12   -0.00   13.50   1
 -13  -2  12    7.50   15.70   1
  13   2 -12   16.20   16.20   1
  13   3   0    6.10   21.90   1
 -13  -3   0    1.60   21.30   1
  13  -3   0   15.10   22.10   1
 -13   3   0   45.20   22.60   1
  13   3   1  151.80   78.70   1
 -13  -3  -1  164.20   78.70   1
  13  -3  -1  180.90   79.10   1
 -13   3   1  155.90   78.80   1
 -13   3  -1   91.00   79.50   1
  13  -3   1  159.20   80.00   1
 -13  -3   1  128.20   78.90   1
  13   3  -1  158.10   79.20   1
  13   3   2  895.20  271.10   1
 -13  -3  -2  971.10  271.40   1
  13  -3  -2  841.40  271.40   1
 -13   3   2 1116.20  273.80   1
 -13   3  -2 1111.10  274.00   1
  13  -3   2 1315.80  275.50   1
 -13  -3   2  749.00  270.30   1
  13   3  -2  625.90  269.80   1
  13   3   3   90.50   51.50   1
 -13  -3  -3   56.00   51.20   1
  13  -3  -3   77.70   51.30   1
 -13   3   3   71.10   51.00   1
 -13   3  -3   43.30   51.70   1
  13  -3   3   44.40   51.90   1
 -13  -3   3   85.00   51.40   1
  13   3  -3   93.40   51.50   1
  13   3   4   32.50   40.20   1
 -13  -3  -4  109.60   41.50   1
  13  -3  -4   86.30   40.70   1
 -13   3   4   24.20   39.70   1
 -13   3  -4   19.00   42.40   1
  13  -3   4   19.80   42.00   1
 -13  -3   4   44.00   39.40   1
  13   3  -4   42.90   39.20   1
  13   3   5   86.70   63.80   1
 -13  -3  -5  128.70   64.60   1
  13  -3  -5  207.40   64.30   1
 -13   3   5  145.60   64.00   1
 -13   3  -5  187.30   67.80   1
  13  -3   5   75.20   66.80   1
 -13  -3   5   69.40   62.60   1
  13   3  -5   90.90   62.70   1
  13   3   6  231.30  114.00   1
 -13  -3  -6  260.40  114.20   1
  13  -3  -6  521.10  115.80   1
 -13   3   6  158.10  113.30   1
 -13   3  -6  279.20  117.80   1
  13  -3   6  328.10  119.10   1
 -13  -3   6  534.30  115.30   1
  13   3  -6  522.50  115.50   1
  13   3   7  236.50   45.90   1
 -13  -3  -7   74.00   43.00   1
  13  -3  -7   31.90   38.80   1
 -13   3   7   46.50   39.00   1
 -13   3  -7   16.60   42.80   1
  13  -3   7   83.20   47.60   1
 -13  -3   7   29.40   38.50   1
  13   3  -7   37.50   38.40   1
  13   3   8  135.30   73.30   1
 -13  -3  -8  284.80   75.60   1
  13  -3  -8  171.30   70.30   1
 -13   3   8   72.00   69.60   1
 -13  -3   8  220.40   71.20   1
  13   3  -8  164.40   70.70   1
  13   3   9   28.60   31.40   1
 -13  -3  -9  108.10   34.90   1
  13  -3  -9   16.70   23.50   1
 -13   3   9   14.80   23.30   1
 -13  -3   9   18.70   23.90   1
  13   3  -9    0.00   24.10   1
  13   3  10   57.90   36.40   1
  13  -3 -10   68.30   29.40   1
 -13   3  10    8.10   28.70   1
 -13  -3  10   14.30   29.50   1
  13   3 -10   39.60   29.60   1
  13  -3 -11   30.70   33.60   1
 -13   3  11   21.60   33.40   1
 -13  -3  11   73.70   35.20   1
  13   3 -11   40.60   34.70   1
  13  -3 -12    8.80   14.60   1
 -13   3  12    5.50   14.30   1
 -13  -3  12   -0.00   16.40   1
  13   3 -12    0.00   15.80   1
  13   4   0    3.20   28.90   1
 -13  -4   0   -0.00   29.30   1
  13  -4   0  137.30   31.40   1
 -13   4   0   38.60   29.50   1
  13   4   1   22.80   19.80   1
 -13  -4  -1    4.10   19.30   1
  13  -4  -1    7.20   20.30   1
 -13   4   1    5.20   20.20   1
 -13   4  -1    0.90   22.00   1
  13  -4   1   39.70   23.60   1
 -13  -4   1   12.30   20.60   1
  13   4  -1    9.20   20.70   1
  13   4   2  183.10   53.40   1
 -13  -4  -2  207.00   53.90   1
  13  -4  -2  169.60   53.60   1
 -13   4   2  169.20   53.30   1
 -13   4  -2   12.40   53.10   1
  13  -4   2   32.40   54.00   1
 -13  -4   2   36.10   52.60   1
  13   4  -2   93.70   53.00   1
  13   4   3  221.30   93.50   1
 -13  -4  -3  164.40   93.20   1
  13  -4  -3  287.30   93.90   1
 -13   4   3  111.50   92.90   1
 -13   4  -3  240.60   94.80   1
  13  -4   3  206.20   94.60   1
 -13  -4   3  408.80   95.00   1
  13   4  -3  407.60   94.90   1
  13   4   4   36.00   29.00   1
 -13  -4  -4   22.60   28.80   1
  13  -4  -4   24.90   28.70   1
 -13   4   4   25.60   28.20   1
 -13   4  -4    2.70   30.30   1
  13  -4   4   31.20   34.20   1
 -13  -4   4    9.60   28.10   1
  13   4  -4   28.00   28.20   1
  13   4   5   50.40   39.00   1
 -13  -4  -5   18.20   38.30   1
  13  -4  -5   51.10   38.10   1
 -13   4   5  118.10   38.90   1
 -13   4  -5   51.70   41.50   1
  13  -4   5   50.20   42.20   1
 -13  -4   5   24.10   37.10   1
  13   4  -5   29.10   37.00   1
  13   4   6  187.80   44.00   1
 -13  -4  -6   21.50   40.40   1
  13  -4  -6   16.40   39.40   1
 -13   4   6    8.40   39.60   1
 -13   4  -6   -0.00   45.70   1
  13  -4   6   96.50   48.60   1
 -13  -4   6  163.00   40.40   1
  13   4  -6  169.90   40.60   1
  13   4   7  157.00   77.10   1
 -13  -4  -7  177.30   78.00   1
  13  -4  -7  147.70   76.60   1
 -13   4   7  103.60   76.40   1
  13  -4   7  127.20   80.30   1
 -13  -4   7  131.20   76.20   1
  13   4  -7  158.40   76.50   1
  13   4   8   17.40   26.80   1
 -13  -4  -8   -0.00   23.20   1
  13  -4  -8   19.50   21.00   1
 -13   4   8   20.30   20.80   1
 -13  -4   8    3.10   21.40   1
  13   4  -8    3.90   20.80   1
  13   4   9   28.50   30.60   1
 -13  -4  -9   -0.00   30.80   1
  13  -4  -9   82.40   27.20   1
 -13   4   9    9.40   26.30   1
 -13  -4   9   12.20   26.60   1
  13   4  -9   13.70   27.00   1
  13   4  10    8.70   29.10   1
 -13  -4 -10    7.80   25.60   1
  13  -4 -10   15.10   20.70   1
 -13   4  10    6.70   20.40   1
 -13  -4  10   10.80   21.40   1
  13   4 -10   18.40   22.10   1
  13  -4 -11   -0.00   14.50   1
 -13   4  11    6.10   14.40   1
 -13  -4  11    6.70   16.00   1
  13   4 -11   14.30   16.80   1
  13  -4 -12    3.40   13.10   1
 -13   4  12    1.40   12.50   1
 -13  -4  12    5.30   15.40   1
  13   4 -12    6.80   15.90   1
  13  -5   0 1116.20  350.30   1
 -13   5   0 1150.70  350.90   1
  13   5   1  635.80  112.00   1
 -13  -5  -1  268.10  108.60   1
  13  -5  -1  265.10  108.70   1
 -13   5   1  220.10  108.70   1
 -13   5  -1  233.90  109.50   1
  13  -5   1  312.50  110.30   1
 -13  -5   1  246.80  108.30   1
  13   5  -1  180.30  108.10   1
  13   5   2 2973.40  813.40   1
 -13  -5  -2 2532.20  811.00   1
  13  -5  -2 3004.40  812.60   1
 -13   5   2 2487.10  810.20   1
 -13   5  -2 2780.00  811.90   1
  13  -5   2 2942.00  812.30   1
 -13  -5   2 3492.50  814.00   1
  13   5  -2 3654.60  815.50   1
  13   5   3   63.30   45.90   1
 -13  -5  -3   36.30   45.60   1
  13  -5  -3   69.70   45.90   1
 -13   5   3   45.60   45.70   1
 -13   5  -3   69.50   49.60   1
  13  -5   3  110.30   48.90   1
 -13  -5   3   57.60   45.60   1
  13   5  -3   59.90   45.50   1
  13   5   4  935.80  253.30   1
 -13  -5  -4  716.80  252.40   1
  13  -5  -4  823.10  253.50   1
 -13   5   4  835.20  253.40   1
 -13   5  -4  744.00  255.30   1
  13  -5   4  965.90  257.80   1
 -13  -5   4  632.20  251.80   1
  13   5  -4  753.10  252.20   1
  13   5   5  505.00  176.50   1
 -13  -5  -5  323.10  175.70   1
  13  -5  -5  746.70  179.30   1
 -13   5   5  623.80  177.70   1
 -13   5  -5  503.80  180.40   1
  13  -5   5  814.50  185.20   1
 -13  -5   5  472.10  175.70   1
  13   5  -5  500.50  176.10   1
  13   5   6 3298.10 1199.70   1
 -13  -5  -6 4197.90 1205.90   1
  13  -5  -6 6370.70 1218.70   1
 -13   5   6 5163.80 1209.60   1
 -13   5  -6 3528.70 1249.50   1
  13  -5   6 5833.00 1311.50   1
 -13  -5   6 4597.40 1209.80   1
  13   5  -6 5051.30 1214.90   1
  13   5   7   11.20   28.50   1
 -13  -5  -7   17.50   28.30   1
  13  -5  -7   27.50   27.90   1
 -13   5   7    5.60   27.00   1
 -13  -5   7   32.00   27.90   1
  13   5  -7   38.60   27.70   1
  13   5   8  153.60  108.10   1
 -13  -5  -8  367.80  111.30   1
  13  -5  -8  258.90  107.30   1
 -13   5   8  593.90  110.70   1
 -13  -5   8  194.90  107.30   1
  13   5  -8  241.80  107.80   1
  13   5   9   52.00   37.20   1
 -13  -5  -9   49.90   36.40   1
  13  -5  -9   63.20   33.30   1
 -13   5   9   24.90   33.00   1
 -13  -5   9   21.20   33.20   1
  13   5  -9   14.30   33.20   1
  13   5  10  213.10   66.90   1
 -13  -5 -10  130.40   65.10   1
  13  -5 -10  243.30   61.30   1
 -13   5  10   60.50   59.50   1
 -13  -5  10   98.40   60.80   1
  13   5 -10  120.40   61.70   1
  13   5  11  101.70   34.90   1
  13  -5 -11   28.60   22.40   1
 -13   5  11   11.50   22.10   1
 -13  -5  11    0.00   24.40   1
  13   5 -11    0.00   23.80   1
  13  -5 -12  149.20   87.30   1
 -13   5  12  182.10   87.60   1
 -13  -5  12  258.60   95.00   1
  13   5 -12  248.80   96.70   1
  13   6   0    1.00   13.30   1
 -13  -6   0    7.50   13.30   1
  13  -6   0    2.70   17.90   1
 -13   6   0   -0.00   14.10   1
  13   6   1   37.40   45.60   1
 -13  -6  -1   21.90   45.70   1
  13  -6  -1   62.30   46.10   1
 -13   6   1   38.30   46.00   1
 -13   6  -1   54.80   46.70   1
  13  -6   1  113.90   47.90   1
 -13  -6   1   86.30   45.80   1
  13   6  -1  115.80   46.20   1
  13   6   2  106.10   53.60   1
 -13  -6  -2  161.20   53.80   1
  13  -6  -2  117.40   53.90   1
 -13   6   2  113.30   53.90   1
 -13   6  -2   42.20   54.30   1
  13  -6   2   56.30   54.80   1
 -13  -6   2   59.10   53.20   1
  13   6  -2   45.60   53.10   1
  13   6   3  361.00  125.40   1
 -13  -6  -3  455.80  126.40   1
  13  -6  -3  402.20  125.70   1
 -13   6   3  363.60  125.30   1
 -13   6  -3  203.70  126.10   1
  13  -6   3  539.50  130.80   1
 -13  -6   3  230.40  124.50   1
  13   6  -3  280.60  124.70   1
  13   6   4   47.00   30.80   1
 -13  -6  -4   82.80   31.20   1
  13  -6  -4   31.60   30.70   1
 -13   6   4   14.70   30.60   1
 -13   6  -4   16.60   34.80   1
  13  -6   4   45.30   36.70   1
 -13  -6   4   12.20   30.40   1
  13   6  -4   12.40   30.40   1
  13   6   5   54.90   41.20   1
 -13  -6  -5   60.60   41.40   1
  13  -6  -5   38.70   41.30   1
 -13   6   5   34.20   40.70   1
 -13   6  -5   15.80   46.30   1
  13  -6   5   53.50   48.90   1
 -13  -6   5   52.30   40.70   1
  13   6  -5   46.70   40.80   1
  13   6   6   13.80   27.40   1
 -13  -6  -6   36.00   27.80   1
  13  -6  -6    7.00   26.20   1
 -13   6   6   10.80   26.30   1
  13  -6   6    6.40   32.80   1
 -13  -6   6   22.40   25.40   1
  13   6  -6   19.60   25.90   1
  13   6   7  493.60  128.70   1
 -13  -6  -7  235.00  126.00   1
  13  -6  -7  267.80  125.60   1
 -13   6   7  352.80  126.50   1
 -13  -6   7  330.20  126.60   1
  13   6  -7  317.20  126.50   1
  13   6   8    9.30   19.10   1
 -13  -6  -8   14.40   20.40   1
  13  -6  -8   11.80   18.60   1
 -13   6   8   10.20   17.70   1
 -13  -6   8    2.60   17.00   1
  13   6  -8   -0.00   17.70   1
  13   6   9   82.30   35.00   1
 -13  -6  -9    6.60   30.80   1
  13  -6  -9   16.60   29.20   1
 -13   6   9  175.70   32.40   1
 -13  -6   9   15.10   30.50   1
  13   6  -9   15.80   30.30   1
  13   6  10    0.00   20.80   1
 -13  -6 -10    8.90   23.00   1
  13  -6 -10    0.00   14.60   1
 -13   6  10    4.00   14.00   1
 -13  -6  10    6.70   16.20   1
  13   6 -10   17.70   16.80   1
  13   6  11   66.00   64.70   1
 -13  -6 -11   88.50   64.10   1
  13  -6 -11  104.40   60.70   1
 -13   6  11   91.10   60.60   1
 -13  -6  11  111.20   63.00   1
  13   6 -11   89.80   62.30   1
  13  -6 -12    7.30   14.60   1
 -13   6  12   -0.00   14.70   1
 -13  -6  12   29.30   19.00   1
  13   7   0    4.80   14.50   1
 -13  -7   0    0.00   13.60   1
  13  -7   0   27.20   19.10   1
 -13   7   0    8.40   19.30   1
  13   7   1   35.20   34.40   1
 -13  -7  -1   18.40   34.50   1
  13  -7  -1   28.50   35.80   1
 -13   7   1   26.00   35.80   1
 -13   7  -1   18.50   35.20   1
  13  -7   1   13.60   35.40   1
 -13  -7   1   37.60   34.30   1
  13   7  -1   76.10   34.60   1
  13   7   2   28.90   54.60   1
 -13  -7  -2  190.30   55.60   1
  13  -7  -2   63.70   54.60   1
 -13   7   2   50.80   54.60   1
 -13   7  -2  315.10   61.20   1
  13  -7   2  253.60   60.10   1
 -13  -7   2   75.20   54.20   1
  13   7  -2  129.50   54.70   1
  13   7   3   14.30   29.50   1
 -13  -7  -3   20.60   29.50   1
  13  -7  -3   19.70   30.40   1
 -13   7   3   22.20   29.90   1
 -13   7  -3   66.00   35.20   1
  13  -7   3  132.90   38.20   1
 -13  -7   3   30.20   29.70   1
  13   7  -3   28.50   29.70   1
  13   7   4  314.50  144.20   1
 -13  -7  -4  414.10  144.60   1
  13  -7  -4  423.90  145.20   1
 -13   7   4  323.50  144.50   1
 -13   7  -4  337.20  147.70   1
  13  -7   4  494.70  149.90   1
 -13  -7   4  356.70  144.30   1
  13   7  -4  391.00  144.60   1
  13   7   5   34.10   24.10   1
 -13  -7  -5   22.40   24.20   1
  13  -7  -5   18.60   23.80   1
 -13   7   5    3.80   23.50   1
 -13   7  -5    8.30   32.10   1
  13  -7   5    1.80   35.60   1
 -13  -7   5   14.30   23.50   1
  13   7  -5    7.40   23.70   1
  13   7   6   16.00   28.80   1
 -13  -7  -6   28.70   29.30   1
  13  -7  -6   25.00   29.70   1
 -13   7   6   42.90   29.30   1
 -13  -7   6   10.70   28.20   1
  13   7  -6   19.80   28.60   1
  13   7   7   11.40   23.30   1
 -13  -7  -7   14.20   24.90   1
  13  -7  -7   30.30   23.90   1
 -13   7   7   10.40   21.90   1
 -13  -7   7    3.10   21.30   1
  13   7  -7   12.30   21.30   1
  13   7   8    7.60   24.40   1
 -13  -7  -8    4.60   24.20   1
  13  -7  -8    4.80   23.20   1
 -13   7   8   10.80   23.50   1
 -13  -7   8   54.40   24.50   1
  13   7  -8   44.10   24.50   1
  13   7   9   15.60   31.00   1
 -13  -7  -9   17.70   31.50   1
  13  -7  -9   55.40   28.20   1
 -13   7   9   13.10   27.80   1
 -13  -7   9   14.00   28.80   1
  13   7  -9   11.00   28.50   1
  13   7  10  189.50   68.50   1
 -13  -7 -10  145.10   67.00   1
  13  -7 -10   78.70   63.60   1
 -13   7  10  101.40   63.90   1
 -13  -7  10  165.90   67.40   1
  13   7 -10  145.10   67.40   1
  13   7  11    0.00   25.60   1
 -13  -7 -11   29.40   26.30   1
  13  -7 -11    2.40   17.70   1
 -13   7  11   14.30   18.30   1
 -13  -7  11   15.10   21.00   1
  13   8   0   44.90   32.40   1
 -13  -8   0   15.40   32.00   1
  13  -8   0  163.10   36.60   1
 -13   8   0    1.90   32.70   1
  13   8   1  360.30  149.30   1
 -13  -8  -1  635.10  151.00   1
  13  -8  -1  564.30  152.40   1
 -13   8   1  209.20  149.20   1
 -13   8  -1  435.40  150.80   1
  13  -8   1  936.00  155.40   1
 -13  -8   1  409.50  149.60   1
  13   8  -1  561.50  150.30   1
  13   8   2  129.40   90.50   1
 -13  -8  -2  225.50   91.30   1
  13  -8  -2  410.50   93.00   1
 -13   8   2  185.70   91.50   1
 -13   8  -2  106.00   91.50   1
  13  -8   2  263.40   94.30   1
 -13  -8   2  214.80   90.50   1
  13   8  -2  211.30   90.50   1
  13   8   3  893.30  244.50   1
 -13  -8  -3  930.90  245.00   1
  13  -8  -3  928.40  244.20   1
 -13   8   3  529.30  242.20   1
 -13   8  -3  681.40  246.30   1
  13  -8   3  908.10  249.10   1
 -13  -8   3  720.20  242.80   1
  13   8  -3  760.30  243.40   1
  13   8   4  232.60  126.30   1
 -13  -8  -4  383.40  127.60   1
  13  -8  -4  422.00  127.80   1
 -13   8   4  259.10  126.60   1
 -13   8  -4  338.10  133.20   1
  13  -8   4  645.70  140.00   1
 -13  -8   4  309.00  126.80   1
  13   8  -4  340.10  127.10   1
  13   8   5   78.20   51.90   1
 -13  -8  -5   51.30   51.90   1
  13  -8  -5   58.80   51.90   1
 -13   8   5   59.30   52.00   1
 -13   8  -5  231.40   63.80   1
  13  -8   5  284.10   67.00   1
 -13  -8   5   94.90   52.20   1
  13   8  -5  125.50   52.60   1
  13   8   6  117.50   65.90   1
 -13  -8  -6   84.90   65.70   1
  13  -8  -6  103.10   66.00   1
 -13   8   6  112.10   65.70   1
 -13  -8   6  133.30   66.30   1
  13   8  -6  114.50   65.90   1
  13   8   7   77.80   60.90   1
 -13  -8  -7  123.40   61.40   1
  13  -8  -7  161.30   61.30   1
 -13   8   7   57.30   60.30   1
 -13  -8   7   99.90   60.40   1
  13   8  -7   93.80   60.30   1
  13   8   8   23.00   34.40   1
 -13  -8  -8   64.30   33.70   1
  13  -8  -8    7.90   32.30   1
 -13   8   8   13.30   32.60   1
 -13  -8   8  103.40   34.50   1
  13   8  -8   83.20   34.50   1
  13   8   9   33.40   36.10   1
 -13  -8  -9   23.00   37.40   1
  13  -8  -9   40.40   35.30   1
 -13   8   9   21.60   35.00   1
 -13  -8   9   54.20   36.90   1
  13   8  -9   56.90   36.60   1
  13   8  10   30.20   33.20   1
 -13  -8 -10   13.20   30.80   1
  13  -8 -10   22.60   28.70   1
 -13   8  10   21.40   29.00   1
 -13  -8  10   44.50   30.70   1
  13   8 -10   21.10   29.30   1
  13   8  11   25.70   41.80   1
 -13  -8 -11   87.70   43.20   1
  13  -8 -11   38.60   37.80   1
 -13   8  11   46.60   38.10   1
 -13  -8  11   26.20   38.80   1
  13   9   0   18.60   31.40   1
 -13  -9   0   28.80   31.50   1
  13  -9   0  108.80   34.40   1
 -13   9   0   12.40   32.40   1
  13   9   1   17.00   25.10   1
 -13  -9  -1    6.30   24.50   1
  13  -9  -1   15.80   27.30   1
 -13   9   1   24.20   28.10   1
 -13   9  -1   43.80   31.50   1
  13  -9   1   31.20   29.30   1
 -13  -9   1   22.10   24.40   1
  13   9  -1   13.60   24.60   1
  13   9   2  106.70   50.70   1
 -13  -9  -2   54.90   50.30   1
  13  -9  -2  247.00   54.50   1
 -13   9   2   20.60   51.00   1
 -13   9  -2  106.40   53.60   1
  13  -9   2  122.40   55.50   1
 -13  -9   2   67.40   49.90   1
  13   9  -2   55.10   49.70   1
  13   9   3   36.80   47.40   1
 -13  -9  -3   17.60   47.00   1
  13  -9  -3  139.50   48.60   1
 -13   9   3  147.50   48.70   1
 -13   9  -3   15.30   51.10   1
  13  -9   3   30.30   51.50   1
 -13  -9   3  134.40   47.70   1
  13   9  -3   89.80   47.20   1
  13   9   4   55.60   33.30   1
 -13  -9  -4   29.60   33.10   1
  13  -9  -4   23.70   33.50   1
 -13   9   4   33.50   33.60   1
 -13   9  -4    4.40   39.40   1
  13  -9   4   36.60   42.70   1
 -13  -9   4   26.30   33.30   1
  13   9  -4   23.90   33.70   1
  13   9   5   88.70   47.50   1
 -13  -9  -5   71.10   47.20   1
  13  -9  -5   43.30   47.20   1
 -13   9   5   62.60   47.40   1
 -13  -9   5   50.60   47.40   1
  13   9  -5   53.40   47.20   1
  13   9   6   38.30   39.20   1
 -13  -9  -6   30.80   39.50   1
  13  -9  -6   43.80   39.40   1
 -13   9   6   52.50   39.20   1
 -13  -9   6   46.60   39.80   1
  13   9  -6   46.40   39.80   1
  13   9   7    6.80   20.90   1
 -13  -9  -7    4.50   22.20   1
  13  -9  -7    5.30   21.50   1
 -13   9   7   -0.00   20.60   1
 -13  -9   7   46.60   21.90   1
  13   9  -7   18.50   21.50   1
  13   9   8   10.70   20.30   1
 -13  -9  -8   24.20   21.50   1
  13  -9  -8   24.60   21.20   1
 -13   9   8    5.50   18.80   1
 -13  -9   8    0.40   19.50   1
  13   9  -8   -0.00   19.80   1
  13   9   9    0.00   14.10   1
 -13  -9  -9    4.20   14.70   1
  13  -9  -9    0.50   12.20   1
 -13   9   9    2.10   13.50   1
 -13  -9   9   12.90   15.00   1
  13   9  -9    3.40   14.40   1
  13   9  10   80.20   30.30   1
 -13  -9 -10    2.50   27.60   1
  13  -9 -10   20.10   25.50   1
 -13   9  10   17.30   25.40   1
 -13  -9  10    4.00   26.50   1
  13   9  11   -0.00   21.60   1
 -13  -9 -11    3.60   19.60   1
  13  -9 -11   11.50   15.70   1
 -13   9  11    2.10   16.10   1
  13  10   0    9.10   17.50   1
 -13 -10   0    2.70   17.40   1
  13 -10   0   18.60   21.90   1
 -13  10   0   18.90   22.50   1
 -13 -10  -1   48.10   42.20   1
  13 -10  -1  134.40   46.10   1
 -13  10   1   17.70   43.00   1
 -13  10  -1   21.80   44.20   1
  13 -10   1   56.20   47.50   1
 -13 -10   1  127.80   42.50   1
  13  10  -1   37.50   41.70   1
  13  10   2   27.70   39.10   1
 -13 -10  -2   43.30   39.60   1
  13 -10  -2   30.90   41.60   1
 -13  10   2   25.80   40.00   1
 -13  10  -2   23.60   42.30   1
  13 -10   2   51.30   45.30   1
 -13 -10   2   76.70   39.40   1
  13  10  -2   72.60   39.60   1
  13  10   3 2279.20  336.10   1
 -13 -10  -3  578.60  322.00   1
  13 -10  -3 1988.10  334.00   1
 -13  10   3 2445.60  341.80   1
 -13  10  -3 1191.10  339.60   1
  13 -10   3 4099.30  445.30   1
 -13 -10   3 2513.30  343.90   1
  13  10  -3 2000.40  337.40   1
  13  10   4  315.90  111.30   1
 -13 -10  -4  314.00  111.00   1
  13 -10  -4  257.50  110.70   1
 -13  10   4  194.50  110.40   1
 -13  10  -4  207.20  115.20   1
  13 -10   4  363.50  121.30   1
 -13 -10   4  279.90  111.20   1
  13  10  -4  216.10  110.60   1
  13  10   5  286.80  134.30   1
 -13 -10  -5  310.40  134.70   1
  13 -10  -5  344.50  134.90   1
 -13  10   5  302.60  134.50   1
 -13 -10   5  490.00  137.20   1
  13  10  -5  517.80  138.20   1
  13  10   6   55.30   39.90   1
 -13 -10  -6   26.30   39.50   1
  13 -10  -6   43.60   39.80   1
 -13  10   6   42.90   40.00   1
 -13 -10   6   45.30   40.30   1
  13  10  -6   99.20   41.50   1
  13  10   7  122.00   79.00   1
 -13 -10  -7  147.50   79.40   1
  13 -10  -7  162.40   79.50   1
 -13  10   7  222.10   80.10   1
 -13 -10   7  141.40   80.00   1
  13  10  -7  129.80   80.30   1
  13  10   8    8.90   27.40   1
 -13 -10  -8   22.80   27.30   1
  13 -10  -8    5.50   27.10   1
 -13  10   8   38.70   28.00   1
 -13 -10   8   21.70   27.90   1
  13  10  -8   20.50   26.90   1
  13  10   9  102.40   35.80   1
 -13 -10  -9   -0.00   33.20   1
  13 -10  -9   39.30   33.80   1
 -13  10   9   44.30   34.30   1
 -13 -10   9   29.20   33.90   1
  13  10  10   68.90   24.80   1
 -13 -10 -10   -0.00   24.80   1
  13 -10 -10    7.20   22.40   1
 -13  10  10    9.00   21.90   1
  13  11   0   20.00   33.60   1
 -13 -11   0   82.80   34.20   1
  13 -11   0   -0.00   37.80   1
 -13  11   0   15.20   38.80   1
  13  11   1   15.20   26.60   1
 -13 -11  -1   21.20   27.10   1
  13 -11  -1   10.70   28.00   1
 -13  11   1   11.00   28.60   1
 -13  11  -1   33.20   32.50   1
  13 -11   1   -0.00   33.40   1
 -13 -11   1   24.70   26.40   1
  13  11  -1   25.90   26.60   1
  13  11   2  233.10   85.20   1
 -13 -11  -2  194.70   84.80   1
  13 -11  -2  238.80   86.90   1
 -13  11   2  155.60   85.90   1
 -13  11  -2  115.60   87.20   1
  13 -11   2  235.10   89.50   1
 -13 -11   2  130.50   84.10   1
  13  11  -2  133.20   84.20   1
  13  11   3   24.40   29.70   1
 -13 -11  -3   36.90   30.10   1
  13 -11  -3   23.20   31.90   1
 -13  11   3   26.50   31.50   1
 -13  11  -3   -0.00   34.00   1
  13 -11   3   66.50   41.00   1
 -13 -11   3   21.30   29.50   1
  13  11  -3   16.10   29.60   1
  13  11   4   56.30   39.60   1
 -13 -11  -4   55.80   39.50   1
  13 -11  -4   16.60   39.20   1
 -13  11   4   51.00   39.50   1
  13 -11   4   23.40   42.20   1
 -13 -11   4   41.00   39.00   1
  13  11  -4   45.90   39.00   1
  13  11   5    0.00   16.80   1
 -13 -11  -5   13.20   16.60   1
  13 -11  -5   14.60   17.60   1
 -13  11   5   -0.00   18.00   1
 -13 -11   5    7.70   17.50   1
  13  11  -5    6.40   17.70   1
  13  11   6   53.80   43.70   1
 -13 -11  -6   38.60   43.70   1
  13 -11  -6   60.90   44.00   1
 -13  11   6   58.50   44.00   1
 -13 -11   6   90.60   45.00   1
  13  11  -6   37.40   44.30   1
  13  11   7   21.10   22.10   1
 -13 -11  -7   19.90   22.50   1
  13 -11  -7   27.00   22.70   1
 -13  11   7    6.10   22.00   1
 -13 -11   7   -0.00   23.40   1
  13  11  -7   -0.00   23.40   1
  13  11   8  104.70   29.60   1
 -13 -11  -8   -0.00   28.90   1
  13 -11  -8   52.60   29.60   1
 -13  11   8   12.60   28.20   1
 -13 -11   8    3.60   28.60   1
  13  11  -8   26.40   28.30   1
  13  11   9   -0.00   15.70   1
 -13 -11  -9   16.60   16.50   1
  13 -11  -9   -0.00   15.50   1
 -13  11   9   -0.00   14.80   1
 -13 -11   9    3.30   13.10   1
  13  11  10   -0.00   25.70   1
 -13 -11 -10   57.70   26.50   1
  13 -11 -10    2.50   24.50   1
 -13  11  10  121.30   28.60   1
  13  12   0  124.00   59.60   1
 -13 -12   0  130.20   59.60   1
  13 -12   0   77.30   64.10   1
 -13  12   0   14.30   61.20   1
  13  12   1  377.00  123.20   1
 -13 -12  -1  205.80  122.30   1
  13 -12  -1  469.80  125.90   1
 -13  12   1  467.60  126.40   1
 -13  12  -1  184.70  124.60   1
  13 -12   1  305.80  126.90   1
 -13 -12   1  343.70  123.30   1
  13  12  -1  368.80  123.60   1
  13  12   2   31.00   37.00   1
 -13 -12  -2   41.50   37.30   1
  13 -12  -2   45.10   40.60   1
 -13  12   2   29.00   38.20   1
 -13  12  -2   42.30   43.80   1
  13 -12   2   33.00   44.50   1
 -13 -12   2   37.40   37.20   1
  13  12  -2   49.20   37.20   1
  13  12   3    8.60   27.50   1
 -13 -12  -3   12.60   27.40   1
  13 -12  -3   16.60   30.50   1
 -13  12   3   16.90   29.40   1
 -13  12  -3    5.90   32.80   1
  13 -12   3   43.70   38.50   1
 -13 -12   3   28.70   27.80   1
  13  12  -3   65.70   28.00   1
  13  12   4   -0.00   16.90   1
 -13 -12  -4    9.40   15.90   1
  13 -12  -4   24.90   18.50   1
 -13  12   4   -0.00   18.20   1
 -13 -12   4   -0.00   15.90   1
  13  12  -4    6.00   16.40   1
  13  12   5  262.20   85.40   1
 -13 -12  -5  162.50   83.90   1
  13 -12  -5  175.80   84.30   1
 -13  12   5  166.90   84.30   1
 -13 -12   5  131.50   84.20   1
  13  12  -5  114.40   84.10   1
  13  12   6   36.90   36.70   1
 -13 -12  -6   48.60   36.90   1
  13 -12  -6   26.80   37.10   1
 -13  12   6   29.80   37.20   1
 -13 -12   6   44.40   37.90   1
  13  12  -6   51.90   38.70   1
  13  12   7   15.00   20.50   1
 -13 -12  -7   15.30   20.10   1
  13 -12  -7    0.40   20.70   1
 -13  12   7   12.20   21.30   1
 -13 -12   7   26.90   23.10   1
  13  12  -7    3.60   20.90   1
  13  12   8   30.30   28.00   1
 -13 -12  -8   21.80   28.00   1
  13 -12  -8   26.30   28.50   1
 -13  12   8    9.30   27.90   1
 -13 -12   8   23.90   28.80   1
  13  12   9   15.40   39.40   1
 -13 -12  -9   59.00   40.00   1
  13 -12  -9   55.50   40.20   1
 -13  12   9   54.00   40.10   1
  13  13   0   -0.00   21.70   1
 -13 -13   0   28.40   21.80   1
  13 -13   0    1.20   29.80   1
 -13  13   0   20.90   28.50   1
  13  13   1   87.70   54.40   1
 -13 -13  -1   44.80   54.00   1
  13 -13  -1  240.80   60.10   1
 -13  13   1   82.50   58.20   1
 -13  13  -1  128.30   60.00   1
  13 -13   1  135.50   60.00   1
 -13 -13   1   96.30   54.60   1
  13  13  -1  102.60   54.80   1
  13  13   2  328.20  152.10   1
 -13 -13  -2  386.40  152.60   1
  13 -13  -2  459.60  154.20   1
 -13  13   2  417.40  153.80   1
 -13  13  -2  244.60  155.80   1
  13 -13   2  653.40  170.10   1
 -13 -13   2  549.30  155.50   1
  13  13  -2  540.10  155.60   1
  13  13   3   66.50   46.20   1
 -13 -13  -3   95.70   46.50   1
  13 -13  -3  121.40   49.20   1
 -13  13   3   83.30   48.30   1
  13 -13   3   58.70   50.70   1
 -13 -13   3   37.80   45.90   1
  13  13  -3   30.30   46.00   1
  13  13   4  211.90   78.70   1
 -13 -13  -4  202.20   79.00   1
  13 -13  -4  172.30   80.10   1
 -13  13   4  103.80   79.20   1
 -13 -13   4  102.50   78.10   1
  13  13  -4  121.10   78.70   1
  13  13   5  153.90   45.80   1
 -13 -13  -5   75.50   44.70   1
  13 -13  -5   33.20   44.40   1
 -13  13   5   32.20   44.50   1
 -13 -13   5   57.80   44.80   1
  13  13  -5   47.20   45.40   1
  13  13   6  370.50   94.50   1
 -13 -13  -6  161.00   91.70   1
  13 -13  -6  223.20   92.80   1
 -13  13   6  147.40   91.80   1
 -13 -13   6  245.40   96.10   1
  13  13  -6  229.60   96.60   1
  13  13   7   32.60   35.30   1
 -13 -13  -7   40.60   35.60   1
  13 -13  -7   32.20   35.80   1
 -13  13   7   31.10   35.90   1
 -13 -13   7   37.60   36.50   1
  13  13   8  108.80   71.60   1
 -13 -13  -8  128.30   71.90   1
  13 -13  -8  189.40   73.00   1
 -13  13   8  114.20   71.90   1
  13  13   9    8.20   23.90   1
 -13 -13  -9   23.30   25.00   1
  13 -13  -9   12.10   25.00   1
 -13  13   9   18.10   23.90   1
  13  14   0   56.20   45.00   1
 -13 -14   0   64.10   45.00   1
  13 -14   0   37.90   50.40   1
 -13  14   0   33.20   49.10   1
  13  14   1    7.20   25.60   1
 -13 -14  -1   29.10   25.90   1
  13 -14  -1    0.00   33.70   1
 -13  14   1    0.00   29.50   1
 -13  14  -1   -0.00   34.60   1
  13 -14   1   10.60   36.00   1
 -13 -14   1   63.70   26.60   1
  13  14  -1   19.60   26.30   1
  13  14   2    3.00   13.90   1
 -13 -14  -2   -0.00   13.90   1
  13 -14  -2   34.50   19.20   1
 -13  14   2   -0.00   20.40   1
 -13  14  -2   14.50   21.50   1
  13 -14   2   -0.00   25.80   1
 -13 -14   2    4.00   15.00   1
  13  14  -2    7.20   15.00   1
  13  14   3  125.90   63.20   1
 -13 -14  -3  125.30   63.40   1
  13 -14  -3  203.20   66.90   1
 -13  14   3   69.70   63.40   1
 -13 -14   3  119.30   63.60   1
  13  14  -3   64.60   63.10   1
  13  14   4   -0.00   17.10   1
 -13 -14  -4    4.20   16.30   1
  13 -14  -4    3.90   21.90   1
 -13  14   4   20.00   20.00   1
 -13 -14   4   15.00   17.40   1
  13  14  -4    5.50   18.40   1
  13  14   5  140.40   60.30   1
 -13 -14  -5   52.50   59.20   1
  13 -14  -5  136.60   61.20   1
 -13  14   5   95.80   60.90   1
 -13 -14   5  176.70   63.10   1
  13  14  -5  140.30   62.50   1
  13  14   6   15.30   22.70   1
 -13 -14  -6   10.70   21.80   1
  13 -14  -6    1.90   22.90   1
 -13  14   6   19.00   22.60   1
 -13 -14   6   17.90   23.70   1
  13  14  -6   12.40   21.90   1
  13  14   7   30.20   32.30   1
 -13 -14  -7   36.40   32.50   1
  13 -14  -7   20.70   33.10   1
 -13  14   7   28.10   32.90   1
  13  14   8    6.20   16.10   1
 -13 -14  -8    7.70   16.00   1
  13 -14  -8    9.30   16.80   1
 -13  14   8    0.00   17.10   1
  13  15   0   38.20   19.60   1
 -13 -15   0   -0.00   18.80   1
  13 -15   0    0.00   27.70   1
 -13  15   0   -0.00   26.10   1
  13  15   1   -0.00   20.80   1
 -13 -15  -1   44.40   21.10   1
  13 -15  -1   13.40   28.00   1
 -13  15   1   -0.00   26.40   1
 -13  15  -1   59.00   30.30   1
  13 -15   1    0.00   33.10   1
 -13 -15   1   19.00   21.30   1
  13  15  -1   -0.00   21.10   1
  13  15   2  246.30   43.90   1
 -13 -15  -2  131.50   42.30   1
  13 -15  -2   -0.00   43.50   1
 -13  15   2   19.60   45.50   1
  13 -15   2   16.70   44.90   1
 -13 -15   2   31.50   41.70   1
  13  15  -2   67.00   42.20   1
  13  15   3    0.00   12.60   1
 -13 -15  -3   -0.00   12.90   1
  13 -15  -3    3.20   17.50   1
 -13  15   3   -0.00   16.00   1
 -13 -15   3   19.70   14.80   1
  13  15  -3   16.10   15.50   1
  13  15   4   21.40   33.40   1
 -13 -15  -4   51.10   33.50   1
  13 -15  -4   51.80   36.30   1
 -13  15   4   31.90   35.40   1
 -13 -15   4   11.00   33.80   1
  13  15  -4   63.60   35.70   1
  13  15   5    6.30   17.20   1
 -13 -15  -5   -0.00   18.10   1
  13 -15  -5   28.00   22.40   1
 -13  15   5    1.10   20.40   1
 -13 -15   5   12.40   19.10   1
  13  15  -5   14.20   18.40   1
  13  15   6   74.70   29.20   1
 -13 -15  -6   28.70   28.40   1
  13 -15  -6   20.80   28.80   1
 -13  15   6   -0.00   29.00   1
 -13 -15   6    9.50   27.90   1
  13  15   7   47.70   22.80   1
 -13 -15  -7    6.30   21.50   1
  13 -15  -7   17.50   22.70   1
 -13  15   7   -0.00   22.50   1
  13  16   0    7.20   19.20   1
 -13 -16   0   11.20   19.20   1
  13 -16   0   34.70   30.00   1
 -13  16   0   -0.00   28.50   1
  13  16   1   11.80   26.40   1
 -13 -16  -1   17.20   26.20   1
  13 -16  -1   -0.00   32.90   1
 -13  16   1    9.80   30.70   1
 -13  16  -1   23.00   32.30   1
  13 -16   1   -0.00   35.70   1
 -13 -16   1   48.80   27.20   1
  13  16  -1   29.10   26.70   1
  13  16   2    6.60   17.80   1
 -13 -16  -2    8.80   17.90   1
  13 -16  -2    9.10   27.90   1
 -13  16   2   17.40   22.80   1
 -13 -16   2   -0.00   18.70   1
  13  16  -2   48.10   20.40   1
  13  16   3  277.10  113.50   1
 -13 -16  -3  196.40  112.90   1
  13 -16  -3  310.00  115.60   1
 -13  16   3  810.00  127.70   1
 -13 -16   3  279.30  116.20   1
  13  16  -3  386.50  121.90   1
  13  16   4   14.00   23.30   1
 -13 -16  -4   15.30   23.70   1
  13 -16  -4   24.60   27.70   1
 -13  16   4    7.10   25.20   1
 -13 -16   4   26.80   25.80   1
  13  16  -4   18.30   25.00   1
  13  16   5   22.40   25.20   1
 -13 -16  -5    3.40   24.50   1
  13 -16  -5  110.80   31.00   1
 -13  16   5   26.30   28.10   1
 -13 -16   5   29.30   26.90   1
  13  16   6   33.60   35.40   1
 -13 -16  -6   43.20   35.50   1
  13 -16  -6   14.80   36.30   1
 -13  16   6   48.40   37.50   1
  13  17   0   28.20   21.40   1
 -13 -17   0    2.80   21.00   1
  13 -17   0   25.60   33.20   1
 -13  17   0   12.10   27.90   1
  13  17   1    4.50   15.30   1
 -13 -17  -1    3.50   15.30   1
  13 -17  -1   18.90   24.10   1
 -13  17   1   -0.00   24.60   1
  13 -17   1   -0.00   24.50   1
 -13 -17   1    7.40   15.70   1
  13  17  -1    9.50   16.50   1
  13  17   2   14.40   24.60   1
 -13 -17  -2   40.50   24.90   1
  13 -17  -2   -0.00   29.90   1
 -13  17   2   -0.00   29.10   1
 -13 -17   2    9.90   25.50   1
  13  17  -2   15.80   26.00   1
  13  17   3   31.00   29.50   1
 -13 -17  -3   21.80   29.30   1
  13 -17  -3    5.10   33.30   1
 -13  17   3   17.40   34.50   1
 -13 -17   3   25.70   31.10   1
  13  17  -3   39.80   31.50   1
  13  17   4   65.10   48.50   1
 -13 -17  -4   70.50   48.70   1
  13 -17  -4   53.40   50.00   1
 -13  17   4   60.10   49.80   1
 -13 -17   4   65.40   50.20   1
  13  17   5   17.10   20.60   1
 -13 -17  -5    7.20   20.70   1
  13 -17  -5   19.00   25.20   1
 -13  17   5   -0.00   24.10   1
  13  18   0    4.00   15.20   1
 -13 -18   0    8.20   15.60   1
  13 -18   0    1.10   27.40   1
 -13  18   0    4.80   21.60   1
  13  18   1   25.00   28.90   1
 -13 -18  -1   22.90   28.80   1
  13 -18  -1   46.40   37.40   1
 -13  18   1    6.80   34.50   1
 -13 -18   1   15.10   29.00   1
  13  18  -1   62.00   30.60   1
  13  18   2   18.70   25.40   1
 -13 -18  -2   18.20   25.30   1
  13 -18  -2   64.50   34.70   1
 -13  18   2   19.40   29.80   1
 -13 -18   2   31.50   26.90   1
  13  18  -2   -0.00   26.80   1
  13  18   3  115.60   74.10   1
 -13 -18  -3  131.00   74.00   1
  13 -18  -3  276.30   81.70   1
 -13  18   3  123.70   76.70   1
 -13 -18   3  154.60   77.70   1
  13  18  -3  124.60   77.10   1
  14   0   0  241.20   94.70   1
 -14   0   0  169.70   94.20   1
  14   0   1    3.30   15.90   1
 -14   0  -1    2.20   15.90   1
  14   0  -1   11.80   15.90   1
 -14   0   1    5.80   15.20   1
  14   0   2    8.90   28.50   1
 -14   0  -2   18.10   28.70   1
  14   0  -2   35.20   29.40   1
 -14   0   2   31.10   28.90   1
  14   0   3   99.30   59.60   1
 -14   0  -3   70.40   58.70   1
  14   0  -3  142.70   58.90   1
 -14   0   3   66.60   57.80   1
  14   0   4   42.20   33.90   1
 -14   0  -4   37.90   34.00   1
  14   0  -4   16.30   31.30   1
 -14   0   4   26.50   31.80   1
  14   0   5 1547.10  500.90   1
 -14   0  -5 1480.60  500.80   1
  14   0  -5 2050.80  502.90   1
 -14   0   5 1976.60  502.80   1
  14   0   6 1046.70  271.00   1
 -14   0  -6 1352.80  277.00   1
  14   0  -6  792.30  266.30   1
 -14   0   6  676.80  265.70   1
  14   0   7  277.00  160.30   1
 -14   0  -7  389.00  161.60   1
  14   0  -7  677.80  160.70   1
 -14   0   7  461.50  159.00   1
  14   0   8  279.80  103.90   1
 -14   0  -8  376.60  108.10   1
  14   0  -8  199.30   98.60   1
 -14   0   8  193.10   98.50   1
  14   0   9  167.90  102.00   1
 -14   0  -9  328.40  109.40   1
  14   0  -9  251.20   97.90   1
 -14   0   9  182.90   97.10   1
  14   0 -10    2.20   16.90   1
 -14   0  10   11.40   16.80   1
  14   0 -11   35.80   40.50   1
 -14   0  11   61.70   41.10   1
  14   0 -12   -0.00   19.50   1
 -14   0  12   21.00   19.90   1
  14   1   0   70.70   58.80   1
 -14  -1   0   88.90   59.00   1
  14  -1   0  105.70   59.10   1
 -14   1   0  105.60   59.10   1
  14   1   1   11.30   24.60   1
 -14  -1  -1   14.80   24.80   1
  14  -1  -1   -0.00   24.40   1
 -14   1   1   11.10   24.60   1
 -14   1  -1   22.30   25.10   1
  14  -1   1   21.50   25.00   1
 -14  -1   1   39.60   24.60   1
  14   1  -1   19.70   24.60   1
  14   1   2  222.30   53.60   1
 -14  -1  -2   41.90   52.10   1
  14  -1  -2   94.60   52.30   1
 -14   1   2   60.20   51.90   1
 -14   1  -2   63.20   52.90   1
  14  -1   2   60.20   52.70   1
 -14  -1   2   83.30   52.80   1
  14   1  -2   79.60   52.70   1
  14   1   3    0.60   15.80   1
 -14  -1  -3   -0.00   16.40   1
  14  -1  -3    1.20   15.00   1
 -14   1   3   -0.00   14.70   1
 -14   1  -3   14.30   16.00   1
  14  -1   3    9.00   17.10   1
 -14  -1   3   -0.00   14.50   1
  14   1  -3    2.20   15.70   1
  14   1   4   56.30   61.20   1
 -14  -1  -4   52.80   60.80   1
  14  -1  -4  153.00   61.30   1
 -14   1   4  125.70   61.10   1
 -14   1  -4   86.40   60.70   1
  14  -1   4   73.20   61.10   1
 -14  -1   4   98.70   60.30   1
  14   1  -4  132.40   60.80   1
  14   1   5   42.10   37.80   1
 -14  -1  -5   23.20   36.20   1
  14  -1  -5   24.50   35.50   1
 -14   1   5   16.00   34.90   1
 -14   1  -5   35.60   38.80   1
  14  -1   5   23.70   37.80   1
 -14  -1   5   62.00   35.80   1
  14   1  -5   88.50   36.00   1
  14   1   6   17.10   38.70   1
 -14  -1  -6   68.00   39.50   1
  14  -1  -6   22.50   37.00   1
 -14   1   6  120.80   38.50   1
 -14   1  -6   18.60   38.40   1
  14  -1   6   89.50   42.40   1
 -14  -1   6   33.40   36.60   1
  14   1  -6   30.50   36.60   1
  14   1   7   84.90   48.00   1
 -14  -1  -7   30.40   45.10   1
  14  -1  -7   30.90   42.70   1
 -14   1   7   39.90   42.90   1
 -14   1  -7   50.00   46.70   1
  14  -1   7   73.50   48.20   1
 -14  -1   7   69.50   43.10   1
  14   1  -7   90.70   43.30   1
  14   1   8   30.80   34.50   1
 -14  -1  -8   62.40   34.40   1
  14  -1  -8   20.00   27.50   1
 -14   1   8    8.80   27.60   1
 -14   1  -8    5.60   34.50   1
  14  -1   8   20.30   38.50   1
 -14  -1   8   37.40   27.90   1
  14   1  -8   19.80   27.80   1
  14   1   9    5.90   26.10   1
 -14  -1  -9   -0.00   21.70   1
  14  -1  -9    2.70   14.10   1
 -14   1   9    8.80   13.80   1
  14  -1   9    4.90   24.90   1
 -14  -1   9   -0.00   14.30   1
  14   1  -9    5.90   14.10   1
  14   1  10   33.90   30.50   1
  14  -1 -10   19.30   23.20   1
 -14   1  10    8.90   22.80   1
 -14  -1  10   15.90   23.20   1
  14   1 -10   14.00   23.40   1
  14  -1 -11   14.40   21.40   1
 -14   1  11   30.50   22.00   1
 -14  -1  11   -0.00   21.40   1
  14   1 -11   10.60   22.10   1
  14  -1 -12    9.20   22.20   1
 -14   1  12    6.40   22.50   1
 -14  -1  12   13.80   22.80   1
  14   1 -12   45.30   23.60   1
  14   2   0   44.70   37.30   1
 -14  -2   0   31.80   37.20   1
  14  -2   0   40.00   37.40   1
 -14   2   0   39.20   37.60   1
  14   2   1  166.00   71.80   1
 -14  -2  -1  158.40   71.60   1
  14  -2  -1  161.20   71.70   1
 -14   2   1  162.20   71.50   1
 -14   2  -1  140.20   71.60   1
  14  -2   1  133.80   71.50   1
 -14  -2   1   63.90   71.00   1
  14   2  -1  118.00   71.80   1
  14   2   2   -0.00   16.50   1
 -14  -2  -2   48.80   17.90   1
  14  -2  -2    5.40   16.80   1
 -14   2   2    0.50   16.10   1
 -14   2  -2   -0.00   19.20   1
  14  -2   2    6.30   20.70   1
 -14  -2   2    5.50   17.80   1
  14   2  -2    5.20   20.30   1
  14   2   3   27.00   41.50   1
 -14  -2  -3   48.80   41.70   1
  14  -2  -3  115.50   42.60   1
 -14   2   3   49.30   41.10   1
 -14   2  -3   41.10   42.70   1
  14  -2   3   59.10   43.50   1
 -14  -2   3   34.00   41.10   1
  14   2  -3   45.90   41.10   1
  14   2   4   16.30   19.40   1
 -14  -2  -4    5.80   18.50   1
  14  -2  -4    1.20   16.10   1
 -14   2   4    6.30   16.20   1
 -14   2  -4    8.50   17.60   1
  14  -2   4    4.90   17.60   1
 -14  -2   4   -0.00   15.60   1
  14   2  -4    5.20   15.80   1
  14   2   5    8.80   28.30   1
 -14  -2  -5   11.10   28.80   1
  14  -2  -5   31.40   26.40   1
 -14   2   5    9.50   26.90   1
 -14   2  -5   25.60   33.00   1
  14  -2   5   43.10   32.80   1
 -14  -2   5   21.60   26.20   1
  14   2  -5   10.80   25.90   1
  14   2   6  102.80   62.50   1
 -14  -2  -6  111.70   62.80   1
  14  -2  -6  128.40   62.50   1
 -14   2   6  120.70   62.20   1
 -14   2  -6   60.80   64.30   1
  14  -2   6   76.80   65.60   1
 -14  -2   6   82.00   61.30   1
  14   2  -6   91.00   61.40   1
  14   2   7  127.80   79.50   1
 -14  -2  -7  149.80   80.10   1
  14  -2  -7  108.50   76.90   1
 -14   2   7  183.30   77.60   1
 -14   2  -7   37.00   80.00   1
  14  -2   7  113.40   81.00   1
 -14  -2   7  550.50   81.10   1
  14   2  -7  244.10   77.70   1
  14   2   8   34.30   34.60   1
 -14  -2  -8    6.70   33.90   1
  14  -2  -8   28.00   29.40   1
 -14   2   8   14.40   29.30   1
 -14   2  -8   78.20   37.60   1
  14  -2   8   54.50   41.50   1
 -14  -2   8   17.90   29.50   1
  14   2  -8   37.60   29.80   1
  14   2   9   43.70   30.40   1
 -14  -2  -9   39.20   30.90   1
  14  -2  -9   16.80   20.70   1
 -14   2   9   18.50   20.70   1
 -14  -2   9    1.00   20.60   1
  14   2  -9    2.90   21.10   1
  14   2  10   26.30   27.00   1
 -14  -2 -10   -0.00   20.90   1
  14  -2 -10    0.20   14.40   1
 -14   2  10    2.30   14.30   1
 -14  -2  10    9.80   15.00   1
  14   2 -10   10.10   15.60   1
  14  -2 -11   12.80   18.20   1
 -14   2  11    9.80   18.20   1
 -14  -2  11   12.30   19.20   1
  14   2 -11    0.00   18.40   1
  14  -2 -12    6.90   17.60   1
 -14   2  12    9.00   17.10   1
 -14  -2  12    6.40   18.20   1
  14   2 -12    5.70   18.30   1
  14   3   0  968.40  268.60   1
 -14  -3   0  830.50  267.80   1
  14  -3   0  827.20  267.40   1
 -14   3   0  731.60  267.20   1
  14   3   1   17.80   27.90   1
 -14  -3  -1   10.80   27.80   1
  14  -3  -1   15.20   28.50   1
 -14   3   1   12.70   28.10   1
 -14   3  -1   66.80   30.30   1
  14  -3   1   57.30   29.70   1
 -14  -3   1   34.70   29.40   1
  14   3  -1   20.40   28.60   1
  14   3   2   35.60   37.30   1
 -14  -3  -2   58.10   37.50   1
  14  -3  -2   32.70   37.40   1
 -14   3   2   20.10   37.60   1
 -14   3  -2  100.70   39.50   1
  14  -3   2  180.40   41.00   1
 -14  -3   2   25.40   37.60   1
  14   3  -2   14.00   37.70   1
  14   3   3    5.90   15.90   1
 -14  -3  -3    9.10   16.30   1
  14  -3  -3    7.60   16.10   1
 -14   3   3   -0.00   15.30   1
 -14   3  -3   -0.00   17.10   1
  14  -3   3    6.00   19.40   1
 -14  -3   3   -0.00   16.30   1
  14   3  -3   23.40   17.10   1
  14   3   4   52.20   43.90   1
 -14  -3  -4    8.10   43.80   1
  14  -3  -4  291.10   48.20   1
 -14   3   4   50.70   43.80   1
 -14   3  -4   58.30   45.80   1
  14  -3   4    9.00   44.70   1
 -14  -3   4   66.00   43.40   1
  14   3  -4   77.70   43.40   1
  14   3   5   87.70   57.00   1
 -14  -3  -5   48.00   55.90   1
  14  -3  -5  167.70   57.70   1
 -14   3   5  122.80   56.80   1
 -14   3  -5   54.50   56.70   1
  14  -3   5   73.90   58.60   1
 -14  -3   5   63.80   55.10   1
  14   3  -5  109.80   55.50   1
  14   3   6  549.30  154.20   1
 -14  -3  -6  384.80  152.50   1
  14  -3  -6  374.40  152.10   1
 -14   3   6  273.80  151.40   1
 -14   3  -6  428.60  155.60   1
  14  -3   6  555.10  157.90   1
 -14  -3   6  483.00  152.40   1
  14   3  -6  522.60  152.50   1
  14   3   7    7.90   25.90   1
 -14  -3  -7   12.10   27.40   1
  14  -3  -7   16.90   24.70   1
 -14   3   7   14.50   24.80   1
 -14   3  -7    1.20   33.10   1
  14  -3   7   10.60   33.70   1
 -14  -3   7   16.60   23.50   1
  14   3  -7   18.80   23.90   1
  14   3   8   15.90   28.80   1
 -14  -3  -8   -0.00   25.70   1
  14  -3  -8   14.30   23.00   1
 -14   3   8    8.00   23.00   1
  14  -3   8   48.70   32.10   1
 -14  -3   8   24.80   23.00   1
  14   3  -8   11.70   23.00   1
  14   3   9    0.00   29.90   1
 -14  -3  -9   20.20   29.80   1
  14  -3  -9   17.80   24.50   1
 -14   3   9   31.40   24.50   1
 -14  -3   9    6.80   24.60   1
  14   3  -9   12.20   25.10   1
  14   3  10  389.50   62.60   1
 -14  -3 -10   38.10   37.50   1
  14  -3 -10   47.90   33.30   1
 -14   3  10   41.20   33.40   1
 -14  -3  10   12.10   33.70   1
  14   3 -10   17.30   33.80   1
  14   3  11    0.00   21.30   1
  14  -3 -11    2.50   11.30   1
 -14   3  11   -0.00   11.10   1
 -14  -3  11   -0.00   12.30   1
  14   3 -11   10.20   12.60   1
  14  -3 -12   42.10   29.60   1
 -14   3  12   28.30   29.30   1
 -14  -3  12    7.00   30.00   1
  14   3 -12   16.70   30.50   1
  14   4   0    6.00   18.20   1
 -14  -4   0   16.10   16.80   1
  14  -4   0    0.00   16.70   1
 -14   4   0   -0.00   17.50   1
  14   4   1   16.40   18.00   1
 -14  -4  -1    9.50   17.80   1
  14  -4  -1   -0.00   18.50   1
 -14   4   1   -0.00   18.30   1
 -14   4  -1   15.00   20.90   1
  14  -4   1   14.30   21.30   1
 -14  -4   1    3.40   20.00   1
  14   4  -1   13.20   20.80   1
  14   4   2   -0.00    8.90   1
 -14  -4  -2   -0.00    9.10   1
  14  -4  -2   -0.00    9.70   1
 -14   4   2   -0.00    9.80   1
 -14   4  -2   -0.00   14.80   1
  14  -4   2   -0.00   16.30   1
 -14  -4   2   -0.00    8.80   1
  14   4  -2    7.80   11.00   1
  14   4   3   62.20   48.30   1
 -14  -4  -3   90.40   48.70   1
  14  -4  -3   53.20   48.30   1
 -14   4   3   45.50   48.30   1
 -14   4  -3   41.50   49.10   1
  14  -4   3   64.10   49.70   1
 -14  -4   3   56.90   48.80   1
  14   4  -3  176.40   49.70   1
  14   4   4   17.30   21.40   1
 -14  -4  -4   -0.00   21.30   1
  14  -4  -4   -0.00   21.60   1
 -14   4   4    8.30   20.40   1
 -14   4  -4   10.20   27.90   1
  14  -4   4   -0.00   27.40   1
 -14  -4   4   23.30   20.50   1
  14   4  -4   13.60   20.30   1
  14   4   5   86.50   50.00   1
 -14  -4  -5   80.50   49.90   1
  14  -4  -5   25.40   48.70   1
 -14   4   5  107.90   50.00   1
 -14   4  -5  105.60   53.10   1
  14  -4   5  155.70   54.70   1
 -14  -4   5   53.20   48.10   1
  14   4  -5   61.80   48.30   1
  14   4   6    5.10   25.20   1
 -14  -4  -6    2.00   24.40   1
  14  -4  -6    7.30   22.60   1
 -14   4   6    1.40   22.80   1
 -14   4  -6   19.10   31.70   1
  14  -4   6   36.70   30.90   1
 -14  -4   6   13.70   20.90   1
  14   4  -6   17.40   21.10   1
  14   4   7   48.70   47.50   1
 -14  -4  -7   69.10   47.80   1
  14  -4  -7   94.70   47.80   1
 -14   4   7   48.90   47.00   1
 -14   4  -7   25.50   51.10   1
  14  -4   7  102.90   58.10   1
 -14  -4   7   48.10   46.40   1
  14   4  -7   72.60   46.90   1
  14   4   8    7.60   23.00   1
 -14  -4  -8   -0.00   23.30   1
  14  -4  -8    5.00   17.00   1
 -14   4   8   23.30   18.10   1
 -14  -4   8   -0.00   17.30   1
  14   4  -8    4.20   17.50   1
  14   4   9   83.30   32.50   1
 -14  -4  -9   79.40   31.10   1
  14  -4  -9   17.50   24.20   1
 -14   4   9   13.50   23.90   1
 -14  -4   9    8.80   24.30   1
  14   4  -9    8.80   24.60   1
  14   4  10    3.40   26.50   1
 -14  -4 -10    7.60   27.30   1
  14  -4 -10   16.60   18.70   1
 -14   4  10    4.70   18.10   1
 -14  -4  10    7.90   19.00   1
  14   4 -10   10.70   19.10   1
  14   4  11   -0.00   27.30   1
 -14  -4 -11    4.80   20.40   1
  14  -4 -11    5.80   16.50   1
 -14   4  11    2.70   16.20   1
 -14  -4  11   10.10   18.00   1
  14   4 -11   21.10   18.30   1
  14   5   0  305.10  152.10   1
 -14  -5   0  614.70  154.40   1
  14  -5   0  471.80  153.60   1
 -14   5   0  402.70  153.30   1
  14   5   1   33.30   15.60   1
 -14  -5  -1   -0.00   14.10   1
  14  -5  -1   -0.00   14.50   1
 -14   5   1   -0.00   14.90   1
 -14   5  -1    3.50   17.00   1
  14  -5   1   -0.00   17.20   1
 -14  -5   1    0.00   14.50   1
  14   5  -1    3.70   14.80   1
  14   5   2  389.00  154.30   1
 -14  -5  -2  401.80  154.50   1
  14  -5  -2  550.90  155.40   1
 -14   5   2  436.00  154.70   1
 -14   5  -2  268.10  154.20   1
  14  -5   2  478.80  155.80   1
 -14  -5   2  603.90  155.70   1
  14   5  -2  407.10  154.40   1
  14   5   3   59.20   44.60   1
 -14  -5  -3   48.50   44.60   1
  14  -5  -3   46.50   44.70   1
 -14   5   3   65.80   45.00   1
 -14   5  -3   62.20   46.70   1
  14  -5   3   42.90   46.50   1
 -14  -5   3   96.60   45.10   1
  14   5  -3   35.00   44.50   1
  14   5   4  456.70  133.80   1
 -14  -5  -4  406.50  133.70   1
  14  -5  -4  539.60  135.20   1
 -14   5   4  383.90  133.60   1
 -14   5  -4  185.00  133.60   1
  14  -5   4  703.20  141.80   1
 -14  -5   4  229.40  132.50   1
  14   5  -4  678.00  135.30   1
  14   5   5  387.80  143.60   1
 -14  -5  -5  460.50  144.50   1
  14  -5  -5  632.30  146.80   1
 -14   5   5  472.20  144.50   1
 -14   5  -5  371.50  146.20   1
  14  -5   5  522.70  148.60   1
 -14  -5   5  306.60  142.50   1
  14   5  -5  273.20  142.40   1
  14   5   6  570.10  166.80   1
 -14  -5  -6  272.00  164.20   1
  14  -5  -6  922.20  169.40   1
 -14   5   6  382.30  164.40   1
 -14   5  -6  565.00  175.00   1
  14  -5   6  788.50  178.90   1
 -14  -5   6  560.20  165.30   1
  14   5  -6  571.30  165.70   1
  14   5   7  146.90   66.40   1
 -14  -5  -7   82.50   64.80   1
  14  -5  -7   81.50   64.20   1
 -14   5   7   95.30   64.70   1
 -14   5  -7  117.30   68.50   1
  14  -5   7  184.20   72.60   1
 -14  -5   7  133.80   64.80   1
  14   5  -7  160.40   65.10   1
  14   5   8   25.80   47.60   1
 -14  -5  -8   49.00   48.90   1
  14  -5  -8   44.90   47.40   1
 -14   5   8  304.60   51.20   1
 -14  -5   8   92.10   47.80   1
  14   5  -8  108.10   47.90   1
  14   5   9   86.70   48.30   1
 -14  -5  -9   20.10   45.80   1
  14  -5  -9   73.70   44.90   1
 -14   5   9  145.10   46.10   1
 -14  -5   9   44.00   44.80   1
  14   5  -9   39.10   44.80   1
  14   5  10   31.10   30.10   1
 -14  -5 -10   14.10   29.90   1
  14  -5 -10   48.10   26.00   1
 -14   5  10   13.60   25.60   1
 -14  -5  10   21.10   26.10   1
  14   5 -10   -0.00   25.90   1
  14   5  11   -0.00   36.10   1
 -14  -5 -11    8.90   34.20   1
  14  -5 -11   46.50   31.00   1
 -14   5  11   14.70   30.60   1
 -14  -5  11   98.50   34.20   1
  14   5 -11  125.50   36.20   1
  14   6   0    0.50   23.00   1
 -14  -6   0   26.10   23.40   1
  14  -6   0   21.80   25.60   1
 -14   6   0    5.70   24.70   1
  14   6   1   22.80   22.20   1
 -14  -6  -1   11.60   21.70   1
  14  -6  -1   16.60   21.50   1
 -14   6   1   12.50   21.50   1
 -14   6  -1   -0.00   23.30   1
  14  -6   1    7.70   24.90   1
 -14  -6   1    7.50   20.10   1
  14   6  -1    8.00   21.30   1
  14   6   2   31.40   37.30   1
 -14  -6  -2   40.80   37.30   1
  14  -6  -2   46.70   37.90   1
 -14   6   2   35.80   37.60   1
 -14   6  -2   28.70   38.70   1
  14  -6   2   38.50   39.20   1
 -14  -6   2   60.30   38.00   1
  14   6  -2   30.20   37.80   1
  14   6   3   21.60   22.70   1
 -14  -6  -3    8.90   22.90   1
  14  -6  -3    9.40   23.30   1
 -14   6   3   18.00   22.80   1
 -14   6  -3   40.10   29.50   1
  14  -6   3   57.70   29.80   1
 -14  -6   3    8.90   22.20   1
  14   6  -3    6.30   22.30   1
  14   6   4   -0.00   16.00   1
 -14  -6  -4    7.90   16.50   1
  14  -6  -4   -0.00   16.00   1
 -14   6   4    9.60   15.70   1
 -14   6  -4   26.40   24.00   1
  14  -6   4   43.70   29.60   1
 -14  -6   4   -0.00   15.90   1
  14   6  -4   10.00   16.20   1
  14   6   5   18.80   26.30   1
 -14  -6  -5   14.60   26.10   1
  14  -6  -5   18.40   26.40   1
 -14   6   5   41.80   26.00   1
 -14   6  -5   24.70   34.60   1
  14  -6   5    7.30   33.50   1
 -14  -6   5   11.40   25.30   1
  14   6  -5   11.10   25.80   1
  14   6   6   12.40   27.30   1
 -14  -6  -6   28.60   27.40   1
  14  -6  -6   13.10   26.10   1
 -14   6   6   11.50   26.20   1
 -14   6  -6   -0.00   29.90   1
  14  -6   6   33.60   38.20   1
 -14  -6   6   14.20   25.10   1
  14   6  -6   26.60   25.70   1
  14   6   7   73.70   54.70   1
 -14  -6  -7   74.00   54.80   1
  14  -6  -7   83.20   53.60   1
 -14   6   7   95.60   54.10   1
  14  -6   7   53.00   56.00   1
 -14  -6   7   61.90   53.10   1
  14   6  -7   71.10   53.40   1
  14   6   8   -0.00   23.20   1
 -14  -6  -8   22.50   24.30   1
  14  -6  -8   11.30   23.00   1
 -14   6   8   14.60   22.40   1
 -14  -6   8   20.80   23.40   1
  14   6  -8   14.90   23.30   1
  14   6   9  138.90   47.10   1
 -14  -6  -9  107.80   46.30   1
  14  -6  -9   58.30   42.60   1
 -14   6   9   36.60   42.50   1
 -14  -6   9   49.50   42.50   1
  14   6  -9   29.50   42.40   1
  14   6  10   10.10   24.10   1
 -14  -6 -10   -0.00   21.70   1
  14  -6 -10   12.10   17.10   1
 -14   6  10    1.90   17.20   1
 -14  -6  10    9.20   18.40   1
  14   6 -10    9.90   18.80   1
  14   6  11   15.80   27.10   1
 -14  -6 -11   52.60   29.90   1
  14  -6 -11   10.00   18.90   1
 -14   6  11   12.90   19.00   1
 -14  -6  11   -0.00   20.60   1
  14   6 -11   -0.00   21.80   1
  14   7   0  204.40  103.10   1
 -14  -7   0  243.30  103.60   1
  14  -7   0  196.10  104.40   1
 -14   7   0  297.50  105.30   1
  14   7   1   41.00   23.80   1
 -14  -7  -1    0.00   22.20   1
  14  -7  -1   24.10   24.30   1
 -14   7   1    4.90   24.90   1
 -14   7  -1   15.10   22.90   1
  14  -7   1   16.70   25.40   1
 -14  -7   1    0.00   22.50   1
  14   7  -1   19.10   23.00   1
  14   7   2   27.80   29.20   1
 -14  -7  -2  115.90   29.50   1
  14  -7  -2   -0.00   28.50   1
 -14   7   2   -0.00   28.90   1
 -14   7  -2   19.40   31.10   1
  14  -7   2   26.50   30.50   1
 -14  -7   2   39.10   28.50   1
  14   7  -2   14.30   27.80   1
  14   7   3   30.50   33.10   1
 -14  -7  -3   35.00   33.10   1
  14  -7  -3  190.40   35.60   1
 -14   7   3   28.40   33.70   1
 -14   7  -3    6.50   35.40   1
  14  -7   3   57.90   40.20   1
 -14  -7   3   36.00   33.20   1
  14   7  -3   12.10   32.80   1
  14   7   4   42.20   45.70   1
 -14  -7  -4   39.10   45.80   1
  14  -7  -4   37.40   45.70   1
 -14   7   4   48.40   45.90   1
 -14   7  -4   50.90   50.10   1
  14  -7   4   53.70   50.40   1
 -14  -7   4  137.60   46.20   1
  14   7  -4  117.50   46.20   1
  14   7   5  122.00   40.70   1
 -14  -7  -5   36.40   40.10   1
  14  -7  -5   31.70   39.80   1
 -14   7   5   32.40   39.70   1
 -14   7  -5  151.80   51.30   1
  14  -7   5  104.00   50.00   1
 -14  -7   5   37.90   39.80   1
  14   7  -5   39.10   39.60   1
  14   7   6   55.50   56.20   1
 -14  -7  -6  112.20   56.80   1
  14  -7  -6   64.90   56.60   1
 -14   7   6  109.00   56.70   1
 -14   7  -6   68.60   59.40   1
  14  -7   6   79.10   61.50   1
 -14  -7   6   77.90   55.90   1
  14   7  -6  103.20   56.20   1
  14   7   7    2.70   23.80   1
 -14  -7  -7   17.70   23.00   1
  14  -7  -7   11.30   22.80   1
 -14   7   7    7.90   21.80   1
 -14  -7   7   11.00   21.20   1
  14   7  -7   15.50   21.30   1
  14   7   8   17.20   26.20   1
 -14  -7  -8   -0.00   24.20   1
  14  -7  -8   42.10   24.00   1
 -14   7   8    7.50   24.60   1
 -14  -7   8   13.80   23.80   1
  14   7  -8   10.60   23.70   1
  14   7   9   15.80   25.80   1
 -14  -7  -9   30.40   28.00   1
  14  -7  -9   18.40   24.60   1
 -14   7   9    2.70   24.30   1
 -14  -7   9   17.00   24.60   1
  14   7  -9   23.70   25.00   1
  14   7  10   47.70   27.60   1
 -14  -7 -10    3.90   24.00   1
  14  -7 -10    8.40   21.20   1
 -14   7  10   18.70   21.50   1
 -14  -7  10    2.90   22.20   1
  14   7 -10   13.10   22.80   1
  14   7  11    9.80   21.10   1
 -14  -7 -11    0.00   20.70   1
  14  -7 -11    4.60   12.20   1
 -14   7  11   -0.00   11.90   1
 -14  -7  11    6.90   16.30   1
  14   7 -11    4.40   14.90   1
  14   8   0   11.40   29.10   1
 -14  -8   0   48.30   29.20   1
  14  -8   0   13.80   31.70   1
 -14   8   0    9.80   30.40   1
  14   8   1   36.20   45.40   1
 -14  -8  -1   60.70   45.90   1
  14  -8  -1  138.70   48.00   1
 -14   8   1  143.20   48.40   1
 -14   8  -1  233.60   49.40   1
  14  -8   1  235.20   48.80   1
 -14  -8   1   16.70   45.20   1
  14   8  -1   47.10   45.20   1
  14   8   2   37.10   57.10   1
 -14  -8  -2   66.30   57.40   1
  14  -8  -2  121.50   58.10   1
 -14   8   2  112.60   57.90   1
 -14   8  -2  126.10   60.80   1
  14  -8   2  141.00   61.10   1
 -14  -8   2   94.90   56.90   1
  14   8  -2   91.90   56.90   1
  14   8   3 1173.70  321.10   1
 -14  -8  -3 1267.70  322.10   1
  14  -8  -3 1123.70  319.70   1
 -14   8   3 1176.40  320.00   1
 -14   8  -3  771.50  320.60   1
  14  -8   3 1148.80  324.90   1
 -14  -8   3  916.80  318.20   1
  14   8  -3  904.30  318.10   1
  14   8   4   12.10   23.10   1
 -14  -8  -4   -0.00   23.00   1
  14  -8  -4   11.10   23.80   1
 -14   8   4   25.60   23.20   1
 -14   8  -4   -0.00   30.50   1
  14  -8   4   26.30   34.00   1
 -14  -8   4   16.10   22.90   1
  14   8  -4   18.10   22.70   1
  14   8   5  612.20  203.50   1
 -14  -8  -5  548.80  203.20   1
  14  -8  -5  728.00  205.00   1
 -14   8   5  585.10  204.10   1
 -14   8  -5  265.40  204.90   1
  14  -8   5  791.90  218.90   1
 -14  -8   5  755.80  205.50   1
  14   8  -5  687.30  205.20   1
  14   8   6   37.00   35.90   1
 -14  -8  -6   27.20   36.10   1
  14  -8  -6   51.10   36.20   1
 -14   8   6   16.10   35.50   1
  14  -8   6   65.20   41.60   1
 -14  -8   6   52.80   35.90   1
  14   8  -6   38.10   35.80   1
  14   8   7  242.20   46.20   1
 -14  -8  -7  137.50   44.40   1
  14  -8  -7   63.50   42.60   1
 -14   8   7   56.90   42.50   1
 -14  -8   7   26.00   41.40   1
  14   8  -7   25.70   41.40   1
  14   8   8    7.40   18.70   1
 -14  -8  -8    6.60   19.10   1
  14  -8  -8   -0.00   17.30   1
 -14   8   8   10.30   17.80   1
 -14  -8   8    4.30   15.90   1
  14   8  -8    7.30   16.10   1
  14   8   9   89.90   79.00   1
 -14  -8  -9  213.20   80.70   1
  14  -8  -9  208.50   79.80   1
 -14   8   9  142.30   79.00   1
 -14  -8   9  277.80   83.20   1
  14   8  -9  295.80   85.20   1
  14   8  10  191.20   35.00   1
 -14  -8 -10    5.30   27.70   1
  14  -8 -10   18.80   24.40   1
 -14   8  10   10.10   24.50   1
 -14  -8  10   11.50   25.40   1
  14   8 -10   15.20   25.60   1
  14   8  11   22.00   52.60   1
 -14  -8 -11   92.40   53.40   1
  14  -8 -11   91.00   50.30   1
 -14   8  11   62.10   50.30   1
 -14  -8  11  113.70   54.20   1
  14   8 -11   71.50   51.90   1
  14   9   0  105.40   33.10   1
 -14  -9   0   15.00   32.00   1
  14  -9   0   23.10   34.20   1
 -14   9   0    6.10   32.70   1
  14   9   1    9.70   19.50   1
 -14  -9  -1   -0.00   19.30   1
  14  -9  -1   28.70   23.70   1
 -14   9   1   23.60   23.50   1
 -14   9  -1   -0.00   24.80   1
  14  -9   1   19.30   22.60   1
 -14  -9   1   10.40   19.30   1
  14   9  -1    7.90   19.10   1
  14   9   2   23.80   26.60   1
 -14  -9  -2   16.70   25.60   1
  14  -9  -2    6.50   27.80   1
 -14   9   2   40.10   28.70   1
 -14   9  -2   33.20   28.90   1
  14  -9   2   57.60   34.70   1
 -14  -9   2   10.80   24.90   1
  14   9  -2   12.50   25.10   1
  14   9   3   15.30   24.10   1
 -14  -9  -3   30.50   23.90   1
  14  -9  -3   15.60   23.70   1
 -14   9   3   -0.00   24.20   1
 -14   9  -3   -0.00   28.20   1
  14  -9   3   16.50   33.10   1
 -14  -9   3   16.10   22.80   1
  14   9  -3   11.30   22.60   1
  14   9   4   15.50   25.20   1
 -14  -9  -4   11.50   24.90   1
  14  -9  -4   44.50   26.10   1
 -14   9   4   17.20   25.70   1
 -14   9  -4   14.80   34.80   1
  14  -9   4   46.70   37.00   1
 -14  -9   4    3.80   25.00   1
  14   9  -4   32.30   25.90   1
  14   9   5   -0.00   20.80   1
 -14  -9  -5    3.60   20.60   1
  14  -9  -5   13.50   21.30   1
 -14   9   5   12.50   21.20   1
 -14   9  -5   15.30   26.90   1
  14  -9   5   18.60   31.50   1
 -14  -9   5   18.30   20.80   1
  14   9  -5   18.50   20.90   1
  14   9   6    7.40   24.50   1
 -14  -9  -6   97.40   26.70   1
  14  -9  -6   -0.00   24.70   1
 -14   9   6    5.90   24.60   1
 -14  -9   6   31.50   25.40   1
  14   9  -6   36.20   25.30   1
  14   9   7   -0.00   14.30   1
 -14  -9  -7   13.10   15.60   1
  14  -9  -7   -0.00   15.10   1
 -14   9   7    8.50   13.70   1
 -14  -9   7    0.90   13.60   1
  14   9  -7   -0.00   14.60   1
  14   9   8   13.10   29.00   1
 -14  -9  -8   13.00   28.50   1
  14  -9  -8   28.90   28.90   1
 -14   9   8   -0.00   27.80   1
 -14  -9   8   64.00   29.20   1
  14   9  -8   48.20   28.80   1
  14   9   9    3.60   18.70   1
 -14  -9  -9   -0.00   16.40   1
  14  -9  -9    8.40   15.90   1
 -14   9   9   10.70   17.20   1
 -14  -9   9    3.60   16.90   1
  14   9  -9    7.70   18.80   1
  14   9  10   12.40   20.00   1
 -14  -9 -10   24.50   23.80   1
  14  -9 -10    7.60   18.50   1
 -14   9  10    9.80   18.50   1
 -14  -9  10    0.00   20.70   1
  14   9 -10    0.00   19.80   1
  14  10   0   51.80   37.40   1
 -14 -10   0   54.00   37.50   1
  14 -10   0   29.30   38.50   1
 -14  10   0   10.00   38.10   1
  14  10   1  129.90   42.60   1
 -14 -10  -1   32.10   41.70   1
  14 -10  -1   46.70   44.10   1
 -14  10   1   52.50   43.30   1
 -14  10  -1   42.90   45.60   1
  14 -10   1   47.20   45.00   1
 -14 -10   1   97.60   42.00   1
  14  10  -1   23.40   41.30   1
  14  10   2    2.70   21.10   1
 -14 -10  -2    7.70   22.60   1
  14 -10  -2   64.40   25.70   1
 -14  10   2   51.50   25.50   1
 -14  10  -2    0.30   26.70   1
  14 -10   2   13.40   28.40   1
 -14 -10   2    8.40   20.40   1
  14  10  -2    9.00   20.80   1
  14  10   3  101.00   91.00   1
 -14 -10  -3  236.70   92.50   1
  14 -10  -3  200.60   92.10   1
 -14  10   3  328.40   93.70   1
 -14  10  -3  185.80   94.70   1
  14 -10   3  429.70  101.50   1
 -14 -10   3  261.80   91.80   1
  14  10  -3  251.40   91.90   1
  14  10   4   37.00   29.00   1
 -14 -10  -4    8.40   28.70   1
  14 -10  -4   51.30   29.80   1
 -14  10   4   41.60   30.00   1
 -14  10  -4   -0.00   35.00   1
  14 -10   4   -0.00   38.60   1
 -14 -10   4   18.20   28.90   1
  14  10  -4   13.30   28.90   1
  14  10   5  462.60  187.60   1
 -14 -10  -5  649.90  189.80   1
  14 -10  -5  527.30  188.20   1
 -14  10   5  578.30  188.40   1
  14 -10   5  515.00  201.20   1
 -14 -10   5  504.50  188.90   1
  14  10  -5  466.60  188.50   1
  14  10   6  131.30   73.10   1
 -14 -10  -6  143.00   73.10   1
  14 -10  -6  137.00   73.30   1
 -14  10   6  143.60   73.60   1
 -14 -10   6  126.10   73.30   1
  14  10  -6   95.60   73.00   1
  14  10   7   49.30   34.00   1
 -14 -10  -7   39.90   34.20   1
  14 -10  -7   43.90   34.00   1
 -14  10   7   -0.00   33.20   1
 -14 -10   7   64.10   34.80   1
  14  10  -7  108.50   36.00   1
  14  10   8   30.40   45.70   1
 -14 -10  -8   24.20   45.70   1
  14 -10  -8  143.50   47.90   1
 -14  10   8  222.30   49.50   1
 -14 -10   8   72.40   46.10   1
  14  10  -8   69.70   46.50   1
  14  10   9   14.40   32.20   1
 -14 -10  -9   25.50   32.90   1
  14 -10  -9  142.60   34.90   1
 -14  10   9   25.00   31.40   1
 -14 -10   9   24.10   31.90   1
  14  10  -9   13.50   31.40   1
  14  10  10   11.40   22.20   1
 -14 -10 -10   11.30   22.50   1
  14 -10 -10   13.80   21.20   1
 -14  10  10   22.40   22.10   1
 -14 -10  10   -0.00   23.10   1
  14  10 -10    7.70   20.50   1
  14  11   0    8.60   18.20   1
 -14 -11   0    2.50   17.90   1
  14 -11   0   20.20   23.20   1
 -14  11   0   35.10   25.20   1
  14  11   1   38.30   30.90   1
 -14 -11  -1   22.80   30.90   1
  14 -11  -1   16.40   33.20   1
 -14  11   1   18.90   31.90   1
 -14  11  -1   -0.00   33.10   1
  14 -11   1   33.00   37.10   1
 -14 -11   1   23.40   30.30   1
  14  11  -1   38.90   30.70   1
  14  11   2    5.10   22.20   1
 -14 -11  -2    5.40   21.60   1
  14 -11  -2   29.60   26.10   1
 -14  11   2   20.70   25.80   1
 -14  11  -2   -0.00   28.20   1
  14 -11   2   42.40   32.40   1
 -14 -11   2    2.30   21.60   1
  14  11  -2  108.40   23.50   1
  14  11   3   18.80   24.20   1
 -14 -11  -3   21.40   24.70   1
  14 -11  -3   14.80   26.10   1
 -14  11   3   36.70   27.20   1
 -14  11  -3   -0.00   32.40   1
  14 -11   3   17.60   33.60   1
 -14 -11   3   11.00   23.40   1
  14  11  -3    7.00   23.50   1
  14  11   4   30.00   22.00   1
 -14 -11  -4   11.80   21.50   1
  14 -11  -4    4.30   21.50   1
 -14  11   4   40.10   22.50   1
 -14  11  -4   -0.00   27.00   1
  14 -11   4   14.30   31.50   1
 -14 -11   4    6.50   20.70   1
  14  11  -4   -0.00   20.60   1
  14  11   5   -0.00   12.60   1
 -14 -11  -5    4.80   12.30   1
  14 -11  -5   -0.00   14.10   1
 -14  11   5    8.10   13.70   1
 -14 -11   5    5.70   13.40   1
  14  11  -5   -0.00   14.10   1
  14  11   6   16.20   23.70   1
 -14 -11  -6    5.30   23.70   1
  14 -11  -6   32.20   24.40   1
 -14  11   6    8.60   24.10   1
 -14 -11   6   22.20   23.90   1
  14  11  -6   11.90   24.30   1
  14  11   7   56.90   34.40   1
 -14 -11  -7   18.20   34.30   1
  14 -11  -7   53.50   34.70   1
 -14  11   7    9.00   34.10   1
 -14 -11   7   74.70   36.20   1
  14  11  -7   42.70   35.30   1
  14  11   8  190.30   36.30   1
 -14 -11  -8  274.70   39.60   1
  14 -11  -8   27.70   34.00   1
 -14  11   8   20.40   32.80   1
 -14 -11   8   11.30   33.40   1
  14  11  -8   19.10   34.10   1
  14  11   9   51.40   20.80   1
 -14 -11  -9   -0.00   18.40   1
  14 -11  -9   -0.00   18.40   1
 -14  11   9   -0.00   19.20   1
 -14 -11   9    7.00   18.50   1
  14  11  -9    4.60   17.90   1
  14  12   0   24.50   33.50   1
 -14 -12   0   30.20   33.50   1
  14 -12   0   53.10   39.20   1
 -14  12   0   73.80   39.70   1
  14  12   1   56.10   45.90   1
 -14 -12  -1   43.40   46.00   1
  14 -12  -1   78.20   47.90   1
 -14  12   1   46.70   47.50   1
 -14  12  -1   20.60   48.80   1
  14 -12   1  150.90   53.00   1
 -14 -12   1   56.40   45.80   1
  14  12  -1   91.60   46.30   1
  14  12   2   12.60   28.20   1
 -14 -12  -2   26.00   28.00   1
  14 -12  -2   37.20   32.40   1
 -14  12   2   33.50   31.10   1
 -14  12  -2   -0.00   33.00   1
  14 -12   2   33.90   36.50   1
 -14 -12   2   19.80   27.50   1
  14  12  -2   20.70   27.90   1
  14  12   3  186.30   93.40   1
 -14 -12  -3  219.60   93.90   1
  14 -12  -3  301.70   96.70   1
 -14  12   3  133.70   94.10   1
 -14  12  -3  120.80   96.30   1
  14 -12   3  299.50  103.90   1
 -14 -12   3  216.20   94.00   1
  14  12  -3  240.70   94.40   1
  14  12   4    7.70   16.30   1
 -14 -12  -4   -0.00   16.60   1
  14 -12  -4    5.30   17.00   1
 -14  12   4   22.30   18.10   1
  14 -12   4   12.50   23.90   1
 -14 -12   4    1.60   15.60   1
  14  12  -4   -0.00   14.90   1
  14  12   5  254.70   93.60   1
 -14 -12  -5  269.30   93.40   1
  14 -12  -5  171.60   92.70   1
 -14  12   5  160.70   92.60   1
 -14 -12   5  191.60   93.00   1
  14  12  -5  160.00   92.90   1
  14  12   6   17.30   20.60   1
 -14 -12  -6    5.70   20.70   1
  14 -12  -6   16.60   21.60   1
 -14  12   6    0.70   20.70   1
 -14 -12   6   19.40   21.90   1
  14  12  -6   10.40   21.60   1
  14  12   7   55.20   27.50   1
 -14 -12  -7   16.30   26.70   1
  14 -12  -7   16.20   27.00   1
 -14  12   7   31.80   27.50   1
 -14 -12   7    2.20   27.60   1
  14  12  -7   10.40   28.10   1
  14  12   8   10.60   21.00   1
 -14 -12  -8   -0.00   21.20   1
  14 -12  -8   16.10   21.60   1
 -14  12   8   16.00   21.20   1
 -14 -12   8   21.60   22.80   1
  14  12  -8    9.50   21.80   1
  14  12   9   49.50   52.60   1
 -14 -12  -9   59.80   53.10   1
  14 -12  -9  103.10   54.30   1
 -14  12   9  110.40   53.60   1
 -14 -12   9  227.80   64.90   1
  14  13   0 1050.50  298.10   1
 -14 -13   0 1466.70  302.00   1
  14 -13   0 2254.20  332.60   1
 -14  13   0  570.80  297.50   1
  14  13   1   44.60   37.40   1
 -14 -13  -1   41.30   37.30   1
  14 -13  -1   54.90   40.20   1
 -14  13   1   28.60   41.00   1
 -14  13  -1   26.90   41.80   1
  14 -13   1  105.30   45.90   1
 -14 -13   1   31.80   37.30   1
  14  13  -1   33.10   37.40   1
  14  13   2   14.70   23.40   1
 -14 -13  -2   65.30   24.70   1
  14 -13  -2   95.90   29.50   1
 -14  13   2    7.90   25.00   1
 -14  13  -2   30.40   33.20   1
  14 -13   2   12.30   32.20   1
 -14 -13   2    1.40   23.30   1
  14  13  -2    5.60   23.40   1
  14  13   3   18.30   15.80   1
 -14 -13  -3    2.20   15.20   1
  14 -13  -3   17.00   19.50   1
 -14  13   3   -0.00   19.50   1
 -14  13  -3   15.70   26.00   1
  14 -13   3   13.30   30.90   1
 -14 -13   3   -0.00   15.80   1
  14  13  -3   -0.00   15.20   1
  14  13   4   34.90   35.40   1
 -14 -13  -4   50.50   35.90   1
  14 -13  -4   80.00   38.20   1
 -14 -13   4   23.20   35.20   1
  14  13  -4   21.70   35.10   1
  14  13   5   54.00   42.20   1
 -14 -13  -5   54.80   42.00   1
  14 -13  -5   76.60   42.70   1
 -14  13   5   27.70   42.10   1
 -14 -13   5   44.50   42.00   1
  14  13  -5   38.10   41.90   1
  14  13   6  802.40  261.60   1
 -14 -13  -6  750.00  260.70   1
  14 -13  -6  834.70  260.90   1
 -14  13   6  685.10  259.30   1
 -14 -13   6 1457.40  292.20   1
  14  13  -6 1448.30  303.00   1
  14  13   7   14.00   31.90   1
 -14 -13  -7   40.70   32.50   1
  14 -13  -7   87.30   33.70   1
 -14  13   7   21.80   32.50   1
 -14 -13   7   19.30   33.80   1
  14  13  -7   39.10   33.80   1
  14  13   8   38.60   41.80   1
 -14 -13  -8   86.00   42.50   1
  14 -13  -8   30.80   42.10   1
 -14  13   8   60.10   42.50   1
 -14 -13   8   45.70   43.10   1
  14  14   0   27.10   30.40   1
 -14 -14   0   22.10   30.50   1
  14 -14   0   48.10   37.70   1
 -14  14   0   28.10   35.60   1
  14  14   1    7.30   16.90   1
 -14 -14  -1   15.70   17.00   1
  14 -14  -1   11.70   24.60   1
 -14  14   1   -0.00   25.80   1
 -14  14  -1   11.70   26.10   1
  14 -14   1    0.00   27.70   1
 -14 -14   1    5.80   17.20   1
  14  14  -1   -0.00   17.50   1
  14  14   2   -0.00    8.00   1
 -14 -14  -2   -0.00    8.00   1
  14 -14  -2    3.70   13.50   1
 -14  14   2   -0.00   13.80   1
 -14  14  -2    0.80   22.30   1
  14 -14   2   30.30   29.90   1
 -14 -14   2   -0.00    9.40   1
  14  14  -2   -0.00    9.00   1
  14  14   3   18.30   28.50   1
 -14 -14  -3   30.90   28.80   1
  14 -14  -3   36.80   32.20   1
 -14  14   3   25.00   30.90   1
  14 -14   3    9.60   36.20   1
 -14 -14   3   30.30   28.80   1
  14  14  -3   10.00   28.60   1
  14  14   4    8.70   18.10   1
 -14 -14  -4    9.40   18.00   1
  14 -14  -4   18.10   22.20   1
 -14  14   4   -0.00   20.50   1
 -14 -14   4    6.20   17.90   1
  14  14  -4    7.90   18.10   1
  14  14   5   19.30   30.90   1
 -14 -14  -5   37.80   31.00   1
  14 -14  -5    7.70   31.00   1
 -14  14   5   14.20   31.70   1
 -14 -14   5   50.10   31.70   1
  14  14  -5   44.80   31.90   1
  14  14   6    7.10   15.40   1
 -14 -14  -6   -0.00   14.10   1
  14 -14  -6    9.60   15.40   1
 -14  14   6    6.60   16.00   1
 -14 -14   6    3.30   16.00   1
  14  14  -6   -0.00   16.20   1
  14  14   7   33.10   20.40   1
 -14 -14  -7   21.80   20.60   1
  14 -14  -7   -0.00   21.00   1
 -14  14   7    9.00   21.10   1
 -14 -14   7   -0.00   21.90   1
  14  14  -7   -0.00   20.70   1
  14  15   0   19.10   30.10   1
 -14 -15   0   30.80   30.10   1
  14 -15   0   34.00   37.60   1
 -14  15   0   30.60   35.30   1
  14  15   1   11.60   20.90   1
 -14 -15  -1   14.10   21.20   1
  14 -15  -1   14.40   29.60   1
 -14  15   1   -0.00   24.90   1
 -14  15  -1   26.90   31.60   1
  14 -15   1   13.00   30.00   1
 -14 -15   1   10.30   21.30   1
  14  15  -1   15.60   21.60   1
  14  15   2   19.50   30.30   1
 -14 -15  -2   17.70   30.40   1
  14 -15  -2   88.00   34.40   1
 -14  15   2   24.60   34.80   1
 -14  15  -2   57.00   38.20   1
  14 -15   2   24.80   42.00   1
 -14 -15   2   31.20   30.90   1
  14  15  -2   35.70   31.10   1
  14  15   3    2.80   10.00   1
 -14 -15  -3    2.10   10.40   1
  14 -15  -3   -0.00   17.90   1
 -14  15   3   -0.00   12.70   1
 -14 -15   3    1.00   11.30   1
  14  15  -3    2.10   11.60   1
  14  15   4   52.80   32.40   1
 -14 -15  -4   11.10   31.90   1
  14 -15  -4   40.60   34.40   1
 -14  15   4   32.20   34.60   1
 -14 -15   4   23.10   32.50   1
  14  15  -4   39.80   33.20   1
  14  15   5    3.00   13.90   1
 -14 -15  -5    7.30   15.80   1
  14 -15  -5   -0.00   19.00   1
 -14  15   5    7.60   17.70   1
 -14 -15   5    0.00   15.90   1
  14  15  -5    6.30   16.70   1
  14  15   6   95.90   43.50   1
 -14 -15  -6   55.00   43.00   1
  14 -15  -6   31.20   43.10   1
 -14  15   6   40.50   43.00   1
 -14 -15   6   51.90   44.10   1
  14  15  -6   42.20   43.30   1
  14  16   0    8.10   16.10   1
 -14 -16   0    4.20   16.00   1
  14 -16   0   12.80   25.70   1
 -14  16   0    5.20   24.70   1
  14  16   1  137.30   52.90   1
 -14 -16  -1   63.60   52.00   1
  14 -16  -1   71.20   56.30   1
 -14  16   1   46.80   55.00   1
 -14  16  -1   37.50   55.40   1
  14 -16   1   64.10   59.10   1
 -14 -16   1   78.80   52.50   1
  14  16  -1   88.60   52.60   1
  14  16   2    6.90   12.30   1
 -14 -16  -2   -0.00   11.90   1
  14 -16  -2    0.20   19.60   1
 -14  16   2    8.30   21.30   1
  14 -16   2   40.00   24.90   1
 -14 -16   2    4.30   13.20   1
  14  16  -2   -0.00   13.40   1
  14  16   3   18.20   24.70   1
 -14 -16  -3    3.80   24.60   1
  14 -16  -3   52.70   27.70   1
 -14  16   3   35.80   27.50   1
 -14 -16   3   15.70   25.30   1
  14  16  -3   35.30   26.30   1
  14  16   4   10.20   16.60   1
 -14 -16  -4    0.00   16.90   1
  14 -16  -4   14.30   23.50   1
 -14  16   4    0.00   19.80   1
 -14 -16   4   15.50   18.40   1
  14  16  -4    6.90   18.70   1
  14  16   5   93.80   49.30   1
 -14 -16  -5   63.40   48.90   1
  14 -16  -5   69.30   51.40   1
 -14  16   5   30.90   49.80   1
 -14 -16   5   78.80   50.60   1
  14  16  -5   97.90   51.90   1
  14  17   0   23.80   32.90   1
 -14 -17   0   32.40   32.80   1
  14 -17   0   89.60   42.10   1
 -14  17   0   20.50   38.90   1
  14  17   1    2.60   15.90   1
 -14 -17  -1   11.50   15.50   1
  14 -17  -1   -0.00   25.20   1
 -14  17   1   -0.00   22.50   1
 -14  17  -1   15.30   23.90   1
  14 -17   1   11.80   28.90   1
 -14 -17   1    7.30   16.10   1
  14  17  -1    1.80   16.20   1
  14  17   2   47.20   23.70   1
 -14 -17  -2   12.30   23.20   1
  14 -17  -2   -0.00   30.20   1
 -14  17   2   -0.00   26.60   1
  14 -17   2   13.80   28.90   1
 -14 -17   2   11.30   23.90   1
  14  17  -2   11.10   24.10   1
  14  17   3   24.10   20.90   1
 -14 -17  -3    7.20   20.70   1
  14 -17  -3    9.40   24.50   1
 -14  17   3   -0.00   28.30   1
 -14 -17   3    9.90   21.70   1
  14  17  -3    7.60   22.70   1
  14  17   4   24.80   28.20   1
 -14 -17  -4   24.80   28.70   1
  14 -17  -4   26.40   32.10   1
 -14  17   4   15.20   29.70   1
 -14 -17   4   26.70   29.90   1
  14  17  -4   16.10   29.60   1
  14  18   0    7.90   17.70   1
 -14 -18   0    6.90   17.50   1
  14 -18   0   42.50   32.20   1
 -14  18   0   -0.00   25.40   1
  14  18   1   38.10   29.30   1
 -14 -18  -1   23.30   28.80   1
  14 -18  -1   32.70   35.80   1
 -14  18   1    0.70   33.70   1
  14 -18   1   81.20   40.10   1
 -14 -18   1   15.20   29.10   1
  14  18  -1   24.70   29.30   1
  15   0   0  179.70   68.60   1
 -15   0   0   82.60   67.80   1
  15   0   1  131.90   69.40   1
 -15   0  -1  122.50   69.30   1
  15   0  -1  144.20   69.30   1
 -15   0   1   92.90   69.00   1
  15   0   2  112.90   52.50   1
 -15   0  -2   59.00   52.50   1
  15   0  -2   71.80   52.90   1
 -15   0   2   57.70   51.70   1
  15   0   3  318.40  112.20   1
 -15   0  -3  248.30  111.80   1
  15   0  -3  227.20  110.90   1
 -15   0   3  235.40  111.10   1
  15   0   4   -0.00   32.10   1
 -15   0  -4  190.80   36.80   1
  15   0  -4   21.40   30.70   1
 -15   0   4   18.40   31.40   1
  15   0   5 1616.80  417.80   1
 -15   0  -5 1195.10  415.20   1
  15   0  -5 2204.90  422.10   1
 -15   0   5 1186.30  414.60   1
  15   0   6   -0.00   19.70   1
 -15   0  -6   -0.00   21.20   1
  15   0  -6   15.50   17.70   1
 -15   0   6    3.90   17.20   1
  15   0   7  230.60   90.90   1
 -15   0  -7  118.20   87.70   1
  15   0  -7  381.40   88.20   1
 -15   0   7  144.60   86.30   1
  15   0   8   97.90   43.00   1
 -15   0  -8   -0.00   38.80   1
  15   0  -8   31.00   35.70   1
 -15   0   8   46.80   35.90   1
  15   0   9  285.50   64.60   1
 -15   0  -9   53.40   53.60   1
  15   0  -9   67.00   49.50   1
 -15   0   9   61.40   49.40   1
  15   0  10   57.60   33.50   1
  15   0 -10   18.30   22.60   1
 -15   0  10    6.50   22.60   1
  15   0 -11   77.40   55.50   1
 -15   0  11   82.00   55.60   1
  15   1   0   10.00   12.60   1
 -15  -1   0   -0.00   11.90   1
  15  -1   0   -0.00   12.40   1
 -15   1   0   -0.00   12.70   1
  15   1   1   17.70   28.20   1
 -15  -1  -1   11.50   28.00   1
  15  -1  -1   33.70   28.40   1
 -15   1   1   28.90   28.20   1
 -15   1  -1   32.10   28.50   1
  15  -1   1   17.30   28.30   1
 -15  -1   1   17.30   28.20   1
  15   1  -1   18.20   27.90   1
  15   1   2    7.60   22.20   1
 -15  -1  -2   -0.00   22.30   1
  15  -1  -2   19.10   22.10   1
 -15   1   2   12.90   21.70   1
 -15   1  -2   27.50   24.00   1
  15  -1   2   14.30   23.40   1
 -15  -1   2   18.20   23.80   1
  15   1  -2    9.60   23.90   1
  15   1   3   20.70   25.80   1
 -15  -1  -3   10.90   26.00   1
  15  -1  -3   11.80   26.30   1
 -15   1   3    6.70   25.60   1
 -15   1  -3   23.90   27.90   1
  15  -1   3   13.40   29.20   1
 -15  -1   3   37.00   27.50   1
  15   1  -3   16.20   27.10   1
  15   1   4  393.50   69.30   1
 -15  -1  -4   93.50   64.50   1
  15  -1  -4  154.40   64.50   1
 -15   1   4  131.00   64.10   1
 -15   1  -4   95.40   64.00   1
  15  -1   4  200.00   66.10   1
 -15  -1   4   61.80   62.70   1
  15   1  -4   75.90   62.90   1
  15   1   5   48.10   37.40   1
 -15  -1  -5   43.50   36.50   1
  15  -1  -5   28.00   34.40   1
 -15   1   5   18.80   34.90   1
 -15   1  -5   31.60   35.80   1
  15  -1   5   23.40   36.50   1
 -15  -1   5   28.20   35.10   1
  15   1  -5   51.30   34.90   1
  15   1   6   28.50   33.90   1
 -15  -1  -6   18.60   33.80   1
  15  -1  -6   35.80   32.60   1
 -15   1   6   49.70   33.20   1
 -15   1  -6   12.00   36.70   1
  15  -1   6   34.70   38.10   1
 -15  -1   6   26.40   32.20   1
  15   1  -6   19.80   31.80   1
  15   1   7   23.90   36.20   1
 -15  -1  -7    2.20   34.80   1
  15  -1  -7   24.10   31.00   1
 -15   1   7   10.10   31.00   1
 -15   1  -7   74.80   37.90   1
  15  -1   7   36.80   37.40   1
 -15  -1   7   24.70   30.80   1
  15   1  -7   45.60   31.10   1
  15   1   8   35.20   29.70   1
 -15  -1  -8   18.80   27.60   1
  15  -1  -8   16.80   20.20   1
 -15   1   8   -0.00   20.20   1
 -15   1  -8    4.70   28.10   1
  15  -1   8   44.20   31.60   1
 -15  -1   8    9.70   20.30   1
  15   1  -8    9.30   19.80   1
  15   1   9   21.90   22.00   1
 -15  -1  -9   -0.00   23.20   1
  15  -1  -9    0.00    9.80   1
 -15   1   9    1.30    9.90   1
 -15   1  -9   -0.00   20.40   1
  15  -1   9   12.20   28.50   1
 -15  -1   9    0.00    9.90   1
  15   1  -9   -0.00   10.00   1
  15   1  10    5.40   27.20   1
 -15  -1 -10   11.90   20.00   1
  15  -1 -10   -0.00   11.40   1
 -15   1  10   -0.00   11.30   1
  15  -1  10   21.60   20.60   1
 -15  -1  10   -0.00   11.30   1
  15   1 -10    5.90   11.60   1
  15   1  11    9.70   18.40   1
  15  -1 -11    7.30   14.30   1
 -15   1  11    5.00   14.10   1
 -15  -1  11    2.70   14.40   1
  15   1 -11   -0.00   15.00   1
  15   2   0    0.00   10.20   1
 -15  -2   0    3.10    9.20   1
  15  -2   0   -0.00   11.40   1
 -15   2   0   -0.00   10.60   1
  15   2   1   38.10   38.00   1
 -15  -2  -1   35.70   37.60   1
  15  -2  -1   36.90   37.80   1
 -15   2   1   40.60   37.60   1
 -15   2  -1   45.10   37.80   1
  15  -2   1   38.00   37.70   1
 -15  -2   1   25.80   37.50   1
  15   2  -1   48.90   38.10   1
  15   2   2   -0.00   26.30   1
 -15  -2  -2   57.20   26.90   1
  15  -2  -2   14.70   26.40   1
 -15   2   2   19.00   26.20   1
 -15   2  -2   27.80   29.00   1
  15  -2   2   59.70   29.60   1
 -15  -2   2    6.00   26.40   1
  15   2  -2    9.50   27.60   1
  15   2   3   16.50   30.50   1
 -15  -2  -3   -0.00   30.60   1
  15  -2  -3  143.50   31.90   1
 -15   2   3  142.30   31.40   1
 -15   2  -3   -0.00   31.90   1
  15  -2   3    7.60   32.10   1
 -15  -2   3   14.60   30.50   1
  15   2  -3   15.70   29.90   1
  15   2   4   68.30   34.20   1
 -15  -2  -4   33.20   34.10   1
  15  -2  -4   31.30   32.40   1
 -15   2   4   29.60   32.70   1
 -15   2  -4   14.20   32.20   1
  15  -2   4   32.90   33.10   1
 -15  -2   4   19.40   31.40   1
  15   2  -4   18.50   31.70   1
  15   2   5  138.20   68.90   1
 -15  -2  -5  123.80   69.00   1
  15  -2  -5  162.00   68.00   1
 -15   2   5  141.70   68.00   1
 -15   2  -5   88.90   69.40   1
  15  -2   5  105.60   68.40   1
 -15  -2   5   82.00   67.10   1
  15   2  -5  101.90   67.20   1
  15   2   6   -0.00   19.40   1
 -15  -2  -6   10.70   18.30   1
  15  -2  -6    8.20   17.00   1
 -15   2   6    9.00   15.90   1
 -15   2  -6   -0.00   20.00   1
  15  -2   6   11.00   26.20   1
 -15  -2   6    2.40   15.80   1
  15   2  -6    6.20   16.00   1
  15   2   7   19.10   41.40   1
 -15  -2  -7   -0.00   42.90   1
  15  -2  -7   28.60   40.60   1
 -15   2   7   43.20   41.10   1
 -15   2  -7   10.70   43.00   1
  15  -2   7   50.20   45.00   1
 -15  -2   7  123.60   40.90   1
  15   2  -7   99.90   40.70   1
  15   2   8   -0.00   29.40   1
 -15  -2  -8   -0.00   26.70   1
  15  -2  -8   15.90   24.00   1
 -15   2   8   37.40   24.10   1
 -15   2  -8    5.20   31.30   1
  15  -2   8   18.30   35.70   1
 -15  -2   8   12.60   23.80   1
  15   2  -8   11.60   23.90   1
  15   2   9   73.80   33.20   1
 -15  -2  -9   -0.00   30.20   1
  15  -2  -9    6.20   25.20   1
 -15   2   9   27.60   25.40   1
 -15   2  -9    0.00   29.60   1
  15  -2   9   61.50   35.10   1
 -15  -2   9   29.10   25.20   1
  15   2  -9   10.00   25.40   1
  15   2  10   10.80   32.80   1
 -15  -2 -10   -0.00   29.30   1
  15  -2 -10   28.00   23.40   1
 -15   2  10   29.50   23.30   1
 -15  -2  10    0.00   23.60   1
  15   2 -10    4.60   23.80   1
  15   2  11   15.40   26.50   1
  15  -2 -11   10.00   17.40   1
 -15   2  11    4.70   17.10   1
 -15  -2  11    2.90   18.10   1
  15   2 -11   11.40   17.70   1
  15   3   0  160.10   40.10   1
 -15  -3   0   67.80   38.70   1
  15  -3   0   20.30   38.60   1
 -15   3   0    5.10   39.00   1
  15   3   1   14.60   22.90   1
 -15  -3  -1    9.60   23.00   1
  15  -3  -1    4.60   23.90   1
 -15   3   1    9.80   23.30   1
 -15   3  -1    9.80   24.80   1
  15  -3   1    9.00   24.30   1
 -15  -3   1   46.60   24.50   1
  15   3  -1   25.00   24.90   1
  15   3   2   91.30   38.90   1
 -15  -3  -2   32.30   38.30   1
  15  -3  -2   71.90   38.40   1
 -15   3   2   97.70   38.90   1
 -15   3  -2    5.70   38.80   1
  15  -3   2   15.00   40.20   1
 -15  -3   2   22.80   38.60   1
  15   3  -2   21.40   38.70   1
  15   3   3   20.00   28.90   1
 -15  -3  -3   38.70   29.00   1
  15  -3  -3   34.00   28.50   1
 -15   3   3   56.90   28.60   1
 -15   3  -3   -0.00   30.20   1
  15  -3   3   -0.00   31.80   1
 -15  -3   3    5.70   28.40   1
  15   3  -3   11.10   28.80   1
  15   3   4  102.20   64.90   1
 -15  -3  -4  193.90   66.00   1
  15  -3  -4   78.60   65.30   1
 -15   3   4   92.00   64.70   1
 -15   3  -4  127.50   65.60   1
  15  -3   4   91.60   65.30   1
 -15  -3   4   96.50   64.50   1
  15   3  -4  107.60   64.60   1
 -15  -3  -5  117.50   28.30   1
  15  -3  -5    9.30   25.50   1
 -15   3   5    5.00   23.30   1
 -15   3  -5   24.90   29.50   1
  15  -3   5    8.50   30.60   1
 -15  -3   5    9.60   23.00   1
  15   3  -5   12.40   22.80   1
  15   3   6   38.10   30.80   1
 -15  -3  -6   36.10   29.10   1
  15  -3  -6   32.10   27.00   1
 -15   3   6   27.90   27.20   1
 -15   3  -6   41.60   32.20   1
  15  -3   6   48.20   33.60   1
 -15  -3   6    2.10   25.80   1
  15   3  -6   12.60   26.10   1
  15   3   7    0.90   26.30   1
 -15  -3  -7   15.10   26.70   1
  15  -3  -7   17.40   25.70   1
 -15   3   7    4.70   25.60   1
 -15   3  -7   99.10   34.20   1
  15  -3   7   17.30   32.30   1
 -15  -3   7   22.90   24.50   1
  15   3  -7   16.80   24.40   1
  15   3   8  360.50   57.90   1
 -15  -3  -8   19.30   49.10   1
  15  -3  -8   66.00   46.40   1
 -15   3   8   33.90   46.40   1
 -15   3  -8   24.40   49.90   1
  15  -3   8  140.40   56.20   1
 -15  -3   8  105.80   46.60   1
  15   3  -8   62.60   46.20   1
  15   3   9  101.40   28.90   1
 -15  -3  -9   -0.00   22.60   1
  15  -3  -9   13.20   16.80   1
 -15   3   9    7.90   16.10   1
  15  -3   9    5.70   22.70   1
 -15  -3   9   -0.00   16.50   1
  15   3  -9   -0.00   17.20   1
  15   3  10   32.20   48.70   1
 -15  -3 -10   25.00   48.60   1
  15  -3 -10  148.80   45.60   1
 -15   3  10   50.30   44.20   1
 -15  -3  10   43.00   44.50   1
  15   3 -10   56.50   44.70   1
  15   3  11    9.90   27.50   1
 -15  -3 -11    8.60   22.10   1
  15  -3 -11   14.10   16.20   1
 -15   3  11    1.70   15.50   1
 -15  -3  11   14.50   17.50   1
  15   3 -11    0.00   16.50   1
  15   4   0   18.30   25.20   1
 -15  -4   0    2.60   24.20   1
  15  -4   0   27.00   24.20   1
 -15   4   0   11.70   24.00   1
  15   4   1   11.00   24.10   1
 -15  -4  -1   10.30   23.90   1
  15  -4  -1   23.20   24.60   1
 -15   4   1   36.10   24.80   1
 -15  -4   1    4.90   24.90   1
  15   4  -1   17.90   25.50   1
  15   4   2    4.80   17.40   1
 -15  -4  -2    8.10   17.50   1
  15  -4  -2    5.60   18.00   1
 -15   4   2    6.70   17.90   1
 -15   4  -2   15.30   21.10   1
  15  -4   2   23.10   21.70   1
 -15  -4   2    8.30   17.80   1
  15   4  -2   -0.00   17.00   1
  15   4   3   22.90   31.20   1
 -15  -4  -3    8.20   30.80   1
  15  -4  -3   10.50   30.90   1
 -15   4   3   19.00   31.10   1
 -15   4  -3   30.90   32.00   1
  15  -4   3   32.60   33.10   1
 -15  -4   3   95.10   32.40   1
  15   4  -3   76.70   32.20   1
  15   4   4   39.50   29.50   1
 -15  -4  -4   26.30   29.80   1
  15  -4  -4   33.00   30.00   1
 -15   4   4   15.40   28.80   1
 -15   4  -4   15.50   32.90   1
  15  -4   4   22.30   31.50   1
 -15  -4   4   15.80   29.00   1
  15   4  -4   21.40   29.10   1
  15   4   5   36.10   43.20   1
 -15  -4  -5   91.00   44.60   1
  15  -4  -5   41.70   43.40   1
 -15   4   5   73.40   43.70   1
 -15   4  -5   28.40   44.10   1
  15  -4   5   82.60   47.90   1
 -15  -4   5   40.30   42.30   1
  15   4  -5   49.20   42.20   1
  15   4   6   64.00   27.00   1
 -15  -4  -6   28.60   27.10   1
  15  -4  -6    7.80   24.60   1
 -15   4   6    1.50   25.10   1
 -15   4  -6    0.00   28.40   1
  15  -4   6   76.60   33.60   1
 -15  -4   6   13.80   22.70   1
  15   4  -6    6.10   22.50   1
  15   4   7   46.20   21.40   1
 -15  -4  -7   -0.00   18.70   1
  15  -4  -7    5.50   18.30   1
 -15   4   7   -0.00   17.10   1
 -15   4  -7    0.00   27.70   1
  15  -4   7   18.10   29.90   1
 -15  -4   7    7.00   17.30   1
  15   4  -7   10.90   17.60   1
  15   4   8   -0.00   28.40   1
 -15  -4  -8   -0.00   30.20   1
  15  -4  -8    7.50   27.20   1
 -15   4   8   10.40   27.50   1
 -15   4  -8    5.50   31.80   1
  15  -4   8   12.00   34.20   1
 -15  -4   8   47.80   27.10   1
  15   4  -8   97.10   28.40   1
  15   4   9    8.10   21.80   1
 -15  -4  -9   -0.00   17.90   1
  15  -4  -9    8.60   13.70   1
 -15   4   9   -0.00   14.40   1
 -15  -4   9    6.80   14.40   1
  15   4  -9   -0.00   15.00   1
  15   4  10   -0.00   23.30   1
 -15  -4 -10   -0.00   23.00   1
  15  -4 -10    7.70   16.00   1
 -15   4  10    4.90   16.10   1
 -15  -4  10   14.90   17.70   1
  15   4 -10    3.70   17.50   1
  15   4  11   -0.00   26.00   1
 -15  -4 -11    3.00   23.30   1
  15  -4 -11    8.50   15.50   1
 -15   4  11    3.90   15.40   1
 -15  -4  11   10.30   16.90   1
  15   4 -11    3.40   16.10   1
  15   5   0   79.60   45.20   1
 -15  -5   0   65.10   44.90   1
  15  -5   0   34.90   44.80   1
 -15   5   0   40.90   45.00   1
  15   5   1   69.60   41.20   1
 -15  -5  -1   36.50   40.50   1
  15  -5  -1   44.00   41.10   1
 -15   5   1   33.00   41.10   1
 -15   5  -1   10.90   41.40   1
  15  -5   1   57.80   43.60   1
 -15  -5   1   93.50   41.80   1
  15   5  -1   52.70   41.30   1
  15   5   2  310.80   63.60   1
 -15  -5  -2   80.80   61.70   1
  15  -5  -2  102.20   62.00   1
 -15   5   2   68.10   61.60   1
 -15   5  -2   52.90   62.40   1
  15  -5   2   67.50   63.40   1
 -15  -5   2  149.70   62.10   1
  15   5  -2  172.30   62.50   1
  15   5   3   21.40   28.00   1
 -15  -5  -3   17.00   27.30   1
  15  -5  -3   27.30   28.10   1
 -15   5   3   13.80   27.70   1
 -15   5  -3   13.30   29.10   1
  15  -5   3   17.60   29.10   1
 -15  -5   3   18.10   28.10   1
  15   5  -3   31.70   27.70   1
  15   5   4 1082.00  321.10   1
 -15  -5  -4 1369.40  322.90   1
  15  -5  -4 1452.30  325.90   1
 -15   5   4 1191.50  322.90   1
 -15   5  -4 1459.10  330.80   1
  15  -5   4 1409.80  327.90   1
 -15  -5   4  767.80  319.30   1
  15   5  -4  826.60  319.40   1
  15   5   5   43.80   46.30   1
 -15  -5  -5   73.80   46.90   1
  15  -5  -5  120.20   48.00   1
 -15   5   5   29.10   46.20   1
 -15   5  -5   72.40   49.80   1
  15  -5   5  164.00   53.00   1
 -15  -5   5   36.70   45.50   1
  15   5  -5   98.40   46.20   1
  15   5   6  231.80   75.40   1
 -15  -5  -6   91.70   73.30   1
  15  -5  -6  211.50   74.40   1
 -15   5   6   58.60   72.50   1
 -15   5  -6  130.20   76.50   1
  15  -5   6  226.30   79.50   1
 -15  -5   6  235.40   73.20   1
  15   5  -6  238.90   73.40   1
  15   5   7   25.00   22.70   1
 -15  -5  -7    6.90   20.60   1
  15  -5  -7    9.50   18.70   1
 -15   5   7   -0.00   19.10   1
 -15   5  -7    3.30   24.10   1
  15  -5   7   -0.00   30.40   1
 -15  -5   7    7.40   17.30   1
  15   5  -7    8.40   17.50   1
  15   5   8   19.80   48.20   1
 -15  -5  -8   54.20   48.80   1
  15  -5  -8   91.40   48.70   1
 -15   5   8  323.20   52.40   1
  15  -5   8  135.40   55.70   1
 -15  -5   8   68.50   47.90   1
  15   5  -8   62.00   48.10   1
  15   5   9   15.40   27.40   1
 -15  -5  -9   20.00   24.80   1
  15  -5  -9    2.10   20.20   1
 -15   5   9   46.10   21.10   1
 -15  -5   9    1.50   20.10   1
  15   5  -9    6.40   20.20   1
  15   5  10   25.80   39.50   1
 -15  -5 -10   31.70   38.90   1
  15  -5 -10   42.20   35.50   1
 -15   5  10   47.40   35.70   1
 -15  -5  10   34.40   36.00   1
  15   5 -10   20.20   35.90   1
  15   5  11   19.10   24.00   1
 -15  -5 -11   33.60   28.00   1
  15  -5 -11   12.40   15.90   1
 -15   5  11   -0.00   15.80   1
 -15  -5  11    3.40   16.50   1
  15   5 -11    3.70   16.80   1
  15   6   0   25.70   25.90   1
 -15  -6   0    3.20   24.80   1
  15  -6   0   20.20   28.40   1
 -15   6   0   27.70   28.10   1
  15   6   1    8.70   22.40   1
 -15  -6  -1   54.20   22.90   1
  15  -6  -1    9.10   21.50   1
 -15   6   1    9.30   21.80   1
 -15   6  -1    0.00   24.00   1
  15  -6   1   32.40   25.80   1
 -15  -6   1    6.20   20.60   1
  15   6  -1    2.40   20.40   1
  15   6   2    1.50   14.60   1
 -15  -6  -2   -0.00   14.40   1
  15  -6  -2   -0.00   15.10   1
 -15   6   2    6.10   15.80   1
 -15   6  -2   -0.00   16.40   1
  15  -6   2    6.10   18.50   1
 -15  -6   2    7.10   15.50   1
  15   6  -2   24.00   16.10   1
  15   6   3   12.70   21.30   1
 -15  -6  -3    6.80   21.40   1
  15  -6  -3   12.80   21.90   1
 -15   6   3    7.20   22.10   1
 -15   6  -3   27.40   26.80   1
  15  -6   3   13.10   25.10   1
 -15  -6   3   21.40   21.60   1
  15   6  -3    7.60   21.30   1
  15   6   4   48.20   36.20   1
 -15  -6  -4   51.80   36.10   1
  15  -6  -4   40.10   35.70   1
 -15   6   4   29.10   35.80   1
 -15   6  -4   12.70   38.00   1
  15  -6   4   29.80   41.60   1
 -15  -6   4   42.30   35.90   1
  15   6  -4   22.30   35.50   1
  15   6   5   84.50   55.80   1
 -15  -6  -5   67.60   56.10   1
  15  -6  -5   75.20   55.90   1
 -15   6   5   56.50   55.50   1
 -15   6  -5   90.30   60.00   1
  15  -6   5   82.20   60.30   1
 -15  -6   5   83.30   55.50   1
  15   6  -5  147.00   56.00   1
  15   6   6    6.70   17.20   1
 -15  -6  -6   14.00   18.20   1
  15  -6  -6    0.00   17.50   1
 -15   6   6    1.40   16.60   1
 -15   6  -6    0.00   26.40   1
  15  -6   6   -0.00   28.60   1
 -15  -6   6    8.70   14.50   1
  15   6  -6   -0.00   14.90   1
  15   6   7   -0.00   22.40   1
 -15  -6  -7   22.20   23.90   1
  15  -6  -7   -0.00   22.60   1
 -15   6   7   31.70   23.10   1
 -15   6  -7    5.00   28.30   1
  15  -6   7    3.70   30.20   1
 -15  -6   7    8.10   20.10   1
  15   6  -7   11.20   20.20   1
  15   6   8   -0.00   16.60   1
 -15  -6  -8   -0.00   15.40   1
  15  -6  -8    7.20   14.00   1
 -15   6   8    7.30   14.40   1
 -15  -6   8    0.20   13.80   1
  15   6  -8    5.20   14.10   1
  15   6   9   11.20   38.20   1
 -15  -6  -9   33.40   40.60   1
  15  -6  -9   21.60   37.20   1
 -15   6   9   46.00   37.60   1
 -15  -6   9  108.90   38.80   1
  15   6  -9  119.30   38.90   1
  15   6  10   20.20   23.60   1
 -15  -6 -10   -0.00   21.10   1
  15  -6 -10   30.40   17.50   1
 -15   6  10   -0.00   17.30   1
 -15  -6  10   -0.00   17.70   1
  15   6 -10   -0.00   17.80   1
  15   6  11   21.60   23.00   1
 -15  -6 -11    1.10   22.00   1
  15  -6 -11    4.00   14.00   1
 -15   6  11   -0.00   13.90   1
 -15  -6  11    1.70   15.50   1
  15   6 -11   19.80   16.80   1
  15   7   0   -0.00   12.00   1
 -15  -7   0    0.00   13.60   1
  15  -7   0    7.20   16.60   1
 -15   7   0    4.90   14.00   1
  15   7   1   27.60   33.60   1
 -15  -7  -1   18.90   33.70   1
  15  -7  -1    5.30   34.50   1
 -15   7   1    3.90   34.00   1
 -15   7  -1   22.20   34.90   1
  15  -7   1   19.60   37.10   1
 -15  -7   1   69.40   33.50   1
  15   7  -1   70.70   34.00   1
  15   7   2   88.60   40.10   1
 -15  -7  -2   35.70   38.90   1
  15  -7  -2   59.70   39.50   1
 -15   7   2   24.70   39.50   1
 -15   7  -2   31.80   40.30   1
  15  -7   2   21.30   40.70   1
 -15  -7   2   16.70   39.20   1
  15   7  -2  101.30   39.70   1
  15   7   3   45.20   37.60   1
 -15  -7  -3   37.20   37.50   1
  15  -7  -3   42.70   37.90   1
 -15   7   3   45.00   37.70   1
 -15   7  -3  108.80   43.50   1
  15  -7   3   75.00   42.80   1
 -15  -7   3   16.90   37.00   1
  15   7  -3   49.90   37.40   1
  15   7   4   34.10   22.30   1
 -15  -7  -4    0.50   21.70   1
  15  -7  -4    8.40   21.90   1
 -15   7   4   28.50   22.80   1
 -15   7  -4   33.50   28.60   1
  15  -7   4   73.30   31.70   1
 -15  -7   4    4.70   21.20   1
  15   7  -4    4.20   21.60   1
  15   7   5   -0.00   19.70   1
 -15  -7  -5    1.70   20.10   1
  15  -7  -5   10.60   19.60   1
 -15   7   5    0.20   18.80   1
 -15   7  -5   31.10   29.80   1
  15  -7   5   20.50   28.70   1
 -15  -7   5   20.60   18.90   1
  15   7  -5   15.70   19.00   1
  15   7   6   70.90   30.40   1
 -15  -7  -6   45.60   30.60   1
  15  -7  -6   30.40   30.90   1
 -15   7   6   14.30   29.60   1
 -15   7  -6   10.00   34.30   1
  15  -7   6   37.70   42.20   1
 -15  -7   6   13.50   29.00   1
  15   7  -6   13.40   29.10   1
  15   7   7   29.90   28.50   1
 -15  -7  -7   10.50   27.70   1
  15  -7  -7   10.70   26.70   1
 -15   7   7   10.60   26.30   1
  15  -7   7    9.20   31.70   1
 -15  -7   7   21.00   25.70   1
  15   7  -7   25.90   25.80   1
  15   7   8   -0.00   32.60   1
 -15  -7  -8   40.00   32.00   1
  15  -7  -8   16.60   30.60   1
 -15   7   8   12.90   31.20   1
 -15  -7   8   43.20   31.00   1
  15   7  -8   38.80   30.60   1
  15   7   9   28.10   28.40   1
 -15  -7  -9    7.70   29.40   1
  15  -7  -9    6.10   27.70   1
 -15   7   9   18.50   27.40   1
 -15  -7   9   26.40   27.60   1
  15   7  -9   56.90   28.70   1
  15   7  10   35.00   32.20   1
 -15  -7 -10   14.20   29.80   1
  15  -7 -10   12.60   27.10   1
 -15   7  10   10.50   27.50   1
 -15  -7  10   36.10   28.00   1
  15   7 -10   42.30   28.50   1
  15   8   0   -0.00   25.90   1
 -15  -8   0   15.90   25.60   1
  15  -8   0   81.70   30.10   1
 -15   8   0   37.60   30.40   1
  15   8   1  594.50  142.10   1
 -15  -8  -1  434.70  140.90   1
  15  -8  -1  559.00  143.30   1
 -15   8   1  162.70  139.70   1
 -15   8  -1  293.70  140.10   1
  15  -8   1  749.80  144.50   1
 -15  -8   1  494.50  140.70   1
  15   8  -1  450.60  140.60   1
  15   8   2   46.90   32.90   1
 -15  -8  -2   79.80   33.10   1
  15  -8  -2   31.50   32.70   1
 -15   8   2    8.60   32.50   1
 -15   8  -2   29.60   35.00   1
  15  -8   2   25.50   34.90   1
 -15  -8   2   19.00   31.20   1
  15   8  -2   19.50   31.30   1
  15   8   3   65.90   43.70   1
 -15  -8  -3   57.30   43.40   1
  15  -8  -3   56.30   43.70   1
 -15   8   3   79.40   44.10   1
 -15   8  -3    6.20   44.80   1
  15  -8   3   34.20   49.30   1
 -15  -8   3   38.50   43.10   1
  15   8  -3   58.10   43.20   1
  15   8   4   14.30   27.30   1
 -15  -8  -4   11.80   27.40   1
  15  -8  -4   15.20   27.60   1
 -15   8   4   11.10   27.70   1
 -15   8  -4   28.60   32.30   1
  15  -8   4   31.20   34.70   1
 -15  -8   4   27.60   27.00   1
  15   8  -4   31.70   27.10   1
  15   8   5    8.10   20.00   1
 -15  -8  -5   16.70   20.40   1
  15  -8  -5    9.50   20.30   1
 -15   8   5   -0.00   20.60   1
 -15   8  -5   19.90   30.50   1
  15  -8   5   31.10   31.90   1
 -15  -8   5   11.70   19.50   1
  15   8  -5    8.70   20.00   1
  15   8   6   26.10   27.60   1
 -15  -8  -6   17.70   28.00   1
  15  -8  -6   20.90   28.10   1
 -15   8   6   18.40   27.50   1
 -15   8  -6   14.10   35.00   1
  15  -8   6   20.00   40.20   1
 -15  -8   6   15.90   27.40   1
  15   8  -6   26.40   27.60   1
  15   8   7   55.20   34.30   1
  15  -8  -7   19.90   34.30   1
 -15   8   7   51.20   34.30   1
 -15  -8   7   21.80   32.70   1
  15   8  -7   22.20   32.80   1
  15   8   8   17.00   18.60   1
  15  -8  -8    7.70   17.70   1
 -15   8   8    7.40   16.30   1
 -15  -8   8   -0.00   15.40   1
  15   8  -8    2.70   15.60   1
  15   8   9   42.80   25.10   1
 -15  -8  -9   19.00   23.40   1
  15  -8  -9   -0.00   21.60   1
 -15   8   9   12.50   23.00   1
 -15  -8   9   15.10   22.70   1
  15   8  -9   17.80   22.50   1
  15   8  10   10.80   27.40   1
 -15  -8 -10   18.10   29.80   1
  15  -8 -10   -0.00   26.30   1
 -15   8  10   29.40   26.60   1
 -15  -8  10  106.10   30.00   1
  15   8 -10  204.30   38.40   1
  15   9   0   20.20   18.00   1
 -15  -9   0    0.00   17.80   1
  15  -9   0   -0.00   23.80   1
 -15   9   0   -0.00   21.20   1
  15   9   1    3.90   17.60   1
 -15  -9  -1   20.30   18.40   1
  15  -9  -1    4.50   21.20   1
 -15   9   1   -0.00   19.10   1
 -15   9  -1   16.30   20.50   1
  15  -9   1   15.90   21.60   1
 -15  -9   1    3.20   17.90   1
  15   9  -1    4.70   17.60   1
  15   9   2   49.60   27.60   1
 -15  -9  -2   23.50   26.80   1
  15  -9  -2   20.10   27.20   1
 -15   9   2   20.30   27.80   1
 -15   9  -2   -0.00   31.40   1
  15  -9   2    5.10   33.00   1
 -15  -9   2   15.90   25.50   1
  15   9  -2    8.50   25.60   1
  15   9   3   85.70   28.40   1
 -15  -9  -3    8.30   26.20   1
  15  -9  -3    2.60   26.80   1
 -15   9   3    8.60   26.60   1
 -15   9  -3   26.50   33.00   1
  15  -9   3   29.50   33.80   1
 -15  -9   3   30.40   25.90   1
  15   9  -3   14.00   25.80   1
  15   9   4   43.80   41.30   1
 -15  -9  -4   47.20   41.50   1
  15  -9  -4   49.00   41.80   1
 -15   9   4   56.30   42.00   1
 -15   9  -4   47.50   46.10   1
  15  -9   4   64.80   47.30   1
 -15  -9   4   49.70   41.40   1
  15   9  -4   37.90   41.30   1
  15   9   5   -0.00   12.70   1
 -15  -9  -5    1.40   12.70   1
  15  -9  -5   -0.00   13.60   1
 -15   9   5   -0.00   13.90   1
 -15   9  -5   -0.00   25.80   1
  15  -9   5   -0.00   33.10   1
 -15  -9   5   12.10   12.70   1
  15   9  -5    2.10   13.10   1
  15   9   6   14.50   23.70   1
 -15  -9  -6    8.70   23.90   1
  15  -9  -6   19.40   23.70   1
 -15   9   6   55.30   24.30   1
  15  -9   6   15.10   31.20   1
 -15  -9   6   -0.00   23.60   1
  15   9  -6   11.10   24.20   1
  15   9   7   -0.00   15.10   1
 -15  -9  -7    0.00   15.50   1
  15  -9  -7    3.80   15.70   1
 -15   9   7    1.00   14.70   1
 -15  -9   7   -0.00   14.80   1
  15   9  -7   18.90   14.70   1
  15   9   8    4.10   21.30   1
 -15  -9  -8   67.80   23.50   1
  15  -9  -8   -0.00   20.40   1
 -15   9   8   10.40   21.70   1
 -15  -9   8   10.80   19.70   1
  15   9  -8    4.90   19.60   1
  15   9   9    8.70   18.40   1
 -15  -9  -9   10.60   16.60   1
  15  -9  -9    0.00   14.60   1
 -15   9   9   -0.00   15.80   1
 -15  -9   9    6.10   15.10   1
  15   9  -9    1.40   15.90   1
  15   9  10   21.30   24.20   1
 -15  -9 -10   12.40   24.50   1
  15  -9 -10   21.00   23.20   1
 -15   9  10   11.70   22.60   1
 -15  -9  10   10.40   23.70   1
  15   9 -10    3.80   24.00   1
  15  10   0   25.60   23.00   1
 -15 -10   0    3.80   23.20   1
  15 -10   0   32.00   25.80   1
 -15  10   0   -0.00   24.00   1
  15  10   1  145.50   55.80   1
 -15 -10  -1   40.90   54.60   1
  15 -10  -1  124.10   57.40   1
 -15  10   1   86.60   56.90   1
 -15  10  -1  222.70   59.80   1
  15 -10   1  102.40   56.70   1
 -15 -10   1  101.80   54.90   1
  15  10  -1   60.20   54.50   1
  15  10   2    3.70   20.90   1
 -15 -10  -2   13.60   21.40   1
  15 -10  -2   12.20   23.20   1
 -15  10   2   25.90   23.90   1
 -15  10  -2   22.10   24.40   1
  15 -10   2    3.10   28.70   1
 -15 -10   2    5.50   19.70   1
  15  10  -2   11.40   19.80   1
  15  10   3   72.30   33.30   1
 -15 -10  -3   34.50   33.40   1
  15 -10  -3   31.30   32.70   1
 -15  10   3   -0.00   32.90   1
 -15  10  -3   -0.00   36.60   1
  15 -10   3   69.00   40.40   1
 -15 -10   3   68.60   32.00   1
  15  10  -3    6.80   31.70   1
  15  10   4   20.10   26.10   1
 -15 -10  -4   17.00   25.80   1
  15 -10  -4   19.70   26.70   1
 -15  10   4   31.90   27.30   1
 -15  10  -4  146.30   42.10   1
  15 -10   4   -0.00   37.30   1
 -15 -10   4    4.70   25.50   1
  15  10  -4   26.50   25.90   1
  15  10   5  100.90   71.60   1
 -15 -10  -5  147.80   72.40   1
  15 -10  -5  144.10   72.50   1
 -15  10   5  164.80   72.70   1
 -15  10  -5  111.60   76.60   1
  15 -10   5  267.90   85.90   1
 -15 -10   5   98.70   71.80   1
  15  10  -5  130.60   72.30   1
  15  10   6    9.50   17.00   1
 -15 -10  -6   -0.00   16.90   1
  15 -10  -6    6.20   16.90   1
 -15  10   6   -0.00   17.60   1
 -15 -10   6    9.10   16.90   1
  15  10  -6   14.50   17.20   1
  15  10   7   38.00   32.70   1
 -15 -10  -7   21.80   32.80   1
  15 -10  -7   74.50   33.30   1
 -15  10   7   17.00   32.30   1
 -15 -10   7   22.60   32.70   1
  15  10  -7   26.40   32.40   1
  15  10   8   11.80   27.70   1
 -15 -10  -8   21.70   29.20   1
  15 -10  -8    2.00   28.80   1
 -15  10   8    8.80   28.00   1
 -15 -10   8   71.30   29.10   1
  15  10  -8   84.90   29.60   1
  15  10   9   22.30   29.10   1
 -15 -10  -9   -0.00   29.30   1
  15 -10  -9   88.30   31.00   1
 -15  10   9   19.70   28.10   1
 -15 -10   9   13.20   28.70   1
  15  10  -9   18.30   29.40   1
  15  11   0    9.20   18.80   1
 -15 -11   0    9.00   19.40   1
  15 -11   0   16.20   21.90   1
 -15  11   0    3.00   22.60   1
  15  11   1   34.70   24.30   1
 -15 -11  -1   14.20   23.90   1
  15 -11  -1    6.50   29.50   1
 -15  11   1    9.70   25.60   1
 -15  11  -1   33.70   30.20   1
  15 -11   1   -0.00   29.20   1
 -15 -11   1   17.20   23.20   1
  15  11  -1    5.20   22.90   1
  15  11   2    4.10   24.20   1
 -15 -11  -2   33.00   24.90   1
  15 -11  -2   11.90   27.20   1
 -15  11   2   28.30   27.10   1
 -15  11  -2   88.40   31.90   1
  15 -11   2   13.70   30.90   1
 -15 -11   2   10.10   23.70   1
  15  11  -2   16.40   24.20   1
  15  11   3    0.00   18.20   1
 -15 -11  -3   -0.00   16.80   1
  15 -11  -3   22.00   19.70   1
 -15  11   3   10.90   20.10   1
 -15  11  -3   10.30   26.30   1
  15 -11   3   -0.00   26.30   1
 -15 -11   3    7.00   15.60   1
  15  11  -3    4.80   16.10   1
  15  11   4    6.80   17.50   1
 -15 -11  -4    9.10   16.10   1
  15 -11  -4   -0.00   16.40   1
 -15  11   4   18.50   17.60   1
 -15  11  -4    2.70   24.60   1
  15 -11   4   21.20   33.80   1
 -15 -11   4   -0.00   14.90   1
  15  11  -4    4.30   15.80   1
  15  11   5    6.20   17.10   1
 -15 -11  -5    7.30   16.90   1
  15 -11  -5    4.00   18.10   1
 -15  11   5   -0.00   18.00   1
  15 -11   5   43.40   28.80   1
 -15 -11   5   10.30   17.60   1
  15  11  -5   13.50   18.40   1
  15  11   6    5.60   19.20   1
 -15 -11  -6   -0.00   18.90   1
  15 -11  -6   15.80   19.80   1
 -15  11   6   11.10   19.50   1
 -15 -11   6   19.20   19.20   1
  15  11  -6    5.70   19.10   1
  15  11   7    2.30   11.90   1
 -15 -11  -7   10.50   12.20   1
  15 -11  -7   -0.00   11.70   1
 -15  11   7   -0.00   12.10   1
 -15 -11   7    0.00   12.60   1
  15  11  -7   -0.00   12.00   1
  15  11   8   10.90   20.10   1
 -15 -11  -8    0.00   20.30   1
  15 -11  -8   -0.00   20.70   1
 -15  11   8    5.00   19.70   1
 -15 -11   8  132.00   26.00   1
  15  11  -8   64.80   23.40   1
  15  11   9    2.80   18.10   1
 -15 -11  -9   23.70   19.20   1
  15 -11  -9    9.80   18.20   1
 -15  11   9   -0.00   18.90   1
 -15 -11   9    1.80   17.50   1
  15  11  -9   -0.00   18.00   1
  15  12   0   13.00   21.90   1
 -15 -12   0   14.50   21.60   1
  15 -12   0    2.70   26.30   1
 -15  12   0   13.10   28.90   1
  15  12   1   24.70   30.00   1
 -15 -12  -1   20.60   30.20   1
  15 -12  -1   12.00   32.80   1
 -15  12   1   11.90   31.60   1
 -15  12  -1   26.20   34.30   1
  15 -12   1   33.10   37.10   1
 -15 -12   1   47.30   30.10   1
  15  12  -1   20.80   29.80   1
 -15 -12  -2   50.70   23.40   1
  15 -12  -2   17.00   27.60   1
 -15  12   2    0.00   26.60   1
 -15  12  -2    9.40   28.80   1
  15 -12   2  208.30   38.20   1
 -15 -12   2   11.60   22.40   1
  15  12  -2   -0.00   22.20   1
  15  12   3   63.60   47.50   1
 -15 -12  -3   67.20   48.10   1
  15 -12  -3   53.60   49.30   1
 -15  12   3   45.90   49.10   1
 -15  12  -3   49.40   53.00   1
  15 -12   3   89.70   55.70   1
 -15 -12   3   64.40   47.10   1
  15  12  -3   54.10   47.30   1
  15  12   4    6.00   16.90   1
 -15 -12  -4   12.00   17.90   1
  15 -12  -4    9.00   17.70   1
 -15  12   4   -0.00   18.10   1
 -15  12  -4   17.30   24.60   1
  15 -12   4   13.40   33.30   1
 -15 -12   4   -0.00   16.20   1
  15  12  -4    6.10   16.00   1
  15  12   5   -0.00   19.10   1
 -15 -12  -5    2.90   18.70   1
  15 -12  -5   11.30   19.80   1
 -15  12   5    6.40   19.80   1
  15 -12   5   -0.00   23.90   1
 -15 -12   5   13.20   19.00   1
  15  12  -5   28.40   19.60   1
  15  12   6    6.20   21.40   1
 -15 -12  -6   17.40   22.30   1
  15 -12  -6   23.40   23.30   1
 -15  12   6   -0.00   21.90   1
 -15 -12   6   25.80   22.70   1
  15  12  -6   13.80   21.90   1
  15  12   7   29.10   30.50   1
 -15 -12  -7   14.60   30.10   1
  15 -12  -7   20.80   30.50   1
 -15  12   7   44.20   31.30   1
 -15 -12   7   30.00   31.00   1
  15  12  -7   29.50   31.50   1
  15  12   8    7.00   12.80   1
 -15 -12  -8    5.70   13.80   1
  15 -12  -8   -0.00   13.90   1
 -15  12   8   -0.00   12.90   1
 -15 -12   8    1.70   14.70   1
  15  12  -8   -0.00   16.40   1
  15  13   0   15.20   23.10   1
 -15 -13   0   14.40   23.30   1
  15 -13   0   15.50   31.00   1
  15  13   1    9.80   16.20   1
 -15 -13  -1    5.90   16.70   1
  15 -13  -1    9.20   20.20   1
 -15  13   1    7.10   20.30   1
 -15  13  -1   12.40   23.20   1
  15 -13   1    3.60   24.70   1
 -15 -13   1   -0.00   15.80   1
  15  13  -1   12.10   16.40   1
  15  13   2  112.70   36.90   1
 -15 -13  -2   42.10   36.30   1
  15 -13  -2  115.80   41.70   1
 -15  13   2   34.40   37.70   1
 -15  13  -2   24.60   39.90   1
  15 -13   2   64.10   42.20   1
 -15 -13   2   28.20   35.60   1
  15  13  -2   16.20   35.50   1
  15  13   3    6.60   18.70   1
 -15 -13  -3    5.00   18.80   1
  15 -13  -3   23.20   23.60   1
 -15  13   3   41.00   22.50   1
 -15  13  -3   10.10   28.90   1
  15 -13   3   61.90   36.40   1
 -15 -13   3    0.00   18.30   1
  15  13  -3    9.40   18.60   1
  15  13   4   14.30   29.80   1
 -15 -13  -4   16.90   29.30   1
  15 -13  -4   50.60   31.40   1
 -15  13   4   35.00   31.70   1
  15 -13   4   52.40   38.00   1
 -15 -13   4   13.70   28.70   1
  15  13  -4   29.50   29.10   1
  15  13   5   11.20   26.00   1
 -15 -13  -5   16.40   25.40   1
  15 -13  -5   -0.00   25.50   1
 -15  13   5   21.30   26.10   1
 -15 -13   5   24.10   25.00   1
  15  13  -5   25.70   25.10   1
  15  13   6   65.70   46.80   1
 -15 -13  -6   36.10   46.30   1
  15 -13  -6  108.70   47.80   1
 -15  13   6   60.10   47.10   1
 -15 -13   6   52.10   47.10   1
  15  13  -6   99.60   48.50   1
  15  13   7   16.30   30.50   1
 -15 -13  -7   51.20   31.40   1
  15 -13  -7   26.90   31.60   1
 -15  13   7    5.30   31.20   1
 -15 -13   7   64.30   32.60   1
  15  13  -7   51.40   32.90   1
  15  14   0    9.50   21.30   1
 -15 -14   0   17.50   21.40   1
  15 -14   0   19.30   32.70   1
 -15  14   0   -0.00   25.90   1
  15  14   1   22.70   22.90   1
 -15 -14  -1   13.30   22.80   1
  15 -14  -1    8.70   26.60   1
 -15  14   1   21.90   29.60   1
 -15  14  -1    8.40   27.70   1
  15 -14   1   24.40   31.00   1
 -15 -14   1    4.70   22.80   1
  15  14  -1   20.00   23.10   1
  15  14   2    1.80   13.20   1
 -15 -14  -2   16.00   14.70   1
  15 -14  -2    0.00   19.00   1
 -15  14   2   -0.00   16.80   1
 -15  14  -2   -0.00   26.90   1
  15 -14   2    0.00   28.80   1
 -15 -14   2   -0.00   13.90   1
  15  14  -2    7.30   13.80   1
  15  14   3   14.80   17.80   1
 -15 -14  -3   -0.00   17.60   1
  15 -14  -3   12.70   22.20   1
 -15  14   3    5.10   22.00   1
 -15  14  -3   -0.00   26.10   1
  15 -14   3   -0.00   30.50   1
 -15 -14   3    9.60   17.30   1
  15  14  -3    6.60   17.80   1
  15  14   4   -0.00   16.10   1
 -15 -14  -4   -0.00   17.30   1
  15 -14  -4    0.00   20.10   1
 -15  14   4   15.30   21.10   1
  15 -14   4    6.60   22.30   1
 -15 -14   4   14.00   16.70   1
  15  14  -4    8.80   16.10   1
  15  14   5   14.90   33.10   1
 -15 -14  -5   34.70   33.50   1
  15 -14  -5   49.40   33.70   1
 -15  14   5   26.50   34.00   1
 -15 -14   5   35.50   32.70   1
  15  14  -5   21.30   33.00   1
  15  14   6   -0.00   18.10   1
 -15 -14  -6   -0.00   17.20   1
  15 -14  -6   -0.00   18.40   1
 -15  14   6   18.10   18.30   1
 -15 -14   6   26.30   18.40   1
  15  14  -6    5.90   19.20   1
  15  15   0   -0.00   19.50   1
 -15 -15   0   13.50   19.40   1
  15 -15   0  130.80   32.90   1
 -15  15   0   25.40   25.80   1
  15  15   1    6.10   13.60   1
 -15 -15  -1    0.00   13.20   1
  15 -15  -1   13.90   22.50   1
 -15  15   1   10.90   23.20   1
 -15  15  -1   12.30   21.70   1
  15 -15   1   -0.00   25.50   1
 -15 -15   1    2.60   13.60   1
  15  15  -1    7.60   14.10   1
  15  15   2    6.20   14.10   1
 -15 -15  -2   10.90   14.20   1
  15 -15  -2    8.70   18.60   1
 -15  15   2   -0.00   18.30   1
 -15  15  -2   -0.00   23.80   1
  15 -15   2    2.90   30.80   1
 -15 -15   2    0.00   14.30   1
  15  15  -2    2.10   15.10   1
  15  15   3   -0.00   16.20   1
 -15 -15  -3    8.30   16.50   1
  15 -15  -3   13.00   22.50   1
 -15  15   3   -0.00   19.00   1
 -15  15  -3   -0.00   20.80   1
  15 -15   3   -0.00   28.50   1
 -15 -15   3   24.80   16.80   1
  15  15  -3    2.70   16.80   1
  15  15   4   13.30   35.40   1
 -15 -15  -4   74.30   35.80   1
  15 -15  -4   46.60   39.10   1
 -15  15   4   42.40   38.00   1
 -15 -15   4   28.80   35.50   1
  15  15  -4   40.60   35.90   1
  15  15   5    5.60   29.90   1
 -15 -15  -5   58.60   30.70   1
  15 -15  -5   31.10   31.30   1
 -15  15   5   32.20   32.40   1
 -15 -15   5   17.80   29.40   1
  15  15  -5   18.90   30.50   1
  15  16   0    3.20    9.50   1
 -15 -16   0   -0.00    9.50   1
  15 -16   0   -0.00   24.10   1
 -15  16   0   -0.00   17.80   1
  15  16   1   31.90   27.00   1
 -15 -16  -1   18.80   26.80   1
  15 -16  -1   51.90   35.90   1
 -15  16   1   16.70   29.80   1
 -15  16  -1   25.50   35.70   1
  15 -16   1   27.60   36.20   1
 -15 -16   1   18.50   26.90   1
  15  16  -1   10.40   27.00   1
  15  16   2    6.30   17.50   1
 -15 -16  -2   14.30   17.90   1
  15 -16  -2   14.10   22.60   1
 -15  16   2    7.10   25.10   1
 -15  16  -2    1.40   24.20   1
  15 -16   2   49.60   32.00   1
 -15 -16   2    3.30   17.80   1
  15  16  -2    8.00   18.10   1
  15  16   3   13.00   24.90   1
 -15 -16  -3   21.00   25.10   1
  15 -16  -3   54.60   29.20   1
 -15  16   3   14.10   26.60   1
  15 -16   3   19.30   30.40   1
 -15 -16   3   17.30   25.70   1
  15  16  -3   12.50   25.60   1
  15  16   4   29.40   27.30   1
 -15 -16  -4   11.60   26.90   1
  15 -16  -4   32.60   30.50   1
 -15  16   4   -0.00   29.70   1
 -15 -16   4   24.80   27.00   1
  15  16  -4   21.70   27.50   1
  15  17   0    0.40   11.60   1
 -15 -17   0    5.50   11.50   1
  15 -17   0   -0.00   23.90   1
 -15  17   0   -0.00   22.20   1
  15  17   1    9.50   14.20   1
 -15 -17  -1    7.70   13.80   1
  15 -17  -1    9.10   23.60   1
 -15  17   1    4.60   22.80   1
 -15  17  -1   -0.00   26.00   1
  15 -17   1    0.00   29.70   1
 -15 -17   1   -0.00   14.50   1
  15  17  -1   -0.00   14.60   1
  15  17   2   31.10   22.80   1
 -15 -17  -2    9.40   22.60   1
  15 -17  -2   24.20   28.00   1
 -15  17   2   -0.00   29.60   1
 -15  17  -2    1.90   27.60   1
  15 -17   2   15.10   33.40   1
 -15 -17   2    7.40   23.10   1
  15  17  -2   16.30   23.40   1
  16   0   0 8676.60 2362.30   1
 -16   0   0 9016.90 2359.10   1
  16   0   1  332.20  118.60   1
 -16   0  -1  299.40  118.30   1
  16   0  -1  260.60  118.10   1
 -16   0   1  233.00  117.90   1
  16   0   2 2425.50  689.60   1
 -16   0  -2 2345.10  690.00   1
  16   0  -2 2816.00  693.70   1
 -16   0   2 2271.00  690.10   1
  16   0   3   96.60   62.80   1
 -16   0  -3   90.30   62.70   1
  16   0  -3  103.40   62.20   1
 -16   0   3   92.10   62.50   1
  16   0   4  493.20  135.00   1
 -16   0  -4  191.40  131.90   1
  16   0  -4  591.00  134.70   1
 -16   0   4  471.80  133.60   1
  16   0   5   60.20   38.40   1
 -16   0  -5   66.00   37.50   1
  16   0  -5   44.10   36.20   1
 -16   0   5   14.60   35.10   1
  16   0   6  140.80   98.40   1
 -16   0  -6  190.20   99.00   1
  16   0  -6  238.30   98.20   1
 -16   0   6  375.40   99.50   1
  16   0   7   -0.00   32.50   1
 -16   0  -7    6.50   30.60   1
  16   0  -7   16.50   26.30   1
 -16   0   7   29.50   26.50   1
  16   0   8  219.10  116.20   1
 -16   0  -8  218.60  115.90   1
  16   0  -8  301.10  113.50   1
 -16   0   8  261.50  113.10   1
  16   0   9  127.20   48.60   1
 -16   0  -9   65.00   45.80   1
  16   0  -9   51.80   39.90   1
 -16   0   9   31.90   39.70   1
  16   0  10   39.20   43.50   1
 -16   0 -10   25.60   40.60   1
  16   0 -10   32.60   36.40   1
 -16   0  10   43.60   36.50   1
  16   0  11   -0.00   24.00   1
  16   0 -11    6.50   16.70   1
 -16   0  11    7.30   16.00   1
  16   1   0   10.50   19.10   1
 -16  -1   0    8.70   19.20   1
  16  -1   0    6.50   19.70   1
 -16   1   0    9.00   19.30   1
  16   1   1  500.00  140.10   1
 -16  -1  -1  453.20  139.70   1
  16  -1  -1  426.70  139.80   1
 -16   1   1  466.90  140.30   1
 -16   1  -1  253.80  138.70   1
  16  -1   1  308.20  138.90   1
 -16  -1   1  314.70  138.90   1
  16   1  -1  352.60  139.10   1
  16   1   2   59.70   46.50   1
 -16  -1  -2   77.80   47.00   1
  16  -1  -2   64.70   46.40   1
 -16   1   2   62.20   46.20   1
 -16   1  -2   46.70   47.10   1
  16  -1   2   74.20   47.20   1
 -16  -1   2   33.30   46.80   1
  16   1  -2   46.40   47.30   1
  16   1   3  102.70   62.20   1
 -16  -1  -3  124.90   62.40   1
  16  -1  -3  140.80   62.90   1
 -16   1   3  141.00   62.50   1
 -16   1  -3  100.90   62.90   1
  16  -1   3  144.50   63.80   1
 -16  -1   3   35.00   61.50   1
  16   1  -3  138.10   63.50   1
  16   1   4   -0.00   19.10   1
 -16  -1  -4   12.60   19.90   1
  16  -1  -4    3.60   17.90   1
 -16   1   4    0.20   15.70   1
 -16   1  -4   11.50   19.50   1
  16  -1   4    3.90   21.80   1
 -16  -1   4   11.80   17.10   1
  16   1  -4    2.50   15.30   1
  16   1   5   -0.00   27.90   1
 -16  -1  -5   11.60   28.60   1
  16  -1  -5   26.40   26.00   1
 -16   1   5   22.10   25.90   1
 -16   1  -5   60.50   27.30   1
  16  -1   5    3.80   27.40   1
 -16  -1   5    5.20   25.70   1
  16   1  -5    9.90   26.50   1
  16   1   6   -0.00   19.30   1
 -16  -1  -6   15.30   19.30   1
  16  -1  -6    6.80   18.70   1
 -16   1   6    6.90   18.00   1
 -16   1  -6   -0.00   24.90   1
  16  -1   6    7.20   22.70   1
 -16  -1   6   12.30   18.70   1
  16   1  -6    5.20   17.50   1
  16   1   7   43.10   41.10   1
 -16  -1  -7   18.60   40.90   1
  16  -1  -7   48.90   38.70   1
 -16   1   7   71.00   39.10   1
 -16   1  -7   20.10   40.90   1
  16  -1   7  117.50   44.20   1
 -16  -1   7   25.20   37.80   1
  16   1  -7   44.30   38.10   1
  16   1   8    5.30   21.50   1
 -16  -1  -8   -0.00   18.70   1
  16  -1  -8    0.80   14.40   1
 -16   1   8    6.70   14.10   1
 -16   1  -8   21.00   23.40   1
  16  -1   8   13.80   25.70   1
 -16  -1   8    0.00   14.30   1
  16   1  -8    7.60   14.20   1
  16   1   9   24.70   35.10   1
 -16  -1  -9   21.70   33.70   1
  16  -1  -9   17.40   28.70   1
 -16   1   9   32.70   28.80   1
 -16   1  -9   -0.00   36.40   1
  16  -1   9   15.90   36.80   1
 -16  -1   9   35.20   28.90   1
  16   1  -9   15.90   28.50   1
  16   1  10   -0.00   30.20   1
 -16  -1 -10   12.10   28.60   1
  16  -1 -10    0.00   18.80   1
 -16   1  10   20.20   19.10   1
 -16   1 -10    3.50   24.30   1
  16  -1  10    6.60   27.70   1
 -16  -1  10    9.50   18.60   1
  16   1 -10   11.90   19.10   1
  16   1  11    4.60   26.70   1
 -16  -1 -11   -0.00   21.10   1
  16  -1 -11    8.10   15.70   1
 -16   1  11    7.00   15.60   1
 -16  -1  11    4.50   16.60   1
  16   1 -11    5.60   16.30   1
  16   2   0  297.40  120.80   1
 -16  -2   0  253.70  120.50   1
  16  -2   0  311.60  121.00   1
 -16   2   0  282.10  120.80   1
  16   2   1   26.00   32.70   1
 -16  -2  -1   47.60   32.90   1
  16  -2  -1   38.20   32.60   1
 -16   2   1   39.90   32.60   1
 -16   2  -1   25.90   32.60   1
  16  -2   1   34.40   32.70   1
 -16  -2   1    9.70   32.30   1
  16   2  -1    5.00   33.00   1
  16   2   2  167.40   79.60   1
 -16  -2  -2  140.80   79.50   1
  16  -2  -2  179.80   79.80   1
 -16   2   2  204.70   79.80   1
 -16   2  -2  158.50   81.10   1
  16  -2   2  176.00   81.10   1
 -16  -2   2  105.10   79.80   1
  16   2  -2  116.10   79.60   1
  16   2   3   15.90   22.80   1
 -16  -2  -3   20.70   23.80   1
  16  -2  -3    4.10   22.90   1
 -16   2   3    9.00   22.30   1
 -16   2  -3   12.30   24.60   1
  16  -2   3   25.10   25.40   1
 -16  -2   3    5.60   23.60   1
  16   2  -3   19.80   23.40   1
  16   2   4   22.90   33.60   1
 -16  -2  -4   53.60   33.90   1
  16  -2  -4   37.10   33.70   1
 -16   2   4   20.50   32.80   1
 -16   2  -4   46.40   34.20   1
  16  -2   4   19.60   34.70   1
 -16  -2   4    8.40   31.70   1
  16   2  -4   47.80   32.60   1
  16   2   5   75.60   52.20   1
 -16  -2  -5   38.30   51.10   1
  16  -2  -5  122.70   52.00   1
 -16   2   5  121.80   52.20   1
 -16   2  -5   71.40   51.60   1
  16  -2   5  159.70   53.10   1
 -16  -2   5   46.10   50.30   1
  16   2  -5   44.90   50.20   1
  16   2   6   19.00   25.00   1
 -16  -2  -6   22.30   22.60   1
  16  -2  -6    1.70   19.90   1
 -16   2   6   10.30   20.10   1
 -16   2  -6   -0.00   26.90   1
  16  -2   6  127.20   31.80   1
 -16  -2   6    9.60   19.80   1
  16   2  -6    4.20   19.90   1
  16   2   7  194.80   35.10   1
 -16  -2  -7   37.20   31.10   1
  16  -2  -7   18.50   29.80   1
 -16   2   7   35.00   29.80   1
 -16   2  -7   79.40   36.60   1
  16  -2   7   23.10   35.00   1
 -16  -2   7   14.00   28.70   1
  16   2  -7    9.70   28.70   1
  16   2   8   70.70   48.10   1
 -16  -2  -8   39.50   46.60   1
  16  -2  -8   50.40   43.70   1
 -16   2   8   20.10   43.60   1
 -16   2  -8   48.80   47.80   1
  16  -2   8   38.30   47.80   1
 -16  -2   8   95.30   43.80   1
  16   2  -8   73.10   43.60   1
  16   2   9   33.60   30.10   1
 -16  -2  -9   17.30   27.80   1
  16  -2  -9   12.10   21.60   1
 -16   2   9    7.20   21.60   1
 -16   2  -9   -0.00   27.80   1
  16  -2   9    6.20   35.10   1
 -16  -2   9   15.30   21.80   1
  16   2  -9   15.90   21.60   1
 -16  -2 -10   16.50   26.10   1
  16  -2 -10    6.80   13.70   1
 -16   2  10    5.50   13.10   1
  16  -2  10    6.40   23.40   1
 -16  -2  10   -0.00   13.20   1
  16   2 -10    2.20   13.60   1
  16   2  11   18.30   30.10   1
 -16  -2 -11    0.00   23.00   1
  16  -2 -11   12.80   18.60   1
 -16   2  11    5.40   18.40   1
 -16  -2  11   10.10   19.40   1
  16   2 -11    9.50   19.50   1
  16   3   0  334.10  102.00   1
 -16  -3   0  200.00  100.80   1
  16  -3   0  226.60  101.10   1
 -16   3   0  182.40  100.90   1
  16   3   1  284.90  137.40   1
 -16  -3  -1  334.20  137.90   1
  16  -3  -1  388.80  138.20   1
 -16   3   1  321.20  137.70   1
 -16   3  -1  309.40  138.20   1
  16  -3   1  380.80  138.50   1
 -16  -3   1  370.30  138.90   1
  16   3  -1  477.20  140.10   1
  16   3   2   92.00   55.90   1
 -16  -3  -2   67.60   55.60   1
  16  -3  -2   69.50   55.90   1
 -16   3   2   83.10   56.20   1
 -16   3  -2   35.70   56.80   1
  16  -3   2   47.70   57.70   1
 -16  -3   2  346.80   60.10   1
  16   3  -2  204.80   58.20   1
  16   3   3   69.40   49.80   1
 -16  -3  -3   43.70   49.90   1
  16  -3  -3   75.50   50.00   1
 -16   3   3   60.40   49.60   1
 -16   3  -3  120.70   52.50   1
  16  -3   3   91.90   52.30   1
 -16  -3   3   57.00   49.80   1
  16   3  -3   64.30   49.90   1
  16   3   4   84.00   37.60   1
 -16  -3  -4   33.10   37.00   1
  16  -3  -4   46.80   37.30   1
 -16   3   4   39.30   36.80   1
 -16   3  -4   15.70   37.00   1
  16  -3   4   22.10   38.00   1
 -16  -3   4   34.20   36.40   1
  16   3  -4   27.70   36.40   1
  16   3   5   29.20   30.40   1
 -16  -3  -5   15.20   30.70   1
  16  -3  -5   23.30   29.30   1
 -16   3   5    7.00   29.00   1
 -16   3  -5   23.40   32.60   1
  16  -3   5   27.10   32.40   1
 -16  -3   5   38.00   28.80   1
  16   3  -5   18.30   28.60   1
  16   3   6   -0.00   19.60   1
 -16  -3  -6   23.80   20.40   1
  16  -3  -6    1.70   15.80   1
 -16   3   6   -0.00   16.50   1
 -16   3  -6    0.10   18.60   1
  16  -3   6   35.70   23.90   1
 -16  -3   6    3.60   14.10   1
  16   3  -6    4.10   14.40   1
  16   3   7   20.40   20.30   1
 -16  -3  -7   52.70   20.40   1
  16  -3  -7    8.20   18.60   1
 -16   3   7    1.60   16.90   1
 -16   3  -7    9.30   25.80   1
  16  -3   7   31.90   26.60   1
 -16  -3   7   -0.00   16.90   1
  16   3  -7   -0.00   16.60   1
  16   3   8   38.20   34.60   1
 -16  -3  -8   12.30   35.50   1
  16  -3  -8   17.30   32.10   1
 -16   3   8   25.00   32.50   1
 -16   3  -8   34.30   40.20   1
  16  -3   8   -0.00   40.50   1
 -16  -3   8   36.80   31.70   1
  16   3  -8   32.80   31.60   1
  16   3   9    4.70   23.90   1
 -16  -3  -9    2.00   21.90   1
  16  -3  -9    5.40   18.20   1
 -16   3   9   13.10   18.50   1
 -16   3  -9   16.60   26.10   1
  16  -3   9    3.20   31.10   1
 -16  -3   9   12.80   17.90   1
  16   3  -9    4.50   18.00   1
  16   3  10   12.20   28.90   1
 -16  -3 -10   26.30   28.40   1
  16  -3 -10   17.60   22.70   1
 -16   3  10  100.50   24.40   1
 -16  -3  10   -0.00   22.80   1
  16   3 -10    0.00   22.90   1
  16   3  11    9.70   36.30   1
 -16  -3 -11   17.50   34.20   1
  16  -3 -11   24.30   28.60   1
 -16   3  11   19.60   28.30   1
 -16  -3  11   24.80   28.90   1
  16   3 -11   27.90   29.30   1
  16   4   0  337.70  117.00   1
 -16  -4   0  315.40  116.50   1
  16  -4   0  218.60  115.90   1
 -16   4   0  253.80  116.40   1
  16   4   1   36.90   35.00   1
 -16  -4  -1   21.70   34.50   1
  16  -4  -1   33.90   35.10   1
 -16   4   1   47.40   35.50   1
 -16   4  -1   61.10   37.60   1
  16  -4   1   66.40   37.50   1
 -16  -4   1   19.30   35.70   1
  16   4  -1   23.40   35.90   1
  16   4   2   16.20   31.60   1
 -16  -4  -2   10.20   31.20   1
  16  -4  -2   14.00   31.40   1
 -16   4   2   11.50   31.60   1
 -16   4  -2   49.90   34.00   1
  16  -4   2   59.10   34.80   1
 -16  -4   2   75.10   33.00   1
  16   4  -2   60.10   32.60   1
  16   4   3   13.30   24.40   1
 -16  -4  -3   21.50   24.20   1
  16  -4  -3    3.20   23.90   1
 -16   4   3   24.00   24.20   1
 -16   4  -3    2.70   25.90   1
  16  -4   3    8.00   29.20   1
 -16  -4   3   25.80   25.10   1
  16   4  -3   22.30   25.10   1
  16   4   4   93.10   47.60   1
 -16  -4  -4   44.20   47.30   1
  16  -4  -4   46.50   47.20   1
 -16   4   4   31.30   46.80   1
 -16   4  -4   71.40   48.60   1
  16  -4   4  105.00   49.00   1
 -16  -4   4   80.60   47.50   1
  16   4  -4   62.60   47.00   1
  16   4   5    6.00   22.00   1
 -16  -4  -5   -0.00   23.00   1
  16  -4  -5   18.00   23.40   1
 -16   4   5   24.20   22.80   1
 -16   4  -5   23.80   27.90   1
  16  -4   5   19.50   28.30   1
 -16  -4   5    6.90   20.00   1
  16   4  -5    9.40   20.00   1
  16   4   6   49.70   33.50   1
 -16  -4  -6   31.80   32.60   1
  16  -4  -6  192.80   35.40   1
 -16   4   6   40.50   32.50   1
 -16   4  -6  120.50   38.50   1
  16  -4   6   76.50   38.40   1
 -16  -4   6   11.40   30.10   1
  16   4  -6    8.40   30.10   1
  16   4   7   18.10   21.50   1
 -16  -4  -7   -0.00   18.90   1
  16  -4  -7   15.70   16.40   1
 -16   4   7   -0.00   17.40   1
 -16   4  -7    5.00   24.50   1
  16  -4   7   12.40   25.50   1
 -16  -4   7   -0.00   15.80   1
  16   4  -7    7.90   15.90   1
  16   4   8   27.70   25.60   1
 -16  -4  -8   20.50   26.60   1
  16  -4  -8   26.90   24.00   1
 -16   4   8   14.00   24.10   1
 -16   4  -8   10.50   29.70   1
  16  -4   8   24.30   34.90   1
 -16  -4   8    7.50   23.30   1
  16   4  -8    8.40   23.10   1
  16   4   9   12.80   22.60   1
 -16  -4  -9    9.50   19.80   1
  16  -4  -9    2.40   14.20   1
 -16   4   9   16.30   15.30   1
  16  -4   9   -0.00   23.50   1
 -16  -4   9   -0.00   13.50   1
  16   4  -9    0.20   13.90   1
  16   4  10    0.90   25.40   1
 -16  -4 -10   -0.00   23.90   1
  16  -4 -10    8.40   18.30   1
 -16   4  10    0.80   18.10   1
 -16  -4  10   11.80   18.60   1
  16   4 -10  116.70   22.70   1
  16   5   0   52.90   48.70   1
 -16  -5   0   29.60   48.30   1
  16  -5   0  105.00   49.80   1
 -16   5   0  118.70   49.80   1
  16   5   1 2800.50  727.20   1
 -16  -5  -1 2421.50  724.80   1
  16  -5  -1 2180.10  720.70   1
 -16   5   1 2233.50  721.50   1
 -16   5  -1 2339.50  724.50   1
  16  -5   1 2769.70  729.10   1
 -16  -5   1 3432.90  730.10   1
  16   5  -1 3671.50  731.70   1
  16   5   2  479.80  198.40   1
 -16  -5  -2  591.00  199.40   1
  16  -5  -2  677.20  199.60   1
 -16   5   2  679.80  199.70   1
 -16   5  -2  820.80  202.70   1
  16  -5   2  826.10  203.00   1
 -16  -5   2  469.50  198.20   1
  16   5  -2  468.60  198.30   1
  16   5   3 1253.70  335.10   1
 -16  -5  -3 1035.30  332.60   1
  16  -5  -3 1213.30  335.60   1
 -16   5   3 1134.90  334.80   1
 -16   5  -3  795.20  332.00   1
  16  -5   3  978.70  333.00   1
 -16  -5   3 1223.10  333.80   1
  16   5  -3 1343.60  334.60   1
  16   5   4   20.80   23.30   1
 -16  -5  -4    4.60   23.80   1
  16  -5  -4   21.20   23.40   1
 -16   5   4    2.40   22.80   1
 -16   5  -4   26.90   28.50   1
  16  -5   4   20.40   27.90   1
 -16  -5   4   16.30   23.00   1
  16   5  -4   13.80   22.90   1
  16   5   5   81.10   42.90   1
 -16  -5  -5   37.00   42.50   1
  16  -5  -5  110.30   43.60   1
 -16   5   5   13.00   41.90   1
 -16   5  -5   36.80   43.90   1
  16  -5   5   44.10   47.70   1
 -16  -5   5   59.70   41.90   1
  16   5  -5   62.70   42.10   1
  16   5   6   53.40   35.10   1
 -16  -5  -6   12.30   34.20   1
  16  -5  -6   17.90   33.30   1
 -16   5   6   18.20   34.10   1
 -16   5  -6   -0.00   36.40   1
  16  -5   6   49.00   39.10   1
 -16  -5   6   41.50   32.80   1
  16   5  -6   40.10   32.80   1
  16   5   7  109.80   68.60   1
 -16  -5  -7  165.10   69.80   1
  16  -5  -7  183.10   68.40   1
 -16   5   7   76.80   67.60   1
 -16   5  -7  147.10   74.50   1
  16  -5   7  285.10   78.30   1
 -16  -5   7  102.90   67.00   1
  16   5  -7   95.60   67.10   1
  16   5   8   22.20   29.80   1
 -16  -5  -8   15.60   29.40   1
  16  -5  -8   44.70   29.00   1
 -16   5   8   22.10   28.20   1
 -16   5  -8   39.80   34.40   1
  16  -5   8   37.10   40.10   1
 -16  -5   8   14.70   27.80   1
  16   5  -8   15.80   27.90   1
  16   5   9  139.80   70.80   1
 -16  -5  -9  118.40   71.70   1
  16  -5  -9  204.00   70.50   1
 -16   5   9   82.50   69.20   1
 -16  -5   9  114.80   69.50   1
  16   5  -9  127.10   69.70   1
  16   5  10   42.40   27.90   1
 -16  -5 -10    3.50   24.20   1
  16  -5 -10   14.70   19.70   1
 -16   5  10    3.50   20.20   1
 -16  -5  10   14.50   20.30   1
  16   5 -10    4.70   20.20   1
  16   6   0  442.40  100.20   1
 -16  -6   0  128.30   97.00   1
  16  -6   0  269.20   99.00   1
 -16   6   0  465.90  101.90   1
  16   6   1   22.30   27.90   1
 -16  -6  -1   38.10   27.40   1
  16  -6  -1   23.70   26.90   1
 -16   6   1   30.70   27.90   1
 -16   6  -1    5.40   28.40   1
  16  -6   1    5.10   28.80   1
 -16  -6   1    9.80   26.40   1
  16   6  -1   11.70   26.40   1
  16   6   2   66.10   49.60   1
 -16  -6  -2   84.30   49.60   1
  16  -6  -2   82.90   50.30   1
 -16   6   2   54.40   49.80   1
 -16   6  -2   37.40   50.60   1
  16  -6   2   61.40   52.80   1
 -16  -6   2   56.60   49.90   1
  16   6  -2   92.50   50.60   1
  16   6   3   15.20   23.90   1
 -16  -6  -3   22.50   24.20   1
  16  -6  -3   17.40   24.60   1
 -16   6   3   22.50   24.50   1
 -16   6  -3    2.30   26.50   1
  16  -6   3    1.50   27.20   1
 -16  -6   3   14.90   24.30   1
  16   6  -3   10.00   23.70   1
  16   6   4   72.20   44.70   1
 -16  -6  -4   42.00   44.10   1
  16  -6  -4   51.00   44.50   1
 -16   6   4   47.90   44.30   1
 -16   6  -4   61.40   49.50   1
  16  -6   4   60.80   49.40   1
 -16  -6   4   42.90   44.10   1
  16   6  -4   69.60   44.30   1
  16   6   5   26.80   32.70   1
 -16  -6  -5   76.70   33.50   1
  16  -6  -5   17.20   32.70   1
 -16   6   5   17.90   32.50   1
 -16   6  -5   11.90   36.70   1
  16  -6   5   50.20   41.20   1
 -16  -6   5   22.30   32.00   1
  16   6  -5   43.00   32.50   1
  16   6   6    4.90   16.00   1
 -16  -6  -6    3.50   16.70   1
  16  -6  -6   -0.00   17.50   1
 -16   6   6    6.20   15.60   1
 -16   6  -6   -0.00   22.90   1
  16  -6   6   -0.00   24.20   1
 -16  -6   6   -0.00   12.90   1
  16   6  -6    8.20   13.20   1
  16   6   7   23.30   28.80   1
 -16  -6  -7    7.10   27.70   1
  16  -6  -7   51.10   29.00   1
 -16   6   7   17.70   26.50   1
 -16   6  -7    6.20   33.70   1
  16  -6   7   57.40   38.60   1
 -16  -6   7   16.20   26.10   1
  16   6  -7   15.70   26.00   1
  16   6   8   60.30   38.90   1
 -16  -6  -8   41.30   37.20   1
  16  -6  -8   23.20   35.70   1
 -16   6   8   63.80   37.00   1
  16  -6   8   55.90   42.90   1
 -16  -6   8   27.80   35.70   1
  16   6  -8   31.60   36.00   1
  16   6   9    4.90   22.30   1
 -16  -6  -9   10.80   23.70   1
  16  -6  -9   15.10   20.60   1
 -16   6   9   24.60   21.30   1
 -16  -6   9   -0.00   20.40   1
  16   6  -9    9.60   20.70   1
  16   6  10   38.20   30.00   1
 -16  -6 -10    0.00   27.00   1
  16  -6 -10    7.20   24.40   1
 -16   6  10   19.00   25.00   1
 -16  -6  10   30.20   25.30   1
  16   6 -10   18.10   24.80   1
  16   7   0    6.10   25.90   1
 -16  -7   0   35.10   26.70   1
  16  -7   0    4.60   29.50   1
 -16   7   0   18.20   28.20   1
  16   7   1  139.70   73.30   1
 -16  -7  -1  148.70   73.40   1
  16  -7  -1  151.60   73.60   1
 -16   7   1  142.50   73.70   1
 -16   7  -1  153.00   74.60   1
  16  -7   1  287.70   77.70   1
 -16  -7   1   98.60   72.50   1
  16   7  -1   95.20   72.60   1
  16   7   2   10.20   26.80   1
 -16  -7  -2   14.80   26.10   1
  16  -7  -2   29.30   27.50   1
 -16   7   2   10.80   27.20   1
 -16   7  -2    9.80   27.70   1
  16  -7   2   24.00   29.40   1
 -16  -7   2   11.60   26.40   1
  16   7  -2   41.80   26.80   1
  16   7   3    9.40   18.90   1
 -16  -7  -3    4.90   18.90   1
  16  -7  -3   -0.00   19.30   1
 -16   7   3    8.90   19.10   1
 -16   7  -3   22.50   24.90   1
  16  -7   3   26.90   23.50   1
 -16  -7   3    4.70   18.40   1
  16   7  -3   12.20   18.50   1
  16   7   4   17.70   20.70   1
 -16  -7  -4    3.40   20.30   1
  16  -7  -4    5.90   21.10   1
 -16   7   4   16.80   21.30   1
 -16   7  -4    7.60   24.10   1
  16  -7   4    0.00   28.90   1
 -16  -7   4   12.40   19.80   1
  16   7  -4    9.10   20.10   1
  16   7   5   23.80   30.10   1
 -16  -7  -5    8.90   30.00   1
  16  -7  -5   13.70   30.10   1
 -16   7   5   21.70   30.10   1
 -16   7  -5   10.00   33.80   1
  16  -7   5   20.80   36.50   1
 -16  -7   5   32.80   30.00   1
  16   7  -5   76.90   30.50   1
  16   7   6   27.30   26.40   1
 -16  -7  -6   30.10   26.80   1
  16  -7  -6   13.40   27.40   1
 -16   7   6   12.10   26.00   1
 -16   7  -6   14.80   35.90   1
  16  -7   6   30.50   38.00   1
 -16  -7   6   12.80   25.40   1
  16   7  -6   17.00   25.70   1
  16   7   7  110.90   52.40   1
 -16  -7  -7   52.80   51.90   1
  16  -7  -7   65.50   51.30   1
 -16   7   7   27.30   51.20   1
 -16   7  -7   61.30   55.00   1
  16  -7   7   85.70   59.00   1
 -16  -7   7   95.20   50.80   1
  16   7  -7  102.30   51.20   1
  16   7   8    9.20   24.00   1
 -16  -7  -8   10.90   25.60   1
  16  -7  -8    9.20   23.10   1
 -16   7   8   25.90   23.80   1
  16  -7   8   -0.00   25.90   1
 -16  -7   8   15.80   21.70   1
  16   7  -8    9.40   21.70   1
  16   7   9   48.10   26.60   1
 -16  -7  -9   10.80   24.90   1
  16  -7  -9   17.10   24.50   1
 -16   7   9    7.10   24.30   1
 -16  -7   9    9.90   24.50   1
  16   7  -9   18.30   24.60   1
  16   7  10   12.00   28.00   1
 -16  -7 -10   29.70   31.30   1
  16  -7 -10   29.70   26.20   1
 -16   7  10   11.70   26.20   1
 -16  -7  10   11.90   25.80   1
  16   7 -10   19.40   26.30   1
  16   8   0  149.10   61.70   1
 -16  -8   0   54.00   61.20   1
  16  -8   0  102.70   62.90   1
 -16   8   0  155.10   63.60   1
  16   8   1  484.00   88.90   1
 -16  -8  -1  103.40   84.30   1
  16  -8  -1  130.20   85.50   1
 -16   8   1  111.00   85.50   1
 -16   8  -1  172.70   85.60   1
  16  -8   1  282.80   88.30   1
 -16  -8   1  223.10   85.20   1
  16   8  -1  358.40   86.60   1
  16   8   2   61.50   52.10   1
 -16  -8  -2   49.50   51.60   1
  16  -8  -2  120.60   52.30   1
 -16   8   2   67.30   51.80   1
 -16   8  -2   45.00   52.60   1
  16  -8   2   79.90   53.50   1
 -16  -8   2   68.50   51.20   1
  16   8  -2   84.00   51.30   1
  16   8   3   -0.00   25.20   1
 -16  -8  -3   10.90   25.00   1
  16  -8  -3   32.80   26.20   1
 -16   8   3    8.70   26.00   1
 -16   8  -3   14.30   31.40   1
  16  -8   3   27.30   33.80   1
 -16  -8   3   10.80   25.10   1
  16   8  -3   65.30   25.60   1
  16   8   4  130.80   71.90   1
 -16  -8  -4  127.00   72.00   1
  16  -8  -4  137.40   72.40   1
 -16   8   4   99.60   71.90   1
 -16   8  -4  175.10   75.80   1
  16  -8   4  241.20   78.10   1
 -16  -8   4  124.50   71.60   1
  16   8  -4  112.10   71.50   1
  16   8   5   -0.00   14.90   1
 -16  -8  -5    3.50   15.20   1
  16  -8  -5    5.80   14.60   1
 -16   8   5    7.30   15.10   1
 -16   8  -5    5.20   23.70   1
  16  -8   5    5.80   28.20   1
 -16  -8   5    4.80   14.10   1
  16   8  -5    5.00   14.20   1
  16   8   6  121.20   37.40   1
 -16  -8  -6   10.10   36.20   1
  16  -8  -6   56.30   36.60   1
 -16   8   6   73.00   36.50   1
 -16   8  -6   30.00   41.50   1
  16  -8   6  102.00   47.30   1
 -16  -8   6   25.10   35.50   1
  16   8  -6   19.10   35.80   1
  16   8   7   91.40   45.20   1
 -16  -8  -7   41.80   45.40   1
  16  -8  -7   53.20   45.60   1
 -16   8   7   16.00   44.50   1
  16  -8   7   72.90   50.70   1
 -16  -8   7   73.60   44.50   1
  16   8  -7   81.90   44.70   1
  16   8   8   -0.00   24.80   1
 -16  -8  -8   29.20   25.20   1
  16  -8  -8    9.90   24.90   1
 -16   8   8    8.30   24.20   1
 -16  -8   8   21.00   23.60   1
  16   8  -8   15.70   23.20   1
  16   8   9   13.30   20.80   1
 -16  -8  -9   11.80   17.50   1
  16  -8  -9    5.20   16.50   1
 -16   8   9   -0.00   17.80   1
 -16  -8   9    7.20   16.90   1
  16   8  -9    1.50   17.00   1
  16   9   0   12.60   21.80   1
 -16  -9   0   11.80   20.50   1
  16  -9   0    7.30   27.00   1
 -16   9   0    4.40   25.50   1
  16   9   1   27.60   33.20   1
 -16  -9  -1   13.30   33.00   1
  16  -9  -1   29.40   35.40   1
 -16   9   1   34.00   34.60   1
 -16   9  -1   19.70   34.30   1
  16  -9   1   65.70   35.70   1
 -16  -9   1   19.70   32.70   1
  16   9  -1   50.20   32.80   1
  16   9   2   29.30   26.00   1
 -16  -9  -2   13.80   25.70   1
  16  -9  -2   14.50   27.10   1
 -16   9   2   20.80   26.90   1
 -16   9  -2   29.90   30.30   1
  16  -9   2   12.80   28.30   1
 -16  -9   2    9.70   24.70   1
  16   9  -2   15.80   24.50   1
  16   9   3   38.10   32.00   1
 -16  -9  -3   19.50   31.10   1
  16  -9  -3   50.70   32.40   1
 -16   9   3   18.70   31.60   1
 -16   9  -3    0.00   34.30   1
  16  -9   3   53.80   40.10   1
 -16  -9   3   14.10   30.80   1
  16   9  -3   49.70   31.30   1
  16   9   4   10.10   16.90   1
 -16  -9  -4   -0.00   16.90   1
  16  -9  -4   10.90   17.80   1
 -16   9   4   11.00   18.00   1
 -16   9  -4   15.60   25.60   1
  16  -9   4   31.20   29.20   1
 -16  -9   4    6.00   16.60   1
  16   9  -4    2.50   16.90   1
  16   9   5   46.50   25.40   1
 -16  -9  -5    4.10   24.90   1
  16  -9  -5   16.40   25.70   1
 -16   9   5   27.80   26.00   1
 -16   9  -5   81.00   36.60   1
  16  -9   5  133.90   38.70   1
 -16  -9   5    8.00   24.40   1
  16   9  -5    9.20   24.80   1
  16   9   6   -0.00   12.00   1
 -16  -9  -6    4.80   11.70   1
  16  -9  -6   -0.00   11.70   1
 -16   9   6    4.60   11.90   1
 -16   9  -6    1.40   23.80   1
  16  -9   6   14.60   29.20   1
 -16  -9   6    2.10   11.20   1
  16   9  -6   -0.00   12.30   1
  16   9   7  124.90   27.30   1
 -16  -9  -7   -0.00   25.00   1
  16  -9  -7   17.60   25.40   1
 -16   9   7   17.80   24.50   1
  16  -9   7   11.60   30.40   1
 -16  -9   7   14.40   24.20   1
  16   9  -7    8.40   24.10   1
  16   9   8    3.30   19.90   1
 -16  -9  -8    1.70   20.50   1
  16  -9  -8    4.30   18.60   1
 -16   9   8   -0.00   19.30   1
 -16  -9   8   13.30   18.10   1
  16   9  -8   12.20   17.50   1
  16   9   9    2.40   29.20   1
 -16  -9  -9   17.20   29.90   1
  16  -9  -9   30.40   28.60   1
 -16   9   9   86.40   30.60   1
 -16  -9   9   16.10   27.40   1
  16   9  -9   12.30   27.50   1
  16  10   0 1541.30  356.30   1
 -16 -10   0 1402.30  355.10   1
  16 -10   0 1591.10  359.10   1
 -16  10   0  802.80  351.40   1
  16  10   1  210.50   59.50   1
 -16 -10  -1   51.80   57.90   1
  16 -10  -1   51.30   59.20   1
 -16  10   1  102.50   60.40   1
 -16  10  -1   90.50   59.90   1
  16 -10   1   71.60   59.30   1
 -16 -10   1  178.90   59.10   1
  16  10  -1  100.50   58.00   1
  16  10   2  674.30  161.90   1
 -16 -10  -2  473.30  159.90   1
  16 -10  -2  404.70  160.30   1
 -16  10   2  378.10  160.20   1
 -16  10  -2  440.70  162.80   1
  16 -10   2  580.40  164.20   1
 -16 -10   2  308.70  158.00   1
  16  10  -2  462.70  159.10   1
  16  10   3   45.90   39.30   1
 -16 -10  -3   72.90   39.60   1
  16 -10  -3   48.00   39.40   1
 -16  10   3   27.20   39.20   1
 -16  10  -3   39.50   43.20   1
  16 -10   3  117.60   46.80   1
 -16 -10   3   30.40   38.10   1
  16  10  -3   34.30   38.00   1
  16  10   4  128.60   77.90   1
 -16 -10  -4  161.80   78.20   1
  16 -10  -4  177.50   78.40   1
 -16  10   4  170.40   78.60   1
 -16  10  -4  119.50   81.10   1
  16 -10   4  246.70   84.80   1
 -16 -10   4  121.10   77.60   1
  16  10  -4  124.20   77.70   1
  16  10   5   -0.00   15.20   1
 -16 -10  -5   -0.00   16.20   1
  16 -10  -5    7.70   17.20   1
 -16  10   5   -0.00   16.50   1
 -16  10  -5    0.00   24.70   1
  16 -10   5   -0.00   33.20   1
 -16 -10   5   21.80   15.50   1
  16  10  -5    3.50   15.90   1
  16  10   6   14.50   20.60   1
 -16 -10  -6   -0.00   20.30   1
  16 -10  -6    9.70   20.40   1
 -16  10   6   14.70   21.10   1
 -16  10  -6   16.80   25.00   1
  16 -10   6   21.80   32.50   1
 -16 -10   6    4.90   20.40   1
  16  10  -6   16.50   20.20   1
  16  10   7    3.30   18.90   1
 -16 -10  -7   21.70   19.50   1
  16 -10  -7   17.70   19.40   1
 -16  10   7    4.20   19.00   1
 -16 -10   7   -0.00   18.70   1
  16  10  -7   12.00   19.10   1
  16  10   8   26.70   24.00   1
 -16 -10  -8    9.90   24.50   1
  16 -10  -8    9.80   24.80   1
 -16  10   8   23.00   23.80   1
 -16 -10   8    9.70   22.90   1
  16  10  -8    7.30   22.80   1
  16  11   0    5.40   12.40   1
 -16 -11   0    1.70   12.80   1
  16 -11   0   -0.00   15.90   1
 -16  11   0   -0.00   15.20   1
  16  11   1   71.30   43.90   1
 -16 -11  -1   39.10   43.30   1
  16 -11  -1   79.30   47.10   1
 -16  11   1   41.20   45.00   1
 -16  11  -1   42.20   46.60   1
  16 -11   1   69.50   46.50   1
 -16 -11   1   45.70   42.90   1
  16  11  -1   49.70   42.90   1
  16  11   2    6.40   20.50   1
 -16 -11  -2    5.60   21.50   1
  16 -11  -2   12.10   23.90   1
 -16  11   2    8.20   22.30   1
 -16  11  -2    2.20   25.20   1
  16 -11   2    3.30   29.50   1
 -16 -11   2   32.70   20.30   1
  16  11  -2    5.10   19.70   1
  16  11   3   14.40   29.10   1
 -16 -11  -3   36.00   29.20   1
  16 -11  -3   10.50   29.40   1
 -16  11   3   24.00   30.30   1
 -16  11  -3   11.20   31.90   1
  16 -11   3  150.00   39.30   1
 -16 -11   3   31.00   27.30   1
  16  11  -3    7.10   27.50   1
  16  11   4   18.40   20.30   1
 -16 -11  -4    6.00   19.30   1
  16 -11  -4   29.60   19.90   1
 -16  11   4    2.10   20.40   1
 -16  11  -4   -0.00   31.50   1
  16 -11   4   27.80   30.50   1
 -16 -11   4    5.50   18.30   1
  16  11  -4   -0.00   18.80   1
  16  11   5   -0.00   18.10   1
 -16 -11  -5   11.40   18.20   1
  16 -11  -5   22.00   19.40   1
 -16  11   5   16.70   19.20   1
 -16  11  -5    0.00   25.30   1
  16 -11   5   -0.00   32.40   1
 -16 -11   5    5.90   18.10   1
  16  11  -5    3.40   18.70   1
  16  11   6   29.10   26.30   1
 -16 -11  -6   23.00   26.00   1
  16 -11  -6   39.20   27.00   1
 -16  11   6   20.80   26.60   1
  16 -11   6   13.80   32.50   1
 -16 -11   6    2.40   25.70   1
  16  11  -6   12.50   25.90   1
  16  11   7   -0.00   15.80   1
 -16 -11  -7   -0.00   16.10   1
  16 -11  -7   31.50   16.50   1
 -16  11   7    0.30   15.80   1
 -16 -11   7    5.40   16.00   1
  16  11  -7    5.30   16.10   1
  16  11   8   -0.00   14.30   1
 -16 -11  -8    0.00   14.40   1
  16 -11  -8   -0.00   14.70   1
 -16  11   8    9.40   14.00   1
 -16 -11   8    8.90   13.70   1
  16  11  -8   -0.00   13.90   1
  16  12   0   68.70   48.40   1
 -16 -12   0   53.90   48.40   1
  16 -12   0   57.20   50.40   1
 -16  12   0   81.50   51.00   1
  16  12   1   40.40   36.30   1
 -16 -12  -1   39.80   36.30   1
  16 -12  -1   39.80   40.40   1
 -16  12   1   24.20   37.40   1
 -16  12  -1   99.30   44.00   1
  16 -12   1  106.70   43.80   1
 -16 -12   1   21.70   35.80   1
  16  12  -1   37.40   35.80   1
  16  12   2   59.50   32.60   1
 -16 -12  -2   18.00   31.30   1
  16 -12  -2   32.80   34.80   1
 -16  12   2   28.30   34.60   1
 -16  12  -2   -0.00   36.90   1
  16 -12   2   40.60   38.50   1
 -16 -12   2   29.70   31.00   1
  16  12  -2   23.00   31.00   1
  16  12   3   17.10   25.50   1
 -16 -12  -3   10.10   25.80   1
  16 -12  -3   70.90   29.90   1
 -16  12   3   66.50   29.60   1
 -16  12  -3   -0.00   30.80   1
  16 -12   3   -0.00   32.50   1
 -16 -12   3   -0.00   24.70   1
  16  12  -3   27.40   25.00   1
  16  12   4    0.00   23.70   1
 -16 -12  -4   19.30   24.20   1
  16 -12  -4   14.60   24.80   1
 -16  12   4   16.70   24.80   1
 -16  12  -4    7.10   32.00   1
  16 -12   4   -0.00   37.30   1
 -16 -12   4   14.60   22.70   1
  16  12  -4   20.40   22.90   1
  16  12   5   27.60   27.40   1
 -16 -12  -5   24.40   26.90   1
  16 -12  -5    9.20   27.30   1
 -16  12   5   10.40   27.90   1
 -16  12  -5   12.50   31.00   1
  16 -12   5    5.60   37.60   1
 -16 -12   5   32.30   27.30   1
  16  12  -5   18.10   26.90   1
  16  12   6   12.60   27.20   1
 -16 -12  -6   72.40   28.50   1
  16 -12  -6   35.60   28.50   1
 -16  12   6    9.20   27.60   1
 -16 -12   6   13.70   27.40   1
  16  12  -6   19.40   27.50   1
  16  12   7   46.00   35.50   1
 -16 -12  -7   30.80   34.90   1
  16 -12  -7   48.60   35.40   1
 -16  12   7   26.10   35.30   1
 -16 -12   7   30.40   35.00   1
  16  12  -7   25.40   35.00   1
  16  13   0  283.40  114.50   1
 -16 -13   0  202.80  113.80   1
  16 -13   0  530.90  120.70   1
 -16  13   0  338.90  118.50   1
  16  13   1   61.70   47.60   1
 -16 -13  -1   80.50   47.90   1
  16 -13  -1  146.20   50.60   1
 -16  13   1   44.30   49.00   1
 -16  13  -1   19.00   49.70   1
  16 -13   1  134.00   55.90   1
 -16 -13   1   57.80   47.40   1
  16  13  -1   54.90   47.50   1
  16  13   2  116.20   59.40   1
 -16 -13  -2  104.40   59.00   1
  16 -13  -2  234.80   64.60   1
 -16  13   2  150.80   61.90   1
 -16  13  -2   18.30   60.30   1
  16 -13   2  162.10   65.00   1
 -16 -13   2   61.90   58.20   1
  16  13  -2  354.80   63.00   1
  16  13   3   54.40   28.70   1
 -16 -13  -3   17.00   28.80   1
  16 -13  -3   55.20   31.90   1
 -16  13   3   -0.00   29.30   1
 -16  13  -3    3.50   35.70   1
  16 -13   3   38.90   37.50   1
 -16 -13   3   17.00   28.20   1
  16  13  -3   17.60   28.20   1
  16  13   4   70.70   48.90   1
 -16 -13  -4   43.30   48.80   1
  16 -13  -4  169.00   51.50   1
 -16  13   4  146.90   51.60   1
 -16  13  -4   38.80   51.60   1
  16 -13   4  112.00   58.20   1
 -16 -13   4   55.80   48.40   1
  16  13  -4   42.30   48.30   1
  16  13   5   52.50   42.60   1
 -16 -13  -5   56.40   41.90   1
  16 -13  -5   33.00   42.20   1
 -16  13   5  142.80   44.40   1
  16 -13   5   51.60   47.30   1
 -16 -13   5   55.00   42.00   1
  16  13  -5   27.70   41.40   1
  16  13   6   16.70   27.70   1
 -16 -13  -6   25.70   27.80   1
  16 -13  -6   61.90   29.20   1
 -16  13   6   -0.00   28.10   1
 -16 -13   6   17.90   28.00   1
  16  13  -6   31.70   28.30   1
  16  14   0   11.20   18.20   1
 -16 -14   0    8.40   18.20   1
  16 -14   0   -0.00   25.40   1
 -16  14   0   -0.00   27.70   1
  16  14   1    6.40   17.50   1
 -16 -14  -1    8.70   17.70   1
  16 -14  -1   -0.00   22.00   1
 -16  14   1   -0.00   20.90   1
 -16  14  -1   36.90   27.50   1
  16 -14   1    5.10   25.30   1
 -16 -14   1   17.20   17.80   1
  16  14  -1    3.40   17.60   1
  16  14   2   10.40   25.00   1
 -16 -14  -2   16.20   25.30   1
  16 -14  -2   14.60   28.80   1
 -16  14   2   14.60   26.10   1
 -16  14  -2    8.10   31.50   1
  16 -14   2   77.90   34.60   1
 -16 -14   2   68.90   25.70   1
  16  14  -2    5.40   24.80   1
  16  14   3   -0.00   13.10   1
 -16 -14  -3   -0.00   12.30   1
  16 -14  -3    2.00   18.10   1
 -16  14   3   -0.00   19.60   1
 -16  14  -3    4.40   24.40   1
  16 -14   3   -0.00   31.60   1
 -16 -14   3    6.90   13.00   1
  16  14  -3    7.30   12.80   1
  16  14   4   17.40   24.60   1
 -16 -14  -4    9.30   25.20   1
  16 -14  -4   43.30   28.20   1
 -16  14   4   22.70   27.40   1
 -16  14  -4    7.30   29.80   1
  16 -14   4   46.70   35.30   1
 -16 -14   4   13.70   23.90   1
  16  14  -4    8.10   24.30   1
  16  14   5    0.00   15.70   1
 -16 -14  -5    6.40   17.50   1
  16 -14  -5   -0.00   17.60   1
 -16  14   5    8.30   17.30   1
 -16 -14   5    8.70   15.70   1
  16  14  -5    5.30   15.20   1
  16  15   0   45.50   35.10   1
 -16 -15   0   34.10   35.00   1
  16 -15   0   61.80   42.90   1
 -16  15   0   -0.00   37.60   1
  16  15   1   27.40   29.80   1
 -16 -15  -1   63.50   30.40   1
  16 -15  -1   49.10   34.30   1
 -16  15   1   20.80   35.60   1
 -16  15  -1    8.20   33.40   1
  16 -15   1   51.80   37.90   1
 -16 -15   1   17.50   29.80   1
  16  15  -1   12.80   29.90   1
  16  15   2   72.90   52.60   1
 -16 -15  -2   64.50   52.70   1
  16 -15  -2   83.20   54.70   1
 -16  15   2   91.60   54.50   1
 -16  15  -2   95.60   59.80   1
  16 -15   2   86.10   58.30   1
 -16 -15   2   75.10   52.90   1
  16  15  -2   62.50   52.80   1
  16  15   3  215.90   46.50   1
 -16 -15  -3   51.20   43.70   1
  16 -15  -3   39.80   46.50   1
 -16  15   3  128.10   47.60   1
 -16  15  -3   15.50   47.40   1
  16 -15   3   68.20   52.60   1
 -16 -15   3   34.90   43.50   1
  16  15  -3   45.00   43.40   1
  16  15   4   58.20   23.90   1
 -16 -15  -4   10.60   23.10   1
  16 -15  -4   -0.00   27.30   1
 -16  15   4    0.50   24.60   1
  16 -15   4   11.80   31.10   1
 -16 -15   4   16.90   23.30   1
  16  15  -4    6.00   22.80   1
  16  16   0    3.50   21.70   1
 -16 -16   0   39.30   22.20   1
  16 -16   0    8.30   28.30   1
 -16  16   0   -0.00   28.40   1
  16  16   1   10.20   17.90   1
 -16 -16  -1   15.90   18.10   1
  16 -16  -1   13.20   26.40   1
 -16  16   1   18.90   26.60   1
 -16  16  -1   -0.00   26.60   1
  16 -16   1   -0.00   26.50   1
 -16 -16   1   -0.00   17.90   1
  16  16  -1   10.70   18.30   1
  16  16   2    6.20   24.10   1
 -16 -16  -2   14.60   24.10   1
  16 -16  -2   29.20   27.70   1
 -16  16   2   19.10   28.50   1
 -16  16  -2   38.40   35.60   1
  16 -16   2   35.10   38.10   1
 -16 -16   2   49.40   25.20   1
  16  16  -2   12.50   24.70   1
  17   0   0  104.50   78.80   1
 -17   0   0  243.10   80.00   1
  17   0   1  229.20   52.60   1
 -17   0  -1   34.40   50.30   1
  17   0  -1  103.00   50.80   1
 -17   0   1   58.50   50.40   1
  17   0   2    9.40   14.30   1
 -17   0  -2   -0.00   14.70   1
  17   0  -2   -0.00   14.20   1
 -17   0   2    1.10   13.00   1
  17   0   3   59.30   46.50   1
 -17   0  -3   58.60   47.20   1
  17   0  -3   51.00   46.60   1
 -17   0   3   52.80   46.80   1
  17   0   4    0.00   24.00   1
 -17   0  -4   12.20   22.80   1
  17   0  -4   26.80   23.40   1
 -17   0   4   -0.00   23.00   1
  17   0   5   31.20   35.60   1
 -17   0  -5   22.60   34.30   1
  17   0  -5   18.60   31.10   1
 -17   0   5   38.10   31.60   1
  17   0   6  392.60  138.70   1
 -17   0  -6  258.80  137.40   1
  17   0  -6  350.10  137.50   1
 -17   0   6  421.50  138.20   1
  17   0   7   32.90   26.60   1
 -17   0  -7   31.40   28.60   1
  17   0  -7    3.20   21.30   1
 -17   0   7    9.00   21.30   1
  17   0   8   23.90   27.60   1
 -17   0  -8    3.90   24.40   1
  17   0  -8   12.00   20.10   1
 -17   0   8    7.80   19.80   1
  17   0   9   46.70   32.60   1
 -17   0  -9    0.00   31.20   1
  17   0  -9   16.30   26.30   1
 -17   0   9   21.50   26.30   1
  17   0  10  193.90   65.90   1
 -17   0 -10  155.80   64.50   1
  17   0 -10  120.10   56.30   1
 -17   0  10   58.10   55.70   1
  17   1   0   -0.00   10.10   1
 -17  -1   0   -0.00    9.50   1
  17  -1   0   -0.00   11.80   1
 -17   1   0    0.30    9.60   1
  17   1   1  117.20   36.90   1
 -17  -1  -1   54.70   36.00   1
  17  -1  -1   43.90   35.80   1
 -17   1   1   49.60   36.30   1
 -17   1  -1   28.80   35.80   1
  17  -1   1   32.20   35.90   1
 -17  -1   1   13.10   35.50   1
  17   1  -1   11.90   35.30   1
  17   1   2   10.60   15.20   1
 -17  -1  -2   -0.10   14.50   1
  17  -1  -2   -0.00   13.80   1
 -17   1   2    0.00   13.80   1
 -17   1  -2   18.10   16.90   1
  17  -1   2    4.90   15.50   1
 -17  -1   2    2.10   16.00   1
  17   1  -2   -0.00   16.30   1
  17   1   3   14.10   29.20   1
 -17  -1  -3   -0.00   29.70   1
  17  -1  -3   13.80   29.80   1
 -17   1   3    9.70   29.10   1
 -17   1  -3  108.80   33.60   1
  17  -1   3  128.20   33.60   1
 -17  -1   3   17.10   30.00   1
  17   1  -3   37.00   30.20   1
  17   1   4   44.30   24.80   1
 -17  -1  -4   41.10   24.30   1
  17  -1  -4   11.60   22.20   1
 -17   1   4    5.30   22.30   1
 -17   1  -4   -0.00   25.90   1
  17  -1   4   16.60   25.20   1
 -17  -1   4   -0.00   21.90   1
  17   1  -4   -0.00   21.40   1
  17   1   5   20.50   21.20   1
 -17  -1  -5    6.30   21.80   1
  17  -1  -5   -0.00   19.40   1
 -17   1   5   13.80   20.30   1
 -17   1  -5   -0.00   18.80   1
  17  -1   5   13.80   22.00   1
 -17  -1   5    3.40   17.90   1
  17   1  -5   13.00   19.70   1
  17   1   6   18.10   27.60   1
 -17  -1  -6    9.60   23.70   1
  17  -1  -6    5.70   23.80   1
 -17   1   6   11.40   22.30   1
 -17   1  -6   20.00   27.20   1
  17  -1   6    2.60   25.50   1
 -17  -1   6   22.10   23.30   1
  17   1  -6   18.50   23.10   1
  17   1   7   27.20   23.90   1
 -17  -1  -7    9.70   24.10   1
  17  -1  -7   11.40   21.70   1
 -17   1   7   11.10   21.30   1
 -17   1  -7   -0.00   27.50   1
  17  -1   7    5.60   27.20   1
 -17  -1   7   13.10   20.60   1
  17   1  -7    6.80   20.30   1
  17   1   8    3.20   25.20   1
 -17  -1  -8   -0.00   24.60   1
  17  -1  -8    3.80   18.50   1
 -17   1   8   10.50   18.80   1
 -17   1  -8    8.70   25.30   1
  17  -1   8   22.70   26.70   1
 -17  -1   8   11.80   18.70   1
  17   1  -8    9.70   18.50   1
  17   1   9   45.10   33.00   1
 -17  -1  -9   29.00   29.70   1
  17  -1  -9    5.50   24.40   1
 -17   1   9    9.50   24.00   1
 -17   1  -9   32.10   31.50   1
  17  -1   9   -0.00   33.20   1
 -17  -1   9   18.90   24.40   1
  17   1  -9   28.60   24.60   1
  17   1  10   11.70   26.70   1
 -17  -1 -10    9.60   26.50   1
  17  -1 -10    6.00   16.60   1
 -17   1  10    7.30   16.40   1
 -17   1 -10   12.00   24.70   1
  17  -1  10   34.70   30.60   1
 -17  -1  10    4.00   16.50   1
  17   1 -10    4.70   16.10   1
  17   2   0    2.60   13.10   1
 -17  -2   0   -0.00   12.60   1
  17  -2   0   -0.00   13.90   1
 -17   2   0   10.70   14.00   1
  17   2   1   23.50   31.60   1
 -17  -2  -1   20.80   31.80   1
  17  -2  -1   22.40   32.50   1
 -17   2   1   12.70   31.80   1
 -17   2  -1    4.20   31.70   1
  17  -2   1    8.30   31.50   1
 -17  -2   1  109.20   32.30   1
  17   2  -1  114.50   33.50   1
  17   2   2   73.10   43.60   1
 -17  -2  -2   33.40   43.50   1
  17  -2  -2   53.80   43.30   1
 -17   2   2  131.00   44.30   1
 -17   2  -2   18.20   44.80   1
  17  -2   2   34.20   44.20   1
 -17  -2   2   45.80   44.10   1
  17   2  -2   57.50   44.30   1
  17   2   3   18.80   22.90   1
 -17  -2  -3   -0.00   23.00   1
  17  -2  -3   25.00   23.10   1
 -17   2   3    3.80   21.80   1
 -17   2  -3   -0.00   24.40   1
  17  -2   3    1.00   25.50   1
 -17  -2   3   27.40   24.00   1
  17   2  -3   27.90   24.10   1
  17   2   4  204.80  100.70   1
 -17  -2  -4  225.30  101.20   1
  17  -2  -4  247.00  101.60   1
 -17   2   4  203.10  100.90   1
 -17   2  -4  127.30  101.00   1
  17  -2   4  291.70  103.00   1
 -17  -2   4  229.90  100.40   1
  17   2  -4  300.90  101.20   1
  17   2   5   -0.00   22.20   1
 -17  -2  -5    8.40   20.30   1
  17  -2  -5    0.00   19.60   1
 -17   2   5   19.40   19.00   1
 -17   2  -5   25.00   20.70   1
  17  -2   5    0.00   19.10   1
 -17  -2   5    3.90   17.20   1
  17   2  -5   -0.00   17.30   1
  17   2   6   34.40   37.70   1
 -17  -2  -6   19.60   37.10   1
  17  -2  -6    5.80   34.50   1
 -17   2   6   30.90   35.60   1
 -17   2  -6   43.50   38.70   1
  17  -2   6   37.80   37.60   1
 -17  -2   6  112.60   36.00   1
  17   2  -6   50.00   34.90   1
  17   2   7    7.50   16.70   1
 -17  -2  -7    1.00   16.60   1
  17  -2  -7   -0.00   16.40   1
 -17   2   7    3.40   15.30   1
 -17   2  -7    7.80   20.30   1
  17  -2   7   -0.00   22.90   1
 -17  -2   7    0.70   14.00   1
  17   2  -7   10.20   14.00   1
  17   2   8   44.00   33.90   1
 -17  -2  -8   22.00   33.80   1
  17  -2  -8   15.70   29.90   1
 -17   2   8   18.00   30.20   1
 -17   2  -8   51.20   35.80   1
  17  -2   8   50.70   36.40   1
 -17  -2   8    8.20   29.70   1
  17   2  -8   71.70   30.20   1
  17   2   9    7.10   24.10   1
 -17  -2  -9   10.70   21.30   1
  17  -2  -9    3.10   15.80   1
 -17   2   9    4.30   16.50   1
 -17   2  -9    3.90   27.80   1
  17  -2   9   24.10   31.00   1
 -17  -2   9    6.20   16.30   1
  17   2  -9    9.90   16.40   1
  17   2  10   35.10   33.50   1
 -17  -2 -10   19.80   31.70   1
  17  -2 -10   25.40   26.40   1
 -17   2  10   15.30   26.20   1
 -17   2 -10  279.70   62.10   1
  17  -2  10  102.90   42.00   1
 -17  -2  10   18.70   26.00   1
  17   2 -10   11.00   26.00   1
  17   3   0   11.60   21.60   1
 -17  -3   0    3.90   21.60   1
  17  -3   0   16.10   22.10   1
 -17   3   0   18.50   22.50   1
  17   3   1  187.40  109.10   1
 -17  -3  -1  251.10  109.60   1
  17  -3  -1  679.60  113.80   1
 -17   3   1  591.40  112.60   1
 -17   3  -1  180.50  109.50   1
  17  -3   1  208.90  109.60   1
 -17  -3   1  250.20  110.20   1
  17   3  -1  386.30  111.70   1
  17   3   2   37.10   39.50   1
 -17  -3  -2   45.40   39.40   1
  17  -3  -2   36.70   39.90   1
 -17   3   2   29.70   39.60   1
 -17   3  -2  148.80   43.50   1
  17  -3   2  217.30   44.90   1
 -17  -3   2   15.90   39.30   1
  17   3  -2   66.70   40.80   1
  17   3   3  228.70   91.30   1
 -17  -3  -3  221.60   91.30   1
  17  -3  -3  150.80   90.80   1
 -17   3   3  131.50   90.80   1
 -17   3  -3  657.60  100.20   1
  17  -3   3  198.10   92.60   1
 -17  -3   3  198.90   91.60   1
  17   3  -3  171.90   91.10   1
  17   3   4   21.20   25.10   1
 -17  -3  -4   13.00   24.20   1
  17  -3  -4    0.00   24.70   1
 -17   3   4   27.90   23.90   1
 -17   3  -4    3.60   24.50   1
  17  -3   4   16.60   27.00   1
 -17  -3   4   16.40   24.70   1
  17   3  -4   16.20   24.40   1
  17   3   5  119.40   50.20   1
 -17  -3  -5   40.90   49.00   1
  17  -3  -5   50.00   47.90   1
 -17   3   5   23.00   48.00   1
 -17   3  -5  151.10   51.00   1
  17  -3   5  323.60   54.10   1
 -17  -3   5   80.70   48.00   1
  17   3  -5   46.10   47.30   1
  17   3   6   -0.00   27.20   1
 -17  -3  -6    8.90   26.70   1
  17  -3  -6   -0.00   25.60   1
 -17   3   6   15.80   25.30   1
 -17   3  -6    1.20   29.20   1
  17  -3   6   19.70   30.20   1
 -17  -3   6   17.70   24.20   1
  17   3  -6   32.10   24.00   1
  17   3   7   63.00   34.80   1
 -17  -3  -7   19.00   31.60   1
  17  -3  -7   36.50   31.60   1
 -17   3   7   53.50   31.90   1
 -17   3  -7   57.50   37.60   1
  17  -3   7   17.80   36.90   1
 -17  -3   7   16.70   30.60   1
  17   3  -7   16.80   30.60   1
  17   3   8   24.60   26.80   1
 -17  -3  -8   33.30   28.30   1
  17  -3  -8   18.00   25.20   1
 -17   3   8   18.30   24.90   1
 -17   3  -8   30.10   30.90   1
  17  -3   8   15.50   31.60   1
 -17  -3   8    3.80   24.20   1
  17   3  -8   15.40   23.90   1
  17   3   9  217.00   72.90   1
 -17  -3  -9   74.00   68.10   1
  17  -3  -9  119.90   66.90   1
 -17   3   9  156.80   67.40   1
 -17   3  -9   53.60   69.70   1
  17  -3   9  247.00   80.00   1
 -17  -3   9   95.70   66.40   1
  17   3  -9  119.40   66.80   1
  17   3  10   10.90   25.60   1
 -17  -3 -10   17.80   23.60   1
  17  -3 -10    2.30   16.20   1
 -17   3  10    4.30   16.10   1
  17  -3  10   36.70   27.10   1
 -17  -3  10    8.60   16.00   1
  17   3 -10    3.20   16.50   1
  17   4   0   -0.00   29.70   1
 -17  -4   0    0.00   28.20   1
  17  -4   0   44.10   29.40   1
 -17   4   0  110.80   30.60   1
  17   4   1   14.10   21.30   1
 -17  -4  -1   12.50   21.50   1
  17  -4  -1    7.70   21.80   1
 -17   4   1   20.20   22.50   1
 -17   4  -1   23.90   24.30   1
  17  -4   1   -0.00   23.60   1
 -17  -4   1    7.10   22.90   1
  17   4  -1    8.40   23.30   1
  17   4   2    7.10   25.70   1
 -17  -4  -2   40.00   25.60   1
  17  -4  -2   31.60   25.80   1
 -17   4   2   35.80   26.20   1
 -17   4  -2   -0.00   26.50   1
  17  -4   2   16.90   29.10   1
 -17  -4   2   -0.00   26.00   1
  17   4  -2   -0.00   26.70   1
  17   4   3    0.90   17.90   1
 -17  -4  -3   17.10   18.00   1
  17  -4  -3    0.80   17.10   1
 -17   4   3   10.30   17.80   1
 -17   4  -3    7.70   21.10   1
  17  -4   3   25.30   23.60   1
 -17  -4   3   -0.00   17.30   1
  17   4  -3   14.70   18.70   1
  17   4   4   13.50   19.90   1
 -17  -4  -4   50.10   20.80   1
  17  -4  -4    5.00   19.00   1
 -17   4   4   -0.00   18.50   1
 -17   4  -4    6.40   22.50   1
  17  -4   4   -0.00   21.20   1
 -17  -4   4    0.00   19.40   1
  17   4  -4   15.40   20.40   1
  17   4   5   16.30   19.60   1
 -17  -4  -5    9.10   21.10   1
  17  -4  -5    9.30   20.90   1
 -17   4   5    0.00   20.90   1
 -17   4  -5    9.80   25.30   1
  17  -4   5    1.40   23.90   1
 -17  -4   5   13.50   19.10   1
  17   4  -5    3.80   18.30   1
  17   4   6   28.10   26.00   1
 -17  -4  -6   57.60   25.50   1
  17  -4  -6   -0.00   23.40   1
 -17   4   6    4.50   22.10   1
 -17   4  -6   -0.00   24.60   1
  17  -4   6    9.60   28.50   1
 -17  -4   6   11.80   21.20   1
  17   4  -6   12.60   21.20   1
  17   4   7    9.60   20.90   1
 -17  -4  -7   -0.00   18.60   1
  17  -4  -7    0.00   14.50   1
 -17   4   7   15.80   15.80   1
 -17   4  -7   -0.00   21.70   1
  17  -4   7   31.70   27.50   1
 -17  -4   7    1.00   13.60   1
  17   4  -7    2.60   14.10   1
  17   4   8    9.50   23.20   1
 -17  -4  -8   16.70   23.40   1
  17  -4  -8   28.00   22.70   1
 -17   4   8    8.80   21.40   1
 -17   4  -8   10.70   31.10   1
  17  -4   8   -0.00   31.20   1
 -17  -4   8    7.50   20.60   1
  17   4  -8   11.60   20.70   1
  17   4   9   19.20   20.40   1
 -17  -4  -9   19.10   23.10   1
  17  -4  -9    6.80   14.30   1
 -17   4   9    3.50   15.30   1
 -17   4  -9   -0.00   22.80   1
  17  -4   9   24.00   29.30   1
 -17  -4   9    0.80   13.30   1
  17   4  -9    0.00   13.60   1
  17   4  10   21.20   27.10   1
 -17  -4 -10    9.60   25.20   1
  17  -4 -10   15.10   19.70   1
 -17   4  10    2.10   20.20   1
  17  -4  10    9.70   25.00   1
 -17  -4  10   26.70   20.30   1
  17   4 -10   -0.00   19.90   1
  17   5   0  157.20   46.70   1
 -17  -5   0  137.40   46.10   1
  17  -5   0   21.80   44.40   1
 -17   5   0   27.30   44.40   1
  17   5   1   81.50   65.50   1
 -17  -5  -1  156.20   66.20   1
  17  -5  -1  102.70   65.90   1
 -17   5   1  399.20   69.90   1
 -17   5  -1   94.00   66.90   1
  17  -5   1  134.20   67.70   1
 -17  -5   1   58.70   65.60   1
  17   5  -1  332.60   69.20   1
  17   5   2   -0.00   14.30   1
 -17  -5  -2    4.80   14.90   1
  17  -5  -2    9.40   15.30   1
 -17   5   2   -0.00   14.90   1
 -17   5  -2    3.50   19.50   1
  17  -5   2   10.50   21.20   1
 -17  -5   2    7.10   15.00   1
  17   5  -2   -0.00   14.80   1
  17   5   3   28.50   37.90   1
 -17  -5  -3   58.30   38.00   1
  17  -5  -3   29.20   37.70   1
 -17   5   3   21.40   37.70   1
 -17   5  -3   34.50   38.30   1
  17  -5   3   77.70   40.60   1
 -17  -5   3   39.60   37.90   1
  17   5  -3   47.00   38.00   1
  17   5   4    0.70   18.10   1
 -17  -5  -4    4.90   17.90   1
  17  -5  -4    4.70   18.20   1
 -17   5   4    4.40   18.00   1
 -17   5  -4   11.00   22.60   1
  17  -5   4   35.40   22.20   1
 -17  -5   4   10.40   18.30   1
  17   5  -4    9.20   18.00   1
  17   5   5  141.30   34.90   1
 -17  -5  -5   31.70   33.10   1
  17  -5  -5   31.00   33.10   1
 -17   5   5   35.60   32.70   1
 -17   5  -5   22.90   36.60   1
  17  -5   5   92.00   39.00   1
 -17  -5   5   12.30   31.70   1
  17   5  -5   19.60   31.90   1
  17   5   6    8.80   25.90   1
 -17  -5  -6   -0.00   26.00   1
  17  -5  -6    7.70   24.10   1
 -17   5   6    4.60   25.10   1
 -17   5  -6   20.70   29.40   1
  17  -5   6   24.60   33.00   1
 -17  -5   6   21.50   22.80   1
  17   5  -6   17.20   22.80   1
  17   5   7   52.10   54.00   1
 -17  -5  -7   42.00   54.40   1
  17  -5  -7  155.90   55.20   1
 -17   5   7   98.80   54.50   1
 -17   5  -7   54.00   56.10   1
  17  -5   7   86.60   58.20   1
 -17  -5   7   68.50   52.30   1
  17   5  -7   76.30   52.40   1
  17   5   8   11.80   29.00   1
 -17  -5  -8   28.90   27.30   1
  17  -5  -8   15.50   26.40   1
 -17   5   8   11.20   26.50   1
 -17   5  -8   32.60   32.70   1
  17  -5   8   60.00   38.20   1
 -17  -5   8   19.10   25.80   1
  17   5  -8   16.20   25.80   1
  17   5   9   30.90   38.80   1
 -17  -5  -9   26.60   40.30   1
  17  -5  -9    7.20   37.60   1
 -17   5   9  148.40   40.10   1
 -17   5  -9   58.40   41.60   1
  17  -5   9   29.20   44.90   1
 -17  -5   9   51.60   37.50   1
  17   5  -9   62.90   37.80   1
  17   6   0    3.70   20.20   1
 -17  -6   0   13.30   20.30   1
  17  -6   0    5.10   22.60   1
 -17   6   0   13.40   22.40   1
  17   6   1   16.70   26.80   1
 -17  -6  -1   17.20   25.90   1
  17  -6  -1   21.30   26.60   1
 -17   6   1   16.70   27.40   1
 -17   6  -1    4.10   27.00   1
  17  -6   1   31.00   29.30   1
 -17  -6   1   27.10   27.50   1
  17   6  -1   14.00   26.20   1
  17   6   2   12.50   20.70   1
 -17  -6  -2    9.70   20.40   1
  17  -6  -2   15.00   21.10   1
 -17   6   2    8.30   20.80   1
 -17   6  -2   12.10   23.80   1
  17  -6   2   27.70   28.10   1
 -17  -6   2    1.00   20.10   1
  17   6  -2   20.50   21.90   1
  17   6   3   12.80   17.50   1
 -17  -6  -3    0.00   17.10   1
  17  -6  -3    8.00   17.60   1
 -17   6   3   -0.00   17.50   1
 -17   6  -3   -0.00   21.20   1
  17  -6   3    9.60   20.10   1
 -17  -6   3    8.20   18.50   1
  17   6  -3   14.80   17.80   1
  17   6   4   15.10   27.50   1
 -17  -6  -4   27.10   27.40   1
  17  -6  -4   -0.00   27.30   1
 -17   6   4   42.00   28.00   1
 -17   6  -4  125.70   36.40   1
  17  -6   4   73.50   33.60   1
 -17  -6   4   25.40   27.10   1
  17   6  -4    6.70   26.70   1
  17   6   5   28.20   21.40   1
 -17  -6  -5    5.20   21.20   1
  17  -6  -5   -0.00   20.50   1
 -17   6   5    0.00   20.70   1
 -17   6  -5   -0.00   23.90   1
  17  -6   5   18.90   30.70   1
 -17  -6   5    7.60   20.10   1
  17   6  -5   28.60   20.20   1
  17   6   6   10.10   21.90   1
 -17  -6  -6   15.00   22.70   1
  17  -6  -6   -0.00   23.20   1
 -17   6   6    6.80   22.30   1
 -17   6  -6   -0.00   26.50   1
  17  -6   6   20.30   29.60   1
 -17  -6   6   11.50   20.20   1
  17   6  -6   14.60   20.20   1
  17   6   7   25.50   23.90   1
 -17  -6  -7   -0.00   22.40   1
  17  -6  -7    6.00   21.90   1
 -17   6   7   14.30   21.90   1
 -17   6  -7    3.30   29.20   1
  17  -6   7   13.90   32.90   1
 -17  -6   7    8.60   19.50   1
  17   6  -7   12.70   20.00   1
  17   6   8   22.90   24.80   1
 -17  -6  -8   42.00   25.10   1
  17  -6  -8   -0.00   20.90   1
 -17   6   8    4.50   22.30   1
 -17   6  -8   22.00   26.80   1
  17  -6   8   15.70   36.30   1
 -17  -6   8    8.20   20.70   1
  17   6  -8   12.60   20.50   1
  17   6   9   -0.00   15.90   1
 -17  -6  -9   12.40   16.30   1
  17  -6  -9    3.50   13.90   1
 -17   6   9    0.00   11.70   1
  17  -6   9   -0.00   22.30   1
 -17  -6   9    0.00   12.30   1
  17   6  -9    5.70   12.60   1
  17   7   0   -0.00   14.80   1
 -17  -7   0   -0.00   15.00   1
  17  -7   0    3.10   16.70   1
 -17   7   0   -0.00   16.70   1
  17   7   1   15.90   37.70   1
 -17  -7  -1   47.90   38.50   1
  17  -7  -1   25.20   38.50   1
 -17   7   1   52.40   39.00   1
 -17   7  -1   29.90   40.50   1
  17  -7   1   56.80   40.10   1
 -17  -7   1   48.70   37.70   1
  17   7  -1   38.60   37.40   1
  17   7   2  179.30   35.30   1
 -17  -7  -2   23.20   32.00   1
  17  -7  -2   35.40   32.90   1
 -17   7   2   70.00   33.30   1
 -17   7  -2    2.30   32.70   1
  17  -7   2   23.50   35.00   1
 -17  -7   2   25.40   32.70   1
  17   7  -2    6.40   32.60   1
  17   7   3  134.50   88.80   1
 -17  -7  -3  203.60   89.40   1
  17  -7  -3  232.30   89.80   1
 -17   7   3  189.10   89.40   1
 -17   7  -3  234.30   91.40   1
  17  -7   3  268.10   91.50   1
 -17  -7   3  144.30   88.90   1
  17   7  -3  161.30   89.10   1
  17   7   4   16.50   21.60   1
 -17  -7  -4    6.80   21.30   1
  17  -7  -4   21.80   22.00   1
 -17   7   4   14.00   21.60   1
 -17   7  -4   15.60   28.80   1
  17  -7   4   29.70   30.90   1
 -17  -7   4    1.20   20.00   1
  17   7  -4   13.50   20.40   1
  17   7   5  187.90   66.30   1
 -17  -7  -5  111.80   65.50   1
  17  -7  -5  146.20   65.90   1
 -17   7   5  234.60   67.10   1
 -17   7  -5   83.60   68.00   1
  17  -7   5  112.30   69.60   1
 -17  -7   5   63.70   64.90   1
  17   7  -5  108.80   65.20   1
  17   7   6   -0.00   21.10   1
 -17  -7  -6    8.80   21.40   1
  17  -7  -6   13.80   22.00   1
 -17   7   6    0.00   20.70   1
 -17   7  -6    2.40   28.90   1
  17  -7   6   24.40   29.00   1
 -17  -7   6   13.70   20.00   1
  17   7  -6   21.90   20.20   1
 -17  -7  -7   47.90   23.20   1
  17  -7  -7   18.60   21.70   1
 -17   7   7   32.10   22.60   1
 -17   7  -7    9.60   27.60   1
  17  -7   7    0.00   31.70   1
 -17  -7   7    3.20   18.40   1
  17   7  -7   -0.00   18.60   1
  17   7   8   -0.00   17.70   1
 -17  -7  -8   11.80   19.40   1
  17  -7  -8    6.70   17.80   1
 -17   7   8    9.10   16.80   1
 -17   7  -8   -0.00   21.60   1
  17  -7   8   32.30   27.30   1
 -17  -7   8    1.80   13.80   1
  17   7  -8   -0.00   14.50   1
  17   7   9   40.90   36.80   1
 -17  -7  -9   53.40   36.00   1
  17  -7  -9   18.70   34.70   1
 -17   7   9   33.20   35.60   1
 -17  -7   9   31.10   34.80   1
  17   7  -9   40.60   35.00   1
  17   8   0   11.70   25.80   1
 -17  -8   0   79.00   27.90   1
  17  -8   0    8.90   28.70   1
 -17   8   0    0.00   26.70   1
  17   8   1   24.00   36.50   1
 -17  -8  -1  150.80   37.70   1
  17  -8  -1   23.00   36.80   1
 -17   8   1   35.30   37.30   1
 -17   8  -1   12.30   37.60   1
  17  -8   1   28.50   39.50   1
 -17  -8   1   64.60   35.50   1
  17   8  -1    7.30   35.50   1
  17   8   2  211.70   71.90   1
 -17  -8  -2  277.80   72.00   1
  17  -8  -2   78.50   69.90   1
 -17   8   2   91.10   69.90   1
 -17   8  -2  134.60   70.90   1
  17  -8   2  100.60   70.30   1
 -17  -8   2  230.40   70.70   1
  17   8  -2   98.50   69.40   1
  17   8   3   88.40   53.40   1
 -17  -8  -3   50.40   52.90   1
  17  -8  -3   71.60   53.40   1
 -17   8   3   66.90   53.40   1
 -17   8  -3   95.70   56.70   1
  17  -8   3  118.30   56.10   1
 -17  -8   3   76.30   53.10   1
  17   8  -3   83.70   53.10   1
  17   8   4  637.90  183.40   1
 -17  -8  -4  638.20  183.60   1
  17  -8  -4  654.40  183.50   1
 -17   8   4  584.10  182.20   1
 -17   8  -4  259.70  181.50   1
  17  -8   4  906.00  194.20   1
 -17  -8   4  463.00  180.70   1
  17   8  -4  583.30  181.70   1
  17   8   5   29.20   25.40   1
 -17  -8  -5   12.80   25.10   1
  17  -8  -5   10.70   25.30   1
 -17   8   5   -0.00   25.50   1
 -17   8  -5   -0.00   29.70   1
  17  -8   5   31.70   35.10   1
 -17  -8   5   14.90   24.60   1
  17   8  -5   34.80   24.80   1
  17   8   6   28.30   43.00   1
 -17  -8  -6   32.40   43.00   1
  17  -8  -6   48.20   43.20   1
 -17   8   6   99.90   43.70   1
 -17   8  -6   42.40   50.20   1
  17  -8   6   65.40   49.80   1
 -17  -8   6   58.30   42.70   1
  17   8  -6   71.40   42.90   1
  17   8   7   37.70   29.00   1
 -17  -8  -7   93.00   31.20   1
  17  -8  -7   -0.00   29.40   1
 -17   8   7    4.30   28.40   1
 -17   8  -7   -0.00   33.10   1
  17  -8   7   31.10   39.00   1
 -17  -8   7   22.80   27.60   1
  17   8  -7   21.30   27.70   1
  17   8   8  154.80   41.60   1
 -17  -8  -8   16.40   37.80   1
  17  -8  -8   29.40   37.80   1
 -17   8   8   14.60   37.80   1
  17  -8   8   37.10   41.30   1
 -17  -8   8   49.40   36.80   1
  17   8  -8   47.90   36.80   1
  17   8   9   30.90   38.70   1
 -17  -8  -9   59.00   39.20   1
  17  -8  -9   65.80   38.00   1
 -17  -8   9   29.80   36.80   1
  17   8  -9   24.80   36.80   1
  17   9   0   -0.00   10.50   1
 -17  -9   0   -0.00    9.10   1
  17  -9   0   -0.00   15.80   1
 -17   9   0   -0.00   16.60   1
  17   9   1    8.70   28.80   1
 -17  -9  -1    0.00   28.80   1
  17  -9  -1   20.90   30.10   1
 -17   9   1   20.80   31.00   1
 -17   9  -1   20.60   29.30   1
  17  -9   1   23.10   31.30   1
 -17  -9   1   34.50   28.10   1
  17   9  -1   35.80   28.80   1
  17   9   2    2.60   15.60   1
 -17  -9  -2   -0.00   15.70   1
  17  -9  -2   14.50   16.00   1
 -17   9   2   -0.00   17.40   1
 -17   9  -2   -0.00   19.00   1
  17  -9   2    0.00   18.20   1
 -17  -9   2    5.70   13.40   1
  17   9  -2    1.20   13.60   1
  17   9   3   11.70   27.80   1
 -17  -9  -3   36.90   27.50   1
  17  -9  -3   36.80   28.60   1
 -17   9   3   10.40   28.10   1
 -17   9  -3    2.50   34.10   1
  17  -9   3   19.70   33.90   1
 -17  -9   3   26.50   27.10   1
  17   9  -3   11.40   26.70   1
  17   9   4   10.80   18.80   1
 -17  -9  -4    2.60   18.70   1
  17  -9  -4    9.60   19.30   1
 -17   9   4    3.10   19.00   1
 -17   9  -4    0.00   25.60   1
  17  -9   4   38.50   30.60   1
 -17  -9   4   11.50   18.30   1
  17   9  -4   10.80   18.60   1
  17   9   5    1.40   13.00   1
 -17  -9  -5    9.90   12.90   1
  17  -9  -5    4.10   14.20   1
 -17   9   5    2.80   14.20   1
 -17   9  -5   -0.00   21.40   1
  17  -9   5   10.70   26.60   1
 -17  -9   5   -0.00   11.20   1
  17   9  -5   -0.00   11.40   1
  17   9   6    8.40   16.40   1
 -17  -9  -6   -0.00   16.40   1
  17  -9  -6    6.80   16.40   1
 -17   9   6   -0.00   16.60   1
 -17   9  -6    2.80   26.90   1
  17  -9   6   -0.00   34.80   1
 -17  -9   6   11.60   16.40   1
  17   9  -6   10.40   16.20   1
  17   9   7    3.60   13.20   1
 -17  -9  -7   -0.00   12.80   1
  17  -9  -7    0.70   13.50   1
 -17   9   7   -0.00   12.40   1
 -17   9  -7   -0.00   19.50   1
  17  -9   7   12.30   25.70   1
 -17  -9   7    0.00   12.00   1
  17   9  -7    5.70   11.60   1
  17   9   8    6.70   15.60   1
 -17  -9  -8    3.80   18.10   1
  17  -9  -8    4.40   16.50   1
 -17   9   8   -0.00   15.90   1
 -17  -9   8    1.80   13.00   1
  17   9  -8    2.90   13.00   1
  17  10   0   42.80   28.00   1
 -17 -10   0   -0.00   27.30   1
  17 -10   0    0.00   32.50   1
 -17  10   0   46.50   30.10   1
  17  10   1   -0.00   18.40   1
 -17 -10  -1   24.90   19.90   1
  17 -10  -1   16.70   22.30   1
 -17  10   1    5.90   21.50   1
 -17  10  -1    8.10   20.80   1
  17 -10   1    8.10   22.30   1
 -17 -10   1    6.00   18.80   1
  17  10  -1    6.40   18.00   1
  17  10   2   14.80   24.70   1
 -17 -10  -2    6.10   22.90   1
  17 -10  -2   54.50   26.30   1
 -17  10   2   31.40   25.90   1
 -17  10  -2   22.30   30.30   1
  17 -10   2   73.20   28.40   1
 -17 -10   2   -0.00   22.10   1
  17  10  -2    9.40   22.00   1
  17  10   3   41.70   22.80   1
 -17 -10  -3   18.40   21.30   1
  17 -10  -3   19.10   21.50   1
 -17  10   3   -0.00   21.10   1
 -17  10  -3    0.00   23.30   1
  17 -10   3   22.20   28.90   1
 -17 -10   3   -0.00   19.50   1
  17  10  -3   10.60   19.50   1
  17  10   4  121.90   58.90   1
 -17 -10  -4  114.60   58.80   1
  17 -10  -4   87.40   58.90   1
 -17  10   4   67.00   58.50   1
 -17  10  -4   60.70   61.00   1
  17 -10   4  221.70   66.60   1
 -17 -10   4   86.70   58.30   1
  17  10  -4   79.70   58.10   1
  17  10   5    9.60   21.90   1
 -17 -10  -5    8.50   22.50   1
  17 -10  -5   16.40   22.80   1
 -17  10   5   31.90   23.20   1
 -17  10  -5   17.00   32.20   1
  17 -10   5   45.30   33.50   1
 -17 -10   5    6.40   21.70   1
  17  10  -5    9.90   21.60   1
  17  10   6   36.00   36.90   1
 -17 -10  -6   21.00   36.60   1
  17 -10  -6   34.20   37.10   1
 -17  10   6   40.70   37.50   1
 -17  10  -6   15.20   40.20   1
  17 -10   6   89.90   48.30   1
 -17 -10   6   52.00   36.80   1
  17  10  -6   60.10   37.10   1
  17  10   7    8.90   18.40   1
 -17 -10  -7    5.20   18.50   1
  17 -10  -7   12.20   18.70   1
 -17  10   7    4.80   18.20   1
  17 -10   7    7.70   26.40   1
 -17 -10   7   17.40   18.60   1
  17  10  -7   -0.00   18.40   1
  17  10   8   53.60   37.20   1
 -17 -10  -8   46.60   38.10   1
  17 -10  -8   41.90   38.10   1
 -17 -10   8   26.50   36.90   1
  17  10  -8   24.60   36.80   1
  17  11   0   -0.00   13.20   1
 -17 -11   0    5.00   13.60   1
  17 -11   0   -0.00   18.60   1
 -17  11   0    3.80   14.50   1
  17  11   1   23.40   28.60   1
 -17 -11  -1    0.00   27.30   1
  17 -11  -1  166.00   35.40   1
 -17  11   1  154.10   35.50   1
 -17  11  -1   51.50   33.00   1
  17 -11   1  154.10   34.70   1
 -17 -11   1   28.60   28.10   1
  17  11  -1   10.50   27.70   1
  17  11   2   -0.00   14.00   1
 -17 -11  -2   19.60   15.80   1
  17 -11  -2    3.10   19.60   1
 -17  11   2    3.10   18.80   1
 -17  11  -2   13.10   25.30   1
  17 -11   2    9.00   26.90   1
 -17 -11   2   -0.00   12.30   1
  17  11  -2    0.80   12.00   1
  17  11   3   10.60   28.20   1
 -17 -11  -3    5.50   28.60   1
  17 -11  -3   29.10   29.60   1
 -17  11   3    8.20   30.00   1
 -17  11  -3   29.20   33.20   1
  17 -11   3  181.10   40.90   1
 -17 -11   3   11.60   27.10   1
  17  11  -3   64.00   28.00   1
  17  11   4   11.20   21.30   1
 -17 -11  -4   26.30   20.00   1
  17 -11  -4    8.80   20.20   1
 -17  11   4   26.20   21.20   1
 -17  11  -4   -0.00   28.30   1
  17 -11   4    0.00   28.60   1
 -17 -11   4   -0.00   19.10   1
  17  11  -4    4.60   18.80   1
  17  11   5   33.80   32.90   1
 -17 -11  -5   49.90   33.20   1
  17 -11  -5   18.70   33.50   1
 -17  11   5   30.30   33.60   1
 -17  11  -5   25.80   41.60   1
  17 -11   5   23.90   42.80   1
 -17 -11   5   29.20   32.80   1
  17  11  -5   22.90   32.90   1
  17  11   6   -0.00   16.00   1
 -17 -11  -6    3.20   15.80   1
  17 -11  -6   15.10   17.30   1
 -17  11   6   -0.00   16.80   1
 -17  11  -6    8.40   22.80   1
  17 -11   6   11.10   28.90   1
 -17 -11   6    6.40   15.30   1
  17  11  -6    5.80   15.40   1
  17  11   7    7.30   17.50   1
 -17 -11  -7   12.00   17.90   1
  17 -11  -7    9.70   17.90   1
 -17  11   7    3.30   18.00   1
 -17 -11   7   -0.00   17.50   1
  17  11  -7   13.80   18.30   1
  17  12   0    4.70   22.10   1
 -17 -12   0   39.00   23.10   1
  17 -12   0    8.90   25.60   1
 -17  12   0   -0.00   25.30   1
  17  12   1    7.30   15.10   1
 -17 -12  -1    0.00   14.70   1
  17 -12  -1   33.30   24.10   1
 -17  12   1   -0.00   19.60   1
 -17  12  -1   -0.00   24.60   1
  17 -12   1    4.40   21.50   1
 -17 -12   1   -0.00   12.80   1
  17  12  -1    7.40   13.40   1
  17  12   2  154.50   64.70   1
 -17 -12  -2  102.20   64.40   1
  17 -12  -2  164.30   67.00   1
 -17  12   2   61.00   65.20   1
 -17  12  -2   39.40   65.20   1
  17 -12   2  178.10   70.40   1
 -17 -12   2  117.50   63.80   1
  17  12  -2  116.70   63.70   1
  17  12   3   15.80   25.50   1
 -17 -12  -3   -0.00   24.90   1
  17 -12  -3   27.10   27.50   1
 -17  12   3   11.70   27.90   1
 -17  12  -3   -0.00   28.40   1
  17 -12   3   10.20   32.20   1
 -17 -12   3   34.40   23.80   1
  17  12  -3   11.00   23.50   1
  17  12   4  458.20  153.00   1
 -17 -12  -4  470.70  152.90   1
  17 -12  -4  640.40  155.10   1
 -17  12   4  330.30  151.20   1
 -17  12  -4  341.20  157.40   1
  17 -12   4  539.10  162.70   1
 -17 -12   4  272.30  150.00   1
  17  12  -4  497.90  153.00   1
  17  12   5   -0.00   15.30   1
 -17 -12  -5    7.60   15.20   1
  17 -12  -5   10.40   16.20   1
 -17  12   5    7.50   16.70   1
 -17  12  -5    3.60   22.20   1
  17 -12   5    0.00   31.00   1
 -17 -12   5    1.70   14.90   1
  17  12  -5    4.20   15.30   1
  17  12   6   65.20   42.00   1
 -17 -12  -6   58.60   42.40   1
  17 -12  -6   50.40   42.40   1
 -17  12   6   36.30   42.10   1
  17 -12   6   24.10   46.30   1
 -17 -12   6   37.70   41.70   1
  17  12  -6   52.20   42.10   1
  17  13   0    9.50   13.60   1
 -17 -13   0   -0.00   13.90   1
  17 -13   0    0.00   20.10   1
 -17  13   0   -0.00   20.80   1
  17  13   1  375.80  146.90   1
 -17 -13  -1  360.70  146.80   1
  17 -13  -1  475.30  150.10   1
 -17  13   1  259.80  146.70   1
 -17  13  -1  482.70  153.60   1
  17 -13   1  643.90  156.10   1
 -17 -13   1  332.20  146.20   1
  17  13  -1  570.30  148.70   1
  17  13   2  106.70   49.70   1
 -17 -13  -2   28.80   48.60   1
  17 -13  -2  169.90   54.30   1
 -17  13   2  165.30   53.90   1
 -17  13  -2  116.10   54.80   1
  17 -13   2   69.10   54.80   1
 -17 -13   2   72.00   48.70   1
  17  13  -2   55.80   48.70   1
  17  13   3  750.30  226.10   1
 -17 -13  -3  965.10  229.60   1
  17 -13  -3  526.60  226.00   1
 -17  13   3  639.30  227.40   1
 -17  13  -3  477.30  229.00   1
  17 -13   3  860.00  238.70   1
 -17 -13   3  657.70  225.80   1
  17  13  -3  636.90  226.00   1
  17  13   4   23.00   23.00   1
 -17 -13  -4   29.90   24.50   1
  17 -13  -4    9.60   24.70   1
 -17  13   4   19.40   24.50   1
 -17  13  -4   -0.00   30.10   1
  17 -13   4   73.30   37.10   1
 -17 -13   4    4.10   22.00   1
  17  13  -4    5.90   21.80   1
  17  13   5  419.50  143.10   1
 -17 -13  -5  450.50  143.20   1
  17 -13  -5  467.70  142.80   1
 -17  13   5  314.40  141.30   1
 -17  13  -5  253.70  148.50   1
  17 -13   5  477.70  161.20   1
 -17 -13   5  320.70  141.60   1
  17  13  -5  259.90  140.80   1
  17  14   0   24.80   22.50   1
 -17 -14   0    5.60   22.20   1
  17 -14   0    5.80   26.70   1
 -17  14   0   28.60   32.00   1
  17  14   1    4.40   13.80   1
 -17 -14  -1    3.80   14.50   1
  17 -14  -1   16.00   18.10   1
 -17  14   1   -0.00   18.60   1
 -17  14  -1    0.00   19.20   1
  17 -14   1    8.50   28.90   1
 -17 -14   1    3.30   14.00   1
  17  14  -1    4.50   14.10   1
  17  14   2   44.70   22.90   1
 -17 -14  -2   20.40   22.20   1
  17 -14  -2   19.00   28.50   1
 -17  14   2   -0.00   25.00   1
 -17  14  -2   12.40   27.00   1
  17 -14   2   25.90   33.00   1
 -17 -14   2    1.30   21.10   1
  17  14  -2    8.50   21.20   1
  17  14   3    9.10   21.10   1
 -17 -14  -3    9.20   21.40   1
  17 -14  -3    3.20   26.40   1
 -17  14   3   -0.00   24.30   1
 -17  14  -3   23.40   30.40   1
  17 -14   3   49.30   34.60   1
 -17 -14   3   13.30   20.70   1
  17  14  -3   13.40   21.10   1
  17  14   4   -0.00   22.00   1
 -17 -14  -4   27.90   22.60   1
  17 -14  -4    8.60   24.40   1
 -17  14   4   36.00   26.20   1
 -17  14  -4    6.10   27.30   1
  17 -14   4   30.30   34.10   1
 -17 -14   4   -0.00   20.30   1
  17  14  -4   22.30   21.40   1
  17  15   0    5.40   12.80   1
 -17 -15   0   -0.00   12.90   1
  17 -15   0   17.80   24.70   1
 -17  15   0    8.00   23.90   1
  17  15   1    6.60   19.50   1
 -17 -15  -1    5.50   19.40   1
  17 -15  -1   60.90   25.90   1
 -17  15   1   24.30   24.70   1
 -17  15  -1    1.70   26.70   1
  17 -15   1   17.90   29.40   1
 -17 -15   1   16.60   19.60   1
  17  15  -1    6.40   19.30   1
  17  15   2   -0.00   12.50   1
 -17 -15  -2    9.90   14.00   1
  17 -15  -2   10.30   20.50   1
 -17  15   2   -0.00   14.80   1
 -17  15  -2    0.00   21.80   1
  17 -15   2   -0.00   24.30   1
 -17 -15   2    4.90   12.60   1
  17  15  -2    1.30   12.70   1
  18   0   0  340.70  141.10   1
 -18   0   0  361.60  141.20   1
  18   0   1   32.40   22.70   1
 -18   0  -1   11.40   22.30   1
  18   0  -1    4.30   22.30   1
 -18   0   1    6.00   22.00   1
  18   0   2  251.50  115.40   1
 -18   0  -2  537.00  118.60   1
  18   0  -2  260.00  115.60   1
 -18   0   2  216.50  115.10   1
  18   0   3   21.10   42.60   1
 -18   0  -3   30.00   42.90   1
  18   0  -3  109.40   44.50   1
 -18   0   3   97.50   44.20   1
  18   0   4  758.60  180.20   1
 -18   0  -4  624.60  178.20   1
  18   0  -4 1062.70  182.50   1
 -18   0   4  320.40  174.40   1
  18   0   5  103.10   49.80   1
 -18   0  -5   81.10   49.20   1
  18   0  -5   46.70   46.80   1
 -18   0   5   46.40   47.30   1
  18   0   6  248.00   89.70   1
 -18   0  -6  109.50   87.70   1
  18   0  -6  305.90   89.20   1
 -18   0   6  174.30   87.70   1
  18   0   7    4.10   22.10   1
 -18   0  -7    8.40   23.60   1
  18   0  -7   13.10   18.00   1
 -18   0   7   -0.00   18.90   1
  18   0   8  289.90   80.90   1
 -18   0  -8  105.70   75.30   1
  18   0  -8  101.50   72.80   1
 -18   0   8  200.20   74.10   1
  18   0   9   28.30   44.00   1
 -18   0  -9   61.00   44.70   1
  18   0  -9   49.90   39.60   1
 -18   0   9   36.50   39.60   1
  18   1   0   -0.00   12.00   1
 -18  -1   0   -0.00   13.40   1
  18  -1   0    5.50   13.00   1
 -18   1   0    2.30   12.30   1
  18   1   1  109.60   52.70   1
 -18  -1  -1   56.00   52.20   1
  18  -1  -1  146.10   53.30   1
 -18   1   1  147.30   53.30   1
 -18   1  -1   41.60   52.10   1
  18  -1   1   53.20   52.10   1
 -18  -1   1   65.80   51.90   1
  18   1  -1   87.50   52.40   1
  18   1   2   28.90   19.30   1
 -18  -1  -2    4.60   19.60   1
  18  -1  -2   12.10   18.60   1
 -18   1   2    6.80   18.20   1
 -18   1  -2    0.30   19.90   1
  18  -1   2    0.00   20.40   1
 -18  -1   2   -0.00   19.10   1
  18   1  -2   11.40   21.80   1
  18   1   3    4.00   28.90   1
 -18  -1  -3   13.20   29.10   1
  18  -1  -3   21.50   29.80   1
 -18   1   3   14.60   28.10   1
 -18   1  -3  211.90   36.90   1
  18  -1   3  179.60   35.10   1
 -18  -1   3    9.80   29.40   1
  18   1  -3   17.00   29.00   1
  18   1   4   23.30   22.50   1
 -18  -1  -4   17.10   23.00   1
  18  -1  -4   11.50   20.90   1
 -18   1   4    4.70   21.00   1
 -18   1  -4    4.30   22.70   1
  18  -1   4   17.40   24.20   1
 -18  -1   4    0.10   20.70   1
  18   1  -4    2.90   20.50   1
  18   1   5    2.10   25.70   1
 -18  -1  -5   -0.00   23.60   1
  18  -1  -5   22.90   23.90   1
 -18   1   5   13.20   24.60   1
 -18   1  -5   -0.00   24.40   1
  18  -1   5   88.30   28.70   1
 -18  -1   5    5.30   21.80   1
  18   1  -5   17.60   22.60   1
  18   1   6   40.40   23.30   1
 -18  -1  -6    3.40   18.10   1
  18  -1  -6    3.10   14.80   1
 -18   1   6    4.20   15.70   1
 -18   1  -6    7.50   18.00   1
  18  -1   6    3.00   19.10   1
 -18  -1   6   -0.00   16.70   1
  18   1  -6   -0.00   15.60   1
  18   1   7  191.20   74.10   1
 -18  -1  -7  220.70   74.80   1
  18  -1  -7  127.70   72.40   1
 -18   1   7  192.80   73.10   1
 -18   1  -7  155.20   76.30   1
  18  -1   7  136.60   74.40   1
 -18  -1   7   67.20   71.60   1
  18   1  -7  141.40   72.10   1
  18   1   8   10.60   23.60   1
 -18  -1  -8   13.20   24.10   1
  18  -1  -8    7.80   16.80   1
 -18   1   8   15.90   17.50   1
 -18   1  -8   -0.00   22.10   1
  18  -1   8   15.10   25.40   1
 -18  -1   8   -0.00   15.50   1
  18   1  -8    4.60   15.90   1
  18   1   9   18.10   31.80   1
 -18  -1  -9    4.10   28.90   1
  18  -1  -9   11.90   24.70   1
 -18   1   9    8.10   24.90   1
 -18   1  -9   -0.00   29.20   1
  18  -1   9   81.70   35.60   1
 -18  -1   9   20.70   25.00   1
  18   1  -9   37.40   25.30   1
  18   2   0  110.00   84.70   1
 -18  -2   0  195.50   85.30   1
  18  -2   0  259.30   86.20   1
 -18   2   0  195.30   85.40   1
  18   2   1   73.50   35.10   1
 -18  -2  -1   59.10   35.00   1
  18  -2  -1   81.10   35.60   1
 -18   2   1   63.30   35.10   1
 -18   2  -1    9.70   34.70   1
  18  -2   1   21.00   34.30   1
 -18  -2   1   15.50   33.90   1
  18   2  -1   -0.00   34.70   1
  18   2   2    3.50   24.10   1
 -18  -2  -2   10.50   24.20   1
  18  -2  -2    2.90   23.80   1
 -18   2   2   12.70   24.10   1
 -18   2  -2   59.60   27.00   1
  18  -2   2   15.70   25.40   1
 -18  -2   2   36.20   26.30   1
  18   2  -2   41.10   26.60   1
  18   2   3    0.00   21.50   1
 -18  -2  -3   -0.00   21.90   1
  18  -2  -3    8.60   20.90   1
 -18   2   3    6.90   20.40   1
 -18   2  -3  137.80   29.10   1
 -18  -2   3   15.10   22.60   1
  18   2  -3   16.50   24.30   1
  18   2   4   23.70   34.10   1
 -18  -2  -4   11.10   35.00   1
  18  -2  -4   28.90   35.60   1
 -18   2   4   80.60   35.90   1
 -18   2  -4   26.40   35.80   1
  18  -2   4   25.70   36.30   1
 -18  -2   4   36.40   34.20   1
  18   2  -4   27.00   33.30   1
  18   2   5   13.50   25.00   1
 -18  -2  -5   11.40   23.60   1
  18  -2  -5    9.20   23.10   1
 -18   2   5   -0.00   21.00   1
 -18   2  -5    7.10   22.90   1
  18  -2   5   17.00   23.80   1
 -18  -2   5   14.10   20.90   1
  18   2  -5   13.90   21.10   1
  18   2   6   29.20   25.70   1
 -18  -2  -6   -0.00   23.70   1
  18  -2  -6    4.90   21.00   1
 -18   2   6   13.40   22.60   1
 -18   2  -6  174.40   30.20   1
  18  -2   6   14.20   23.80   1
 -18  -2   6    7.40   21.00   1
  18   2  -6   -0.10   21.30   1
  18   2   7    0.30   19.30   1
 -18  -2  -7    0.40   16.50   1
  18  -2  -7   -0.00   15.00   1
 -18   2   7   10.10   13.70   1
 -18   2  -7   14.30   22.60   1
  18  -2   7   35.10   27.40   1
 -18  -2   7    1.40   14.30   1
  18   2  -7    0.00   13.40   1
  18   2   8   31.30   44.40   1
 -18  -2  -8   78.60   45.70   1
  18  -2  -8   88.00   43.50   1
 -18   2   8   28.20   42.90   1
 -18   2  -8   30.50   46.00   1
  18  -2   8   40.90   47.30   1
 -18  -2   8   71.50   42.80   1
  18   2  -8   47.00   42.50   1
  18   2   9   36.50   34.20   1
 -18  -2  -9    2.60   31.00   1
  18  -2  -9   10.70   26.80   1
 -18   2   9   32.80   27.40   1
 -18   2  -9    9.50   32.60   1
  18  -2   9    4.40   34.70   1
 -18  -2   9   11.40   26.60   1
  18   2  -9   50.90   27.10   1
  18   3   0    7.50   27.40   1
 -18  -3   0    1.30   26.90   1
  18  -3   0   54.40   28.10   1
 -18   3   0   52.90   28.30   1
  18   3   1  100.30   64.10   1
 -18  -3  -1  103.70   64.40   1
  18  -3  -1  128.70   64.70   1
 -18   3   1  177.20   64.90   1
 -18   3  -1   81.90   64.50   1
  18  -3   1  103.70   65.10   1
 -18  -3   1   85.20   64.30   1
  18   3  -1   83.30   65.20   1
  18   3   2   24.90   32.80   1
 -18  -3  -2   28.50   33.00   1
  18  -3  -2   17.60   32.80   1
 -18   3   2   19.00   33.20   1
 -18   3  -2   12.60   35.30   1
  18  -3   2   19.90   35.50   1
 -18  -3   2   53.20   34.20   1
  18   3  -2   88.10   34.60   1
  18   3   3   72.10   51.60   1
 -18  -3  -3   74.10   51.70   1
  18  -3  -3   67.00   51.30   1
 -18   3   3   80.70   51.30   1
 -18   3  -3   33.50   52.40   1
  18  -3   3   71.90   53.20   1
 -18  -3   3   75.70   52.10   1
  18   3  -3   76.60   51.90   1
  18   3   4   31.70   27.10   1
 -18  -3  -4   14.90   26.90   1
  18  -3  -4   29.20   27.10   1
 -18   3   4   18.20   25.80   1
 -18   3  -4   15.60   28.00   1
  18  -3   4    7.90   29.90   1
 -18  -3   4    7.10   25.60   1
  18   3  -4   20.00   26.70   1
  18   3   5   36.90   31.80   1
 -18  -3  -5   34.20   32.30   1
  18  -3  -5   27.20   30.60   1
 -18   3   5   10.30   30.40   1
 -18   3  -5   34.80   31.20   1
  18  -3   5   14.90   31.00   1
 -18  -3   5   18.20   29.40   1
  18   3  -5   21.80   29.50   1
  18   3   6   17.30   23.50   1
 -18  -3  -6    3.00   22.50   1
  18  -3  -6    9.60   22.70   1
 -18   3   6   14.90   22.70   1
 -18   3  -6   10.80   27.70   1
  18  -3   6   -0.00   25.60   1
 -18  -3   6   12.20   20.40   1
  18   3  -6   10.20   20.30   1
  18   3   7  126.60   45.90   1
 -18  -3  -7   39.50   42.30   1
  18  -3  -7   61.90   41.20   1
 -18   3   7   76.60   41.80   1
 -18   3  -7   14.10   42.70   1
  18  -3   7   24.80   44.90   1
 -18  -3   7   30.50   40.60   1
  18   3  -7   52.10   41.00   1
  18   3   8    2.00   25.30   1
 -18  -3  -8   12.60   26.20   1
  18  -3  -8   -0.00   24.20   1
 -18   3   8    1.90   24.20   1
 -18   3  -8    7.10   28.50   1
  18  -3   8   18.80   30.50   1
 -18  -3   8   26.50   23.00   1
  18   3  -8   25.50   23.00   1
  18   3   9  108.30   42.60   1
 -18  -3  -9  119.90   44.70   1
  18  -3  -9   38.10   37.50   1
 -18   3   9   49.40   37.90   1
 -18   3  -9  235.10   57.10   1
  18  -3   9   13.10   43.40   1
 -18  -3   9   19.80   36.80   1
  18   3  -9   38.00   36.80   1
  18   4   0  108.20   54.30   1
 -18  -4   0   70.00   53.20   1
  18  -4   0   63.30   53.50   1
 -18   4   0   69.80   54.00   1
  18   4   1   -0.00   12.50   1
 -18  -4  -1    2.40   12.20   1
  18  -4  -1    3.70   13.40   1
 -18   4   1    5.30   14.60   1
 -18   4  -1    7.60   18.20   1
  18  -4   1   -0.00   15.50   1
 -18  -4   1    6.30   15.00   1
  18   4  -1   -0.00   16.20   1
  18   4   2    6.50   32.40   1
 -18  -4  -2   48.10   33.00   1
  18  -4  -2   47.30   33.20   1
 -18   4   2   15.70   32.70   1
 -18   4  -2   19.00   34.90   1
  18  -4   2   22.30   36.50   1
 -18  -4   2   39.20   34.10   1
  18   4  -2   45.80   34.00   1
  18   4   3    3.10   14.60   1
 -18  -4  -3    7.70   14.40   1
  18  -4  -3   -0.00   14.00   1
 -18   4   3   -0.00   14.80   1
 -18   4  -3    2.60   21.10   1
  18  -4   3   -0.00   20.30   1
 -18  -4   3    8.00   14.50   1
  18   4  -3    3.20   14.40   1
  18   4   4    0.00   25.10   1
 -18  -4  -4   13.30   25.40   1
  18  -4  -4   54.20   25.30   1
 -18   4   4    4.60   24.20   1
 -18   4  -4   -0.00   26.40   1
  18  -4   4   30.00   28.50   1
 -18  -4   4   26.80   25.20   1
  18   4  -4   21.10   25.20   1
  18   4   5   12.60   15.80   1
 -18  -4  -5    3.60   17.90   1
  18  -4  -5    3.10   17.10   1
 -18   4   5    7.00   16.20   1
 -18   4  -5   -0.00   20.40   1
  18  -4   5    0.80   18.80   1
 -18  -4   5    3.80   14.80   1
  18   4  -5   -0.00   14.30   1
  18   4   6   11.60   24.80   1
 -18  -4  -6    2.00   23.50   1
  18  -4  -6   31.00   23.30   1
 -18   4   6   55.20   23.00   1
 -18   4  -6    8.60   25.80   1
  18  -4   6   13.30   30.40   1
 -18  -4   6   -0.00   19.90   1
  18   4  -6    5.50   20.30   1
  18   4   7    6.20   21.20   1
 -18  -4  -7   -0.00   22.80   1
  18  -4  -7    0.70   18.00   1
 -18   4   7    8.40   18.70   1
 -18   4  -7    2.40   25.70   1
  18  -4   7   16.30   29.10   1
 -18  -4   7    8.10   16.40   1
  18   4  -7    8.70   16.90   1
  18   4   8   69.40   23.70   1
 -18  -4  -8   -0.00   19.80   1
  18  -4  -8   14.20   18.90   1
 -18   4   8    9.40   18.60   1
 -18   4  -8   14.60   25.80   1
  18  -4   8   -0.00   26.50   1
 -18  -4   8   -0.00   17.50   1
  18   4  -8    5.10   17.90   1
  18   4   9    6.70   16.80   1
 -18  -4  -9    5.30   19.50   1
  18  -4  -9    1.40   13.90   1
 -18   4   9   -0.00   14.20   1
 -18   4  -9   -0.00   21.90   1
  18  -4   9    2.60   27.80   1
 -18  -4   9    4.60   11.40   1
  18   4  -9    0.40   11.50   1
  18   5   0   10.50   23.30   1
 -18  -5   0   26.80   22.50   1
  18  -5   0    9.40   22.20   1
 -18   5   0   -0.00   22.20   1
  18   5   1  210.10   76.70   1
 -18  -5  -1  126.20   75.70   1
  18  -5  -1  189.70   76.40   1
 -18   5   1  198.90   76.80   1
 -18   5  -1  228.30   78.80   1
  18  -5   1  274.30   79.30   1
 -18  -5   1   62.50   75.70   1
  18   5  -1  115.20   76.60   1
  18   5   2    0.70   11.40   1
 -18  -5  -2   -0.00   13.00   1
  18  -5  -2    3.30   13.50   1
 -18   5   2    5.00   12.80   1
 -18   5  -2   -0.00   16.40   1
  18  -5   2    2.40   17.40   1
 -18  -5   2   -0.00   14.60   1
  18   5  -2    4.30   13.50   1
  18   5   3   81.70   38.00   1
 -18  -5  -3   49.30   37.70   1
  18  -5  -3   45.90   37.70   1
 -18   5   3   88.20   38.70   1
 -18   5  -3   15.80   38.50   1
  18  -5   3   51.60   41.00   1
 -18  -5   3    9.90   37.00   1
  18   5  -3   33.20   37.60   1
  18   5   4   36.00   29.90   1
 -18  -5  -4   16.20   30.00   1
  18  -5  -4   26.60   30.00   1
 -18   5   4   20.30   29.60   1
 -18   5  -4   15.90   31.60   1
  18  -5   4   12.60   31.60   1
 -18  -5   4   34.30   30.70   1
  18   5  -4   25.50   30.00   1
  18   5   5   11.70   29.30   1
 -18  -5  -5   35.50   29.80   1
  18  -5  -5   55.90   30.90   1
 -18   5   5   21.70   29.50   1
 -18   5  -5   24.20   34.10   1
  18  -5   5    9.90   33.10   1
 -18  -5   5   20.00   29.30   1
  18   5  -5   19.20   29.00   1
  18   5   6   68.40   41.70   1
 -18  -5  -6  226.50   46.10   1
  18  -5  -6   40.30   41.40   1
 -18   5   6   75.60   41.90   1
 -18   5  -6   29.30   42.80   1
  18  -5   6   45.80   44.60   1
 -18  -5   6   33.30   39.70   1
  18   5  -6   30.10   39.40   1
  18   5   7  481.60  133.80   1
 -18  -5  -7  262.90  130.30   1
  18  -5  -7  519.20  132.90   1
 -18   5   7  239.60  129.60   1
 -18   5  -7  162.10  130.90   1
  18  -5   7  527.50  139.60   1
 -18  -5   7  430.10  130.40   1
  18   5  -7  416.00  130.20   1
  18   5   8   19.00   28.10   1
 -18  -5  -8   13.60   25.80   1
  18  -5  -8    1.50   23.70   1
 -18   5   8    5.10   24.90   1
 -18   5  -8    9.20   31.50   1
  18  -5   8   -0.00   33.40   1
 -18  -5   8   21.20   23.10   1
  18   5  -8   24.60   23.20   1
  18   5   9   25.90   29.90   1
 -18  -5  -9   28.20   30.60   1
  18  -5  -9   20.60   29.10   1
 -18   5   9   73.50   29.80   1
 -18   5  -9    3.10   33.40   1
  18  -5   9   34.80   39.20   1
 -18  -5   9   12.30   27.60   1
  18   5  -9   15.40   28.00   1
  18   6   0  106.60   58.70   1
 -18  -6   0   90.20   58.70   1
  18  -6   0  102.40   59.00   1
 -18   6   0   53.80   58.80   1
  18   6   1   15.20   20.30   1
 -18  -6  -1    0.00   19.30   1
  18  -6  -1   10.10   20.50   1
 -18   6   1   12.20   21.10   1
 -18   6  -1   12.60   23.00   1
  18  -6   1   14.90   24.30   1
 -18  -6   1    4.80   20.70   1
  18   6  -1    6.20   21.50   1
  18   6   2    7.80   19.10   1
 -18  -6  -2    3.90   18.50   1
  18  -6  -2   -0.00   20.00   1
 -18   6   2    0.00   19.30   1
 -18   6  -2   15.80   24.10   1
  18  -6   2   18.20   24.40   1
 -18  -6   2   16.60   19.50   1
  18   6  -2   24.30   19.80   1
  18   6   3    9.10   20.50   1
 -18  -6  -3    7.20   20.90   1
  18  -6  -3   -0.00   21.50   1
 -18   6   3   10.70   20.40   1
 -18   6  -3   10.50   22.10   1
  18  -6   3   16.90   25.40   1
 -18  -6   3   14.80   20.90   1
  18   6  -3   13.40   21.00   1
  18   6   4   31.30   27.10   1
 -18  -6  -4   -0.00   26.50   1
  18  -6  -4   24.80   26.60   1
 -18   6   4   15.30   27.10   1
 -18   6  -4   32.80   31.00   1
  18  -6   4   30.10   29.90   1
 -18  -6   4   32.50   26.80   1
  18   6  -4    8.10   26.70   1
  18   6   5    9.30   17.90   1
 -18  -6  -5    4.50   17.60   1
  18  -6  -5   15.30   17.80   1
 -18   6   5   11.90   17.20   1
 -18   6  -5   -0.00   23.60   1
  18  -6   5    5.00   26.30   1
 -18  -6   5    5.20   16.40   1
  18   6  -5    1.80   16.70   1
  18   6   6    2.50   24.00   1
 -18  -6  -6   33.70   25.10   1
  18  -6  -6    5.20   24.50   1
 -18   6   6    5.30   23.70   1
 -18   6  -6   15.50   29.10   1
  18  -6   6   -0.00   31.30   1
 -18  -6   6   18.40   22.90   1
  18   6  -6   18.80   22.60   1
  18   6   7    9.60   21.30   1
 -18  -6  -7    2.50   20.50   1
  18  -6  -7    2.20   18.00   1
 -18   6   7    0.80   20.10   1
 -18   6  -7    4.70   26.70   1
  18  -6   7    0.30   28.10   1
 -18  -6   7    9.50   16.90   1
  18   6  -7    9.80   16.50   1
  18   6   8   57.60   48.90   1
 -18  -6  -8   98.60   50.30   1
  18  -6  -8   66.10   48.20   1
 -18   6   8   65.70   48.60   1
 -18   6  -8   52.60   52.20   1
  18  -6   8   44.30   54.30   1
 -18  -6   8   46.20   46.80   1
  18   6  -8   60.00   47.10   1
  18   7   0   23.20   24.50   1
 -18  -7   0    8.80   23.40   1
  18  -7   0   -0.00   27.60   1
 -18   7   0   18.80   27.50   1
  18   7   1   28.40   24.10   1
 -18  -7  -1   37.00   24.50   1
  18  -7  -1   11.70   23.40   1
 -18   7   1   -0.00   23.20   1
 -18   7  -1    7.20   25.60   1
  18  -7   1   -0.00   26.30   1
 -18  -7   1   30.40   23.40   1
  18   7  -1   -0.00   22.20   1
  18   7   2   12.30   20.00   1
 -18  -7  -2    0.00   19.10   1
  18  -7  -2    8.60   20.00   1
 -18   7   2   12.60   21.20   1
 -18   7  -2   -0.00   22.60   1
  18  -7   2   -0.00   26.10   1
 -18  -7   2   17.10   20.40   1
  18   7  -2   16.70   20.50   1
  18   7   3   62.00   25.60   1
 -18  -7  -3   -0.00   25.00   1
  18  -7  -3    7.30   25.80   1
 -18   7   3   -0.00   25.30   1
 -18   7  -3   10.60   27.40   1
  18  -7   3    9.80   27.30   1
 -18  -7   3   33.70   25.60   1
  18   7  -3   32.10   25.50   1
  18   7   4   15.50   15.70   1
 -18  -7  -4    3.10   15.40   1
  18  -7  -4    0.50   16.00   1
 -18   7   4    6.80   15.70   1
 -18   7  -4    0.00   23.10   1
  18  -7   4   -0.00   22.90   1
 -18  -7   4    3.90   14.00   1
  18   7  -4    0.70   13.40   1
  18   7   5   27.10   26.90   1
 -18  -7  -5   16.20   26.80   1
  18  -7  -5   11.50   26.90   1
 -18   7   5   24.40   27.10   1
 -18   7  -5   -0.00   29.10   1
  18  -7   5   31.70   33.40   1
 -18  -7   5   19.10   26.20   1
  18   7  -5   20.80   26.30   1
  18   7   6   10.00   23.60   1
 -18  -7  -6    4.90   24.00   1
  18  -7  -6   -0.00   23.60   1
 -18   7   6    0.00   23.40   1
 -18   7  -6   -0.00   28.00   1
  18  -7   6   17.80   31.00   1
 -18  -7   6   26.30   22.90   1
  18   7  -6   40.40   22.90   1
  18   7   7    8.20   23.10   1
 -18  -7  -7   58.60   26.40   1
  18  -7  -7   52.80   24.90   1
 -18   7   7   15.70   23.70   1
 -18   7  -7   -0.00   30.00   1
  18  -7   7   -0.00   31.20   1
 -18  -7   7    5.10   21.00   1
  18   7  -7    6.00   21.10   1
  18   7   8   28.90   27.70   1
 -18  -7  -8    7.60   26.00   1
  18  -7  -8   32.30   26.20   1
 -18   7   8   10.60   24.20   1
 -18   7  -8    3.70   29.30   1
  18  -7   8   16.30   38.60   1
 -18  -7   8   10.00   22.60   1
  18   7  -8   14.30   22.80   1
  18   8   0   31.00   40.40   1
 -18  -8   0   63.80   41.30   1
  18  -8   0  177.90   46.00   1
 -18   8   0   13.10   42.30   1
  18   8   1    3.60   40.80   1
 -18  -8  -1  104.50   42.60   1
  18  -8  -1   56.00   41.80   1
 -18   8   1   80.40   42.50   1
 -18   8  -1   50.20   43.80   1
  18  -8   1   77.90   43.90   1
 -18  -8   1   29.00   40.10   1
  18   8  -1   55.70   40.60   1
  18   8   2  135.90   69.80   1
 -18  -8  -2   66.00   68.50   1
  18  -8  -2  184.10   69.80   1
 -18   8   2  213.90   70.50   1
 -18   8  -2   88.70   69.10   1
  18  -8   2   91.70   70.30   1
 -18  -8   2  154.50   69.40   1
  18   8  -2  138.70   69.00   1
  18   8   3   26.60   38.10   1
 -18  -8  -3   56.60   38.20   1
  18  -8  -3   36.40   38.60   1
 -18   8   3   51.10   38.80   1
 -18   8  -3   48.40   41.70   1
  18  -8   3   60.60   41.80   1
 -18  -8   3   38.20   38.10   1
  18   8  -3   30.10   37.90   1
  18   8   4   19.80   33.10   1
 -18  -8  -4   25.10   33.30   1
  18  -8  -4   30.00   34.10   1
 -18   8   4   35.20   33.30   1
 -18   8  -4   10.60   37.50   1
  18  -8   4   18.60   38.40   1
 -18  -8   4   61.70   32.60   1
  18   8  -4   20.40   32.20   1
  18   8   5   20.10   24.40   1
 -18  -8  -5   12.40   24.30   1
  18  -8  -5   15.40   24.20   1
 -18   8   5   23.90   25.10   1
 -18   8  -5    0.00   30.80   1
  18  -8   5   46.00   33.10   1
 -18  -8   5   12.60   23.60   1
  18   8  -5   11.40   23.80   1
  18   8   6   17.70   34.20   1
 -18  -8  -6   76.50   35.30   1
  18  -8  -6   18.60   34.20   1
 -18   8   6   13.70   34.00   1
 -18   8  -6   -0.00   38.20   1
  18  -8   6   11.60   39.80   1
 -18  -8   6   49.50   33.70   1
  18   8  -6  125.20   35.10   1
  18   8   7   22.80   32.30   1
 -18  -8  -7   19.80   33.20   1
  18  -8  -7   17.30   33.40   1
 -18   8   7   79.00   33.40   1
 -18   8  -7   19.20   40.00   1
  18  -8   7   31.80   44.00   1
 -18  -8   7   24.20   31.20   1
  18   8  -7   27.70   31.30   1
  18   8   8   93.60   36.90   1
 -18  -8  -8   65.70   35.90   1
  18  -8  -8   23.60   33.90   1
 -18   8   8   51.20   34.80   1
 -18   8  -8   16.60   36.80   1
  18  -8   8   58.50   44.30   1
 -18  -8   8   20.50   32.50   1
  18   8  -8   16.30   32.70   1
  18   9   0    1.50   12.30   1
 -18  -9   0    1.90   12.90   1
  18  -9   0    4.70   17.70   1
 -18   9   0    4.60   17.00   1
  18   9   1    0.00   29.10   1
 -18  -9  -1   36.50   29.00   1
  18  -9  -1   81.20   32.90   1
 -18   9   1   39.90   32.10   1
 -18   9  -1    5.90   29.10   1
  18  -9   1   10.20   33.00   1
 -18  -9   1    8.00   27.90   1
  18   9  -1   30.20   28.30   1
  18   9   2    2.70   17.00   1
 -18  -9  -2    7.10   16.90   1
  18  -9  -2    5.10   17.10   1
 -18   9   2   -0.00   16.60   1
 -18   9  -2   -0.00   18.00   1
  18  -9   2    5.00   19.00   1
 -18  -9   2    9.10   15.20   1
  18   9  -2    2.30   13.90   1
  18   9   3    0.00   18.10   1
 -18  -9  -3    0.00   17.00   1
  18  -9  -3    8.80   18.60   1
 -18   9   3    7.00   18.20   1
 -18   9  -3   27.00   25.50   1
  18  -9   3   10.20   22.60   1
 -18  -9   3   -0.00   16.60   1
  18   9  -3   17.00   16.60   1
  18   9   4   11.30   23.10   1
 -18  -9  -4   17.50   23.50   1
  18  -9  -4   27.60   23.90   1
 -18   9   4   16.90   23.90   1
 -18   9  -4    5.50   26.90   1
  18  -9   4   22.20   32.10   1
 -18  -9   4    6.00   22.70   1
  18   9  -4   13.60   22.70   1
  18   9   5    0.00   21.70   1
 -18  -9  -5   15.10   21.10   1
  18  -9  -5   -0.00   21.90   1
 -18   9   5    4.50   21.20   1
 -18   9  -5    5.80   27.80   1
  18  -9   5   13.50   29.30   1
 -18  -9   5   11.20   20.00   1
  18   9  -5   25.80   20.50   1
  18   9   6    3.90   12.90   1
 -18  -9  -6    5.50   13.10   1
  18  -9  -6   -0.00   13.50   1
 -18   9   6    5.50   13.50   1
 -18   9  -6   -0.00   28.00   1
  18  -9   6   -0.00   28.90   1
 -18  -9   6   -0.00   12.60   1
  18   9  -6    2.90   12.00   1
  18   9   7   31.20   22.10   1
 -18  -9  -7   22.60   22.70   1
  18  -9  -7    3.50   22.10   1
 -18   9   7   29.50   21.50   1
 -18   9  -7   -0.00   26.00   1
  18  -9   7    0.00   33.50   1
 -18  -9   7   -0.00   20.50   1
  18   9  -7    4.90   21.20   1
  18  10   0   69.00   41.40   1
 -18 -10   0   22.50   40.40   1
  18 -10   0  150.70   46.10   1
 -18  10   0   51.90   43.30   1
  18  10   1    9.00   18.30   1
 -18 -10  -1    9.40   19.50   1
  18 -10  -1   -0.00   23.90   1
 -18  10   1   -0.00   20.60   1
 -18  10  -1   -0.00   19.40   1
  18 -10   1   37.70   23.90   1
 -18 -10   1    0.00   18.20   1
  18  10  -1   14.10   18.40   1
  18  10   2  261.30   38.70   1
 -18 -10  -2  142.30   35.90   1
  18 -10  -2   26.50   33.50   1
 -18  10   2   59.30   35.50   1
 -18  10  -2  211.00   40.90   1
  18 -10   2   41.10   34.80   1
 -18 -10   2   21.30   31.80   1
  18  10  -2    4.20   31.30   1
  18  10   3    8.10   32.70   1
 -18 -10  -3   38.80   32.30   1
  18 -10  -3   23.40   32.50   1
 -18  10   3   40.20   32.60   1
 -18  10  -3   16.60   36.30   1
  18 -10   3   51.40   39.90   1
 -18 -10   3   27.20   31.20   1
  18  10  -3   24.70   31.20   1
  18  10   4   36.20   36.20   1
 -18 -10  -4   35.80   35.90   1
  18 -10  -4   30.40   36.40   1
 -18  10   4   31.20   36.20   1
 -18  10  -4   70.70   41.50   1
  18 -10   4   79.00   43.00   1
 -18 -10   4   37.80   35.70   1
  18  10  -4   26.30   35.60   1
  18  10   5   23.50   19.00   1
 -18 -10  -5    9.30   20.00   1
  18 -10  -5   12.50   20.40   1
 -18  10   5   14.60   19.90   1
 -18  10  -5   26.00   27.00   1
  18 -10   5    0.00   30.70   1
 -18 -10   5   -0.00   18.30   1
  18  10  -5   -0.00   18.30   1
  18  10   6   84.80   56.00   1
 -18 -10  -6   60.40   55.70   1
  18 -10  -6  153.90   57.20   1
 -18  10   6   97.60   56.60   1
 -18  10  -6   18.00   59.20   1
  18 -10   6   38.90   61.40   1
 -18 -10   6   93.60   55.60   1
  18  10  -6  122.90   56.20   1
  18  10   7    1.80   11.00   1
 -18 -10  -7    0.00   12.10   1
  18 -10  -7   -0.00   11.40   1
 -18  10   7   -0.00   10.70   1
 -18  10  -7   -0.00   19.60   1
  18 -10   7   -0.00   30.50   1
 -18 -10   7    0.20    9.20   1
  18  10  -7    2.60   10.70   1
  18  11   0    4.10   15.40   1
 -18 -11   0   -0.00   14.90   1
  18 -11   0   18.10   23.80   1
 -18  11   0    4.60   19.10   1
  18  11   1   68.80   29.70   1
 -18 -11  -1   17.90   28.60   1
  18 -11  -1   37.00   31.90   1
 -18  11   1    8.60   30.90   1
 -18  11  -1   14.60   30.60   1
  18 -11   1   31.10   31.70   1
 -18 -11   1   31.70   29.10   1
  18  11  -1    8.10   28.20   1
  18  11   2   11.80   21.80   1
 -18 -11  -2   13.40   22.60   1
  18 -11  -2   -0.00   24.60   1
 -18  11   2   46.50   26.60   1
 -18  11  -2   35.70   29.00   1
  18 -11   2   13.50   25.70   1
 -18 -11   2    5.20   19.70   1
  18  11  -2    7.30   19.70   1
  18  11   3   -0.00   25.30   1
 -18 -11  -3    7.30   25.90   1
  18 -11  -3   52.50   27.50   1
 -18  11   3    7.90   26.90   1
 -18  11  -3   11.30   28.10   1
  18 -11   3   66.30   34.70   1
 -18 -11   3   22.70   24.00   1
  18  11  -3   12.60   23.90   1
  18  11   4    9.40   19.00   1
 -18 -11  -4   16.30   18.10   1
  18 -11  -4    7.10   19.20   1
 -18  11   4   -0.00   19.60   1
 -18  11  -4   -0.00   23.70   1
  18 -11   4   26.60   28.70   1
 -18 -11   4   -0.00   17.30   1
  18  11  -4    9.90   17.30   1
  18  11   5   25.30   26.90   1
 -18 -11  -5    4.50   26.50   1
  18 -11  -5   10.60   27.60   1
 -18  11   5    2.70   26.80   1
 -18  11  -5   17.10   35.00   1
  18 -11   5   30.00   36.30   1
 -18 -11   5   40.50   26.50   1
  18  11  -5   40.80   26.70   1
  18  11   6   11.10   15.80   1
 -18 -11  -6    4.30   15.20   1
  18 -11  -6   13.40   16.90   1
 -18  11   6    7.80   16.50   1
 -18  11  -6    3.60   21.30   1
  18 -11   6   -0.00   30.60   1
 -18 -11   6    0.00   14.00   1
  18  11  -6   -0.00   14.40   1
  18  12   0   85.40   49.60   1
 -18 -12   0   67.00   49.30   1
  18 -12   0   69.80   51.80   1
 -18  12   0   38.00   50.20   1
  18  12   1   56.30   30.60   1
 -18 -12  -1   37.50   29.80   1
  18 -12  -1   24.50   33.20   1
 -18  12   1   -0.00   33.10   1
 -18  12  -1   29.60   33.50   1
  18 -12   1   25.80   32.20   1
 -18 -12   1   19.40   29.30   1
  18  12  -1   13.50   28.80   1
  18  12   2   11.90   24.00   1
 -18 -12  -2   29.10   25.10   1
  18 -12  -2   -0.00   28.40   1
 -18  12   2   -0.00   25.00   1
 -18  12  -2   25.40   31.40   1
  18 -12   2   59.00   32.50   1
 -18 -12   2   11.10   23.10   1
  18  12  -2   17.50   23.20   1
  18  12   3    8.20   20.90   1
 -18 -12  -3   15.30   19.60   1
  18 -12  -3    5.00   22.30   1
 -18  12   3   -0.00   23.30   1
 -18  12  -3   -0.00   25.40   1
  18 -12   3   -0.00   27.80   1
 -18 -12   3    0.10   17.30   1
  18  12  -3   22.20   17.90   1
  18  12   4   36.90   20.90   1
 -18 -12  -4   -0.00   18.90   1
  18 -12  -4   -0.00   20.10   1
 -18  12   4    1.60   20.20   1
 -18  12  -4    7.20   25.90   1
  18 -12   4   85.30   31.80   1
 -18 -12   4    7.90   16.90   1
  18  12  -4    3.00   16.90   1
  18  12   5    6.20   15.50   1
 -18 -12  -5    0.80   15.40   1
  18 -12  -5    0.00   16.80   1
 -18  12   5    4.80   16.90   1
 -18  12  -5   13.20   29.50   1
  18 -12   5   29.90   31.70   1
 -18 -12   5    6.00   14.60   1
  18  12  -5    5.50   15.40   1
  18  13   0   10.80   23.20   1
 -18 -13   0   21.30   23.70   1
  18 -13   0    6.90   25.70   1
 -18  13   0   25.40   27.20   1
  18  13   1   87.50   56.30   1
 -18 -13  -1   93.00   56.20   1
  18 -13  -1  125.70   59.90   1
 -18  13   1   40.80   56.70   1
 -18  13  -1   61.20   59.60   1
  18 -13   1  117.00   60.20   1
 -18 -13   1   79.70   55.70   1
  18  13  -1   93.10   55.80   1
  18  13   2   48.70   34.80   1
 -18 -13  -2   49.00   34.60   1
  18 -13  -2   27.60   37.40   1
 -18  13   2   29.70   37.30   1
 -18  13  -2   -0.00   37.00   1
  18 -13   2   82.70   43.40   1
 -18 -13   2   40.10   34.10   1
  18  13  -2   19.50   33.60   1
  18  13   3  156.40   65.90   1
 -18 -13  -3  151.30   66.20   1
  18 -13  -3   99.10   66.80   1
 -18  13   3   52.20   66.20   1
 -18  13  -3  102.00   68.10   1
  18 -13   3  222.70   74.70   1
 -18 -13   3   78.50   64.10   1
  18  13  -3  210.00   66.20   1
  18  13   4   41.70   33.70   1
 -18 -13  -4   38.00   34.80   1
  18 -13  -4   94.20   35.40   1
 -18  13   4   -0.00   34.50   1
 -18  13  -4   15.30   40.70   1
  18 -13   4    0.20   39.80   1
 -18 -13   4   41.30   32.90   1
  18  13  -4   20.00   32.50   1
  18  14   0    5.20   19.70   1
 -18 -14   0   10.90   19.70   1
  18 -14   0    6.90   24.70   1
 -18  14   0   53.40   28.20   1
  18  14   1    3.70   12.60   1
 -18 -14  -1    3.30   13.70   1
  18 -14  -1   -0.00   18.50   1
 -18  14   1    0.00   15.60   1
 -18  14  -1   10.80   23.90   1
  18 -14   1    6.70   26.50   1
 -18 -14   1    3.50   12.20   1
  18  14  -1    1.70   12.40   1
  18  14   2   86.70   57.20   1
 -18 -14  -2  111.60   57.50   1
  18 -14  -2  146.30   61.00   1
 -18  14   2  100.40   59.70   1
 -18  14  -2   -0.00   59.20   1
  18 -14   2   68.90   61.00   1
 -18 -14   2   86.30   56.70   1
  18  14  -2  103.20   57.00   1
  19   0   0   -0.20   14.00   1
 -19   0   0   -0.10   15.70   1
  19   0   1    3.00   27.60   1
 -19   0  -1   13.60   27.60   1
  19   0  -1   29.90   27.50   1
 -19   0   1   37.20   27.70   1
  19   0   2   25.10   35.40   1
 -19   0  -2   80.80   36.50   1
  19   0  -2   29.80   35.20   1
 -19   0   2   23.70   34.90   1
  19   0   3    6.20   25.30   1
 -19   0  -3   25.10   26.20   1
  19   0  -3   11.20   25.60   1
 -19   0   3   16.10   25.00   1
  19   0   4  224.90   94.00   1
 -19   0  -4  160.20   92.70   1
  19   0  -4  238.20   93.30   1
 -19   0   4  156.90   92.00   1
  19   0   5   33.20   24.40   1
 -19   0  -5   15.20   23.50   1
  19   0  -5   -0.00   21.10   1
 -19   0   5    2.60   20.80   1
  19   0   6  296.80   97.90   1
 -19   0  -6  294.30   96.90   1
  19   0  -6  303.50   96.10   1
 -19   0   6  129.30   94.10   1
  19   0   7   47.30   57.30   1
 -19   0  -7   85.90   58.40   1
  19   0  -7  114.50   57.00   1
 -19   0   7   92.40   56.80   1
  19   0   8   73.80   43.50   1
 -19   0  -8   38.80   42.70   1
  19   0  -8   32.20   37.90   1
 -19   0   8   40.60   38.70   1
  19   1   0   11.70   14.50   1
 -19  -1   0   -0.00   14.60   1
  19  -1   0    2.60   14.90   1
 -19   1   0   -0.00   14.60   1
  19   1   1   33.90   26.40   1
 -19  -1  -1   21.80   26.30   1
  19  -1  -1   28.60   26.70   1
 -19   1   1   25.60   26.90   1
 -19   1  -1    7.80   26.40   1
  19  -1   1   13.10   26.00   1
 -19  -1   1    4.60   25.80   1
  19   1  -1   15.40   25.80   1
  19   1   2    6.50   14.90   1
 -19  -1  -2   -0.00   15.20   1
  19  -1  -2   -0.00   13.70   1
 -19   1   2   -0.00   13.30   1
 -19   1  -2   24.80   16.80   1
  19  -1   2   -0.00   15.50   1
 -19  -1   2    3.10   15.20   1
  19   1  -2    3.90   17.30   1
  19   1   3   11.40   27.30   1
 -19  -1  -3    0.00   28.30   1
  19  -1  -3   25.80   28.00   1
 -19   1   3   18.90   26.80   1
 -19   1  -3   26.80   30.60   1
  19  -1   3   45.20   29.90   1
 -19  -1   3   22.70   28.30   1
  19   1  -3   15.70   28.00   1
  19   1   4    6.40   22.20   1
 -19  -1  -4   -0.00   22.00   1
  19  -1  -4    2.40   21.80   1
 -19   1   4    3.50   20.80   1
 -19   1  -4   -0.00   21.00   1
  19  -1   4   -0.00   24.90   1
 -19  -1   4   20.10   22.60   1
  19   1  -4   52.40   23.80   1
  19   1   5   65.60   23.30   1
 -19  -1  -5   -0.00   19.90   1
  19  -1  -5   21.50   21.70   1
 -19   1   5   -0.00   19.10   1
 -19   1  -5    0.00   21.80   1
  19  -1   5   -0.00   22.00   1
 -19  -1   5    4.40   17.00   1
  19   1  -5   -0.00   16.00   1
  19   1   6    6.30   21.50   1
 -19  -1  -6   -0.00   19.60   1
  19  -1  -6    0.00   13.60   1
 -19   1   6    1.50   15.70   1
 -19   1  -6   11.70   16.90   1
  19  -1   6   -0.00   18.80   1
 -19  -1   6    6.30   14.20   1
  19   1  -6   -0.00   15.60   1
  19   1   7   -0.00   17.00   1
 -19  -1  -7    6.50   18.00   1
  19  -1  -7   11.60   16.40   1
 -19   1   7    6.90   15.80   1
 -19   1  -7   14.00   21.00   1
  19  -1   7   -0.00   18.30   1
 -19  -1   7   -0.00   14.50   1
  19   1  -7   -0.00   14.00   1
  19   1   8   13.30   23.10   1
 -19  -1  -8   -0.00   26.30   1
  19  -1  -8   20.20   20.40   1
 -19   1   8   17.40   21.20   1
 -19   1  -8    0.00   25.80   1
  19  -1   8    3.40   27.60   1
 -19  -1   8    6.30   20.10   1
  19   1  -8    5.90   19.20   1
  19   2   0  113.10   42.80   1
 -19  -2   0   44.20   41.90   1
  19  -2   0   49.30   42.20   1
 -19   2   0   23.80   41.90   1
  19   2   1   10.70   25.00   1
 -19  -2  -1    8.80   25.00   1
  19  -2  -1    6.50   25.30   1
 -19   2   1    3.20   25.20   1
 -19   2  -1   -0.00   24.80   1
  19  -2   1   -0.00   24.70   1
 -19  -2   1  137.80   26.80   1
  19   2  -1  134.80   27.30   1
  19   2   2   -0.00   23.80   1
 -19  -2  -2   11.50   24.00   1
  19  -2  -2   17.40   23.70   1
 -19   2   2   17.80   24.00   1
 -19   2  -2   20.10   25.90   1
  19  -2   2   69.20   26.30   1
 -19  -2   2    0.00   25.40   1
  19   2  -2   14.40   26.20   1
  19   2   3    7.20   25.40   1
 -19  -2  -3   31.10   26.10   1
  19  -2  -3   31.30   26.10   1
 -19   2   3   38.10   25.40   1
 -19   2  -3    0.70   28.50   1
  19  -2   3   11.80   28.90   1
 -19  -2   3   -0.00   26.00   1
  19   2  -3   -0.00   27.80   1
  19   2   4   11.20   29.30   1
 -19  -2  -4   -0.00   28.80   1
  19  -2  -4   41.80   30.40   1
 -19   2   4   37.50   29.40   1
 -19   2  -4   37.70   31.80   1
  19  -2   4   32.90   31.10   1
 -19  -2   4   18.80   28.90   1
  19   2  -4   15.10   28.90   1
  19   2   5   25.90   20.10   1
 -19  -2  -5   10.20   20.50   1
  19  -2  -5    1.20   17.60   1
 -19   2   5    3.00   17.50   1
 -19   2  -5    0.00   17.60   1
  19  -2   5    0.00   22.90   1
 -19  -2   5    2.20   15.80   1
  19   2  -5    6.00   16.40   1
  19   2   6   24.70   34.60   1
 -19  -2  -6   25.50   34.80   1
  19  -2  -6   -0.00   33.30   1
 -19   2   6   30.10   33.70   1
 -19   2  -6    8.70   34.10   1
  19  -2   6   17.70   34.70   1
 -19  -2   6   54.30   33.10   1
  19   2  -6   71.60   33.30   1
  19   2   7   -0.00   23.00   1
 -19  -2  -7    4.40   19.20   1
  19  -2  -7   -0.00   17.80   1
 -19   2   7    7.70   17.50   1
 -19   2  -7   36.70   26.70   1
  19  -2   7   -0.00   24.40   1
 -19  -2   7   14.10   17.70   1
  19   2  -7    5.90   17.10   1
  19   2   8   63.60   23.20   1
 -19  -2  -8   12.70   22.40   1
  19  -2  -8    3.40   19.60   1
 -19   2   8   17.50   19.50   1
 -19   2  -8    3.70   22.20   1
  19  -2   8   21.30   28.30   1
 -19  -2   8    0.00   17.60   1
  19   2  -8   -0.00   18.00   1
  19   3   0   -0.00    8.80   1
 -19  -3   0   -0.00    8.30   1
  19  -3   0   -0.00    9.90   1
 -19   3   0   -0.00   10.60   1
  19   3   1   32.10   42.00   1
 -19  -3  -1   35.50   42.40   1
  19  -3  -1   35.50   42.20   1
 -19   3   1   40.70   42.10   1
 -19   3  -1   97.20   43.40   1
  19  -3   1   99.70   43.30   1
 -19  -3   1   71.80   43.00   1
  19   3  -1   31.90   43.30   1
  19   3   2   -0.00   20.00   1
 -19  -3  -2   43.00   21.00   1
  19  -3  -2    4.50   19.90   1
 -19   3   2   -0.00   20.10   1
 -19   3  -2   18.00   23.40   1
  19  -3   2   17.20   22.70   1
 -19  -3   2   12.60   21.50   1
  19   3  -2   -0.00   20.60   1
  19   3   3    8.70   26.60   1
 -19  -3  -3   87.40   28.60   1
  19  -3  -3    4.30   26.50   1
 -19   3   3   12.00   26.50   1
 -19   3  -3   10.80   28.50   1
  19  -3   3   82.20   31.60   1
 -19  -3   3   28.50   29.10   1
  19   3  -3   21.50   28.00   1
  19   3   4   17.50   23.90   1
 -19  -3  -4   -0.00   24.50   1
  19  -3  -4   34.20   24.60   1
 -19   3   4   13.20   23.10   1
 -19   3  -4    1.60   25.80   1
  19  -3   4    2.40   29.20   1
 -19  -3   4   14.80   23.40   1
  19   3  -4   16.00   23.90   1
  19   3   5   55.60   37.70   1
 -19  -3  -5   36.80   37.80   1
  19  -3  -5   33.20   37.00   1
 -19   3   5   22.80   36.70   1
 -19   3  -5    5.40   36.70   1
  19  -3   5   11.50   37.80   1
 -19  -3   5   50.90   36.40   1
  19   3  -5   78.70   37.20   1
  19   3   6   22.70   27.40   1
 -19  -3  -6    0.00   26.10   1
  19  -3  -6   18.40   26.20   1
 -19   3   6    8.50   24.80   1
 -19   3  -6   21.90   29.20   1
  19  -3   6   50.60   27.90   1
 -19  -3   6   13.60   24.80   1
  19   3  -6   12.80   24.10   1
  19   3   7   22.90   36.00   1
 -19  -3  -7   31.50   36.60   1
  19  -3  -7   28.60   34.00   1
 -19   3   7   14.20   33.90   1
 -19   3  -7    8.70   36.20   1
  19  -3   7   42.90   39.60   1
 -19  -3   7   42.90   33.30   1
  19   3  -7   41.30   33.20   1
  19   3   8   -0.00   20.00   1
 -19  -3  -8   29.70   19.30   1
  19  -3  -8    6.90   17.50   1
 -19   3   8    7.20   15.90   1
 -19   3  -8    6.00   23.50   1
  19  -3   8    3.70   27.70   1
 -19  -3   8    3.40   15.10   1
  19   3  -8   -0.00   14.90   1
  19   4   0   -0.00   16.60   1
 -19  -4   0   -0.00   15.30   1
  19  -4   0   18.70   16.80   1
 -19   4   0    4.50   16.90   1
  19   4   1    2.40   15.30   1
 -19  -4  -1    5.70   14.30   1
  19  -4  -1   10.90   16.40   1
 -19   4   1   -0.00   15.40   1
 -19   4  -1   -0.00   18.10   1
  19  -4   1    8.90   17.30   1
 -19  -4   1    6.10   17.10   1
  19   4  -1   -0.00   17.20   1
  19   4   2   -0.00   19.80   1
 -19  -4  -2   13.50   19.50   1
  19  -4  -2   16.30   20.00   1
 -19   4   2   13.70   20.50   1
 -19   4  -2    5.80   22.40   1
  19  -4   2    1.90   23.10   1
 -19  -4   2    2.00   20.90   1
  19   4  -2   10.50   22.50   1
  19   4   3   11.10   20.90   1
 -19  -4  -3    5.60   20.20   1
  19  -4  -3    0.00   19.90   1
 -19   4   3   20.80   21.30   1
 -19   4  -3   22.70   24.90   1
  19  -4   3   21.50   25.30   1
 -19  -4   3   11.30   21.90   1
  19   4  -3   10.80   20.60   1
  19   4   4   28.30   19.20   1
 -19  -4  -4   -0.00   19.10   1
  19  -4  -4   -0.00   18.10   1
 -19   4   4   -0.00   18.10   1
 -19   4  -4   -0.00   19.90   1
  19  -4   4   45.20   24.00   1
 -19  -4   4    8.60   18.30   1
  19   4  -4    7.20   18.60   1
  19   4   5   -0.00   14.50   1
 -19  -4  -5    0.00   15.70   1
  19  -4  -5   -0.00   16.60   1
 -19   4   5    6.00   13.60   1
 -19   4  -5    0.60   16.40   1
  19  -4   5   -0.00   17.90   1
 -19  -4   5    7.40   14.00   1
  19   4  -5    0.00   12.60   1
  19   4   6   13.00   27.60   1
 -19  -4  -6   74.00   29.90   1
  19  -4  -6   12.40   26.20   1
 -19   4   6   11.60   26.80   1
 -19   4  -6   36.10   33.40   1
  19  -4   6   97.50   33.40   1
 -19  -4   6   12.00   25.20   1
  19   4  -6    8.70   24.80   1
  19   4   7   13.90   18.30   1
 -19  -4  -7   -0.00   17.50   1
  19  -4  -7   10.10   15.50   1
 -19   4   7    0.00   17.10   1
 -19   4  -7    7.30   18.30   1
  19  -4   7   -0.00   23.50   1
 -19  -4   7   -0.00   11.90   1
  19   4  -7   -0.00   12.10   1
  19   4   8    4.10   19.70   1
 -19  -4  -8    4.90   17.50   1
  19  -4  -8    8.90   15.00   1
 -19   4   8    0.00   16.10   1
 -19   4  -8   14.00   22.60   1
  19  -4   8   18.80   28.80   1
 -19  -4   8   -0.00   14.60   1
  19   4  -8    4.90   14.40   1
  19   5   0   27.60   23.10   1
 -19  -5   0    1.80   20.60   1
  19  -5   0   17.60   21.20   1
 -19   5   0   -0.00   21.20   1
  19   5   1   37.20   36.30   1
 -19  -5  -1   14.80   35.90   1
  19  -5  -1   46.40   36.80   1
 -19   5   1   18.50   36.70   1
 -19   5  -1  188.50   42.00   1
  19  -5   1  161.00   40.80   1
 -19  -5   1   19.80   37.10   1
  19   5  -1   65.20   38.10   1
  19   5   2   22.20   39.60   1
 -19  -5  -2   33.10   39.70   1
  19  -5  -2   69.00   40.90   1
 -19   5   2   33.90   39.90   1
 -19   5  -2   24.40   41.30   1
  19  -5   2   74.90   43.40   1
 -19  -5   2   63.50   40.90   1
  19   5  -2   83.80   40.90   1
  19   5   3   37.90   45.70   1
 -19  -5  -3   49.20   45.60   1
  19  -5  -3   59.50   45.70   1
 -19   5   3   33.10   45.50   1
 -19   5  -3   61.20   47.50   1
  19  -5   3  122.90   49.60   1
 -19  -5   3   49.90   45.50   1
  19   5  -3  108.50   46.20   1
  19   5   4   -0.00   20.00   1
 -19  -5  -4   -0.00   19.90   1
  19  -5  -4    0.00   19.50   1
 -19   5   4    6.60   19.40   1
 -19   5  -4   70.70   23.50   1
  19  -5   4  133.50   26.70   1
 -19  -5   4   -0.00   20.80   1
  19   5  -4   12.80   20.30   1
  19   5   5   47.40   43.60   1
 -19  -5  -5   39.70   43.50   1
  19  -5  -5   67.80   44.20   1
 -19   5   5   61.40   43.70   1
 -19   5  -5   68.30   46.80   1
  19  -5   5   44.80   45.00   1
 -19  -5   5   45.00   43.20   1
  19   5  -5   45.10   43.30   1
  19   5   6  104.70   43.40   1
 -19  -5  -6   72.50   43.30   1
  19  -5  -6   51.90   42.70   1
 -19   5   6   56.90   42.50   1
 -19   5  -6   51.20   44.50   1
  19  -5   6   77.60   46.50   1
 -19  -5   6   26.30   40.70   1
  19   5  -6   34.90   40.70   1
  19   5   7   30.70   32.10   1
 -19  -5  -7   50.60   31.50   1
  19  -5  -7   69.80   31.50   1
 -19   5   7   26.30   30.10   1
 -19   5  -7    7.20   33.10   1
  19  -5   7    2.10   34.90   1
 -19  -5   7   11.30   28.10   1
  19   5  -7   16.70   28.30   1
  19   5   8   15.00   41.80   1
 -19  -5  -8   13.30   41.30   1
  19  -5  -8   31.10   39.90   1
 -19   5   8   55.30   41.00   1
 -19   5  -8   16.70   44.90   1
  19  -5   8   21.20   44.20   1
 -19  -5   8   98.30   39.90   1
  19   5  -8   66.70   39.40   1
  19   6   0   11.30   16.90   1
 -19  -6   0    3.80   16.90   1
  19  -6   0   -0.00   18.60   1
 -19   6   0    0.00   17.90   1
  19   6   1   50.90   24.00   1
 -19  -6  -1   22.20   22.90   1
  19  -6  -1   -0.00   23.80   1
 -19   6   1    5.80   23.20   1
 -19   6  -1    4.10   26.80   1
  19  -6   1    8.70   27.50   1
 -19  -6   1    1.10   24.50   1
  19   6  -1    6.40   24.50   1
  19   6   2    9.90   18.90   1
 -19  -6  -2    5.40   18.60   1
  19  -6  -2   17.90   19.90   1
 -19   6   2    4.70   18.90   1
 -19   6  -2    9.20   23.30   1
  19  -6   2    9.60   22.90   1
 -19  -6   2    1.90   19.10   1
  19   6  -2   11.00   18.60   1
  19   6   3   10.60   16.70   1
 -19  -6  -3   -0.00   17.20   1
  19  -6  -3    5.40   18.10   1
 -19   6   3   -0.00   16.50   1
 -19   6  -3   -0.00   18.10   1
  19  -6   3    2.00   21.50   1
 -19  -6   3    9.10   16.50   1
  19   6  -3   13.40   17.60   1
  19   6   4    8.20   18.50   1
 -19  -6  -4    0.00   17.40   1
  19  -6  -4   10.60   18.30   1
 -19   6   4   -0.00   18.00   1
 -19   6  -4   12.00   21.00   1
  19  -6   4   26.50   22.60   1
 -19  -6   4   11.60   18.10   1
  19   6  -4    6.90   18.30   1
  19   6   5   -0.00   12.60   1
 -19  -6  -5    0.00   14.20   1
  19  -6  -5   -0.00   13.60   1
 -19   6   5   -0.00   13.10   1
 -19   6  -5   12.80   22.70   1
  19  -6   5   22.90   24.30   1
 -19  -6   5    6.60   12.00   1
  19   6  -5   -0.00   12.10   1
  19   6   6    7.20   22.70   1
 -19  -6  -6    8.50   23.10   1
  19  -6  -6   12.00   24.40   1
 -19   6   6   21.80   23.80   1
 -19   6  -6   12.40   26.20   1
  19  -6   6   21.00   29.90   1
 -19  -6   6   10.30   22.10   1
  19   6  -6   14.30   21.60   1
  19   6   7   -0.00   20.00   1
 -19  -6  -7   -0.00   20.20   1
  19  -6  -7   16.20   19.00   1
 -19   6   7   -0.00   19.70   1
 -19   6  -7    7.40   22.70   1
  19  -6   7   16.00   27.80   1
 -19  -6   7    0.00   15.20   1
  19   6  -7   10.60   15.30   1
  19   7   0    7.50   26.30   1
 -19  -7   0   12.70   25.40   1
  19  -7   0   36.20   28.20   1
 -19   7   0   15.60   29.30   1
  19   7   1   18.70   28.30   1
 -19  -7  -1   10.90   26.60   1
  19  -7  -1   31.70   27.70   1
 -19   7   1   21.00   27.20   1
 -19   7  -1    3.20   27.10   1
  19  -7   1   44.40   29.90   1
 -19  -7   1   16.40   26.70   1
  19   7  -1   14.80   26.10   1
  19   7   2   31.30   29.10   1
 -19  -7  -2   24.90   28.70   1
  19  -7  -2    8.40   29.20   1
 -19   7   2   27.70   29.40   1
 -19   7  -2   43.80   32.20   1
  19  -7   2   60.00   34.20   1
 -19  -7   2    5.50   28.20   1
  19   7  -2   25.80   29.00   1
  19   7   3   81.50   31.60   1
 -19  -7  -3   32.20   30.70   1
  19  -7  -3   13.80   31.30   1
 -19   7   3   21.60   30.70   1
 -19   7  -3   26.60   32.30   1
  19  -7   3   28.70   33.10   1
 -19  -7   3   19.30   30.90   1
  19   7  -3   12.00   30.60   1
  19   7   4   46.90   21.80   1
 -19  -7  -4    7.50   21.00   1
  19  -7  -4   -0.00   21.40   1
 -19   7   4   50.40   22.60   1
 -19   7  -4    8.90   26.90   1
  19  -7   4    0.00   23.60   1
 -19  -7   4    2.90   20.00   1
  19   7  -4   -0.00   19.60   1
  19   7   5   24.60   26.90   1
 -19  -7  -5    4.80   26.60   1
  19  -7  -5   51.60   27.50   1
 -19   7   5   23.60   26.70   1
 -19   7  -5   14.50   32.20   1
  19  -7   5   48.70   34.20   1
 -19  -7   5    5.40   25.80   1
  19   7  -5   25.90   26.20   1
  19   7   6   -0.00   19.90   1
 -19  -7  -6   -0.00   20.80   1
  19  -7  -6   14.00   20.80   1
 -19   7   6   -0.00   19.80   1
 -19   7  -6   24.60   26.70   1
  19  -7   6   72.80   31.10   1
 -19  -7   6    8.80   18.40   1
  19   7  -6   13.50   18.60   1
  19   7   7   45.30   20.80   1
 -19  -7  -7   -0.00   22.30   1
  19  -7  -7   38.60   23.30   1
 -19   7   7    9.00   21.20   1
 -19   7  -7    0.00   26.50   1
  19  -7   7    3.90   30.00   1
 -19  -7   7    0.00   17.90   1
  19   7  -7   -0.00   18.00   1
  19   8   0   -0.00   27.70   1
 -19  -8   0   43.40   28.60   1
  19  -8   0   45.60   30.20   1
 -19   8   0    1.20   28.30   1
  19   8   1   36.30   25.00   1
 -19  -8  -1    1.70   24.50   1
  19  -8  -1   -0.00   24.10   1
 -19   8   1   87.20   27.10   1
 -19   8  -1   17.20   28.30   1
  19  -8   1   13.70   26.60   1
 -19  -8   1    7.00   22.50   1
  19   8  -1    5.60   22.70   1
  19   8   2  234.90   81.70   1
 -19  -8  -2  153.20   79.80   1
  19  -8  -2  142.00   80.20   1
 -19   8   2  140.40   80.10   1
 -19   8  -2   74.40   79.90   1
  19  -8   2  238.30   83.10   1
 -19  -8   2  152.50   80.00   1
  19   8  -2  314.60   81.80   1
  19   8   3    8.90   14.20   1
 -19  -8  -3   -0.00   12.80   1
  19  -8  -3    5.00   15.20   1
 -19   8   3    4.40   15.10   1
 -19   8  -3   -0.00   17.90   1
  19  -8   3   -0.00   17.80   1
 -19  -8   3   -0.00   13.70   1
  19   8  -3    7.60   13.60   1
  19   8   4  186.60   86.50   1
 -19  -8  -4  296.20   88.20   1
  19  -8  -4  315.30   88.60   1
 -19   8   4  220.70   86.90   1
 -19   8  -4  126.50   88.60   1
  19  -8   4  149.50   88.10   1
 -19  -8   4  103.80   85.30   1
  19   8  -4  255.20   86.60   1
  19   8   5   -0.00   11.20   1
 -19  -8  -5   -0.00   10.70   1
  19  -8  -5   -0.00   11.30   1
 -19   8   5   -0.00   11.20   1
 -19   8  -5   10.40   18.60   1
  19  -8   5    8.00   22.40   1
 -19  -8   5   -0.00    8.80   1
  19   8  -5   -0.00    8.50   1
  19   8   6   13.80   38.60   1
 -19  -8  -6  285.10   45.10   1
  19  -8  -6   30.30   39.00   1
 -19   8   6   21.10   38.70   1
 -19   8  -6   74.30   43.90   1
  19  -8   6   79.00   47.40   1
 -19  -8   6   63.50   38.70   1
  19   8  -6   65.90   38.70   1
  19   8   7   22.90   34.80   1
 -19  -8  -7   22.30   34.90   1
  19  -8  -7   10.90   35.90   1
 -19   8   7   23.40   34.90   1
 -19   8  -7   12.80   40.10   1
  19  -8   7   -0.00   40.70   1
 -19  -8   7   71.40   34.40   1
  19   8  -7   68.90   34.40   1
  19   9   0   -0.00    9.70   1
 -19  -9   0    2.00   13.00   1
  19  -9   0   -0.00   16.40   1
 -19   9   0    0.00   13.60   1
  19   9   1   11.10   21.90   1
 -19  -9  -1    3.90   19.20   1
  19  -9  -1   12.30   24.70   1
 -19   9   1   32.10   25.70   1
 -19   9  -1   -0.00   22.60   1
  19  -9   1    6.10   25.00   1
 -19  -9   1   12.30   18.70   1
  19   9  -1    3.20   19.90   1
  19   9   2   17.50   28.30   1
 -19  -9  -2   18.80   28.30   1
  19  -9  -2   17.60   28.00   1
 -19   9   2   14.50   28.10   1
 -19   9  -2   13.50   29.30   1
  19  -9   2   26.00   30.60   1
 -19  -9   2   28.60   27.10   1
  19   9  -2   16.10   26.90   1
  19   9   3    5.00   17.00   1
 -19  -9  -3    0.00   16.10   1
  19  -9  -3    5.10   16.70   1
 -19   9   3   38.40   18.70   1
 -19   9  -3   -0.00   24.50   1
  19  -9   3    0.00   20.10   1
 -19  -9   3   -0.00   16.10   1
  19   9  -3    5.50   15.60   1
  19   9   4    4.30   11.40   1
 -19  -9  -4   -0.00   12.10   1
  19  -9  -4   -0.00   13.70   1
 -19   9   4   -0.00   12.60   1
 -19   9  -4    0.00   20.60   1
  19  -9   4    5.00   26.00   1
 -19  -9   4   -0.00   10.80   1
  19   9  -4    2.20    9.90   1
  19   9   5   -0.00   14.60   1
 -19  -9  -5   -0.00   14.40   1
  19  -9  -5    8.30   15.50   1
 -19   9   5    4.50   15.50   1
 -19   9  -5   28.40   24.80   1
  19  -9   5   23.70   27.90   1
 -19  -9   5   -0.00   12.80   1
  19   9  -5    1.70   12.80   1
  19   9   6    6.70   18.50   1
 -19  -9  -6    4.40   18.60   1
  19  -9  -6    8.80   18.80   1
 -19   9   6    0.00   18.90   1
 -19   9  -6   16.40   26.20   1
  19  -9   6   28.00   28.60   1
 -19  -9   6    7.50   17.40   1
  19   9  -6   10.80   17.50   1
  19  10   0   47.00   35.50   1
 -19 -10   0   47.70   35.30   1
  19 -10   0   11.80   37.40   1
 -19  10   0    5.60   37.50   1
  19  10   1    3.80   16.40   1
 -19 -10  -1   -0.00   17.60   1
  19 -10  -1    3.10   19.90   1
 -19  10   1   57.90   21.70   1
 -19  10  -1    0.00   17.50   1
  19 -10   1   -0.00   22.20   1
 -19 -10   1   -0.00   16.60   1
  19  10  -1    3.50   16.60   1
  19  10   2    7.30   32.70   1
 -19 -10  -2   68.20   35.10   1
  19 -10  -2   44.80   34.90   1
 -19  10   2  180.30   38.70   1
 -19  10  -2   15.90   34.70   1
  19 -10   2   20.00   34.70   1
 -19 -10   2   26.00   32.80   1
  19  10  -2   29.70   32.70   1
  19  10   3   46.10   25.40   1
 -19 -10  -3   24.60   23.50   1
  19 -10  -3    5.40   23.40   1
 -19  10   3   41.20   25.10   1
 -19  10  -3   16.90   29.70   1
  19 -10   3    4.40   27.60   1
 -19 -10   3   11.90   21.80   1
  19  10  -3   -0.00   21.80   1
  19  10   4   33.60   31.00   1
 -19 -10  -4   20.80   30.70   1
  19 -10  -4   42.70   31.60   1
 -19  10   4   36.60   31.50   1
 -19  10  -4   32.60   34.30   1
  19 -10   4  104.70   40.70   1
 -19 -10   4   14.70   30.20   1
  19  10  -4   19.60   30.30   1
  19  10   5    3.40   14.00   1
 -19 -10  -5   -0.00   14.90   1
  19 -10  -5    5.70   16.00   1
 -19  10   5    5.60   15.50   1
 -19  10  -5   -0.00   21.30   1
  19 -10   5   -0.00   25.50   1
 -19 -10   5    0.00   12.80   1
  19  10  -5    8.10   12.90   1
  19  11   0   11.60   16.80   1
 -19 -11   0    0.00   15.80   1
  19 -11   0    9.80   22.40   1
 -19  11   0   -0.00   20.00   1
  19  11   1   12.70   20.30   1
 -19 -11  -1    7.50   21.50   1
  19 -11  -1   24.20   24.70   1
 -19  11   1    7.50   23.80   1
 -19  11  -1   10.30   23.50   1
  19 -11   1    0.00   24.40   1
 -19 -11   1   -0.00   20.80   1
  19  11  -1   17.60   20.60   1
  19  11   2   27.20   25.00   1
 -19 -11  -2    3.80   23.00   1
  19 -11  -2   30.70   26.30   1
 -19  11   2   65.70   29.20   1
 -19  11  -2   12.30   29.70   1
  19 -11   2   17.70   27.30   1
 -19 -11   2   15.60   22.10   1
  19  11  -2    3.00   21.70   1
  19  11   3    5.30   21.70   1
 -19 -11  -3   23.20   22.20   1
  19 -11  -3   11.00   22.20   1
 -19  11   3   15.60   22.30   1
 -19  11  -3    0.90   26.00   1
  19 -11   3   32.80   29.50   1
 -19 -11   3    9.00   19.50   1
  19  11  -3    4.70   18.90   1
  19  11   4   11.20   17.80   1
 -19 -11  -4   -0.00   16.60   1
  19 -11  -4   16.00   18.30   1
 -19  11   4   17.50   19.10   1
 -19  11  -4   16.20   24.60   1
  19 -11   4    6.40   27.50   1
 -19 -11   4   -0.00   15.40   1
  19  11  -4    4.40   15.40   1
  19  12   0   25.20   20.70   1
 -19 -12   0   -0.00   20.30   1
  19 -12   0   -0.00   27.00   1
 -19  12   0    8.40   21.30   1
  19  12   1    8.00   14.70   1
 -19 -12  -1    5.80   14.10   1
  19 -12  -1    0.00   19.30   1
 -19  12   1    3.20   21.60   1
 -19  12  -1   -0.00   19.80   1
  19 -12   1    6.80   18.60   1
 -19 -12   1    4.40   15.10   1
  19  12  -1   -0.00   13.90   1
  19  12   2   22.90   28.80   1
 -19 -12  -2   21.50   29.60   1
  19 -12  -2   28.60   31.50   1
 -19  12   2   17.20   31.40   1
 -19  12  -2   60.30   35.70   1
  19 -12   2   40.60   35.00   1
 -19 -12   2   14.40   27.40   1
  19  12  -2   20.60   27.90   1
  19  12   3   -0.00   15.50   1
 -19 -12  -3   -0.00   15.70   1
  19 -12  -3    9.50   17.80   1
 -19  12   3    0.00   17.40   1
 -19  12  -3   10.80   19.10   1
  19 -12   3   -0.00   25.20   1
 -19 -12   3    3.50   12.00   1
  19  12  -3    1.30   11.40   1
  19  13   0    9.00   17.80   1
 -19 -13   0   -0.00   18.30   1
  19 -13   0   35.60   22.70   1
 -19  13   0    0.00   20.20   1
  19  13   1   87.50   71.90   1
 -19 -13  -1  178.00   73.00   1
  19 -13  -1  206.30   76.50   1
 -19  13   1   96.10   73.50   1
 -19  13  -1  154.90   75.90   1
  19 -13   1  142.80   74.30   1
 -19 -13   1  104.60   71.70   1
  19  13  -1  191.30   72.60   1
  20   0   0 1066.90  329.60   1
 -20   0   0 1021.20  328.20   1
  20   0   1   17.60   26.20   1
 -20   0  -1   21.40   26.50   1
  20   0  -1   18.60   25.70   1
 -20   0   1   11.60   25.80   1
  20   0   2   30.30   32.20   1
 -20   0  -2   15.60   32.70   1
  20   0  -2   36.30   32.00   1
 -20   0   2   23.70   32.00   1
  20   0   3   23.10   20.70   1
 -20   0  -3   -0.00   21.70   1
  20   0  -3   -0.00   21.90   1
 -20   0   3    7.30   20.40   1
  20   0   4   30.80   32.70   1
 -20   0  -4   30.40   31.30   1
  20   0  -4    7.50   29.50   1
 -20   0   4   29.70   30.30   1
  20   0   5    0.00   18.40   1
 -20   0  -5   -0.00   18.20   1
  20   0  -5    8.70   15.90   1
 -20   0   5   -0.00   17.70   1
  20   0   6  304.90   96.10   1
 -20   0  -6  271.50   93.90   1
  20   0  -6  151.10   91.00   1
 -20   0   6  160.60   91.20   1
  20   0   7   15.90   27.70   1
 -20   0  -7   16.80   28.40   1
  20   0  -7   29.90   27.30   1
 -20   0   7    9.90   26.40   1
  20   1   0   30.20   42.50   1
 -20  -1   0   42.40   42.60   1
  20  -1   0   62.90   43.00   1
 -20   1   0   62.10   42.50   1
  20   1   1   -0.00   14.50   1
 -20  -1  -1    5.00   15.20   1
  20  -1  -1   -0.00   14.10   1
 -20   1   1   -0.00   14.70   1
 -20   1  -1    4.10   15.10   1
  20  -1   1    0.00   14.20   1
 -20  -1   1    4.80   13.70   1
  20   1  -1   12.30   14.00   1
  20   1   2    7.20   20.20   1
 -20  -1  -2    8.60   21.00   1
  20  -1  -2    3.30   20.00   1
 -20   1   2    5.60   20.10   1
 -20   1  -2   21.50   21.90   1
  20  -1   2   31.40   21.80   1
 -20  -1   2   -0.00   21.00   1
  20   1  -2   16.20   21.80   1
  20   1   3   16.50   29.50   1
 -20  -1  -3   25.70   30.80   1
  20  -1  -3   37.70   30.40   1
 -20   1   3   24.80   29.30   1
 -20   1  -3   16.60   30.80   1
  20  -1   3   -0.00   30.80   1
 -20  -1   3   30.80   31.40   1
  20   1  -3   30.60   30.70   1
  20   1   4   -0.00   18.10   1
 -20  -1  -4   16.40   21.10   1
  20  -1  -4   -0.00   19.10   1
 -20   1   4    8.40   20.40   1
 -20   1  -4    0.00   21.90   1
  20  -1   4   37.20   23.10   1
 -20  -1   4   -0.00   17.70   1
  20   1  -4   -0.00   20.80   1
  20   1   5   56.40   41.10   1
 -20  -1  -5   42.80   40.50   1
  20  -1  -5   85.40   40.50   1
 -20   1   5   19.90   38.40   1
 -20   1  -5   40.20   40.90   1
  20  -1   5   61.50   41.20   1
 -20  -1   5   35.90   38.70   1
  20   1  -5   28.30   38.00   1
  20   1   6   -0.00   20.70   1
 -20  -1  -6    7.60   21.70   1
  20  -1  -6    1.90   15.20   1
 -20   1   6    9.60   16.50   1
 -20   1  -6   -0.00   17.70   1
  20  -1   6   16.00   23.10   1
 -20  -1   6    5.10   15.50   1
  20   1  -6   -0.00   15.80   1
  20   1   7    0.00   23.00   1
 -20  -1  -7    3.40   20.40   1
  20  -1  -7   -0.00   19.90   1
 -20   1   7    2.20   17.90   1
 -20   1  -7   33.80   22.90   1
  20  -1   7    7.50   21.70   1
 -20  -1   7   12.70   19.10   1
  20   1  -7   13.80   19.50   1
  20   2   0    5.60   21.30   1
 -20  -2   0   75.30   23.20   1
  20  -2   0    0.00   22.40   1
 -20   2   0    2.40   21.70   1
  20   2   1   55.20   41.60   1
 -20  -2  -1   54.10   41.90   1
  20  -2  -1   48.80   41.50   1
 -20   2   1   52.30   41.60   1
 -20   2  -1  147.90   43.30   1
  20  -2   1  304.70   45.90   1
 -20  -2   1   11.20   40.50   1
  20   2  -1   22.90   41.20   1
  20   2   2    8.80   26.60   1
 -20  -2  -2   11.90   27.00   1
  20  -2  -2   12.00   26.40   1
 -20   2   2   37.20   27.50   1
 -20   2  -2   23.60   28.30   1
  20  -2   2   52.60   28.20   1
 -20  -2   2   13.20   28.30   1
  20   2  -2   11.50   28.40   1
  20   2   3   16.40   25.60   1
 -20  -2  -3   29.30   27.10   1
  20  -2  -3   21.80   25.90   1
 -20   2   3   15.30   25.40   1
 -20   2  -3   26.40   30.10   1
  20  -2   3   18.60   28.60   1
 -20  -2   3    0.00   26.20   1
  20   2  -3   16.10   27.10   1
  20   2   4   -0.00   21.50   1
 -20  -2  -4    9.30   21.70   1
  20  -2  -4    7.40   22.70   1
 -20   2   4   24.80   21.70   1
 -20   2  -4    0.00   23.00   1
  20  -2   4   12.20   24.30   1
 -20  -2   4   11.90   22.20   1
  20   2  -4   14.10   21.90   1
  20   2   5   37.10   26.90   1
 -20  -2  -5    9.70   26.30   1
  20  -2  -5    6.20   23.20   1
 -20   2   5   11.20   24.40   1
 -20   2  -5    0.00   25.40   1
  20  -2   5   70.70   29.10   1
 -20  -2   5    3.60   22.30   1
  20   2  -5   13.00   22.50   1
  20   2   6   29.50   33.80   1
 -20  -2  -6    2.10   33.30   1
  20  -2  -6   46.30   34.00   1
 -20   2   6   58.70   34.40   1
 -20   2  -6   33.40   33.90   1
  20  -2   6   32.10   34.10   1
 -20  -2   6   20.20   32.10   1
  20   2  -6   14.70   31.90   1
  20   2   7   25.00   37.00   1
 -20  -2  -7   24.50   36.00   1
  20  -2  -7   18.70   32.90   1
 -20   2   7   17.20   33.50   1
 -20   2  -7   22.20   38.40   1
  20  -2   7   41.10   35.80   1
 -20  -2   7   60.30   34.00   1
  20   2  -7   42.00   33.40   1
  20   3   0   17.80   31.80   1
 -20  -3   0   15.00   31.60   1
  20  -3   0   57.80   32.60   1
 -20   3   0   43.00   33.00   1
  20   3   1   11.10   19.00   1
 -20  -3  -1   30.10   20.00   1
  20  -3  -1    3.00   19.70   1
 -20   3   1   -0.00   19.40   1
 -20   3  -1   -0.00   20.50   1
  20  -3   1    5.70   20.30   1
 -20  -3   1   16.00   19.60   1
  20   3  -1    0.00   21.80   1
  20   3   2  166.00   37.40   1
 -20  -3  -2   23.50   35.10   1
  20  -3  -2  130.70   36.70   1
 -20   3   2  115.70   36.90   1
 -20   3  -2    7.50   36.80   1
  20  -3   2   11.00   35.70   1
 -20  -3   2   12.00   36.40   1
  20   3  -2    9.50   35.10   1
  20   3   3   13.80   23.10   1
 -20  -3  -3   -0.00   23.70   1
  20  -3  -3   14.40   22.90   1
 -20   3   3   19.00   22.90   1
 -20   3  -3   16.80   26.50   1
  20  -3   3   38.20   29.40   1
 -20  -3   3   -0.00   25.10   1
  20   3  -3   21.00   26.80   1
  20   3   4   -0.00   20.40   1
 -20  -3  -4   16.20   21.20   1
  20  -3  -4   30.00   22.10   1
 -20   3   4   14.60   20.20   1
 -20   3  -4   -0.00   24.50   1
  20  -3   4   12.90   26.50   1
 -20  -3   4   13.80   20.90   1
  20   3  -4    0.00   19.70   1
  20   3   5   21.60   40.70   1
 -20  -3  -5  107.60   43.10   1
  20  -3  -5   46.50   42.50   1
 -20   3   5   22.10   41.70   1
 -20   3  -5   24.20   41.30   1
  20  -3   5  110.60   44.30   1
 -20  -3   5   37.30   40.40   1
  20   3  -5   78.70   41.20   1
  20   3   6   52.80   36.20   1
 -20  -3  -6  144.50   37.70   1
  20  -3  -6   15.40   33.60   1
 -20   3   6   12.50   32.70   1
 -20   3  -6    3.60   34.10   1
  20  -3   6   14.10   34.10   1
 -20  -3   6   55.40   33.20   1
  20   3  -6   30.70   32.60   1
  20   3   7   23.90   36.00   1
 -20  -3  -7   38.50   36.80   1
  20  -3  -7   22.20   33.30   1
 -20   3   7   28.30   34.60   1
 -20   3  -7   29.70   38.60   1
  20  -3   7   33.70   39.30   1
 -20  -3   7   29.20   32.80   1
  20   3  -7   32.80   32.70   1
  20   4   0   10.00   17.00   1
 -20  -4   0    5.40   16.10   1
  20  -4   0   -0.00   17.30   1
 -20   4   0    6.10   18.80   1
  20   4   1   18.30   17.90   1
 -20  -4  -1    9.10   17.00   1
  20  -4  -1    3.20   18.30   1
 -20   4   1   -0.00   17.50   1
 -20   4  -1    5.90   19.50   1
  20  -4   1   -0.00   19.90   1
 -20  -4   1   11.70   19.40   1
  20   4  -1   -0.00   19.90   1
  20   4   2    3.70   20.70   1
 -20  -4  -2   15.00   20.00   1
  20  -4  -2    7.70   20.40   1
 -20   4   2    5.40   20.90   1
 -20   4  -2   26.30   24.20   1
  20  -4   2   32.50   24.40   1
 -20  -4   2   -0.00   20.30   1
  20   4  -2   -0.00   21.80   1
  20   4   3   -0.00   13.40   1
 -20  -4  -3   -0.00   12.90   1
  20  -4  -3   -0.00   12.80   1
 -20   4   3    6.90   12.80   1
 -20   4  -3    3.60   16.50   1
  20  -4   3   -0.00   17.30   1
 -20  -4   3    5.50   14.20   1
  20   4  -3   -0.00   13.10   1
  20   4   4    9.40   14.90   1
 -20  -4  -4   14.70   15.60   1
  20  -4  -4    3.10   14.80   1
 -20   4   4   -0.00   14.40   1
 -20   4  -4    4.10   19.10   1
  20  -4   4   -0.00   21.60   1
 -20  -4   4   -0.00   14.30   1
  20   4  -4   -0.00   15.50   1
  20   4   5   25.00   27.70   1
 -20  -4  -5    2.80   28.10   1
  20  -4  -5   17.60   28.60   1
 -20   4   5   20.40   27.60   1
 -20   4  -5   25.10   29.30   1
  20  -4   5   27.70   30.60   1
 -20  -4   5   16.80   27.40   1
  20   4  -5   23.30   28.00   1
  20   4   6    7.60   27.80   1
 -20  -4  -6    3.20   28.40   1
  20  -4  -6   27.80   27.60   1
 -20   4   6   -0.00   26.80   1
 -20   4  -6   -0.00   30.00   1
  20  -4   6   -0.00   28.00   1
 -20  -4   6   46.20   26.40   1
  20   4  -6   28.40   25.60   1
  20   4   7   -0.00   21.40   1
 -20  -4  -7    2.00   20.10   1
  20  -4  -7   29.40   20.00   1
 -20   4   7   20.60   19.30   1
 -20   4  -7    4.00   20.20   1
  20  -4   7   13.00   29.50   1
 -20  -4   7   -0.00   15.60   1
  20   4  -7   -0.00   15.20   1
  20   5   0   72.30   49.50   1
 -20  -5   0   81.10   48.60   1
  20  -5   0   44.50   48.40   1
 -20   5   0   56.10   48.80   1
  20   5   1   25.50   30.70   1
 -20  -5  -1   23.20   30.50   1
  20  -5  -1   27.10   31.00   1
 -20   5   1   20.60   31.20   1
 -20   5  -1   20.60   32.80   1
  20  -5   1   33.40   32.50   1
 -20  -5   1   48.60   32.70   1
  20   5  -1   14.40   31.60   1
  20   5   2   26.60   26.80   1
 -20  -5  -2   24.10   27.20   1
  20  -5  -2    9.90   27.50   1
 -20   5   2   26.90   27.90   1
 -20   5  -2   -0.00   30.30   1
  20  -5   2   18.20   31.10   1
 -20  -5   2   32.10   28.70   1
  20   5  -2   -0.00   28.70   1
  20   5   3  169.60   66.40   1
 -20  -5  -3   69.30   65.00   1
  20  -5  -3  124.10   65.70   1
 -20   5   3  145.30   66.00   1
 -20   5  -3  138.20   67.80   1
  20  -5   3  120.10   67.60   1
 -20  -5   3   98.20   65.20   1
  20   5  -3   87.70   64.80   1
  20   5   4   -0.00   17.60   1
 -20  -5  -4    0.00   17.60   1
  20  -5  -4   24.50   17.60   1
 -20   5   4    0.00   16.90   1
 -20   5  -4   -0.00   18.80   1
  20  -5   4    5.80   21.80   1
 -20  -5   4   12.40   17.40   1
  20   5  -4    7.70   18.40   1
  20   5   5  239.90   99.40   1
 -20  -5  -5  171.20   98.80   1
  20  -5  -5  203.50   99.20   1
 -20   5   5  220.70   99.20   1
 -20   5  -5  181.30  100.00   1
  20  -5   5  287.20  101.20   1
 -20  -5   5  199.70   98.60   1
  20   5  -5  210.00   98.70   1
  20   5   6   22.60   25.20   1
 -20  -5  -6    8.10   25.40   1
  20  -5  -6   -0.00   25.50   1
 -20   5   6   26.00   25.70   1
 -20   5  -6    8.00   32.00   1
  20  -5   6   42.10   31.90   1
 -20  -5   6   14.50   22.70   1
  20   5  -6    9.10   22.20   1
  20   5   7    6.90   29.70   1
 -20  -5  -7    4.10   29.00   1
  20  -5  -7  145.80   32.90   1
 -20   5   7   19.20   28.40   1
 -20   5  -7   -0.00   29.30   1
  20  -5   7    0.00   33.90   1
 -20  -5   7   20.90   25.80   1
  20   5  -7   18.10   25.60   1
  20   6   0    8.90   26.30   1
 -20  -6   0   17.50   26.30   1
  20  -6   0   20.80   26.40   1
 -20   6   0   16.60   26.50   1
  20   6   1    7.50   20.20   1
 -20  -6  -1    7.50   19.70   1
  20  -6  -1    6.00   20.00   1
 -20   6   1    0.00   21.10   1
 -20   6  -1   28.80   24.10   1
  20  -6   1   35.20   24.90   1
 -20  -6   1   -0.00   19.50   1
  20   6  -1   14.90   21.70   1
  20   6   2   12.10   24.80   1
 -20  -6  -2   20.30   24.70   1
  20  -6  -2   41.70   26.00   1
 -20   6   2   21.80   25.10   1
 -20   6  -2   10.30   28.40   1
  20  -6   2   12.60   28.00   1
 -20  -6   2    4.80   25.40   1
  20   6  -2    4.90   25.20   1
  20   6   3    1.70   15.90   1
 -20  -6  -3    7.80   15.80   1
  20  -6  -3    6.20   16.20   1
 -20   6   3    9.90   15.70   1
 -20   6  -3    9.20   19.30   1
  20  -6   3   -0.00   24.40   1
 -20  -6   3   -0.00   14.70   1
  20   6  -3    0.00   16.60   1
  20   6   4    0.00   23.20   1
 -20  -6  -4    1.20   23.40   1
  20  -6  -4    8.30   23.70   1
 -20   6   4   14.30   23.70   1
 -20   6  -4   24.20   26.00   1
  20  -6   4   24.80   27.10   1
 -20  -6   4   25.20   23.90   1
  20   6  -4   35.20   23.90   1
  20   6   5   18.80   26.10   1
 -20  -6  -5    9.80   26.30   1
  20  -6  -5   18.00   26.20   1
 -20   6   5   21.00   25.60   1
 -20   6  -5   25.40   30.50   1
  20  -6   5   12.90   29.00   1
 -20  -6   5   21.60   25.40   1
  20   6  -5    9.90   25.50   1
  20   6   6   15.10   19.20   1
 -20  -6  -6   -0.00   19.00   1
  20  -6  -6   19.50   20.90   1
 -20   6   6    5.90   18.50   1
 -20   6  -6   -0.00   23.90   1
  20  -6   6   13.70   27.30   1
 -20  -6   6    4.20   16.10   1
  20   6  -6    5.10   16.50   1
  20   7   0   19.40   35.50   1
 -20  -7   0   52.90   36.60   1
  20  -7   0   38.90   37.50   1
 -20   7   0   31.90   37.10   1
  20   7   1   46.20   20.40   1
 -20  -7  -1    0.00   17.60   1
  20  -7  -1    1.50   17.20   1
 -20   7   1    5.90   18.10   1
 -20   7  -1    1.90   19.50   1
  20  -7   1    5.30   21.80   1
 -20  -7   1   -0.00   17.40   1
  20   7  -1   -0.00   17.20   1
  20   7   2   57.50   46.20   1
 -20  -7  -2   64.60   46.40   1
  20  -7  -2   40.30   46.30   1
 -20   7   2   57.90   46.70   1
 -20   7  -2  109.30   50.80   1
  20  -7   2   69.60   49.10   1
 -20  -7   2   29.70   46.20   1
  20   7  -2  111.60   47.10   1
  20   7   3   18.70   23.20   1
 -20  -7  -3   10.90   23.20   1
  20  -7  -3   17.90   24.10   1
 -20   7   3    4.80   22.90   1
 -20   7  -3    3.80   23.70   1
  20  -7   3   12.20   26.70   1
 -20  -7   3   12.90   23.20   1
  20   7  -3   23.40   23.20   1
  20   7   4   27.30   28.70   1
 -20  -7  -4   12.80   28.40   1
  20  -7  -4   17.40   29.00   1
 -20   7   4   20.50   29.10   1
 -20   7  -4   13.10   30.90   1
  20  -7   4   10.60   30.50   1
 -20  -7   4   20.80   27.90   1
  20   7  -4   30.90   27.90   1
  20   7   5   -0.00   14.40   1
 -20  -7  -5    7.90   14.40   1
  20  -7  -5   -0.00   14.50   1
 -20   7   5    7.40   15.40   1
 -20   7  -5    0.00   24.50   1
  20  -7   5   15.40   24.00   1
 -20  -7   5    2.30   14.30   1
  20   7  -5    4.50   14.20   1
  20   7   6   31.40   40.20   1
 -20  -7  -6   48.00   40.90   1
  20  -7  -6   36.00   40.30   1
 -20   7   6   46.40   40.00   1
 -20   7  -6   16.40   42.20   1
  20  -7   6   39.40   45.20   1
 -20  -7   6   57.60   39.70   1
  20   7  -6   52.00   39.80   1
  20   8   0  202.60  108.90   1
 -20  -8   0  269.80  109.50   1
  20  -8   0  244.40  110.80   1
 -20   8   0  273.10  111.10   1
  20   8   1   75.00   53.70   1
 -20  -8  -1  100.90   54.50   1
  20  -8  -1   97.50   54.50   1
 -20   8   1   49.90   54.20   1
 -20   8  -1   96.70   55.30   1
  20  -8   1   62.40   54.70   1
 -20  -8   1  107.30   53.80   1
  20   8  -1   47.60   52.70   1
  20   8   2   58.20   43.70   1
 -20  -8  -2   39.30   42.20   1
  20  -8  -2   64.00   43.50   1
 -20   8   2   29.40   43.30   1
 -20   8  -2   63.30   45.20   1
  20  -8   2   88.80   47.80   1
 -20  -8   2   33.20   42.30   1
  20   8  -2   65.20   42.90   1
  20   8   3   -0.00   20.60   1
 -20  -8  -3    1.00   20.20   1
  20  -8  -3   -0.00   20.80   1
 -20   8   3   -0.00   21.30   1
 -20   8  -3   36.80   25.00   1
  20  -8   3   57.40   26.10   1
  20   8  -3  147.30   24.50   1
  20   8   4   20.90   27.80   1
 -20  -8  -4   11.00   27.90   1
  20  -8  -4   -0.00   28.30   1
 -20   8   4    7.00   28.40   1
 -20   8  -4   34.80   33.20   1
  20  -8   4   28.90   31.00   1
 -20  -8   4   54.70   28.10   1
  20   8  -4   26.60   27.30   1
  20   8   5   53.30   41.90   1
 -20  -8  -5   30.50   41.50   1
  20  -8  -5   42.80   42.00   1
 -20   8   5   39.20   42.20   1
 -20   8  -5   40.70   45.10   1
  20  -8   5   64.60   47.60   1
 -20  -8   5  123.40   42.30   1
  20   8  -5   39.70   41.10   1
  20   9   0    7.30   17.00   1
 -20  -9   0    5.40   17.50   1
  20  -9   0    8.00   23.30   1
 -20   9   0   -0.00   21.00   1
  20   9   1   19.50   20.50   1
 -20  -9  -1    7.20   19.20   1
  20  -9  -1    7.60   20.20   1
 -20   9   1   -0.00   20.40   1
 -20   9  -1   12.10   22.00   1
  20  -9   1    9.50   22.70   1
 -20  -9   1    3.70   16.70   1
  20   9  -1   -0.00   17.60   1
  20   9   2   12.40   19.20   1
 -20  -9  -2   -0.00   15.80   1
  20  -9  -2    5.50   16.60   1
 -20   9   2    0.00   16.80   1
 -20   9  -2   -0.00   16.60   1
  20  -9   2    0.00   20.80   1
 -20  -9   2    7.90   15.50   1
  20   9  -2    7.30   15.70   1
  20   9   3    8.10   18.70   1
 -20  -9  -3    7.30   18.40   1
  20  -9  -3    2.10   19.80   1
 -20   9   3    0.00   19.60   1
 -20   9  -3    3.40   22.40   1
  20  -9   3   -0.00   22.30   1
 -20  -9   3   19.10   19.00   1
  20   9  -3   14.80   18.90   1
  20   9   4   19.10   14.40   1
 -20  -9  -4   -0.00   14.90   1
  20  -9  -4    1.50   15.80   1
 -20   9   4   -0.00   15.30   1
 -20   9  -4   -0.00   23.80   1
  20  -9   4   -0.00   23.10   1
 -20  -9   4   -0.00   12.60   1
  20   9  -4    3.30   13.00   1
  20   9   5    1.50   16.10   1
 -20  -9  -5    7.40   16.30   1
  20  -9  -5   15.80   17.60   1
 -20   9   5   -0.00   17.40   1
 -20   9  -5   -0.00   20.40   1
  20  -9   5    0.00   25.60   1
 -20  -9   5    3.90   14.60   1
  20   9  -5    4.10   14.10   1
  20  10   0   29.90   36.10   1
 -20 -10   0   36.10   37.10   1
  20 -10   0   37.30   39.90   1
 -20  10   0   60.10   40.40   1
  20  10   1   92.00   28.70   1
 -20 -10  -1   47.90   27.60   1
  20 -10  -1   12.20   28.70   1
 -20  10   1    0.00   28.10   1
 -20  10  -1   16.10   27.60   1
  20 -10   1   -0.00   30.90   1
 -20 -10   1   -0.00   24.60   1
  20  10  -1   18.50   25.40   1
  20  10   2   40.00   30.40   1
 -20 -10  -2    9.20   30.20   1
  20 -10  -2   15.70   30.10   1
 -20  10   2   25.80   31.80   1
 -20  10  -2   20.80   31.40   1
  20 -10   2   10.00   31.30   1
 -20 -10   2   10.10   28.80   1
  20  10  -2   49.30   29.30   1
  20  10   3   27.00   23.40   1
 -20 -10  -3   56.20   22.40   1
  20 -10  -3    0.00   21.50   1
 -20  10   3   -0.00   21.90   1
 -20  10  -3   -0.00   26.70   1
  20 -10   3    7.50   24.50   1
 -20 -10   3   13.10   20.20   1
  20  10  -3    3.50   19.90   1
  20  10   4    0.00   17.70   1
 -20 -10  -4    0.80   17.30   1
  20 -10  -4   59.50   19.90   1
 -20  10   4   -0.00   18.20   1
 -20  10  -4    8.80   24.20   1
  20 -10   4   25.00   28.10   1
 -20 -10   4    7.70   17.40   1
  20  10  -4    4.40   16.60   1
  20  11   0    0.00   12.10   1
 -20 -11   0    1.70   11.30   1
  20 -11   0    0.80   19.00   1
 -20  11   0    8.80   21.20   1
  20  11   1   13.10   23.40   1
 -20 -11  -1   19.50   25.00   1
  20 -11  -1    5.20   28.10   1
 -20  11   1    3.60   25.70   1
 -20  11  -1    0.00   25.10   1
  20 -11   1   26.90   27.80   1
 -20 -11   1   12.10   23.30   1
  20  11  -1   23.20   23.40   1
  20  11   2   10.60   18.90   1
 -20 -11  -2   -0.00   17.20   1
  20 -11  -2   14.70   19.60   1
 -20  11   2    9.90   20.50   1
 -20  11  -2    7.30   20.50   1
  20 -11   2    9.20   21.10   1
 -20 -11   2    3.20   16.20   1
  20  11  -2    1.00   14.70   1
  21   0   0   -0.00   18.60   1
 -21   0   0   10.60   19.00   1
  21   0   1  393.10  121.50   1
 -21   0  -1  249.50  119.80   1
  21   0  -1  265.50  120.10   1
 -21   0   1  261.50  120.20   1
  21   0   2   50.10   46.10   1
 -21   0  -2   56.90   45.90   1
  21   0  -2   68.90   46.00   1
 -21   0   2   47.30   45.30   1
  21   0   3  592.50  166.50   1
 -21   0  -3  418.90  164.60   1
  21   0  -3  405.60  164.80   1
 -21   0   3  385.00  164.30   1
  21   0   4  133.50   67.40   1
 -21   0  -4   99.10   67.40   1
  21   0  -4   95.80   66.20   1
 -21   0   4   99.60   66.70   1
  21   0   5  274.80  105.10   1
 -21   0  -5  152.30  102.70   1
  21   0  -5  416.30  106.20   1
 -21   0   5  215.30  103.30   1
  21   0   6    5.30   23.40   1
 -21   0  -6    4.60   21.30   1
  21   0  -6    0.00   16.30   1
 -21   0   6   14.10   18.40   1
  21   1   0   49.20   30.70   1
 -21  -1   0   15.30   30.00   1
  21  -1   0   28.40   30.30   1
 -21   1   0   10.30   30.20   1
  21   1   1   15.60   21.70   1
 -21  -1  -1   25.10   21.60   1
  21  -1  -1    9.00   21.30   1
 -21   1   1   18.30   22.30   1
 -21   1  -1   11.60   22.00   1
  21  -1   1   10.60   21.40   1
 -21  -1   1    2.70   20.80   1
  21   1  -1    0.00   21.40   1
  21   1   2   35.10   27.70   1
 -21  -1  -2   17.20   27.90   1
  21  -1  -2   35.90   27.50   1
 -21   1   2   17.40   27.00   1
 -21   1  -2    0.00   27.90   1
  21  -1   2   18.10   28.00   1
 -21  -1   2   15.20   27.80   1
  21   1  -2   16.70   28.10   1
  21   1   3    2.30   19.50   1
 -21  -1  -3   17.00   20.30   1
  21  -1  -3    8.00   21.00   1
 -21   1   3    4.10   19.30   1
 -21   1  -3   14.30   21.90   1
  21  -1   3    4.00   21.00   1
 -21  -1   3    8.90   21.30   1
  21   1  -3   10.80   21.80   1
  21   1   4   74.50   43.50   1
 -21  -1  -4   40.60   43.30   1
  21  -1  -4   49.60   43.80   1
 -21   1   4   38.30   43.10   1
 -21   1  -4   36.30   44.70   1
  21  -1   4   60.30   44.90   1
 -21  -1   4   33.80   42.50   1
  21   1  -4   59.00   43.90   1
  21   1   5   -0.00   22.30   1
 -21  -1  -5   -0.00   21.80   1
  21  -1  -5   14.70   21.50   1
 -21   1   5    5.80   20.00   1
 -21   1  -5   22.10   23.70   1
  21  -1   5   10.60   22.30   1
 -21  -1   5    8.10   21.00   1
  21   1  -5    4.50   19.90   1
  21   1   6    9.30   24.20   1
 -21  -1  -6    8.30   23.90   1
  21  -1  -6   -0.00   21.30   1
 -21   1   6   15.80   22.40   1
 -21   1  -6   14.20   23.30   1
  21  -1   6   15.20   25.20   1
 -21  -1   6    7.00   19.50   1
  21   1  -6    8.00   20.70   1
  21   2   0    7.70   27.20   1
 -21  -2   0   13.30   27.80   1
  21  -2   0   42.10   28.60   1
 -21   2   0   28.10   27.80   1
  21   2   1   18.50   21.60   1
 -21  -2  -1   11.00   22.30   1
  21  -2  -1   14.60   22.90   1
 -21   2   1   14.10   22.00   1
 -21   2  -1   -0.00   21.10   1
  21  -2   1   -0.00   21.80   1
 -21  -2   1    5.70   20.70   1
  21   2  -1   14.80   20.50   1
  21   2   2    1.30   16.40   1
 -21  -2  -2   12.20   16.40   1
  21  -2  -2    9.50   16.10   1
 -21   2   2    9.50   16.60   1
 -21   2  -2   -0.00   17.70   1
  21  -2   2    2.60   18.50   1
 -21  -2   2   -0.00   17.30   1
  21   2  -2   -0.00   19.30   1
  21   2   3   85.10   39.00   1
 -21  -2  -3   56.30   39.00   1
  21  -2  -3   57.50   38.40   1
 -21   2   3   38.10   37.90   1
 -21   2  -3   40.70   40.60   1
  21  -2   3   42.60   40.10   1
 -21  -2   3   17.80   39.40   1
  21   2  -3    4.90   38.10   1
  21   2   4    8.20   24.60   1
 -21  -2  -4   -0.00   23.70   1
  21  -2  -4   27.80   26.10   1
 -21   2   4   17.80   23.70   1
 -21   2  -4   -0.00   25.70   1
  21  -2   4   18.50   27.20   1
 -21  -2   4   22.70   25.20   1
  21   2  -4   19.00   24.90   1
  21   2   5   50.00   30.80   1
 -21  -2  -5  136.10   33.70   1
  21  -2  -5   -0.00   28.40   1
 -21   2   5    3.70   29.90   1
 -21   2  -5   24.20   30.30   1
  21  -2   5   -0.00   30.80   1
 -21  -2   5   16.80   28.20   1
  21   2  -5   19.60   27.30   1
  21   2   6   46.70   23.30   1
 -21  -2  -6   -0.00   17.30   1
  21  -2  -6   11.60   20.40   1
 -21   2   6    2.90   17.00   1
 -21   2  -6    2.50   16.90   1
  21  -2   6   -0.00   19.00   1
 -21  -2   6   -0.00   15.10   1
  21   2  -6   -0.00   16.70   1
  21   3   0    0.00   12.60   1
 -21  -3   0    8.60   13.10   1
  21  -3   0   -0.00   13.30   1
 -21   3   0   -0.00   14.60   1
  21   3   1   24.20   21.70   1
 -21  -3  -1   14.20   21.90   1
  21  -3  -1    6.10   21.90   1
 -21   3   1   -0.00   21.50   1
 -21   3  -1   10.60   23.40   1
  21  -3   1    6.70   22.40   1
 -21  -3   1   14.20   21.70   1
  21   3  -1   14.10   22.90   1
  21   3   2   40.60   37.10   1
 -21  -3  -2   33.60   36.40   1
  21  -3  -2   44.60   36.90   1
 -21   3   2   25.80   36.70   1
 -21   3  -2   22.30   37.80   1
  21  -3   2   34.20   37.40   1
 -21  -3   2   53.20   37.90   1
  21   3  -2   31.90   38.20   1
  21   3   3   52.70   36.90   1
 -21  -3  -3   27.50   36.60   1
  21  -3  -3   33.60   37.00   1
 -21   3   3   24.60   36.50   1
 -21   3  -3   25.50   38.90   1
  21  -3   3   41.60   39.90   1
 -21  -3   3   28.80   37.10   1
  21   3  -3  119.70   40.40   1
  21   3   4    5.90   20.90   1
 -21  -3  -4   10.80   22.60   1
  21  -3  -4  139.60   25.70   1
 -21   3   4    2.40   20.50   1
 -21   3  -4   36.80   27.40   1
  21  -3   4   19.60   25.50   1
 -21  -3   4   -0.00   22.50   1
  21   3  -4    0.50   20.70   1
  21   3   5   77.40   25.70   1
 -21  -3  -5   11.60   25.10   1
  21  -3  -5   12.50   26.00   1
 -21   3   5    5.30   23.70   1
 -21   3  -5    3.70   24.90   1
  21  -3   5   -0.00   29.10   1
 -21  -3   5    1.00   21.90   1
  21   3  -5   18.90   23.40   1
  21   3   6   52.00   34.10   1
 -21  -3  -6    7.60   32.00   1
  21  -3  -6    9.80   32.20   1
 -21   3   6   11.00   31.20   1
 -21   3  -6    9.50   32.70   1
  21  -3   6   20.70   31.90   1
 -21  -3   6   45.50   30.90   1
  21   3  -6   37.40   30.50   1
  21   4   0    8.10   19.50   1
 -21  -4   0    4.70   18.80   1
  21  -4   0   10.70   20.70   1
 -21   4   0   11.50   20.50   1
  21   4   1   -0.00   15.90   1
 -21  -4  -1    0.00   16.00   1
  21  -4  -1   -0.00   17.30   1
 -21   4   1    0.60   16.40   1
 -21   4  -1    8.10   18.00   1
  21  -4   1   10.10   18.00   1
 -21  -4   1   24.80   18.40   1
  21   4  -1   15.00   20.60   1
  21   4   2   18.70   25.40   1
 -21  -4  -2   32.60   25.40   1
  21  -4  -2   14.00   24.90   1
 -21   4   2   16.50   25.50   1
 -21   4  -2   -0.00   28.80   1
  21  -4   2   12.30   27.90   1
 -21  -4   2   10.90   25.30   1
  21   4  -2    5.80   25.20   1
  21   4   3   21.00   19.20   1
 -21  -4  -3    0.80   18.30   1
  21  -4  -3   14.10   18.60   1
 -21   4   3   -0.00   18.90   1
 -21   4  -3    0.00   20.80   1
  21  -4   3   10.50   23.50   1
 -21  -4   3   22.30   20.90   1
  21   4  -3   -0.00   19.70   1
  21   4   4    9.50   26.10   1
 -21  -4  -4    6.00   26.60   1
  21  -4  -4   68.00   26.90   1
 -21   4   4    3.70   25.80   1
 -21   4  -4   11.10   28.90   1
  21  -4   4   48.10   31.00   1
 -21  -4   4   14.80   26.30   1
  21   4  -4   21.20   26.30   1
  21   4   5   24.60   18.00   1
 -21  -4  -5   -0.00   16.90   1
  21  -4  -5   -0.00   17.70   1
 -21   4   5   -0.00   15.60   1
 -21   4  -5   -0.00   17.10   1
  21  -4   5   -0.00   19.50   1
 -21  -4   5   -0.00   16.50   1
  21   4  -5   11.80   16.60   1
  21   4   6   15.00   20.60   1
 -21  -4  -6    9.90   21.60   1
  21  -4  -6    1.30   18.60   1
 -21   4   6    0.00   19.90   1
 -21   4  -6   17.10   23.90   1
  21  -4   6   -0.00   20.30   1
 -21  -4   6    8.80   16.60   1
  21   4  -6    1.00   15.90   1
  21   5   0   -0.00   28.60   1
 -21  -5   0    6.40   27.50   1
  21  -5   0   37.50   28.60   1
 -21   5   0   76.80   30.60   1
  21   5   1   21.50   27.20   1
 -21  -5  -1   20.30   27.10   1
  21  -5  -1   14.10   27.50   1
 -21   5   1   10.40   27.60   1
 -21   5  -1   16.90   29.50   1
  21  -5   1   21.70   28.90   1
 -21  -5   1   20.50   29.90   1
  21   5  -1   44.30   30.00   1
  21   5   2  251.60   95.80   1
 -21  -5  -2  196.90   95.40   1
  21  -5  -2  198.70   95.20   1
 -21   5   2  139.00   94.50   1
 -21   5  -2  258.40   98.00   1
  21  -5   2  351.60   99.70   1
 -21  -5   2  155.40   95.20   1
  21   5  -2  258.40   96.80   1
  21   5   3   85.60   51.70   1
 -21  -5  -3   63.20   51.10   1
  21  -5  -3  121.20   52.70   1
 -21   5   3   77.20   52.00   1
 -21   5  -3   50.50   53.00   1
  21  -5   3   54.40   52.80   1
 -21  -5   3   75.50   51.90   1
  21   5  -3   52.10   50.80   1
  21   5   4  222.80   91.70   1
 -21  -5  -4  149.90   90.70   1
  21  -5  -4  299.30   93.30   1
 -21   5   4  245.30   92.20   1
 -21   5  -4  129.90   91.60   1
  21  -5   4  263.30   94.90   1
 -21  -5   4  141.50   90.70   1
  21   5  -4  274.50   92.60   1
  21   5   5   11.50   24.90   1
 -21  -5  -5   -0.00   25.40   1
  21  -5  -5   26.60   25.50   1
 -21   5   5   15.00   25.30   1
 -21   5  -5   20.80   27.10   1
  21  -5   5   16.20   26.60   1
 -21  -5   5   20.10   24.70   1
  21   5  -5   12.60   24.40   1
  21   6   0   58.60   28.50   1
 -21  -6   0   12.00   26.10   1
  21  -6   0    4.40   25.30   1
 -21   6   0    9.50   25.50   1
  21   6   1   32.80   35.60   1
 -21  -6  -1   10.10   34.70   1
  21  -6  -1   46.00   35.60   1
 -21   6   1   18.20   35.30   1
 -21   6  -1   18.80   37.30   1
  21  -6   1   19.20   37.60   1
 -21  -6   1  120.70   37.70   1
  21   6  -1   95.70   37.60   1
  21   6   2   -0.00   13.20   1
 -21  -6  -2    0.00   12.50   1
  21  -6  -2    1.80   14.30   1
 -21   6   2    8.40   14.40   1
 -21   6  -2   -0.00   16.00   1
  21  -6   2    8.10   20.70   1
 -21  -6   2   -0.00   14.80   1
  21   6  -2    2.60   13.60   1
  21   6   3   19.20   26.20   1
 -21  -6  -3   34.10   27.30   1
  21  -6  -3   29.00   27.00   1
 -21   6   3   12.30   26.50   1
 -21   6  -3   18.20   30.70   1
  21  -6   3   28.80   32.50   1
 -21  -6   3   15.40   26.30   1
  21   6  -3   -0.00   26.60   1
  21   6   4   -0.00   11.60   1
 -21  -6  -4   -0.00    9.40   1
  21  -6  -4   -0.00   10.10   1
 -21   6   4    0.00   12.30   1
 -21   6  -4   -0.00   13.20   1
  21  -6   4   -0.00   16.90   1
 -21  -6   4    0.00   11.90   1
  21   6  -4    0.00   12.10   1
  21   6   5   45.70   32.20   1
 -21  -6  -5   11.00   31.70   1
  21  -6  -5   44.40   32.70   1
 -21   6   5   36.70   31.90   1
 -21   6  -5   69.70   37.70   1
  21  -6   5   36.50   34.70   1
 -21  -6   5   17.40   31.70   1
  21   6  -5   14.10   31.30   1
  21   7   0  175.70   38.10   1
 -21  -7   0   18.90   34.10   1
  21  -7   0    0.00   33.80   1
 -21   7   0   51.60   35.40   1
  21   7   1   -0.00   20.90   1
 -21  -7  -1    6.80   19.30   1
  21  -7  -1    8.70   20.10   1
 -21   7   1   11.90   20.60   1
 -21   7  -1    0.00   21.70   1
  21  -7   1   21.70   23.60   1
 -21  -7   1   -0.00   21.40   1
  21   7  -1    9.10   21.40   1
  21   7   2   62.00   45.50   1
 -21  -7  -2   33.80   44.80   1
  21  -7  -2   69.00   45.70   1
 -21   7   2   40.70   45.50   1
 -21   7  -2   56.60   48.20   1
  21  -7   2   49.80   47.40   1
 -21  -7   2   58.20   46.00   1
  21   7  -2   92.60   45.90   1
  21   7   3   19.30   23.10   1
 -21  -7  -3   -0.10   23.50   1
  21  -7  -3    3.60   23.30   1
 -21   7   3    0.00   23.50   1
 -21   7  -3   12.80   25.10   1
  21  -7   3   23.40   28.60   1
 -21  -7   3   23.90   23.20   1
  21   7  -3   27.20   23.50   1
  21   7   4  125.80   46.70   1
 -21  -7  -4   41.70   45.10   1
  21  -7  -4   82.10   46.20   1
 -21   7   4  214.40   49.00   1
 -21   7  -4   43.80   46.30   1
  21  -7   4   28.80   45.90   1
 -21  -7   4   33.10   44.70   1
  21   7  -4   60.20   45.10   1
  21   8   0   16.20   28.00   1
 -21  -8   0    7.50   26.50   1
  21  -8   0   62.20   30.90   1
 -21   8   0   15.80   29.70   1
  21   8   1    4.10   23.70   1
 -21  -8  -1   -0.00   22.10   1
  21  -8  -1    9.90   23.60   1
 -21   8   1   -0.00   23.60   1
 -21   8  -1    8.40   23.30   1
  21  -8   1   93.90   28.70   1
 -21  -8   1   11.80   21.80   1
  21   8  -1   11.00   21.00   1
  21   8   2   49.10   35.90   1
 -21  -8  -2   14.00   34.30   1
  21  -8  -2   35.00   35.30   1
 -21   8   2   33.40   35.30   1
 -21   8  -2   41.80   37.90   1
  21  -8   2   45.30   40.10   1
 -21  -8   2   37.10   34.60   1
  21   8  -2   29.10   34.70   1
  21   8   3   17.80   30.40   1
 -21  -8  -3    6.70   30.00   1
  21  -8  -3   19.60   30.60   1
 -21   8   3   21.40   30.60   1
 -21   8  -3   22.00   31.70   1
  21  -8   3   30.50   33.90   1
 -21  -8   3   45.80   31.40   1
  21   8  -3   83.40   31.70   1
  21   8   4   -0.00   14.40   1
 -21  -8  -4    4.40   16.10   1
  21  -8  -4   12.80   17.60   1
 -21   8   4   -0.00   16.40   1
 -21   8  -4    8.70   22.60   1
  21  -8   4    7.20   19.90   1
 -21  -8   4   -0.00   14.30   1
  21   8  -4    5.60   14.10   1
  21   9   0    5.50   29.80   1
 -21  -9   0   81.60   32.70   1
  21  -9   0   19.90   33.70   1
 -21   9   0   20.10   32.10   1
  21   9   1   -0.00   15.70   1
 -21  -9  -1   -0.00   15.70   1
  21  -9  -1    4.00   16.50   1
 -21   9   1   17.00   19.30   1
 -21   9  -1   -0.00   22.00   1
  21  -9   1    1.80   18.70   1
 -21  -9   1   -0.00   13.10   1
  21   9  -1    2.20   13.00   1
  21   9   2   -0.00   22.90   1
 -21  -9  -2   14.90   20.70   1
  21  -9  -2   16.90   21.30   1
 -21   9   2    5.40   22.30   1
 -21   9  -2   -0.00   22.10   1
  21  -9   2    8.60   25.70   1
 -21  -9   2    3.10   20.60   1
  21   9  -2   17.50   20.40   1
  21  10   0   -0.00   13.90   1
 -21 -10   0    8.60   16.60   1
  21 -10   0    5.90   20.40   1
 -21  10   0   -0.00   19.20   1
  22   0   0   30.20   35.00   1
 -22   0   0   30.90   35.00   1
  22   0   1   30.20   39.40   1
 -22   0  -1   59.70   39.90   1
  22   0  -1   43.00   39.20   1
 -22   0   1   33.60   39.70   1
  22   0   2   56.10   37.00   1
 -22   0  -2   25.30   36.60   1
  22   0  -2   41.70   36.90   1
 -22   0   2   24.40   36.40   1
  22   0   3   -0.00   25.20   1
 -22   0  -3   13.80   25.80   1
  22   0  -3   20.60   27.30   1
 -22   0   3   20.40   25.00   1
  22   0   4   57.00   41.60   1
 -22   0  -4   42.30   41.80   1
  22   0  -4   43.70   41.20   1
 -22   0   4   28.40   41.30   1
  22   0   5   29.50   34.20   1
 -22   0  -5   35.80   34.10   1
  22   0  -5   35.80   33.50   1
 -22   0   5   10.40   30.90   1
  22   1   0    0.00   12.20   1
 -22  -1   0    7.70   14.20   1
  22  -1   0   -0.00   14.40   1
 -22   1   0   -0.00   12.70   1
  22   1   1   -0.00   15.20   1
 -22  -1  -1   10.80   14.80   1
  22  -1  -1    4.30   14.60   1
 -22   1   1   -0.00   15.00   1
 -22   1  -1    4.80   14.80   1
  22  -1   1    7.30   14.70   1
 -22  -1   1    0.00   13.80   1
  22   1  -1    0.00   15.00   1
  22   1   2    4.60   21.60   1
 -22  -1  -2   12.20   21.80   1
  22  -1  -2   13.30   21.40   1
 -22   1   2   14.60   21.30   1
 -22   1  -2    8.70   22.60   1
  22  -1   2   -0.00   22.10   1
 -22  -1   2    7.60   21.50   1
  22   1  -2   30.00   22.80   1
  22   1   3   20.50   21.80   1
 -22  -1  -3   -0.00   21.70   1
  22  -1  -3    7.30   20.80   1
 -22   1   3    4.10   20.10   1
 -22   1  -3   -0.00   23.30   1
  22  -1   3   17.10   21.80   1
 -22  -1   3   26.90   22.60   1
  22   1  -3   -0.00   22.80   1
  22   1   4   10.40   26.40   1
 -22  -1  -4   14.10   26.70   1
  22  -1  -4   17.20   28.00   1
 -22   1   4   12.30   26.90   1
 -22   1  -4    8.10   28.30   1
  22  -1   4   17.30   28.80   1
 -22  -1   4   14.90   26.40   1
  22   1  -4   33.60   27.50   1
  22   1   5   -0.00   19.20   1
 -22  -1  -5   17.10   21.50   1
  22  -1  -5   -0.00   17.90   1
 -22   1   5    2.40   16.80   1
 -22   1  -5   -0.00   18.10   1
  22  -1   5   16.00   22.20   1
 -22  -1   5    2.00   17.00   1
  22   1  -5   -0.00   17.30   1
  22   2   0   50.60   26.80   1
 -22  -2   0   16.70   25.90   1
  22  -2   0   -0.00   26.00   1
 -22   2   0   14.70   26.50   1
  22   2   1   27.80   31.30   1
 -22  -2  -1   11.30   31.00   1
  22  -2  -1   12.70   32.10   1
 -22   2   1   11.30   31.50   1
 -22   2  -1   48.10   31.40   1
  22  -2   1   54.40   31.30   1
 -22  -2   1   19.00   30.10   1
  22   2  -1   21.90   30.50   1
  22   2   2   24.90   22.80   1
 -22  -2  -2    4.20   22.10   1
  22  -2  -2   11.80   21.40   1
 -22   2   2   -0.00   21.80   1
 -22   2  -2   10.50   23.00   1
  22  -2   2   -0.00   23.60   1
 -22  -2   2   27.90   22.80   1
  22   2  -2   16.60   24.10   1
  22   2   3    9.60   28.00   1
 -22  -2  -3   69.00   29.40   1
  22  -2  -3   18.90   28.00   1
 -22   2   3   16.30   27.70   1
 -22   2  -3    8.50   31.70   1
  22  -2   3   15.20   31.20   1
 -22  -2   3   16.70   30.10   1
  22   2  -3   21.60   29.10   1
  22   2   4   16.80   21.90   1
 -22  -2  -4    9.10   21.40   1
  22  -2  -4    6.60   22.40   1
 -22   2   4   14.00   20.70   1
 -22   2  -4   -0.00   24.90   1
  22  -2   4    0.00   26.80   1
 -22  -2   4    5.20   22.30   1
  22   2  -4   10.70   23.10   1
  22   2   5   17.50   29.10   1
 -22  -2  -5   28.70   31.50   1
  22  -2  -5   35.20   30.90   1
 -22   2   5    2.60   29.70   1
 -22   2  -5    6.20   32.90   1
  22  -2   5   32.70   31.50   1
 -22  -2   5   12.90   28.50   1
  22   2  -5   27.00   27.90   1
  22   3   0  159.40   70.80   1
 -22  -3   0  146.20   70.50   1
  22  -3   0  102.80   70.10   1
 -22   3   0  102.80   70.20   1
  22   3   1    2.40   17.10   1
 -22  -3  -1   -0.00   17.70   1
  22  -3  -1   -0.00   18.10   1
 -22   3   1   -0.00   17.30   1
 -22   3  -1   13.80   18.00   1
  22  -3   1   12.80   17.40   1
 -22  -3   1   11.20   17.40   1
  22   3  -1    0.80   17.80   1
  22   3   2   46.30   37.20   1
 -22  -3  -2   30.90   36.80   1
  22  -3  -2   37.30   37.30   1
 -22   3   2   35.20   37.40   1
 -22   3  -2   31.50   38.20   1
  22  -3   2   34.80   37.90   1
 -22  -3   2   40.90   39.10   1
  22   3  -2   30.40   38.40   1
  22   3   3   11.30   26.60   1
 -22  -3  -3   14.20   26.70   1
  22  -3  -3   10.90   26.60   1
 -22   3   3   15.50   26.70   1
 -22   3  -3   59.60   31.40   1
  22  -3   3   51.70   31.10   1
 -22  -3   3   16.10   27.50   1
  22   3  -3   20.90   28.90   1
  22   3   4   54.40   33.70   1
 -22  -3  -4   35.50   33.20   1
  22  -3  -4   30.00   33.10   1
 -22   3   4   29.00   32.90   1
 -22   3  -4   -0.00   34.30   1
  22  -3   4   28.10   35.30   1
 -22  -3   4   18.60   33.30   1
  22   3  -4   27.60   33.00   1
  22   4   0   13.20   20.30   1
 -22  -4   0   13.90   20.00   1
  22  -4   0   -0.00   19.90   1
 -22   4   0    7.20   20.30   1
  22   4   1    8.90   17.40   1
 -22  -4  -1    9.50   17.70   1
  22  -4  -1   19.40   18.30   1
 -22   4   1   -0.00   17.70   1
 -22   4  -1    3.70   19.20   1
  22  -4   1   -0.00   19.30   1
 -22  -4   1    0.00   18.60   1
  22   4  -1    7.50   20.40   1
  22   4   2   -0.00   15.70   1
 -22  -4  -2   -0.00   15.10   1
  22  -4  -2   -0.00   16.40   1
 -22   4   2   11.80   16.50   1
 -22   4  -2   -0.00   18.90   1
  22  -4   2    8.90   18.40   1
 -22  -4   2    1.00   17.70   1
  22   4  -2   -0.00   16.00   1
  22   4   3    3.70   15.20   1
 -22  -4  -3   -0.00   15.50   1
  22  -4  -3   -0.00   14.80   1
 -22   4   3   17.50   16.90   1
 -22   4  -3    8.20   19.20   1
  22  -4   3    6.70   21.70   1
 -22  -4   3   -0.00   18.40   1
  22   4  -3   -0.00   17.90   1
  22   4   4   -0.00   11.20   1
 -22  -4  -4   -0.00   13.20   1
  22  -4  -4   -0.00   11.20   1
 -22   4   4   -0.00   11.80   1
 -22   4  -4    0.70   19.30   1
  22  -4   4    0.00   19.60   1
 -22  -4   4   -0.00   12.10   1
  22   4  -4    2.80   10.30   1
  22   5   0   63.50   30.30   1
 -22  -5   0   24.00   28.30   1
  22  -5   0   10.30   28.70   1
 -22   5   0    5.80   28.90   1
  22   5   1   20.90   25.90   1
 -22  -5  -1    9.80   25.90   1
  22  -5  -1   16.90   26.50   1
 -22   5   1   10.50   26.20   1
 -22   5  -1   21.70   28.40   1
  22  -5   1   37.00   28.20   1
 -22  -5   1   10.60   27.50   1
  22   5  -1   22.80   27.80   1
  22   5   2   48.60   48.40   1
 -22  -5  -2   90.40   49.40   1
  22  -5  -2   64.70   49.50   1
 -22   5   2   74.70   49.00   1
 -22   5  -2   85.80   51.50   1
  22  -5   2  172.00   53.60   1
 -22  -5   2   21.60   48.50   1
  22   5  -2   82.40   50.20   1
  22   5   3   87.80   37.50   1
 -22  -5  -3   28.60   35.80   1
  22  -5  -3   39.30   36.70   1
 -22   5   3   67.70   36.80   1
 -22   5  -3   22.70   38.50   1
  22  -5   3   37.00   39.20   1
 -22  -5   3   17.90   36.00   1
  22   5  -3   17.90   35.50   1
  22   5   4   -0.00   21.00   1
 -22  -5  -4   -0.00   20.40   1
  22  -5  -4    0.00   20.50   1
 -22   5   4   -0.00   20.50   1
 -22   5  -4   40.40   25.10   1
  22  -5   4   -0.00   26.60   1
 -22  -5   4   12.10   19.80   1
  22   5  -4   89.60   23.00   1
  22   6   0   -0.00   20.10   1
 -22  -6   0    4.50   17.20   1
  22  -6   0   10.20   17.00   1
 -22   6   0   -0.00   17.20   1
  22   6   1    0.00   24.40   1
 -22  -6  -1   12.60   23.10   1
  22  -6  -1   48.80   25.30   1
 -22   6   1   18.30   24.60   1
 -22   6  -1   19.20   27.30   1
  22  -6   1   21.00   26.90   1
 -22  -6   1   -0.00   24.90   1
  22   6  -1    1.50   25.20   1
  22   6   2    7.80   18.10   1
 -22  -6  -2    5.40   17.90   1
  22  -6  -2    0.00   19.80   1
 -22   6   2   11.50   19.10   1
 -22   6  -2   -0.00   23.30   1
  22  -6   2   15.40   24.90   1
 -22  -6   2   -0.00   20.30   1
  22   6  -2   18.10   20.20   1
  22   6   3    2.60   15.40   1
 -22  -6  -3    9.30   16.80   1
  22  -6  -3   10.50   17.70   1
 -22   6   3    5.50   16.30   1
 -22   6  -3   -0.00   21.30   1
  22  -6   3   10.30   21.20   1
 -22  -6   3   -0.00   15.70   1
  22   6  -3   -0.00   14.20   1
  22   7   0   55.00   47.00   1
 -22  -7   0   59.00   47.90   1
  22  -7   0   47.90   47.70   1
 -22   7   0   61.30   48.00   1
  22   7   1   20.30   21.90   1
 -22  -7  -1   11.50   20.10   1
  22  -7  -1    8.20   21.40   1
 -22   7   1   -0.00   20.80   1
 -22   7  -1   10.30   25.50   1
  22  -7   1    7.40   24.60   1
 -22  -7   1    0.00   21.00   1
  22   7  -1   11.30   22.00   1
  22   7   2   96.10   50.40   1
 -22  -7  -2   83.10   50.10   1
  22  -7  -2   77.90   50.40   1
 -22   7   2   45.30   49.70   1
 -22   7  -2   33.40   51.30   1
  22  -7   2   81.70   52.30   1
 -22  -7   2   86.60   50.80   1
  22   7  -2   51.80   49.50   1
  23   0   0   -0.00   13.50   1
 -23   0   0   -0.00   13.60   1
  23   0   1    1.90   22.60   1
 -23   0  -1    0.00   22.10   1
  23   0  -1   15.50   22.20   1
 -23   0   1   37.20   23.40   1
  23   0   2    3.20   15.20   1
 -23   0  -2    0.00   15.50   1
  23   0  -2   -0.00   15.50   1
 -23   0   2    7.10   14.30   1
  23   1   0   -0.00   10.90   1
 -23  -1   0    0.90   11.70   1
  23  -1   0   -0.00   11.90   1
 -23   1   0   -0.00   11.50   1
  23   1   1   -0.00   12.30   1
 -23  -1  -1   -0.00   11.80   1
  23  -1  -1   -0.00   11.80   1
 -23   1   1    0.80   11.80   1
 -23   1  -1   -0.00   11.40   1
  23  -1   1    1.00   11.30   1
 -23  -1   1   -0.00   10.20   1
  23   1  -1    0.90   10.80   1
  23   1   2   18.70   24.80   1
 -23  -1  -2   -0.00   24.70   1
  23  -1  -2   30.90   25.40   1
 -23   1   2   27.20   24.60   1
 -23   1  -2   12.30   25.50   1
  23  -1   2   24.00   25.40   1
 -23  -1   2    7.90   24.50   1
  23   1  -2   -0.00   25.90   1
  23   2   0   -0.00   16.10   1
 -23  -2   0   -0.00   16.50   1
  23  -2   0    9.70   17.10   1
 -23   2   0   11.00   16.80   1
  23   2   1    0.00   20.00   1
 -23  -2  -1    3.90   19.90   1
  23  -2  -1   13.00   20.40   1
 -23   2   1   15.00   20.70   1
 -23   2  -1    0.00   19.30   1
  23  -2   1   13.40   19.30   1
 -23  -2   1   12.80   18.30   1
  23   2  -1   -0.00   18.80   1
  23   2   2   32.50   18.00   1
 -23  -2  -2   -0.00   16.40   1
  23  -2  -2   -0.00   17.00   1
 -23   2   2    8.50   17.10   1
 -23   2  -2    0.00   18.60   1
  23  -2   2   -0.00   19.20   1
 -23  -2   2   -0.00   17.20   1
  23   2  -2   -0.00   20.90   1
  23   3   0   -0.00   13.50   1
 -23  -3   0    3.20   13.20   1
  23  -3   0    5.50   14.30   1
 -23   3   0    0.50   14.10   1
  23   3   1   -0.00   16.30   1
 -23  -3  -1    7.30   16.70   1
  23  -3  -1    1.00   16.50   1
 -23   3   1    1.40   15.90   1
 -23   3  -1   -0.00   17.00   1
  23  -3   1   -0.00   17.80   1
 -23  -3   1    5.90   15.70   1
  23   3  -1   20.10   17.70   1
  23   3   2   37.50   42.80   1
 -23  -3  -2   24.80   42.10   1
  23  -3  -2   39.10   42.50   1
 -23   3   2   41.60   43.20   1
 -23   3  -2   94.00   44.40   1
  23  -3   2   79.50   43.70   1
 -23  -3   2   40.50   43.50   1
  23   3  -2   96.80   45.80   1
  23   4   0    3.30   17.60   1
 -23  -4   0    8.60   16.60   1
  23  -4   0    8.40   18.70   1
 -23   4   0   -0.00   17.80   1
  23   4   1   14.40   21.80   1
 -23  -4  -1   52.30   22.30   1
  23  -4  -1   10.10   21.90   1
 -23   4   1   -0.00   21.30   1
 -23   4  -1    3.90   23.50   1
  23  -4   1    0.00   22.00   1
 -23  -4   1   11.70   21.80   1
  23   4  -1   -0.00   23.60   1
;
_shelx_hkl_checksum              88831
loop_
_space_group_symop_operation_xyz
'x, y, z'
'-x+1/2, -y, z+1/2'
'x+1/2, -y+1/2, -z+1/2'
'-x, y+1/2, -z'
'-x, -y, -z'
'x-1/2, y, -z-1/2'
'-x-1/2, y-1/2, z-1/2'
'x, -y-1/2, z'
loop_
_atom_site_label
_atom_site_type_symbol
_atom_site_fract_x
_atom_site_fract_y
_atom_site_fract_z
_atom_site_U_iso_or_equiv
_atom_site_adp_type
_atom_site_occupancy
_atom_site_site_symmetry_order
_atom_site_calc_flag
_atom_site_refinement_flags_posn
_atom_site_refinement_flags_occupancy
Si01 Si 0.4231(2) 0.0571(3) -0.3341(5) 0.0143(16) Uiso 1 1 d D .
Si02 Si 0.3093(2) 0.0296(4) -0.1864(6) 0.0184(17) Uiso 1 1 d D .
Si03 Si 0.2794(2) 0.0616(3) 0.0361(5) 0.0164(17) Uiso 1 1 d D .
Si04 Si 0.1223(2) 0.0637(3) 0.0309(5) 0.0149(16) Uiso 1 1 d D .
Si05 Si 0.0723(2) 0.0284(3) -0.1822(5) 0.0110(16) Uiso 1 1 d D .
Si06 Si 0.1883(2) 0.0597(3) -0.3238(6) 0.0155(16) Uiso 1 1 d D .
Si07 Si 0.4231(2) -0.1720(3) -0.3231(5) 0.0141(16) Uiso 1 1 d D .
Si08 Si 0.3093(2) -0.1300(4) -0.1804(6) 0.0174(17) Uiso 1 1 d D .
Si09 Si 0.2743(2) -0.1724(3) 0.0341(5) 0.0153(17) Uiso 1 1 d D .
Si10 Si 0.1194(3) -0.1726(4) 0.0308(6) 0.0193(17) Uiso 1 1 d D .
Si11 Si 0.0695(2) -0.1304(3) -0.1813(5) 0.0124(16) Uiso 1 1 d D .
Si12 Si 0.1879(3) -0.1725(4) -0.3144(6) 0.0226(18) Uiso 1 1 d D .
O01 O 0.3743(5) 0.0552(6) -0.2407(9) 0.041(3) Uiso 1 1 d D .
O02 O 0.3081(5) 0.0586(7) -0.0747(10) 0.038(3) Uiso 1 1 d D .
O03 O 0.2008(3) 0.0578(7) 0.0292(12) 0.042(3) Uiso 1 1 d D .
O04 O 0.0951(6) 0.0627(7) -0.0807(9) 0.049(3) Uiso 1 1 d D .
O05 O 0.1164(5) 0.0550(6) -0.2712(10) 0.035(3) Uiso 1 1 d D .
O06 O 0.2455(5) 0.0556(7) -0.2433(11) 0.049(3) Uiso 1 1 d D .
O07 O 0.3753(5) -0.1570(7) -0.2303(10) 0.040(3) Uiso 1 1 d D .
O08 O 0.3093(5) -0.1554(7) -0.0690(9) 0.038(3) Uiso 1 1 d D .
O09 O 0.1966(4) -0.1542(6) 0.0242(10) 0.029(3) Uiso 1 1 d D .
O10 O 0.0863(6) -0.1634(9) -0.0769(10) 0.063(4) Uiso 1 1 d D .
O11 O 0.1179(5) -0.1591(7) -0.2645(11) 0.041(3) Uiso 1 1 d D .
O12 O 0.2441(5) -0.1542(7) -0.2363(10) 0.051(4) Uiso 1 1 d D .
O13 O 0.3072(7) -0.0509(8) -0.1751(18) 0.075(5) Uiso 1 1 d D .
O14 O 0.0788(6) -0.0512(6) -0.1717(12) 0.047(3) Uiso 1 1 d D .
O15 O 0.4160(5) 0.1276(5) -0.3879(9) 0.035(3) Uiso 1 1 d D .
O16 O 0.4083(6) -0.0019(7) -0.4109(12) 0.053(4) Uiso 1 1 d D .
O17 O 0.4009(5) -0.1323(6) -0.4196(10) 0.039(3) Uiso 1 1 d D .
O18 O 0.1915(4) 0.1301(6) -0.3790(10) 0.034(3) Uiso 1 1 d D .
O19 O 0.1926(5) 0.0024(6) -0.4060(11) 0.047(3) Uiso 1 1 d D .
O20 O 0.1977(5) -0.1304(7) -0.4129(11) 0.047(3) Uiso 1 1 d D .
O21 O -0.0030(4) 0.0489(6) -0.2077(10) 0.032(3) Uiso 1 1 d D .
O22 O -0.0038(4) -0.1516(6) -0.2109(10) 0.039(3) Uiso 1 1 d D .
O23 O 0.4236(8) -0.250000 -0.3504(17) 0.046(5) Uiso 1 2 d DS P
O24 O 0.1911(6) -0.250000 -0.3473(15) 0.036(4) Uiso 1 2 d DS P
O25 O 0.2853(7) -0.250000 0.0599(14) 0.032(4) Uiso 1 2 d DS P
O26 O 0.1104(6) -0.250000 0.0615(14) 0.030(4) Uiso 1 2 d DS P
loop_
_atom_type_symbol
_atom_type_description
_atom_type_scat_dispersion_real
_atom_type_scat_dispersion_imag
_atom_type_scat_source
O O 0.0000 0.0000 'International Tables Vol C Tables 4.2.6.8 and 6.1.1.4'
Si Si 0.0000 0.0000 'International Tables Vol C Tables 4.2.6.8 and 6.1.1.4'
loop_
_geom_angle_atom_site_label_1
_geom_angle_atom_site_label_2
_geom_angle_atom_site_label_3
_geom_angle
_geom_angle_site_symmetry_1
_geom_angle_site_symmetry_3
O15 Si01 O01 109.0(7) . .
O15 Si01 O16 110.1(9) . .
O01 Si01 O16 112.2(8) . .
O15 Si01 O21 109.5(6) . 6_655
O01 Si01 O21 107.1(7) . 6_655
O16 Si01 O21 109.0(7) . 6_655
O06 Si02 O01 109.9(9) . .
O06 Si02 O02 108.8(8) . .
O01 Si02 O02 109.0(7) . .
O06 Si02 O13 110.6(9) . .
O01 Si02 O13 112.7(8) . .
O02 Si02 O13 105.7(11) . .
O03 Si03 O02 107.7(8) . .
O03 Si03 O19 110.0(7) . 2
O02 Si03 O19 107.2(8) . 2
O03 Si03 O20 110.7(7) . 2
O02 Si03 O20 109.1(8) . 2
O19 Si03 O20 112.1(9) 2 2
O03 Si04 O16 109.6(8) . 2
O03 Si04 O17 111.2(7) . 2
O16 Si04 O17 110.5(9) 2 2
O03 Si04 O04 109.1(8) . .
O16 Si04 O04 108.7(8) 2 .
O17 Si04 O04 107.6(8) 2 .
O05 Si05 O04 110.0(8) . .
O05 Si05 O14 110.7(8) . .
O04 Si05 O14 109.1(9) . .
O05 Si05 O21 106.4(7) . .
O04 Si05 O21 110.2(7) . .
O14 Si05 O21 110.4(7) . .
O06 Si06 O18 109.6(7) . .
O06 Si06 O19 113.4(8) . .
O18 Si06 O19 108.1(9) . .
O06 Si06 O05 110.4(8) . .
O18 Si06 O05 107.0(6) . .
O19 Si06 O05 108.1(7) . .
O17 Si07 O22 111.5(7) . 6_655
O17 Si07 O23 107.6(10) . .
O22 Si07 O23 108.1(8) 6_655 .
O17 Si07 O07 111.9(7) . .
O22 Si07 O07 106.3(7) 6_655 .
O23 Si07 O07 111.3(9) . .
O08 Si08 O07 107.0(7) . .
O08 Si08 O13 106.1(11) . .
O07 Si08 O13 112.5(8) . .
O08 Si08 O12 110.5(8) . .
O07 Si08 O12 112.9(9) . .
O13 Si08 O12 107.7(9) . .
O08 Si09 O18 109.4(7) . 2
O08 Si09 O25 109.5(9) . .
O18 Si09 O25 107.1(9) 2 .
O08 Si09 O09 108.0(7) . .
O18 Si09 O09 111.0(7) 2 .
O25 Si09 O09 111.8(7) . .
O15 Si10 O09 110.1(7) 2 .
O15 Si10 O10 111.8(8) 2 .
O09 Si10 O10 109.0(8) . .
O15 Si10 O26 108.6(8) 2 .
O09 Si10 O26 110.2(7) . .
O10 Si10 O26 107.1(9) . .
O22 Si11 O10 108.0(8) . .
O22 Si11 O11 107.3(7) . .
O10 Si11 O11 109.9(8) . .
O22 Si11 O14 113.2(7) . .
O10 Si11 O14 108.3(10) . .
O11 Si11 O14 110.0(8) . .
O11 Si12 O20 112.1(8) . .
O11 Si12 O12 108.3(8) . .
O20 Si12 O12 110.0(8) . .
O11 Si12 O24 108.3(8) . .
O20 Si12 O24 106.1(10) . .
O12 Si12 O24 112.1(9) . .
Si02 O01 Si01 151.6(10) . .
Si03 O02 Si02 152.6(9) . .
Si03 O03 Si04 171.9(11) . .
Si05 O04 Si04 155.2(11) . .
Si05 O05 Si06 148.8(9) . .
Si02 O06 Si06 159.8(11) . .
Si08 O07 Si07 153.8(10) . .
Si08 O08 Si09 153.3(7) . .
Si10 O09 Si09 152.4(9) . .
Si11 O10 Si10 159.1(12) . .
Si12 O11 Si11 154.8(10) . .
Si12 O12 Si08 166.6(11) . .
Si08 O13 Si02 171.5(17) . .
Si11 O14 Si05 164.9(10) . .
Si10 O15 Si01 149.0(9) 2_554 .
Si04 O16 Si01 165.3(10) 2_554 .
Si07 O17 Si04 148.8(10) . 2_554
Si06 O18 Si09 145.7(9) . 2_554
Si06 O19 Si03 158.6(9) . 2_554
Si12 O20 Si03 148.2(12) . 2_554
Si01 O21 Si05 145.9(10) 6 .
Si11 O22 Si07 148.7(10) . 6
Si07 O23 Si07 153.5(16) . 8
Si12 O24 Si12 147.8(15) 8 .
Si09 O25 Si09 150.2(13) . 8
Si10 O26 Si10 147.6(13) 8 .
loop_
_geom_bond_atom_site_label_1
_geom_bond_atom_site_label_2
_geom_bond_distance
_geom_bond_site_symmetry_2
Si01 O15 1.582(10) .
Si01 O01 1.587(10) .
Si01 O16 1.588(14) .
Si01 O21 1.591(10) 6_655
Si02 O06 1.574(12) .
Si02 O01 1.575(11) .
Si02 O02 1.602(14) .
Si02 O13 1.609(16) .
Si03 O03 1.577(7) .
Si03 O02 1.592(14) .
Si03 O19 1.592(8) 2
Si03 O20 1.597(13) 2
Si04 O03 1.577(7) .
Si04 O16 1.579(14) 2
Si04 O17 1.587(13) 2
Si04 O04 1.590(13) .
Si05 O05 1.574(12) .
Si05 O04 1.587(11) .
Si05 O14 1.597(13) .
Si05 O21 1.598(10) .
Si06 O06 1.575(13) .
Si06 O18 1.584(13) .
Si06 O19 1.587(10) .
Si06 O05 1.605(10) .
Si07 O17 1.578(13) .
Si07 O22 1.585(9) 6_655
Si07 O23 1.593(8) .
Si07 O07 1.597(13) .
Si08 O08 1.574(14) .
Si08 O07 1.575(11) .
Si08 O13 1.577(16) .
Si08 O12 1.580(9) .
Si09 O08 1.584(13) .
Si09 O18 1.592(12) 2
Si09 O25 1.598(8) .
Si09 O09 1.601(9) .
Si10 O15 1.578(10) 2
Si10 O09 1.592(9) .
Si10 O10 1.597(13) .
Si10 O26 1.604(8) .
Si11 O22 1.577(9) .
Si11 O10 1.580(12) .
Si11 O11 1.583(12) .
Si11 O14 1.593(13) .
Si12 O11 1.574(11) .
Si12 O20 1.575(14) .
Si12 O12 1.579(10) .
Si12 O24 1.605(9) .

_cod_database_fobs_code 2300640
