#------------------------------------------------------------------------------
#$Date: 2021-04-26 21:28:36 +0300 (Mon, 26 Apr 2021) $
#$Revision: 264551 $
#$URL: file:///home/coder/svn-repositories/cod/cif/2/30/04/2300460.cif $
#------------------------------------------------------------------------------
#
# This file is available in the Crystallography Open Database (COD),
# http://www.crystallography.net/. The original data for this entry
# were provided by IUCr Journals, http://journals.iucr.org/.
#
# The file may be used within the scientific community so long as
# proper attribution is given to the journal article from which the
# data were obtained.
#
data_2300460
loop_
_publ_author_name
'Nogueira, I. C.'
'Cavalcante, L. S.'
'Pereira, P. F. S.'
'de Jesus, M. M.'
'Rivas Mercury, J. M.'
'Batista, N. C.'
'Li, M. Siu'
'Longo, E.'
_publ_section_title
;
 Rietveld refinement, morphology and optical properties of
 (Ba~1{-~<i>x</i>}Sr<i>~x~</i>)MoO~4~ crystals
;
_journal_coeditor_code           xx
_journal_issue                   5
_journal_name_full               'Journal of Applied Crystallography'
_journal_page_first              1434
_journal_page_last               1446
_journal_paper_doi               10.1107/S0021889813020335
_journal_volume                  46
_journal_year                    2013
_chemical_compound_source        Scheelite
_chemical_formula_analytical     SrMoO4
_chemical_formula_moiety         'Sr O4 Mo'
_chemical_formula_structural     'Sr Mo O4'
_chemical_formula_sum            'Mo O4 Sr'
_chemical_formula_weight         247.56
_chemical_melting_point          1750
_chemical_name_common            'Strontium molybdate'
_space_group_IT_number           88
_symmetry_cell_setting           tetragonal
_symmetry_space_group_name_Hall  '-I 4ad'
_symmetry_space_group_name_H-M   'I 41/a :2'
_audit_creation_date             2012-10-01T01:11
_audit_creation_method           'from EXP file using GSAS2CIF'
_audit_update_record
' 2012-10-01T01:11  Initial CIF as created by GSAS2CIF'
_cell_angle_alpha                90.0
_cell_angle_beta                 90.0
_cell_angle_gamma                90.0
_cell_formula_units_Z            4
_cell_length_a                   5.402647(22)
_cell_length_b                   5.402647
_cell_length_c                   12.04112(8)
_cell_measurement_temperature    298
_cell_volume                     351.463(3)
_computing_data_collection       Jade
_computing_data_reduction        Jade
_computing_structure_refinement  GSAS
_computing_structure_solution    xx
_diffrn_ambient_temperature      298
_diffrn_detector                 scintillation
_diffrn_detector_type            scintillation
_diffrn_measurement_device_type  'Rigaku AFC-7R'
_diffrn_radiation_monochromator  Jade
_diffrn_radiation_polarisn_ratio 0.5
_diffrn_radiation_probe          x-ray
_diffrn_source                   Cu
_diffrn_source_target            Cu
_diffrn_source_type              Copper
_exptl_absorpt_correction_T_max  0.99348
_exptl_absorpt_correction_T_min  0.85274
_exptl_absorpt_process_details
;   GSAS Absorption/surface roughness correction: function number 3
 Surface roughness abs. correction (Suortti)
Terms =     0.34950        0.48499E-01
Correction is refined.
;
_exptl_crystal_density_diffrn    4.69
_exptl_crystal_density_method    'not measured'
_exptl_crystal_F_000             276
_pd_calc_method                  'Rietveld Refinement'
_pd_char_colour                  white
_pd_char_particle_morphology     irregular
_pd_instr_location               ' ?'
_pd_meas_2theta_range_inc        0.02
_pd_meas_2theta_range_max        110.0
_pd_meas_2theta_range_min        10.0
_pd_meas_number_of_points        5001
_pd_meas_scan_method             disp
_pd_phase_name                   'from C:/SMO_cop4s_1/SrMoO4.cif'
_pd_prep_cool_rate               1
_pd_prep_pressure                100
_pd_prep_temperature             298
_pd_proc_2theta_range_inc        0.02
_pd_proc_2theta_range_max        110.0
_pd_proc_2theta_range_min        10.0
_pd_proc_info_data_reduction     Jade
_pd_proc_info_datetime           2012-10-01T01:11:11
_pd_proc_info_excluded_regions   ' ?'
_pd_proc_ls_background_function
;   GSAS Background function number 1 with 13 terms.
 Shifted Chebyshev function of 1st kind
      1:    142.103     2:   -81.2221     3:    32.7517     4:   -6.58709    
      5:   -1.34704     6:    5.14295     7:    2.15774     8:   -11.0142    
      9:    7.91544    10:   -8.03612    11:   -4.31595    12:    12.5484    
     13:   -8.95494    
;
_pd_proc_ls_peak_cutoff          0.00030
_pd_proc_ls_profile_function
;
 CW Profile function number 4 with  17 terms
 Pseudovoigt profile coefficients as parameterized in
 P. Thompson, D.E. Cox & J.B. Hastings (1987). J. Appl. Cryst.,20,79-83.
 Asymmetry correction of L.W. Finger, D.E. Cox & A. P. Jephcoat (1994).
 J. Appl. Cryst.,27,892-900.
 Microstrain broadening by P.W. Stephens,  (1999). J. Appl. Cryst.,32,281-289.
 Peak tails are ignored  where the intensity is below 0.0003 times the peak
   Aniso. broadening axis   0.0   0.0   1.0
;
_pd_proc_number_of_points        5001
_pd_spec_mounting                ' ?'
_refine_ls_goodness_of_fit_all   1.52
_refine_ls_goodness_of_fit_ref   1.45
_refine_ls_matrix_type           full
_refine_ls_number_parameters     22
_refine_ls_number_restraints     0
_refine_ls_R_factor_all          0.0483
_refine_ls_R_factor_gt           0.0462
_refine_ls_R_Fsqd_factor         0.02266
_refine_ls_shift/su_max          0.05
_refine_ls_shift/su_mean         0.02
_refine_ls_wR_factor_gt          0.0701
_reflns_d_resolution_high        0.942
_reflns_d_resolution_low         4.929
_reflns_limit_h_max              5
_reflns_limit_h_min              0
_reflns_limit_k_max              5
_reflns_limit_k_min              0
_reflns_limit_l_max              12
_reflns_limit_l_min              0
_reflns_number_total             217
_cod_data_source_file            aj5215sup5.cif
_cod_data_source_block           SMO_DIP_CP_publ
_cod_depositor_comments
;
The following automatic conversions were performed:

'_geom_bond_publ_flag' value 'N' changed to 'n' according to
/usr/data/users/saulius/crontab/automatic-downloads/rss-feeds/IUCr/lib/dictionaries/cif_core.dic
dictionary named 'cif_core.dic' version 2.4.2 from 2011-04-26 (15
times).

'_geom_angle_publ_flag' value 'N' changed to 'n' according
to
/usr/data/users/saulius/crontab/automatic-downloads/rss-feeds/IUCr/lib/dictionaries/cif_core.dic
dictionary named 'cif_core.dic' version 2.4.2 from 2011-04-26 (45
times).

Automatic conversion script
Id: cif_fix_values 2281 2013-09-26 08:29:07Z andrius 

 Removed the _chemical_name_systematic data item since
 it had an incorrect value 'xx'.

 Antanas Vaitkus,
 2021-04-26
;
_cod_original_cell_volume        351.463(4)
_cod_original_sg_symbol_Hall     -I4ad
_cod_original_sg_symbol_H-M      'I 41/a'
_cod_database_code               2300460
loop_
_symmetry_equiv_pos_site_id
_symmetry_equiv_pos_as_xyz
1 +x,+y,+z
2 -y+3/4,+x+1/4,+z+1/4
3 -x+1/2,-y,+z+1/2
4 +y+3/4,-x+3/4,+z+3/4
-1 -x,-y,-z
-2 +y+1/4,-x+3/4,-z+3/4
-3 +x+1/2,+y,-z+1/2
-4 -y+1/4,+x+1/4,-z+1/4
101 +x+1/2,+y+1/2,+z+1/2
102 -y+1/4,+x+3/4,+z+3/4
103 -x,-y+1/2,+z
104 +y+1/4,-x+1/4,+z+1/4
-101 -x+1/2,-y+1/2,-z+1/2
-102 +y+3/4,-x+1/4,-z+1/4
-103 +x,+y+1/2,-z
-104 -y+3/4,+x+3/4,-z+3/4
loop_
_atom_site_type_symbol
_atom_site_label
_atom_site_fract_x
_atom_site_fract_y
_atom_site_fract_z
_atom_site_occupancy
_atom_site_thermal_displace_type
_atom_site_U_iso_or_equiv
_atom_site_symmetry_multiplicity
Sr Sr1 0.0 0.25 0.625 1.0 Uiso 0.009 4
Mo Mo1 0.0 0.25 0.125 1.0 Uiso 0.00466 4
O O1 0.2318 0.11359 0.0463 1.0 Uiso 0.0184 16
loop_
_atom_type_symbol
_atom_type_number_in_cell
_atom_type_scat_dispersion_real
_atom_type_scat_dispersion_imag
_atom_type_scat_Cromer_Mann_a1
_atom_type_scat_Cromer_Mann_a2
_atom_type_scat_Cromer_Mann_a3
_atom_type_scat_Cromer_Mann_a4
_atom_type_scat_Cromer_Mann_b1
_atom_type_scat_Cromer_Mann_b2
_atom_type_scat_Cromer_Mann_b3
_atom_type_scat_Cromer_Mann_b4
_atom_type_scat_Cromer_Mann_c
_atom_type_scat_source
Sr 4.0 0.000 0.000 18.0874 1.49070 8.13730 12.6963 2.56540 24.5651 -34.193
-0.0138 41.4025 International_Tables_Vol_C
Mo 4.0 0.000 0.000 17.8871 1.03649 11.1750 8.48061 6.57891 0.05888 0.0000
0.0000 0.34494 International_Tables_Vol_C
O 16.0 0.000 0.000 3.76936 15.0797 2.53342 6.30430 1.91579 40.3445 1.55094
0.31291 0.22789 International_Tables_Vol_C
loop_
_diffrn_radiation_wavelength
_diffrn_radiation_wavelength_wt
_diffrn_radiation_type
_diffrn_radiation_wavelength_id
1.540500 1.000 'Cu K\a' 1
1.544300 0.500 'Cu K\a' 2
loop_
_geom_angle_atom_site_label_1
_geom_angle_atom_site_label_2
_geom_angle_atom_site_label_3
_geom_angle
_geom_angle_site_symmetry_1
_geom_angle_site_symmetry_3
_geom_angle_publ_flag
Sr1 Sr1 Sr1 83.8075(5) 2_455 2_555 n
Sr1 Sr1 Sr1 123.63740(30) 2_455 4_444 n
Sr1 Sr1 O1 129.71320(10) 2_455 3_555 n
Sr1 Sr1 O1 39.46910(20) 2_455 4_455 n
Sr1 Sr1 O1 103.39670(30) 2_455 -2_555 n
Sr1 Sr1 O1 102.4775(4) 2_455 -3_445 n
Sr1 Sr1 O1 84.24650(30) 2_455 101_455 n
Sr1 Sr1 O1 39.6111 2_455 -104_445 n
Sr1 Sr1 Sr1 123.63740(30) 2_555 4_444 n
Sr1 Sr1 O1 39.6111 4_444 3_555 n
Sr1 Sr1 O1 162.37030(10) 4_444 4_455 n
Sr1 Sr1 O1 129.71320(10) 4_444 -2_555 n
Sr1 Sr1 O1 103.39670(30) 4_444 101_455 n
Sr1 Sr1 O1 103.39670(30) 4_454 3_555 n
Sr1 Sr1 O1 102.4775(4) 4_454 4_455 n
Sr1 Sr1 O1 84.24650(30) 4_454 -2_555 n
Sr1 Sr1 O1 66.6016(4) 4_454 -3_445 n
Sr1 Sr1 O1 39.6111 4_454 101_455 n
Sr1 Sr1 O1 39.46910(20) 4_454 -101_444 n
Sr1 Sr1 O1 129.71320(10) 4_454 -104_445 n
O1 Sr1 O1 148.58670(10) 3_555 4_455 n
O1 Sr1 O1 97.52560(10) 3_555 -2_555 n
O1 Sr1 O1 79.08020(20) 3_555 -3_445 n
O1 Sr1 O1 137.56641(30) 3_555 101_455 n
O1 Sr1 O1 73.4433(4) 3_555 102_334 n
O1 Sr1 O1 67.72630(10) 3_555 -101_444 n
O1 Sr1 O1 97.52560(10) 3_555 -104_445 n
O1 Sr1 O1 67.72630(10) 4_455 -2_555 n
O1 Sr1 O1 73.4433(4) 4_455 101_455 n
O1 Sr1 O1 128.08620(30) 4_455 -101_444 n
O1 Sr1 O1 79.08020(20) 4_455 -104_445 n
O1 Sr1 O1 97.52560(10) -2_555 101_455 n
O1 Sr1 O1 137.56650(30) -2_555 -104_445 n
O1 Sr1 O1 67.72630(10) -3_445 101_455 n
O1 Sr1 O1 128.08620(30) -3_445 102_334 n
O1 Sr1 O1 76.4854(4) -3_445 -101_444 n
O1 Sr1 O1 73.4433(4) -3_445 -104_445 n
O1 Sr1 O1 97.52560(10) 101_455 -104_445 n
O1 Mo1 O1 107.36020(20) 1_555 -4_555 n
O1 Mo1 O1 113.7811(4) 1_555 103_343 n
O1 Mo1 O1 107.36020(20) 1_555 -102_444 n
O1 Mo1 O1 107.36020(20) -4_555 103_343 n
Sr1 O1 Sr1 100.91980(20) 2_554 3_554 n
Sr1 O1 Mo1 135.07941(10) 2_554 1_555 n
Sr1 O1 Mo1 121.36690(30) 3_554 1_555 n
loop_
_geom_bond_atom_site_label_1
_geom_bond_atom_site_label_2
_geom_bond_distance
_geom_bond_site_symmetry_2
_geom_bond_publ_flag
Sr1 O1 2.618420(10) 3_555 n
Sr1 O1 2.626290(10) 4_455 n
Sr1 O1 2.618420(10) -2_555 n
Sr1 O1 2.626290(10) -3_455 n
Sr1 O1 2.618420(10) 101_455 n
Sr1 O1 2.626290(10) 102_545 n
Sr1 O1 2.626290(10) -101_444 n
Sr1 O1 2.618420(10) -104_334 n
Mo1 O1 1.734770(10) 1_555 n
Mo1 O1 1.734770(10) -4_555 n
Mo1 O1 1.734770(10) 103_555 n
Mo1 O1 1.734770(10) -102_344 n
O1 Sr1 2.626290(10) 2_554 n
O1 Sr1 2.618420(10) 3_554 n
O1 Mo1 1.734770(10) 1_555 n
loop_
_pd_meas_counts_total
_pd_proc_ls_weight
_pd_proc_intensity_bkg_calc
_pd_calc_intensity_total
266.0 0.00376 259.47815 259.54764
270.0 0.00370 260.00754 260.07553
287.0 0.003484 260.52124 260.58762
295.0 0.003390 261.01923 261.08417
308.0 0.003247 261.50195 261.56528
263.0 0.00380 261.96936 262.03125
310.0 0.003226 262.42166 262.48215
306.0 0.003268 262.85919 262.91821
262.0 0.00382 263.28210 263.33963
306.0 0.003268 263.69040 263.74658
286.0 0.003497 264.08438 264.13919
280.0 0.00357 264.46429 264.51770
276.0 0.00362 264.83011 264.88226
273.0 0.00366 265.18219 265.23300
273.0 0.00366 265.52063 265.57007
265.0 0.00377 265.84558 265.89383
279.0 0.00358 266.15723 266.20419
310.0 0.003226 266.45581 266.50150
250.0 0.00400 266.74139 266.78583
314.0 0.003185 267.01419 267.05737
280.0 0.00357 267.27432 267.31638
298.0 0.003356 267.52200 267.56287
287.0 0.003484 267.75732 267.79703
267.0 0.00375 267.98053 268.01907
303.0 0.003300 268.19180 268.22919
293.0 0.003413 268.39114 268.42743
273.0 0.00366 268.57886 268.61411
254.0 0.00394 268.75507 268.78918
269.0 0.00372 268.91977 268.95291
301.0 0.003322 269.07343 269.10544
282.0 0.00355 269.21588 269.24695
285.0 0.00351 269.34744 269.37750
271.0 0.00369 269.46832 269.49731
295.0 0.003390 269.57849 269.60657
276.0 0.00362 269.67822 269.70535
291.0 0.003436 269.76764 269.79373
277.0 0.00361 269.84680 269.87201
287.0 0.003484 269.91599 269.94028
275.0 0.00364 269.97519 269.99860
286.0 0.003497 270.02469 270.04718
262.0 0.00382 270.06458 270.08615
295.0 0.003390 270.09494 270.11566
237.0 0.00422 270.11597 270.13583
284.0 0.00352 270.12772 270.14679
260.0 0.00385 270.13043 270.14871
275.0 0.00364 270.12430 270.14172
288.0 0.003472 270.10919 270.12589
266.0 0.00376 270.08551 270.10138
287.0 0.003484 270.05322 270.06836
274.0 0.00365 270.01248 270.02692
214.0 0.00467 269.96359 269.97720
273.0 0.00366 269.90640 269.91937
246.0 0.00407 269.84125 269.85339
247.0 0.00405 269.76810 269.77963
288.0 0.003472 269.68719 269.69803
266.0 0.00376 269.59866 269.60876
261.0 0.00383 269.50250 269.51199
266.0 0.00376 269.39902 269.40781
271.0 0.00369 269.28812 269.29636
248.0 0.00403 269.17007 269.17764
260.0 0.00385 269.04501 269.05194
279.0 0.00358 268.91287 268.91925
243.0 0.00412 268.77399 268.77975
238.0 0.00420 268.62836 268.63358
239.0 0.00418 268.47610 268.48074
253.0 0.00395 268.31738 268.32147
269.0 0.00372 268.15225 268.15573
292.0 0.003425 267.98080 267.98383
240.0 0.00417 267.80325 267.80576
275.0 0.00364 267.61960 267.62158
243.0 0.00412 267.43002 267.43149
221.0 0.00452 267.23462 267.23557
270.0 0.00370 267.03345 267.03391
265.0 0.00377 266.82666 266.82669
273.0 0.00366 266.61432 266.61386
234.0 0.00427 266.39655 266.39566
261.0 0.00383 266.17343 266.17212
252.0 0.00397 265.94513 265.94339
258.0 0.00388 265.71173 265.70953
263.0 0.00380 265.47327 265.47067
266.0 0.00376 265.22989 265.22690
256.0 0.00391 264.98172 264.97830
247.0 0.00405 264.72876 264.72495
261.0 0.00383 264.47116 264.46704
244.0 0.00410 264.20908 264.20453
231.0 0.00433 263.94250 263.93762
261.0 0.00383 263.67157 263.66635
252.0 0.00397 263.39639 263.39084
259.0 0.00386 263.11703 263.11118
259.0 0.00386 262.83365 262.82742
248.0 0.00403 262.54617 262.53967
241.0 0.00415 262.25488 262.24805
241.0 0.00415 261.95972 261.95264
204.0 0.00490 261.66086 261.65347
266.0 0.00376 261.35834 261.35068
283.0 0.00353 261.05228 261.04431
240.0 0.00417 260.74274 260.73453
276.0 0.00362 260.42984 260.42136
264.0 0.00379 260.11359 260.10489
242.0 0.00413 259.79419 259.78522
241.0 0.00415 259.47156 259.46234
232.0 0.00431 259.14587 259.13647
251.0 0.00398 258.81726 258.80765
247.0 0.00405 258.48569 258.47586
257.0 0.00389 258.15140 258.14130
244.0 0.00410 257.81427 257.80405
265.0 0.00377 257.47449 257.46405
221.0 0.00452 257.13211 257.12146
239.0 0.00418 256.78723 256.77643
210.0 0.00476 256.43988 256.42889
232.0 0.00431 256.09018 256.07901
261.0 0.00383 255.73817 255.72687
246.0 0.00407 255.38396 255.37248
231.0 0.00433 255.02759 255.01595
235.0 0.00426 254.66908 254.65736
247.0 0.00405 254.30861 254.29672
247.0 0.00405 253.94620 253.93417
258.0 0.00388 253.58186 253.56972
252.0 0.00397 253.21574 253.20351
222.0 0.00450 252.84790 252.83554
254.0 0.00394 252.47838 252.46591
255.0 0.00392 252.10719 252.09460
218.0 0.00459 251.73453 251.72185
240.0 0.00417 251.36035 251.34755
227.0 0.00441 250.98479 250.97191
247.0 0.00405 250.60779 250.59488
265.0 0.00377 250.22955 250.21655
252.0 0.00397 249.85010 249.83702
234.0 0.00427 249.46945 249.45630
222.0 0.00450 249.08768 249.07451
219.0 0.00457 248.70486 248.69160
248.0 0.00403 248.32109 248.30779
238.0 0.00420 247.93633 247.92302
220.0 0.00455 247.55074 247.53734
224.0 0.00446 247.16428 247.15085
241.0 0.00415 246.77708 246.76369
253.0 0.00395 246.38919 246.37572
218.0 0.00459 246.00063 245.98717
228.0 0.00439 245.61147 245.59796
243.0 0.00412 245.22176 245.20830
242.0 0.00413 244.83154 244.81804
214.0 0.00467 244.44095 244.42741
255.0 0.00392 244.04990 244.03636
243.0 0.00412 243.65854 243.64500
211.0 0.00474 243.26688 243.25336
255.0 0.00392 242.87498 242.86148
230.0 0.00435 242.48291 242.46944
251.0 0.00398 242.09074 242.07726
240.0 0.00417 241.69844 241.68497
216.0 0.00463 241.30611 241.29268
213.0 0.00469 240.91373 240.90030
251.0 0.00398 240.52142 240.50806
208.0 0.00481 240.12924 240.11592
241.0 0.00415 239.73720 239.72392
245.0 0.00408 239.34535 239.33208
231.0 0.00433 238.95369 238.94049
239.0 0.00418 238.56235 238.54921
218.0 0.00459 238.17130 238.15822
222.0 0.00450 237.78062 237.76759
199.0 0.00503 237.39037 237.37738
230.0 0.00435 237.00055 236.98763
229.0 0.00437 236.61119 236.59833
237.0 0.00422 236.22235 236.20958
213.0 0.00469 235.83414 235.82138
224.0 0.00446 235.44650 235.43384
218.0 0.00459 235.05948 235.04689
235.0 0.00426 234.67316 234.66066
228.0 0.00439 234.28755 234.27513
229.0 0.00437 233.90271 233.89040
228.0 0.00439 233.51865 233.50641
233.0 0.00429 233.13544 233.12328
222.0 0.00450 232.75308 232.74100
229.0 0.00437 232.37163 232.35970
250.0 0.00400 231.99112 231.97925
203.0 0.00493 231.61160 231.59979
245.0 0.00408 231.23303 231.22136
219.0 0.00457 230.85555 230.84398
217.0 0.00461 230.47913 230.46767
231.0 0.00433 230.10378 230.09242
228.0 0.00439 229.72961 229.71835
244.0 0.00410 229.35658 229.34543
221.0 0.00452 228.98474 228.97374
237.0 0.00422 228.61420 228.60324
225.0 0.00444 228.24484 228.23401
237.0 0.00422 227.87682 227.86609
225.0 0.00444 227.51007 227.49947
238.0 0.00420 227.14470 227.13422
249.0 0.00402 226.78070 226.77032
244.0 0.00410 226.41806 226.40784
270.0 0.00370 226.05690 226.04683
192.0 0.00521 225.69717 225.68721
205.0 0.00488 225.33897 225.32909
236.0 0.00424 224.98222 224.97249
245.0 0.00408 224.62706 224.61748
230.0 0.00435 224.27342 224.26395
251.0 0.00398 223.92137 223.91206
219.0 0.00457 223.57092 223.56169
242.0 0.00413 223.22212 223.21309
199.0 0.00503 222.87498 222.86607
204.0 0.00490 222.52953 222.52075
211.0 0.00474 222.18579 222.17715
224.0 0.00446 221.84375 221.83521
213.0 0.00469 221.50348 221.49510
247.0 0.00405 221.16498 221.15671
236.0 0.00424 220.82823 220.82014
222.0 0.00450 220.49333 220.48537
245.0 0.00408 220.16025 220.15247
259.0 0.00386 219.82903 219.82140
212.0 0.00472 219.49971 219.49217
215.0 0.00465 219.17226 219.16486
216.0 0.00463 218.84668 218.83946
212.0 0.00472 218.52309 218.51598
214.0 0.00467 218.20140 218.19447
218.0 0.00459 217.88171 217.87492
221.0 0.00452 217.56400 217.55736
220.0 0.00455 217.24828 217.24179
212.0 0.00472 216.93460 216.92824
209.0 0.00478 216.62291 216.61671
247.0 0.00405 216.31328 216.30725
210.0 0.00476 216.00575 215.99988
219.0 0.00457 215.70026 215.69453
222.0 0.00450 215.39690 215.39131
215.0 0.00465 215.09566 215.09019
200.0 0.00500 214.79648 214.79120
219.0 0.00457 214.49954 214.49438
248.0 0.00403 214.20467 214.19968
236.0 0.00424 213.91199 213.90717
237.0 0.00422 213.62151 213.61682
238.0 0.00420 213.33319 213.32867
239.0 0.00418 213.04709 213.04272
217.0 0.00461 212.76321 212.75899
223.0 0.00448 212.48155 212.47751
227.0 0.00441 212.20216 212.19824
252.0 0.00397 211.92494 211.92122
236.0 0.00424 211.65010 211.64648
227.0 0.00441 211.37744 211.37402
231.0 0.00433 211.10713 211.10384
203.0 0.00493 210.83908 210.83595
224.0 0.00446 210.57335 210.57036
223.0 0.00448 210.30991 210.30705
229.0 0.00437 210.04883 210.04614
231.0 0.00433 209.79004 209.78752
201.0 0.00498 209.53365 209.53123
255.0 0.00392 209.27954 209.27734
237.0 0.00422 209.02780 209.02570
217.0 0.00461 208.77844 208.77650
207.0 0.00483 208.53142 208.52966
238.0 0.00420 208.28683 208.28525
230.0 0.00435 208.04460 208.04315
207.0 0.00483 207.80478 207.80345
224.0 0.00446 207.56731 207.56615
215.0 0.00465 207.33228 207.33125
227.0 0.00441 207.09967 207.09882
227.0 0.00441 206.86948 206.86871
206.0 0.00485 206.64166 206.64110
214.0 0.00467 206.41634 206.41586
220.0 0.00455 206.19339 206.19315
223.0 0.00448 205.97292 205.97279
234.0 0.00427 205.75487 205.75487
206.0 0.00485 205.53926 205.53940
207.0 0.00483 205.32610 205.32645
214.0 0.00467 205.11542 205.11581
203.0 0.00493 204.90715 204.90776
204.0 0.00490 204.70137 204.70210
196.0 0.00510 204.49805 204.49895
204.0 0.00490 204.29721 204.29819
212.0 0.00472 204.09885 204.09998
214.0 0.00467 203.90286 203.90417
210.0 0.00476 203.70944 203.71086
214.0 0.00467 203.51845 203.52003
192.0 0.00521 203.32996 203.33168
194.0 0.00515 203.14395 203.14578
211.0 0.00474 202.96039 202.96236
202.0 0.00495 202.77933 202.78145
198.0 0.00505 202.60077 202.60298
202.0 0.00495 202.42462 202.42700
202.0 0.00495 202.25101 202.39674
222.0 0.00450 202.07988 202.22806
193.0 0.00518 201.91119 202.13292
194.0 0.00515 201.74496 201.97043
220.0 0.00455 201.58127 201.81050
230.0 0.00435 201.42006 201.65318
190.0 0.00526 201.26131 201.49834
184.0 0.00543 201.10506 201.34615
235.0 0.00426 200.95125 201.19650
185.0 0.00541 200.79993 201.04945
196.0 0.00510 200.65109 200.90500
208.0 0.00481 200.50468 200.76311
208.0 0.00481 200.36079 200.62378
229.0 0.00437 200.21935 200.48705
221.0 0.00452 200.08037 200.35294
217.0 0.00461 199.94389 200.22137
193.0 0.00518 199.80983 200.09238
203.0 0.00493 199.67822 199.96602
190.0 0.00526 199.54910 199.84227
219.0 0.00457 199.42238 199.72107
201.0 0.00498 199.29816 199.60251
189.0 0.00529 199.17633 199.48656
204.0 0.00490 199.05696 199.37320
176.0 0.00568 198.94003 199.26244
202.0 0.00495 198.82553 199.15430
202.0 0.00495 198.71346 199.04877
186.0 0.00538 198.60382 198.94586
214.0 0.00467 198.49658 198.84557
164.0 0.00610 198.39180 198.74791
195.0 0.00513 198.28938 198.65286
183.0 0.00546 198.18939 198.56044
210.0 0.00476 198.09183 198.47069
203.0 0.00493 197.99660 198.38354
211.0 0.00474 197.90381 198.29904
198.0 0.00505 197.81332 198.21724
201.0 0.00498 197.72528 198.13811
183.0 0.00546 197.63963 198.06160
232.0 0.00431 197.55630 197.98779
197.0 0.00508 197.47534 197.91666
205.0 0.00488 197.39677 197.84824
176.0 0.00568 197.32050 197.78252
220.0 0.00455 197.24658 197.71947
209.0 0.00478 197.17500 197.65921
204.0 0.00490 197.10574 197.60164
197.0 0.00508 197.03880 197.54686
207.0 0.00483 196.97418 197.49483
180.0 0.00556 196.91190 197.44556
206.0 0.00485 196.85187 197.39911
221.0 0.00452 196.79417 197.35550
174.0 0.00575 196.73871 197.31474
246.0 0.00407 196.68558 197.27682
196.0 0.00510 196.63469 197.24179
205.0 0.00488 196.58606 197.20970
214.0 0.00467 196.53969 197.18054
209.0 0.00478 196.49556 197.15439
206.0 0.00485 196.45369 197.13124
242.0 0.00413 196.41405 197.11115
229.0 0.00437 196.37659 197.09415
203.0 0.00493 196.34138 197.08029
207.0 0.00483 196.30832 197.06966
187.0 0.00535 196.27750 197.06226
183.0 0.00546 196.24884 197.05815
232.0 0.00431 196.22238 197.05746
202.0 0.00495 196.19810 197.06017
183.0 0.00546 196.17596 197.06644
197.0 0.00508 196.15598 197.07634
201.0 0.00498 196.13814 197.08995
217.0 0.00461 196.12241 197.10735
242.0 0.00413 196.10881 197.12878
208.0 0.00481 196.09735 197.15422
197.0 0.00508 196.08797 197.18388
194.0 0.00515 196.08067 197.21790
207.0 0.00483 196.07549 197.25653
184.0 0.00543 196.07237 197.29990
223.0 0.00448 196.07133 197.34827
207.0 0.00483 196.07231 197.40184
218.0 0.00459 196.07532 197.46098
210.0 0.00476 196.08044 197.52599
215.0 0.00465 196.08754 197.59721
222.0 0.00450 196.09665 197.67506
213.0 0.00469 196.10774 197.75999
207.0 0.00483 196.12083 197.85266
190.0 0.00526 196.13591 197.95354
211.0 0.00474 196.15298 198.06351
186.0 0.00538 196.17200 198.18335
212.0 0.00472 196.19298 198.31413
219.0 0.00457 196.21585 198.45706
209.0 0.00478 196.24068 198.61359
192.0 0.00521 196.26747 198.78549
198.0 0.00505 196.29611 198.97502
203.0 0.00493 196.32666 199.18491
200.0 0.00500 196.35910 199.41862
191.0 0.00524 196.39339 199.68089
231.0 0.00433 196.42957 199.97803
228.0 0.00439 196.46759 200.31955
222.0 0.00450 196.50742 200.72275
192.0 0.00521 196.54910 201.22456
194.0 0.00515 196.59261 201.90327
218.0 0.00459 196.63789 202.90094
192.0 0.00521 196.68498 204.41930
234.0 0.00427 196.73387 206.64812
219.0 0.00457 196.78450 209.68315
239.0 0.00418 196.83688 213.53625
201.0 0.00498 196.89104 218.08098
203.0 0.00493 196.94693 223.23123
215.0 0.00465 197.00450 228.86224
232.0 0.00431 197.06383 234.91945
278.0 0.00360 197.12482 241.40834
249.0 0.00402 197.18752 248.29729
284.0 0.00352 197.25188 255.67484
257.0 0.00389 197.31792 263.52972
273.0 0.00366 197.38559 271.93777
277.0 0.00361 197.45488 280.97150
310.0 0.003226 197.52582 290.66068
301.0 0.003322 197.59837 301.13586
322.0 0.003106 197.67252 312.47928
344.0 0.002907 197.74825 324.80188
341.0 0.002933 197.82555 338.27850
371.0 0.002695 197.90445 353.08725
420.0 0.002381 197.98486 369.44742
431.0 0.002320 198.06683 387.65915
439.0 0.002278 198.15028 408.11169
495.0 0.002020 198.23531 431.29776
533.0 0.001876 198.32179 457.88705
569.0 0.001757 198.40979 488.84387
599.0 0.001669 198.49924 525.61047
700.0 0.001429 198.59018 570.51257
807.0 0.001239 198.68257 627.48840
820.0 0.001220 198.77637 702.46759
938.0 0.001066 198.87163 800.45026
1047.0 0.000955 198.96826 915.26904
1120.0 0.000893 199.06631 1015.30353
1046.0 0.000956 199.16574 1041.83337
906.0 0.001104 199.26657 953.59851
816.0 0.001225 199.36873 790.47876
652.0 0.001534 199.47224 608.99823
482.0 0.002075 199.57709 450.67722
376.0 0.002660 199.68329 343.32300
290.0 0.003448 199.79070 283.15396
238.0 0.00420 199.89948 253.17328
244.0 0.00410 200.00957 238.35936
208.0 0.00481 200.12090 230.08755
227.0 0.00441 200.23351 224.67580
238.0 0.00420 200.34732 220.76678
215.0 0.00465 200.46240 217.80965
210.0 0.00476 200.57869 215.51596
194.0 0.00515 200.69617 213.70499
226.0 0.00442 200.81482 212.25455
244.0 0.00410 200.93468 211.07951
209.0 0.00478 201.05574 210.11858
220.0 0.00455 201.17790 209.32683
211.0 0.00474 201.30125 208.67070
220.0 0.00455 201.42566 208.12468
218.0 0.00459 201.55125 207.66910
231.0 0.00433 201.67792 207.28854
203.0 0.00493 201.80569 206.97078
209.0 0.00478 201.93451 206.70609
220.0 0.00455 202.06438 206.48654
199.0 0.00503 202.19533 206.30576
193.0 0.00518 202.32732 206.15840
192.0 0.00521 202.46031 206.04005
234.0 0.00427 202.59433 205.94707
188.0 0.00532 202.72932 205.87631
206.0 0.00485 202.86533 205.82523
216.0 0.00463 203.00229 205.79150
239.0 0.00418 203.14021 205.77336
231.0 0.00433 203.27910 205.76904
183.0 0.00546 203.41888 205.77721
210.0 0.00476 203.55960 205.79659
182.0 0.00549 203.70122 205.82613
211.0 0.00474 203.84377 205.86488
207.0 0.00483 203.98712 205.91205
198.0 0.00505 204.13142 205.96686
198.0 0.00505 204.27655 206.02869
202.0 0.00495 204.42250 206.09697
222.0 0.00450 204.56932 206.17123
198.0 0.00505 204.71690 206.25093
209.0 0.00478 204.86530 206.33572
212.0 0.00472 205.01451 206.42519
203.0 0.00493 205.16451 206.51910
214.0 0.00467 205.31523 206.61703
245.0 0.00408 205.46675 206.71881
199.0 0.00503 205.61896 206.82410
250.0 0.00400 205.77191 206.93279
207.0 0.00483 205.92558 207.04460
227.0 0.00441 206.07996 207.15932
217.0 0.00461 206.23502 207.27682
232.0 0.00431 206.39075 207.39696
218.0 0.00459 206.54715 207.51953
210.0 0.00476 206.70418 207.64450
240.0 0.00417 206.86186 207.77161
208.0 0.00481 207.02014 207.90086
186.0 0.00538 207.17911 208.03209
192.0 0.00521 207.33861 208.16519
227.0 0.00441 207.49869 208.30013
226.0 0.00442 207.65938 208.43675
215.0 0.00465 207.82062 208.57501
191.0 0.00524 207.98239 208.71480
204.0 0.00490 208.14470 208.85616
217.0 0.00461 208.30756 208.99887
193.0 0.00518 208.47090 209.14293
184.0 0.00543 208.63474 209.28831
222.0 0.00450 208.79909 209.43488
217.0 0.00461 208.96388 209.58270
208.0 0.00481 209.12915 209.73166
237.0 0.00422 209.29488 209.88165
215.0 0.00465 209.46103 210.03268
242.0 0.00413 209.62762 210.18477
224.0 0.00446 209.79462 210.33775
195.0 0.00513 209.96199 210.49173
210.0 0.00476 210.12976 210.64650
215.0 0.00465 210.29793 210.80214
222.0 0.00450 210.46643 210.95859
209.0 0.00478 210.63531 211.11586
224.0 0.00446 210.80450 211.27382
215.0 0.00465 210.97401 211.43251
226.0 0.00442 211.14388 211.59186
218.0 0.00459 211.31403 211.75191
198.0 0.00505 211.48445 211.91255
200.0 0.00500 211.65518 212.07381
209.0 0.00478 211.82617 212.23561
225.0 0.00444 211.99741 212.39799
232.0 0.00431 212.16891 212.56088
201.0 0.00498 212.34062 212.72430
199.0 0.00503 212.51254 212.88817
205.0 0.00488 212.68471 213.05251
204.0 0.00490 212.85704 213.21725
206.0 0.00485 213.02954 213.38240
220.0 0.00455 213.20226 213.54796
211.0 0.00474 213.37514 213.71391
200.0 0.00500 213.54813 213.88019
242.0 0.00413 213.72128 214.04678
204.0 0.00490 213.89455 214.21370
198.0 0.00505 214.06795 214.38097
215.0 0.00465 214.24142 214.54846
179.0 0.00559 214.41499 214.71617
230.0 0.00435 214.58868 214.88417
221.0 0.00452 214.76241 215.05238
206.0 0.00485 214.93623 215.22081
218.0 0.00459 215.11003 215.38940
203.0 0.00493 215.28394 215.55818
212.0 0.00472 215.45782 215.72716
221.0 0.00452 215.63173 215.89619
223.0 0.00448 215.80568 216.06543
204.0 0.00490 215.97957 216.23474
185.0 0.00541 216.15347 216.40417
243.0 0.00412 216.32738 216.41145
206.0 0.00485 216.50114 216.58372
206.0 0.00485 216.67494 216.67482
195.0 0.00513 216.84866 216.84839
213.0 0.00469 217.02228 217.02191
192.0 0.00521 217.19586 217.19536
229.0 0.00437 217.36929 217.36867
210.0 0.00476 217.54266 217.54190
236.0 0.00424 217.71590 217.71501
219.0 0.00457 217.88902 217.88802
216.0 0.00463 218.06201 218.06087
211.0 0.00474 218.23483 218.23355
221.0 0.00452 218.40749 218.40607
233.0 0.00429 218.58000 218.57845
224.0 0.00446 218.75230 218.75063
212.0 0.00472 218.92444 218.92262
206.0 0.00485 219.09636 219.09447
210.0 0.00476 219.26813 219.26604
235.0 0.00426 219.43962 219.43739
235.0 0.00426 219.61092 219.60857
218.0 0.00459 219.78192 219.77946
207.0 0.00483 219.95276 219.95009
236.0 0.00424 220.12326 220.12047
236.0 0.00424 220.29352 220.29062
210.0 0.00476 220.46352 220.46046
228.0 0.00439 220.63319 220.63004
206.0 0.00485 220.80260 220.79930
209.0 0.00478 220.97168 220.96825
207.0 0.00483 221.14043 221.13686
210.0 0.00476 221.30890 221.30516
202.0 0.00495 221.47699 221.47311
218.0 0.00459 221.64473 221.64075
236.0 0.00424 221.81215 221.80801
221.0 0.00452 221.97919 221.97491
215.0 0.00465 222.14586 222.14143
211.0 0.00474 222.31209 222.30756
220.0 0.00455 222.47801 222.47330
216.0 0.00463 222.64351 222.63863
216.0 0.00463 222.80855 222.80359
206.0 0.00485 222.97318 222.96805
227.0 0.00441 223.13741 223.13213
236.0 0.00424 223.30121 223.29578
218.0 0.00459 223.46451 223.45895
225.0 0.00444 223.62738 223.62166
210.0 0.00476 223.78976 223.78394
237.0 0.00422 223.95169 223.94572
197.0 0.00508 224.11316 224.10704
200.0 0.00500 224.27411 224.26784
229.0 0.00437 224.43454 224.42813
217.0 0.00461 224.59448 224.58794
239.0 0.00418 224.75391 224.74719
230.0 0.00435 224.91277 224.90596
211.0 0.00474 225.07115 225.06418
219.0 0.00457 225.22896 225.22182
208.0 0.00481 225.38622 225.37895
202.0 0.00495 225.54292 225.53551
225.0 0.00444 225.69905 225.69148
219.0 0.00457 225.85460 225.84689
201.0 0.00498 226.00955 226.00174
209.0 0.00478 226.16393 226.15596
230.0 0.00435 226.31772 226.30957
199.0 0.00503 226.47087 226.46260
193.0 0.00518 226.62343 226.61499
221.0 0.00452 226.77534 226.76675
190.0 0.00526 226.92662 226.91789
220.0 0.00455 227.07726 227.06844
218.0 0.00459 227.22723 227.21829
215.0 0.00465 227.37659 227.36743
208.0 0.00481 227.52522 227.51596
253.0 0.00395 227.67325 227.66379
231.0 0.00433 227.82056 227.81100
215.0 0.00465 227.96718 227.95746
224.0 0.00446 228.11308 228.10324
207.0 0.00483 228.25838 228.24835
222.0 0.00450 228.40286 228.39275
199.0 0.00503 228.54669 228.53638
200.0 0.00500 228.68979 228.67932
226.0 0.00442 228.83215 228.82153
226.0 0.00442 228.97374 228.96300
220.0 0.00455 229.11462 229.10373
207.0 0.00483 229.25475 229.24368
221.0 0.00452 229.39406 229.38292
201.0 0.00498 229.53267 229.52135
216.0 0.00463 229.67046 229.65903
210.0 0.00476 229.80751 229.79590
235.0 0.00426 229.94373 229.93201
216.0 0.00463 230.07919 230.06732
213.0 0.00469 230.21387 230.20183
215.0 0.00465 230.34770 230.33554
232.0 0.00431 230.48073 230.46841
221.0 0.00452 230.61293 230.60048
216.0 0.00463 230.74432 230.73172
234.0 0.00427 230.87488 230.86214
211.0 0.00474 231.00458 230.99168
247.0 0.00405 231.13344 231.12041
208.0 0.00481 231.26147 231.24831
241.0 0.00415 231.38866 231.37527
215.0 0.00465 231.51491 231.50143
222.0 0.00450 231.64030 231.62674
203.0 0.00493 231.76488 231.75114
215.0 0.00465 231.88853 231.87468
240.0 0.00417 232.01134 231.99725
248.0 0.00403 232.13321 232.11903
232.0 0.00431 232.25418 232.23984
236.0 0.00424 232.37427 232.35982
215.0 0.00465 232.49339 232.47879
219.0 0.00457 232.61166 232.59694
185.0 0.00541 232.72897 232.71408
250.0 0.00400 232.84535 232.83035
232.0 0.00431 232.96082 232.94566
218.0 0.00459 233.07533 233.06006
214.0 0.00467 233.18893 233.17351
224.0 0.00446 233.30154 233.28598
203.0 0.00493 233.41322 233.39751
211.0 0.00474 233.52393 233.50803
220.0 0.00455 233.63365 233.61765
228.0 0.00439 233.74245 233.72629
224.0 0.00446 233.85022 233.83392
223.0 0.00448 233.95702 233.94061
209.0 0.00478 234.06287 234.04634
214.0 0.00467 234.16769 234.15100
241.0 0.00415 234.27156 234.25473
203.0 0.00493 234.37437 234.35739
217.0 0.00461 234.47621 234.45911
225.0 0.00444 234.57706 234.55981
244.0 0.00410 234.67688 234.65948
221.0 0.00452 234.77563 234.75815
220.0 0.00455 234.87344 234.85577
211.0 0.00474 234.97014 234.95235
239.0 0.00418 235.06584 235.04796
199.0 0.00503 235.16055 235.14246
228.0 0.00439 235.25417 235.23593
245.0 0.00408 235.34676 235.32841
208.0 0.00481 235.43828 235.41980
207.0 0.00483 235.52873 235.51016
224.0 0.00446 235.61813 235.59941
225.0 0.00444 235.70653 235.68767
217.0 0.00461 235.79376 235.77480
220.0 0.00455 235.87999 235.86089
242.0 0.00413 235.96518 235.94588
210.0 0.00476 236.04922 236.02982
237.0 0.00422 236.13220 236.11266
227.0 0.00441 236.21407 236.19443
212.0 0.00472 236.29488 236.27509
234.0 0.00427 236.37460 236.35469
215.0 0.00465 236.45319 236.43317
209.0 0.00478 236.53075 236.51053
215.0 0.00465 236.60712 236.58681
212.0 0.00472 236.68245 236.66196
239.0 0.00418 236.75664 236.73605
222.0 0.00450 236.82968 236.80896
215.0 0.00465 236.90164 236.88081
238.0 0.00420 236.97249 236.95151
241.0 0.00415 237.04219 237.02113
229.0 0.00437 237.11078 237.08955
203.0 0.00493 237.17822 237.15688
211.0 0.00474 237.24454 237.22307
231.0 0.00433 237.30969 237.28815
220.0 0.00455 237.37373 237.35204
231.0 0.00433 237.43663 237.41479
233.0 0.00429 237.49838 237.47643
211.0 0.00474 237.55901 237.53693
209.0 0.00478 237.61845 237.59622
223.0 0.00448 237.67674 237.65440
217.0 0.00461 237.73387 237.71144
218.0 0.00459 237.78984 237.76729
215.0 0.00465 237.84470 237.82201
200.0 0.00500 237.89838 237.87555
250.0 0.00400 237.95084 237.92789
227.0 0.00441 238.00215 237.97908
218.0 0.00459 238.05231 238.02914
233.0 0.00429 238.10126 238.07796
232.0 0.00431 238.14908 238.12564
227.0 0.00441 238.19566 238.17212
212.0 0.00472 238.24110 238.21747
227.0 0.00441 238.28535 238.26158
211.0 0.00474 238.32841 238.30455
228.0 0.00439 238.37030 238.34628
230.0 0.00435 238.41100 238.38687
236.0 0.00424 238.45049 238.42624
262.0 0.00382 238.48882 238.46442
211.0 0.00474 238.52591 238.50142
254.0 0.00394 238.56181 238.53725
223.0 0.00448 238.59651 238.57185
225.0 0.00444 238.63004 238.60522
241.0 0.00415 238.66235 238.63744
206.0 0.00485 238.69345 238.66841
237.0 0.00422 238.72339 238.69824
220.0 0.00455 238.75208 238.72679
247.0 0.00405 238.77957 238.75417
216.0 0.00463 238.80582 238.78035
218.0 0.00459 238.83089 238.80533
210.0 0.00476 238.85478 238.82907
245.0 0.00408 238.87737 238.85158
242.0 0.00413 238.89880 238.87291
238.0 0.00420 238.91905 238.89302
213.0 0.00469 238.93800 238.91191
240.0 0.00417 238.95581 238.92958
226.0 0.00442 238.97231 238.94601
243.0 0.00412 238.98769 238.96124
210.0 0.00476 239.00180 238.97527
242.0 0.00413 239.01469 238.98804
213.0 0.00469 239.02632 238.99960
215.0 0.00465 239.03676 239.00990
223.0 0.00448 239.04596 239.01904
209.0 0.00478 239.05400 239.02695
250.0 0.00400 239.06075 239.03358
257.0 0.00389 239.06628 239.03899
224.0 0.00446 239.07063 239.04321
246.0 0.00407 239.07368 239.04619
221.0 0.00452 239.07553 239.04796
207.0 0.00483 239.07613 239.04848
211.0 0.00474 239.07552 239.04778
234.0 0.00427 239.07365 239.04585
251.0 0.00398 239.07059 239.04266
251.0 0.00398 239.06630 239.03827
227.0 0.00441 239.06079 239.03262
242.0 0.00413 239.05402 239.02579
220.0 0.00455 239.04602 239.01768
254.0 0.00394 239.03677 239.00835
248.0 0.00403 239.02632 238.99780
240.0 0.00417 239.01462 238.98601
243.0 0.00412 239.00166 238.97299
266.0 0.00376 238.98753 238.95872
215.0 0.00465 238.97211 238.94322
251.0 0.00398 238.95549 238.92653
255.0 0.00392 238.93764 238.90857
245.0 0.00408 238.91855 238.88940
217.0 0.00461 238.89822 238.86900
265.0 0.00377 238.87665 238.84735
239.0 0.00418 238.85387 238.82446
237.0 0.00422 238.82988 238.80035
256.0 0.00391 238.80460 238.77507
271.0 0.00369 238.77809 238.74847
232.0 0.00431 238.75041 238.72069
210.0 0.00476 238.72147 238.69164
228.0 0.00439 238.69131 247.63120
233.0 0.00429 238.65991 247.86147
231.0 0.00433 238.62727 247.97475
254.0 0.00394 238.59341 252.52481
233.0 0.00429 238.55838 252.71213
212.0 0.00472 238.52203 252.96428
244.0 0.00410 238.48451 253.16103
251.0 0.00398 238.44577 253.36224
260.0 0.00385 238.40581 253.56816
236.0 0.00424 238.36458 253.77902
277.0 0.00361 238.32214 253.99498
231.0 0.00433 238.27852 254.21628
241.0 0.00415 238.23366 254.44315
249.0 0.00402 238.18759 254.67580
250.0 0.00400 238.14029 254.91447
264.0 0.00379 238.09177 255.15945
256.0 0.00391 238.04202 255.41100
265.0 0.00377 237.99107 255.66936
263.0 0.00380 237.93890 255.93489
275.0 0.00364 237.88556 256.20776
269.0 0.00372 237.83096 256.48846
259.0 0.00386 237.77518 256.77722
273.0 0.00366 237.71817 257.07443
253.0 0.00395 237.65994 257.38037
291.0 0.003436 237.60052 257.69550
269.0 0.00372 237.53993 258.02026
282.0 0.00355 237.47813 258.35501
259.0 0.00386 237.41510 258.70020
248.0 0.00403 237.35088 259.05624
258.0 0.00388 237.28546 259.42371
287.0 0.003484 237.21883 259.80310
294.0 0.003401 237.15105 260.19489
265.0 0.00377 237.08205 260.59967
252.0 0.00397 237.01184 261.01801
253.0 0.00395 236.94046 261.45059
308.0 0.003247 236.86787 261.89807
284.0 0.00352 236.79413 262.36108
263.0 0.00380 236.71921 262.84039
284.0 0.00352 236.64307 263.33682
258.0 0.00388 236.56578 263.85104
265.0 0.00377 236.48729 264.38409
280.0 0.00357 236.40762 264.93671
299.0 0.003344 236.32680 265.50998
281.0 0.00356 236.24478 266.10492
240.0 0.00417 236.16164 266.72253
285.0 0.00351 236.07727 267.36392
304.0 0.003289 235.99176 268.03043
320.0 0.003125 235.90511 268.72330
270.0 0.00370 235.81726 269.44385
274.0 0.00365 235.72830 270.19360
306.0 0.003268 235.63814 270.97400
284.0 0.00352 235.54683 271.78674
280.0 0.00357 235.45439 272.63364
306.0 0.003268 235.36076 273.51645
308.0 0.003247 235.26598 274.43719
257.0 0.00389 235.17010 275.39804
273.0 0.00366 235.07307 276.40128
302.0 0.003311 234.97488 277.44925
277.0 0.00361 234.87553 278.54465
328.0 0.003049 234.77510 279.69025
299.0 0.003344 234.67351 280.88901
299.0 0.003344 234.57080 282.14426
287.0 0.003484 234.46695 283.45932
296.0 0.003378 234.36194 284.83804
321.0 0.003115 234.25586 286.28439
289.0 0.003460 234.14867 287.80273
289.0 0.003460 234.04031 289.39783
298.0 0.003356 233.93085 291.07465
318.0 0.003145 233.82031 292.83881
307.0 0.003257 233.70863 294.69611
343.0 0.002915 233.59587 296.65329
299.0 0.003344 233.48198 298.71719
302.0 0.003311 233.36702 300.89572
335.0 0.002985 233.25092 303.19714
304.0 0.003289 233.13376 305.63077
289.0 0.003460 233.01550 308.20648
303.0 0.003300 232.89618 310.93549
327.0 0.003058 232.77568 313.82999
328.0 0.003049 232.65424 316.90320
338.0 0.002959 232.53162 320.16998
324.0 0.003086 232.40794 323.64673
344.0 0.002907 232.28319 327.35153
333.0 0.003003 232.15736 332.40582
355.0 0.002817 232.03052 336.64438
310.0 0.003226 231.90256 341.17902
334.0 0.002994 231.77356 346.03766
355.0 0.002817 231.64351 351.80243
375.0 0.002667 231.51239 357.41556
348.0 0.002874 231.38023 363.46039
340.0 0.002941 231.24699 369.98245
346.0 0.002890 231.11276 377.03378
369.0 0.002710 230.97746 384.67395
352.0 0.002841 230.84109 392.97125
374.0 0.002674 230.70374 402.00455
367.0 0.002725 230.56534 411.86530
375.0 0.002667 230.42590 422.66037
374.0 0.002674 230.28549 434.51498
379.0 0.002639 230.14400 447.57712
428.0 0.002336 230.00151 462.02307
438.0 0.002283 229.85803 478.06436
417.0 0.002398 229.71352 495.95721
424.0 0.002358 229.56804 516.01514
468.0 0.002137 229.42149 538.62683
523.0 0.001912 229.27397 564.28162
567.0 0.001764 229.12547 593.60931
601.0 0.001664 228.97597 627.46051
674.0 0.001484 228.82547 667.08911
812.0 0.001232 228.67401 714.58984
904.0 0.001106 228.52156 773.79303
1008.0 0.000992 228.36812 851.66760
1159.0 0.000863 228.21373 959.79681
1308.0 0.000765 228.05840 1115.01392
1596.0 0.000627 227.90201 1338.04004
1869.0 0.000535 227.74474 1648.13635
2207.0 0.000453 227.58644 2056.92798
2677.0 0.000374 227.42726 2577.69312
3176.0 0.0003149 227.26711 3216.86230
3859.0 0.0002591 227.10602 3965.96875
4471.0 0.0002237 226.94395 4840.54492
5449.0 0.0001835 226.78098 5835.81299
6325.0 0.0001581 226.61705 6964.68262
7771.0 0.0001287 226.45221 8244.97363
9137.0 0.0001094 226.28645 9697.43652
11024.0 0.0000907 226.11978 11368.94141
13102.0 0.0000763 225.95216 13311.59668
15615.0 0.0000640 225.78363 15624.32910
18767.0 0.0000533 225.61417 18440.13086
22272.0 0.0000449 225.44385 21950.85156
26749.0 0.0000374 225.27260 26323.08789
31835.0 0.00003141 225.10045 31528.15625
37464.0 0.00002669 224.92746 37059.94531
41059.0 0.00002436 224.75349 41727.33594
43359.0 0.00002306 224.57874 43794.55078
41283.0 0.00002422 224.40300 41957.21484
36880.0 0.00002711 224.22641 36981.37500
30725.0 0.00003255 224.04900 30803.49805
24497.0 0.0000408 223.87073 24324.22656
18428.0 0.0000543 223.69151 17882.44141
12777.0 0.0000783 223.51151 12256.22461
8053.0 0.0001242 223.33061 8046.90088
5009.0 0.0001996 223.14888 5266.50195
3079.0 0.0003248 222.96629 3597.49219
2201.0 0.000454 222.78284 2647.04810
1608.0 0.000622 222.59860 2096.80713
1396.0 0.000716 222.41348 1750.10071
1206.0 0.000829 222.22757 1507.49084
1066.0 0.000938 222.04085 1324.04797
987.0 0.001013 221.85323 1179.12976
848.0 0.001179 221.66484 1061.80811
820.0 0.001220 221.47566 965.26697
817.0 0.001224 221.28560 884.79547
717.0 0.001395 221.09480 816.97461
727.0 0.001376 220.90318 759.25806
690.0 0.001449 220.71082 709.71417
639.0 0.001565 220.51759 666.85565
601.0 0.001664 220.32362 629.52118
613.0 0.001631 220.12883 596.79340
589.0 0.001698 219.93329 567.93933
566.0 0.001767 219.73698 542.36743
540.0 0.001852 219.53989 519.59583
532.0 0.001880 219.34206 499.22913
509.0 0.001965 219.14346 480.94000
501.0 0.001996 218.94408 464.45557
462.0 0.002165 218.74396 449.54706
493.0 0.002028 218.54315 436.02127
469.0 0.002132 218.34154 423.71439
498.0 0.002008 218.13921 412.48663
492.0 0.002033 217.93617 402.21814
455.0 0.002198 217.73236 392.80591
415.0 0.002410 217.52786 384.16064
456.0 0.002193 217.32266 376.20514
434.0 0.002304 217.11673 368.87198
451.0 0.002217 216.91008 362.10248
393.0 0.002545 216.70274 355.84515
416.0 0.002404 216.49469 350.05493
395.0 0.002532 216.28595 344.69202
402.0 0.002488 216.07651 339.72165
433.0 0.002309 215.86641 335.11295
410.0 0.002439 215.65564 330.83875
380.0 0.002632 215.44415 326.87531
411.0 0.002433 215.23203 323.20151
397.0 0.002519 215.01921 319.79901
376.0 0.002660 214.80576 316.65161
398.0 0.002513 214.59167 313.74533
378.0 0.002646 214.37689 311.06824
328.0 0.003049 214.16148 308.61005
369.0 0.002710 213.94540 306.36243
395.0 0.002532 213.72873 304.31836
350.0 0.002857 213.51140 302.47281
362.0 0.002762 213.29344 300.82199
391.0 0.002558 213.07487 299.36389
415.0 0.002410 212.85568 298.09824
365.0 0.002740 212.63589 297.02625
374.0 0.002674 212.41545 296.15121
334.0 0.002994 212.19444 295.47827
343.0 0.002915 211.97285 295.01501
347.0 0.002882 211.75064 294.77142
359.0 0.002786 211.52785 294.76056
336.0 0.002976 211.30444 294.99869
341.0 0.002933 211.08051 295.50647
326.0 0.003067 210.85597 296.30951
346.0 0.002890 210.63087 297.43930
329.0 0.003040 210.40520 298.93494
336.0 0.002976 210.17899 300.84512
332.0 0.003012 209.95219 303.23083
352.0 0.002841 209.72490 306.16916
359.0 0.002786 209.49698 309.75940
375.0 0.002667 209.26863 314.13443
373.0 0.002681 209.03964 319.48450
412.0 0.002427 208.81018 326.11121
356.0 0.002809 208.58014 334.53174
405.0 0.002469 208.34967 345.64609
435.0 0.002299 208.11859 360.92517
451.0 0.002217 207.88705 382.53381
472.0 0.002119 207.65498 413.28934
551.0 0.001815 207.42244 456.29724
547.0 0.001828 207.18942 513.96667
652.0 0.001534 206.95584 587.66846
692.0 0.001445 206.72183 680.33783
761.0 0.001314 206.48730 794.01740
936.0 0.001068 206.25235 926.21564
1080.0 0.000926 206.01688 1080.35474
1238.0 0.000808 205.78096 1260.86084
1459.0 0.000685 205.54454 1466.08191
1631.0 0.000613 205.30774 1704.75415
1851.0 0.000540 205.07042 1985.13367
2232.0 0.000448 204.83272 2317.50854
2697.0 0.000371 204.59451 2722.69263
3332.0 0.0003001 204.35594 3218.97095
3960.0 0.0002525 204.11688 3819.31128
4712.0 0.0002122 203.87738 4503.03906
5502.0 0.0001818 203.63750 5197.01514
5868.0 0.0001704 203.39720 5752.92920
6185.0 0.0001617 203.15651 5977.17285
5787.0 0.0001728 202.91533 5737.48535
5210.0 0.0001919 202.67381 5134.42041
4503.0 0.0002221 202.43192 4389.35156
3594.0 0.0002782 202.18958 3606.81738
2944.0 0.0003397 201.94684 2810.54468
2088.0 0.000479 201.70378 2075.32227
1426.0 0.000701 201.46031 1487.28394
1020.0 0.000980 201.21648 1069.64563
762.0 0.001312 200.97227 798.37372
572.0 0.001748 200.72768 632.58551
448.0 0.002232 200.48276 532.88983
446.0 0.002242 200.23750 470.40573
364.0 0.002747 199.99187 427.89236
355.0 0.002817 199.74591 396.48172
369.0 0.002710 199.49959 371.90939
330.0 0.003030 199.25301 352.03384
292.0 0.003425 199.00600 335.62836
291.0 0.003436 198.75871 321.88965
294.0 0.003401 198.51111 310.24701
309.0 0.003236 198.26321 300.27774
306.0 0.003268 198.01498 291.66165
293.0 0.003413 197.76646 284.15234
274.0 0.00365 197.51761 277.55756
267.0 0.00375 197.26852 271.72537
284.0 0.00352 197.01909 266.53452
251.0 0.00398 196.76939 261.88702
284.0 0.00352 196.51944 257.70337
259.0 0.00386 196.26917 253.91798
266.0 0.00376 196.01871 250.47670
248.0 0.00403 195.76790 238.95393
281.0 0.00356 195.51686 236.19696
250.0 0.00400 195.26559 233.55286
250.0 0.00400 195.01405 231.22322
225.0 0.00444 194.76230 224.92734
248.0 0.00403 194.51022 222.93423
257.0 0.00389 194.25798 221.13681
251.0 0.00398 194.00549 219.46245
266.0 0.00376 193.75278 217.89825
211.0 0.00474 193.49985 216.43306
222.0 0.00450 193.24672 215.05714
250.0 0.00400 192.99336 213.76181
231.0 0.00433 192.73982 214.19205
205.0 0.00488 192.48604 213.06171
230.0 0.00435 192.23209 211.99228
236.0 0.00424 191.97795 210.97852
240.0 0.00417 191.72365 210.83624
219.0 0.00457 191.46913 209.93282
243.0 0.00412 191.21442 209.07259
232.0 0.00431 190.95956 208.25230
225.0 0.00444 190.70456 207.46873
227.0 0.00441 190.44937 206.71928
216.0 0.00463 190.19398 206.00136
224.0 0.00446 189.93849 205.31281
241.0 0.00415 189.68283 204.65161
231.0 0.00433 189.42709 204.01587
213.0 0.00469 189.17114 203.40392
219.0 0.00457 188.91512 202.81429
215.0 0.00465 188.65891 202.24556
236.0 0.00424 188.40259 201.69646
228.0 0.00439 188.14618 201.16588
200.0 0.00500 187.88962 200.65271
199.0 0.00503 187.63298 200.15604
247.0 0.00405 187.37622 199.67500
200.0 0.00500 187.11937 199.20871
214.0 0.00467 186.86241 198.75652
209.0 0.00478 186.60541 198.31776
234.0 0.00427 186.34824 197.89172
215.0 0.00465 186.09106 197.47795
189.0 0.00529 185.83374 197.07585
192.0 0.00521 185.57642 196.68507
199.0 0.00503 185.31898 196.30507
189.0 0.00529 185.06149 195.93553
235.0 0.00426 184.80394 195.57610
202.0 0.00495 184.54640 195.22649
207.0 0.00483 184.28871 194.88632
179.0 0.00559 184.03104 194.55542
201.0 0.00498 183.77328 194.23361
202.0 0.00495 183.51555 193.92058
193.0 0.00518 183.25777 193.61630
215.0 0.00465 182.99992 193.32048
202.0 0.00495 182.74210 193.03313
213.0 0.00469 182.48424 192.75414
195.0 0.00513 182.22641 192.48334
202.0 0.00495 181.96849 192.22079
197.0 0.00508 181.71059 191.96638
203.0 0.00493 181.45274 191.72014
201.0 0.00498 181.19487 191.48219
195.0 0.00513 180.93704 191.25243
217.0 0.00461 180.67917 191.03094
209.0 0.00478 180.42134 190.81784
196.0 0.00510 180.16362 190.61327
218.0 0.00459 179.90581 190.41728
178.0 0.00562 179.64804 190.23009
198.0 0.00505 179.39038 190.05182
181.0 0.00552 179.13277 189.88280
194.0 0.00515 178.87514 189.72308
203.0 0.00493 178.61757 189.57301
205.0 0.00488 178.36008 189.43286
197.0 0.00508 178.10268 189.30307
183.0 0.00546 177.84526 189.18382
203.0 0.00493 177.58795 189.07558
195.0 0.00513 177.33073 188.97873
185.0 0.00541 177.07359 188.89388
207.0 0.00483 176.81651 188.82137
197.0 0.00508 176.55952 188.76186
205.0 0.00488 176.30263 188.71590
195.0 0.00513 176.04585 188.68422
201.0 0.00498 175.78911 188.66750
164.0 0.00610 175.53253 188.66649
218.0 0.00459 175.27605 188.68211
196.0 0.00510 175.01965 188.71529
192.0 0.00521 174.76337 188.76706
199.0 0.00503 174.50723 188.83855
182.0 0.00549 174.25128 188.93094
193.0 0.00518 173.99542 189.04555
212.0 0.00472 173.73964 189.18387
182.0 0.00549 173.48402 189.34750
188.0 0.00532 173.22855 189.53818
218.0 0.00459 172.97321 189.75783
188.0 0.00532 172.71805 190.00870
206.0 0.00485 172.46301 190.29292
191.0 0.00524 172.20819 190.61320
198.0 0.00505 171.95351 190.97234
196.0 0.00510 171.69894 191.37349
199.0 0.00503 171.44463 191.82011
207.0 0.00483 171.19038 192.31618
180.0 0.00556 170.93639 192.86597
190.0 0.00526 170.68259 193.47438
174.0 0.00575 170.42894 194.14687
216.0 0.00463 170.17555 194.88948
170.0 0.00588 169.92227 195.70906
175.0 0.00571 169.66925 196.61336
218.0 0.00459 169.41637 197.61130
201.0 0.00498 169.16374 198.71280
193.0 0.00518 168.91129 199.92923
200.0 0.00500 168.65909 201.27385
219.0 0.00457 168.40710 202.76161
209.0 0.00478 168.15532 204.40999
191.0 0.00524 167.90384 206.23920
214.0 0.00467 167.65254 208.27286
187.0 0.00535 167.40143 210.53867
205.0 0.00488 167.15060 213.06953
218.0 0.00459 166.90002 215.90437
214.0 0.00467 166.64966 219.08992
237.0 0.00422 166.39957 222.68274
196.0 0.00510 166.14973 226.75168
196.0 0.00510 165.90016 231.38150
236.0 0.00424 165.65088 236.67804
229.0 0.00437 165.40178 242.77553
231.0 0.00433 165.15300 248.80505
234.0 0.00427 164.90451 257.11288
305.0 0.003279 164.65627 267.01541
288.0 0.003472 164.40831 279.15887
327.0 0.003058 164.16068 294.20917
368.0 0.002717 163.91333 315.32498
399.0 0.002506 163.66623 345.42664
447.0 0.002237 163.41943 389.46967
517.0 0.001934 163.17296 453.58859
588.0 0.001701 162.92674 543.88800
732.0 0.001366 162.68089 665.01648
867.0 0.001153 162.43530 821.43402
1004.0 0.000996 162.19008 1016.64801
1252.0 0.000799 161.94510 1253.32300
1457.0 0.000686 161.70055 1538.00195
1849.0 0.000541 161.45624 1876.39343
2276.0 0.000439 161.21231 2282.17798
2708.0 0.000369 160.96867 2771.94824
3258.0 0.0003069 160.72534 3376.21802
4123.0 0.0002425 160.48242 4129.78223
4958.0 0.0002017 160.23981 5061.12451
6124.0 0.0001633 159.99754 6150.53516
7061.0 0.0001416 159.75568 7285.43457
8195.0 0.0001220 159.51413 8233.88574
8504.0 0.0001176 159.27292 8685.43457
8340.0 0.0001199 159.03204 8421.19043
7508.0 0.0001332 158.79158 7576.39746
6482.0 0.0001543 158.55144 6523.99268
5441.0 0.0001838 158.31171 5467.86621
4405.0 0.0002270 158.07233 4397.63672
3382.0 0.0002957 157.83339 3317.13745
2469.0 0.000405 157.59477 2349.69458
1619.0 0.000618 157.35655 1601.03064
1085.0 0.000922 157.11868 1089.55164
740.0 0.001351 156.88123 774.61261
535.0 0.001869 156.64418 593.57123
454.0 0.002203 156.40749 490.08676
367.0 0.002725 156.17126 426.70984
318.0 0.003145 155.93539 383.46182
303.0 0.003300 155.69998 351.11761
281.0 0.00356 155.46495 325.56744
274.0 0.00365 155.23033 304.78629
239.0 0.00418 154.99611 287.58383
272.0 0.00368 154.76230 273.15668
224.0 0.00446 154.52898 260.92368
236.0 0.00424 154.29597 250.45036
244.0 0.00410 154.06346 241.40561
203.0 0.00493 153.83142 233.53320
239.0 0.00418 153.59976 226.63239
234.0 0.00427 153.36856 220.54382
224.0 0.00446 153.13777 215.13979
225.0 0.00444 152.90744 210.31702
225.0 0.00444 152.67754 205.99100
196.0 0.00510 152.44812 202.09221
225.0 0.00444 152.21913 198.56299
172.0 0.00581 151.99068 195.35507
224.0 0.00446 151.76260 192.51366
199.0 0.00503 151.53500 189.83432
191.0 0.00524 151.30786 187.37230
178.0 0.00562 151.08116 185.10266
187.0 0.00535 150.85497 183.00385
181.0 0.00552 150.62926 181.10046
209.0 0.00478 150.40399 179.29114
195.0 0.00513 150.17923 177.60416
162.0 0.00617 149.95500 176.02739
195.0 0.00513 149.73119 174.55002
161.0 0.00621 149.50784 173.16263
187.0 0.00535 149.28503 171.85693
193.0 0.00518 149.06268 170.62560
165.0 0.00606 148.84084 169.46196
176.0 0.00568 148.61949 168.36021
175.0 0.00571 148.39867 167.31519
174.0 0.00575 148.17834 166.32220
177.0 0.00565 147.95854 165.37697
156.0 0.00641 147.73920 164.47594
170.0 0.00588 147.52040 163.61552
154.0 0.00649 147.30212 162.79265
162.0 0.00617 147.08430 162.00467
165.0 0.00606 146.86705 161.24889
202.0 0.00495 146.65031 160.52321
160.0 0.00625 146.43411 159.82541
164.0 0.00610 146.21846 159.15359
142.0 0.00704 146.00330 158.50610
156.0 0.00641 145.78867 157.88120
148.0 0.00676 145.57455 157.27756
152.0 0.00658 145.36102 156.69377
146.0 0.00685 145.14801 156.12872
165.0 0.00606 144.93553 155.58115
158.0 0.00633 144.72362 155.05005
164.0 0.00610 144.51228 154.53452
170.0 0.00588 144.30142 154.03354
146.0 0.00685 144.09116 153.54642
154.0 0.00649 143.88142 153.07231
139.0 0.00719 143.67224 152.61060
133.0 0.00752 143.46362 152.16057
146.0 0.00685 143.25557 151.72157
158.0 0.00633 143.04808 151.29317
139.0 0.00719 142.84122 150.87477
169.0 0.00592 142.63487 150.46585
155.0 0.00645 142.42909 150.06598
169.0 0.00592 142.22385 149.67477
161.0 0.00621 142.01921 149.29175
149.0 0.00671 141.81517 148.91664
152.0 0.00658 141.61166 148.54906
178.0 0.00562 141.40878 148.18871
139.0 0.00719 141.20647 147.83534
151.0 0.00662 141.00475 147.48856
158.0 0.00633 140.80359 147.14807
139.0 0.00719 140.60303 146.81377
146.0 0.00685 140.40305 146.48534
153.0 0.00654 140.20369 146.16261
150.0 0.00667 140.00491 145.84538
141.0 0.00709 139.80670 145.53351
154.0 0.00649 139.60913 145.22667
148.0 0.00676 139.41220 145.11125
147.0 0.00680 139.21582 144.81679
131.0 0.00763 139.02003 144.52708
159.0 0.00629 138.82486 144.47606
159.0 0.00629 138.63029 144.19867
161.0 0.00621 138.43636 144.01868
144.0 0.00694 138.24304 143.75131
153.0 0.00654 138.05029 143.48833
153.0 0.00654 137.85823 143.34630
140.0 0.00714 137.66672 143.09326
145.0 0.00690 137.47588 142.84442
129.0 0.00775 137.28563 142.59964
146.0 0.00685 137.09599 142.35890
144.0 0.00694 136.90700 142.12222
159.0 0.00629 136.71861 141.88956
152.0 0.00658 136.53088 141.66092
147.0 0.00680 136.34384 141.43629
132.0 0.00758 136.15733 141.21565
135.0 0.00741 135.97151 140.99913
131.0 0.00763 135.78629 140.78658
151.0 0.00662 135.60170 140.57823
130.0 0.00769 135.41779 140.37407
157.0 0.00637 135.23448 140.17416
134.0 0.00746 135.05186 139.97852
129.0 0.00775 134.86983 139.78746
127.0 0.00787 134.68854 139.60091
136.0 0.00735 134.50781 139.41914
129.0 0.00775 134.32771 139.24225
141.0 0.00709 134.14832 139.07050
143.0 0.00699 133.96953 138.90395
134.0 0.00746 133.79141 138.74306
148.0 0.00676 133.61397 138.58803
117.0 0.00855 133.43715 138.43918
131.0 0.00763 133.26103 138.29698
146.0 0.00685 133.08556 138.16177
131.0 0.00763 132.91071 138.03412
130.0 0.00769 132.73654 137.91455
147.0 0.00680 132.56302 137.80380
133.0 0.00752 132.39018 137.70256
139.0 0.00719 132.21800 137.61182
134.0 0.00746 132.04649 137.53256
133.0 0.00752 131.87566 135.88460
145.0 0.00690 131.70549 135.85571
112.0 0.00893 131.53600 135.84212
160.0 0.00625 131.36716 135.84589
135.0 0.00741 131.19901 135.86929
131.0 0.00763 131.03149 135.13673
121.0 0.00826 130.86467 135.22034
136.0 0.00735 130.69853 135.33398
138.0 0.00725 130.53307 135.48294
120.0 0.00833 130.36832 135.67381
149.0 0.00671 130.20421 135.91492
133.0 0.00752 130.04082 136.21742
126.0 0.00794 129.87805 136.59695
132.0 0.00758 129.71597 137.07784
148.0 0.00676 129.55461 137.70122
140.0 0.00714 129.39394 138.53908
134.0 0.00746 129.23389 139.71234
162.0 0.00617 129.07462 141.40848
141.0 0.00709 128.91597 143.88916
154.0 0.00649 128.75806 147.47978
159.0 0.00629 128.60077 152.52422
142.0 0.00704 128.44423 159.30795
169.0 0.00592 128.28831 168.11229
182.0 0.00549 128.13315 179.35399
202.0 0.00495 127.97866 193.33533
216.0 0.00463 127.82489 210.50229
232.0 0.00431 127.67178 231.83688
254.0 0.00394 127.51938 258.27695
295.0 0.003390 127.36771 291.19070
333.0 0.003003 127.21666 331.37759
406.0 0.002463 127.06635 377.85046
407.0 0.002457 126.91675 426.78479
498.0 0.002008 126.76781 469.96530
487.0 0.002053 126.61961 496.33856
529.0 0.001890 126.47208 495.93420
475.0 0.002105 126.32533 469.38461
459.0 0.002179 126.17919 429.64078
409.0 0.002445 126.03379 388.27451
350.0 0.002857 125.88906 347.62393
334.0 0.002994 125.74507 305.33682
285.0 0.00351 125.60177 262.39511
257.0 0.00389 125.45918 223.88872
196.0 0.00510 125.31732 193.57451
179.0 0.00559 125.17614 172.13858
134.0 0.00746 125.03568 158.26505
135.0 0.00741 124.89592 149.81599
142.0 0.00704 124.75684 144.74104
136.0 0.00735 124.61852 141.55475
146.0 0.00685 124.48087 139.37917
131.0 0.00763 124.34395 137.76540
125.0 0.00800 124.20779 136.49889
137.0 0.00730 124.07225 135.47339
130.0 0.00769 123.93742 134.62912
149.0 0.00671 123.80334 133.92746
132.0 0.00758 123.66999 133.34090
124.0 0.00806 123.53733 132.84920
132.0 0.00758 123.40536 132.43697
128.0 0.00781 123.27412 132.09241
116.0 0.00862 123.14360 131.80650
115.0 0.00870 123.01381 131.57219
122.0 0.00820 122.88472 131.38411
128.0 0.00781 122.75633 131.23808
117.0 0.00855 122.62865 131.13100
121.0 0.00826 122.50173 131.06055
107.0 0.00935 122.37550 131.02518
113.0 0.00885 122.24990 131.02383
115.0 0.00870 122.12513 131.05612
112.0 0.00893 122.00105 131.12206
124.0 0.00806 121.87766 131.22217
126.0 0.00794 121.75502 131.35742
125.0 0.00800 121.63308 131.52930
139.0 0.00719 121.51185 131.73955
152.0 0.00658 121.39131 131.99066
140.0 0.00714 121.27152 132.28560
125.0 0.00800 121.15245 132.62788
132.0 0.00758 121.03406 133.02180
127.0 0.00787 120.91640 133.47232
141.0 0.00709 120.79948 133.98550
119.0 0.00840 120.68327 134.56834
110.0 0.00909 120.56779 135.22923
128.0 0.00781 120.45298 135.97804
114.0 0.00877 120.33890 136.82674
128.0 0.00781 120.22554 137.78937
129.0 0.00775 120.11290 138.88307
137.0 0.00730 120.00101 140.12872
148.0 0.00676 119.88978 141.55153
105.0 0.00952 119.77932 143.18309
149.0 0.00671 119.66956 145.06302
139.0 0.00719 119.56046 147.24272
123.0 0.00813 119.45213 149.79268
136.0 0.00735 119.34450 152.81664
135.0 0.00741 119.23756 156.47949
160.0 0.00625 119.13142 161.05296
156.0 0.00641 119.02592 166.97931
165.0 0.00606 118.92117 174.94263
200.0 0.00500 118.81712 185.92970
210.0 0.00476 118.71375 201.25424
239.0 0.00418 118.61115 222.49185
243.0 0.00412 118.50919 251.33469
315.0 0.003175 118.40799 289.74374
356.0 0.002809 118.30756 340.20682
439.0 0.002278 118.20779 405.17804
515.0 0.001942 118.10872 487.75928
666.0 0.001502 118.01035 592.33710
785.0 0.001274 117.91270 723.80914
898.0 0.001114 117.81577 886.61127
1145.0 0.000873 117.71957 1081.11536
1390.0 0.000719 117.62404 1302.39026
1605.0 0.000623 117.52925 1534.17383
1821.0 0.000549 117.43520 1749.09741
2014.0 0.000497 117.34181 1914.85681
2065.0 0.000484 117.24915 2009.90588
2143.0 0.000467 117.15722 2039.31189
2002.0 0.000500 117.06594 2007.31531
1968.0 0.000508 116.97537 1901.28381
1818.0 0.000550 116.88554 1718.87634
1540.0 0.000649 116.79640 1491.09009
1312.0 0.000762 116.70798 1260.48987
1078.0 0.000928 116.62027 1048.45154
878.0 0.001139 116.53324 854.55334
685.0 0.001460 116.44696 677.97772
458.0 0.002183 116.36131 527.39221
388.0 0.002577 116.27641 409.87137
315.0 0.003175 116.19220 324.87814
239.0 0.00418 116.10873 267.09186
228.0 0.00439 116.02591 229.49519
180.0 0.00556 115.94382 205.36642
167.0 0.00599 115.86243 189.46275
158.0 0.00633 115.78174 178.33389
154.0 0.00649 115.70168 169.99554
124.0 0.00806 115.62240 163.39816
140.0 0.00714 115.54379 157.99196
121.0 0.00826 115.46586 153.46689
142.0 0.00704 115.38862 149.62637
140.0 0.00714 115.31210 146.33258
129.0 0.00775 115.23626 143.48276
130.0 0.00769 115.16115 140.99774
127.0 0.00787 115.08669 138.81570
111.0 0.00901 115.01290 136.88748
115.0 0.00870 114.93984 135.17365
128.0 0.00781 114.86746 133.64207
122.0 0.00820 114.79576 132.26675
116.0 0.00862 114.72479 131.02609
105.0 0.00952 114.65448 129.90211
120.0 0.00833 114.58485 128.87985
124.0 0.00806 114.51589 127.94664
128.0 0.00781 114.44769 127.09187
129.0 0.00775 114.38008 126.30630
127.0 0.00787 114.31318 125.58218
126.0 0.00794 114.24694 124.91284
119.0 0.00840 114.18142 124.29241
118.0 0.00847 114.11657 123.71588
141.0 0.00709 114.05241 123.17885
115.0 0.00870 113.98893 122.67746
113.0 0.00885 113.92610 122.20834
112.0 0.00893 113.86393 121.76846
117.0 0.00855 113.80247 121.35529
124.0 0.00806 113.74167 120.96640
108.0 0.00926 113.68156 120.59974
115.0 0.00870 113.62212 120.25355
98.0 0.01020 113.56332 119.92600
105.0 0.00952 113.50520 119.61580
115.0 0.00870 113.44776 119.32145
107.0 0.00935 113.39097 119.04185
114.0 0.00877 113.33484 118.77591
112.0 0.00893 113.27942 118.44016
107.0 0.00935 113.22461 118.19981
101.0 0.00990 113.17050 117.97046
114.0 0.00877 113.11704 117.75125
116.0 0.00862 113.06425 117.50011
121.0 0.00826 113.01208 117.30002
109.0 0.00917 112.96059 117.10823
116.0 0.00862 112.90975 116.92428
116.0 0.00862 112.85960 116.74772
118.0 0.00847 112.81006 116.57809
120.0 0.00833 112.76121 116.41505
112.0 0.00893 112.71295 116.25816
89.0 0.01124 112.66540 116.10712
119.0 0.00840 112.61852 115.96165
94.0 0.01064 112.57224 115.82142
96.0 0.01042 112.52660 115.68617
114.0 0.00877 112.48161 115.55569
115.0 0.00870 112.43726 115.42970
96.0 0.01042 112.39360 115.30804
109.0 0.00917 112.35055 115.19052
116.0 0.00862 112.30812 115.07689
111.0 0.00901 112.26633 114.96709
119.0 0.00840 112.22520 114.86087
115.0 0.00870 112.18469 114.75812
119.0 0.00840 112.14482 114.65870
125.0 0.00800 112.10558 114.56249
117.0 0.00855 112.06700 114.46940
105.0 0.00952 112.02899 114.37929
108.0 0.00926 111.99164 114.29205
126.0 0.00794 111.95493 114.20763
108.0 0.00926 111.91882 114.12592
120.0 0.00833 111.88335 114.04683
101.0 0.00990 111.84850 113.97031
103.0 0.00971 111.81425 113.89626
107.0 0.00935 111.78064 113.82463
105.0 0.00952 111.74767 113.75541
140.0 0.00714 111.71529 113.68852
93.0 0.01075 111.68352 113.62389
112.0 0.00893 111.65239 113.56152
126.0 0.00794 111.62184 113.50137
110.0 0.00909 111.59190 113.44340
95.0 0.01053 111.56261 113.38754
122.0 0.00820 111.53389 113.33385
129.0 0.00775 111.50577 113.28225
111.0 0.00901 111.47826 113.23280
80.0 0.01250 111.45136 113.18546
103.0 0.00971 111.42509 113.14020
113.0 0.00885 111.39937 113.09711
115.0 0.00870 111.37428 113.05613
109.0 0.00917 111.34978 113.01733
109.0 0.00917 111.32586 112.98073
117.0 0.00855 111.30252 112.94634
115.0 0.00870 111.27982 112.91429
93.0 0.01075 111.25766 112.88454
84.0 0.01190 111.23613 112.85726
110.0 0.00909 111.21517 112.83251
112.0 0.00893 111.19478 112.81037
101.0 0.00990 111.17498 112.79095
115.0 0.00870 111.15576 112.77444
112.0 0.00893 111.13712 112.76097
116.0 0.00862 111.11907 112.75078
111.0 0.00901 111.10159 112.74400
113.0 0.00885 111.08466 112.74097
118.0 0.00847 111.06834 112.74200
105.0 0.00952 111.05257 112.74743
101.0 0.00990 111.03737 112.75767
121.0 0.00826 111.02271 112.77329
93.0 0.01075 111.00864 112.79481
102.0 0.00980 110.99515 112.82294
120.0 0.00833 110.98219 112.85856
113.0 0.00885 110.96981 112.90270
107.0 0.00935 110.95798 112.95660
98.0 0.01020 110.94672 113.02173
120.0 0.00833 110.93600 113.10009
127.0 0.00787 110.92581 113.19397
121.0 0.00826 110.91621 113.30634
120.0 0.00833 110.90715 113.20667
91.0 0.01099 110.89864 113.37341
106.0 0.00943 110.89063 113.57681
118.0 0.00847 110.88323 113.83086
117.0 0.00855 110.87637 114.25620
101.0 0.00990 110.87000 114.69506
127.0 0.00787 110.86417 115.29974
101.0 0.00990 110.85892 116.14913
114.0 0.00877 110.85416 117.34672
121.0 0.00826 110.84995 119.01700
133.0 0.00752 110.84626 121.34114
120.0 0.00833 110.84311 124.35124
131.0 0.00763 110.84047 128.26640
136.0 0.00735 110.83839 133.33629
132.0 0.00758 110.83681 139.78320
145.0 0.00690 110.83574 147.80812
145.0 0.00690 110.83519 157.60594
179.0 0.00559 110.83516 168.95815
186.0 0.00538 110.83563 181.09213
221.0 0.00452 110.83662 192.59464
223.0 0.00448 110.83815 201.25992
206.0 0.00485 110.84016 204.80310
193.0 0.00518 110.84271 201.83603
186.0 0.00538 110.84571 194.54022
201.0 0.00498 110.84924 185.57976
184.0 0.00543 110.85326 176.74147
176.0 0.00568 110.85779 168.05397
178.0 0.00562 110.86283 158.71783
159.0 0.00629 110.86836 148.96706
159.0 0.00629 110.87434 139.68179
126.0 0.00794 110.88084 131.83669
124.0 0.00806 110.88784 125.82070
108.0 0.00926 110.89530 121.55702
122.0 0.00820 110.90328 118.71928
115.0 0.00870 110.91169 116.90186
111.0 0.00901 110.92062 115.74075
112.0 0.00893 110.93000 114.97081
117.0 0.00855 110.93987 114.42712
98.0 0.01020 110.95023 114.01803
92.0 0.01087 110.96105 113.69536
129.0 0.00775 110.97234 113.43338
117.0 0.00855 110.98409 113.21709
120.0 0.00833 110.99631 113.03678
110.0 0.00909 111.00899 112.88541
118.0 0.00847 111.02212 112.75774
88.0 0.01136 111.03571 112.64964
96.0 0.01042 111.04980 112.55795
112.0 0.00893 111.06428 112.48015
112.0 0.00893 111.07925 112.41414
107.0 0.00935 111.09468 112.35825
126.0 0.00794 111.11051 112.31115
108.0 0.00926 111.12682 112.27171
111.0 0.00901 111.14356 112.23893
98.0 0.01020 111.16079 112.21215
124.0 0.00806 111.17841 112.19058
128.0 0.00781 111.19647 112.17374
122.0 0.00820 111.21497 112.16116
119.0 0.00840 111.23387 112.15238
107.0 0.00935 111.25329 112.14708
84.0 0.01190 111.27309 112.14496
114.0 0.00877 111.29330 112.14575
121.0 0.00826 111.31393 112.14925
115.0 0.00870 111.33500 112.15525
107.0 0.00935 111.35649 112.16356
132.0 0.00758 111.37840 112.17412
108.0 0.00926 111.40071 112.18670
113.0 0.00885 111.42346 112.20118
115.0 0.00870 111.44660 112.21758
117.0 0.00855 111.47014 112.23568
117.0 0.00855 111.49409 112.25548
109.0 0.00917 111.51849 112.27687
127.0 0.00787 111.54325 112.29985
111.0 0.00901 111.56840 112.32436
101.0 0.00990 111.59393 115.07652
110.0 0.00909 111.61991 115.14076
124.0 0.00806 111.64626 115.20715
108.0 0.00926 111.67300 115.27570
101.0 0.00990 111.70013 115.34641
127.0 0.00787 111.72765 116.76142
114.0 0.00877 111.75555 116.85452
103.0 0.00971 111.78382 116.95021
116.0 0.00862 111.81248 117.04851
123.0 0.00813 111.84153 117.14944
110.0 0.00909 111.87093 117.25310
115.0 0.00870 111.90070 117.35949
112.0 0.00893 111.93085 117.46870
121.0 0.00826 111.96136 117.58077
99.0 0.01010 111.99226 117.69580
129.0 0.00775 112.02353 117.81382
122.0 0.00820 112.05513 117.93501
120.0 0.00833 112.08710 118.05933
100.0 0.01000 112.11942 118.18695
123.0 0.00813 112.15211 118.31796
135.0 0.00741 112.18514 118.45248
134.0 0.00746 112.21854 118.59061
111.0 0.00901 112.25224 118.73251
109.0 0.00917 112.28634 118.87830
105.0 0.00952 112.32076 119.02817
131.0 0.00763 112.35551 119.18220
118.0 0.00847 112.39062 119.34062
139.0 0.00719 112.42606 119.50364
125.0 0.00800 112.46180 119.67140
112.0 0.00893 112.49792 119.84418
146.0 0.00685 112.53433 120.02219
123.0 0.00813 112.57109 120.20570
120.0 0.00833 112.60819 120.39500
122.0 0.00820 112.64556 120.59039
113.0 0.00885 112.68330 120.79219
131.0 0.00763 112.72134 121.00079
134.0 0.00746 112.75966 121.21656
122.0 0.00820 112.79834 121.43994
124.0 0.00806 112.83730 121.67145
140.0 0.00714 112.87661 121.91160
124.0 0.00806 112.91620 122.16095
137.0 0.00730 112.95607 122.42017
118.0 0.00847 112.99627 122.69000
131.0 0.00763 113.03677 122.97121
133.0 0.00752 113.07758 123.26473
112.0 0.00893 113.11864 123.57157
123.0 0.00813 113.16001 123.89288
127.0 0.00787 113.20164 124.22997
120.0 0.00833 113.24362 124.58424
130.0 0.00769 113.28587 124.95747
151.0 0.00662 113.32838 125.35153
135.0 0.00741 113.37119 125.76868
108.0 0.00926 113.41425 126.21145
117.0 0.00855 113.45760 126.68295
132.0 0.00758 113.50121 127.18667
153.0 0.00654 113.54512 127.72686
153.0 0.00654 113.58929 128.30844
125.0 0.00800 113.63371 128.93748
141.0 0.00709 113.67841 129.62122
144.0 0.00694 113.72336 130.36861
115.0 0.00870 113.76856 131.19061
130.0 0.00769 113.81402 132.10117
143.0 0.00699 113.85976 133.11827
133.0 0.00752 113.90573 134.26654
135.0 0.00741 113.95195 135.58200
148.0 0.00676 113.99842 137.12125
133.0 0.00752 114.04514 138.97801
134.0 0.00746 114.09212 141.30728
156.0 0.00641 114.13931 144.35690
163.0 0.00613 114.18675 148.49992
174.0 0.00575 114.23438 154.26031
178.0 0.00562 114.28233 162.32324
200.0 0.00500 114.33044 173.51384
213.0 0.00469 114.37881 188.73820
223.0 0.00448 114.42741 209.01196
248.0 0.00403 114.47623 235.66245
300.0 0.003333 114.52525 270.08871
303.0 0.003300 114.57451 313.23056
362.0 0.002762 114.62395 365.33960
418.0 0.002392 114.67366 424.41306
482.0 0.002075 114.72356 485.08588
560.0 0.001786 114.77366 538.74823
555.0 0.001802 114.82398 573.98596
546.0 0.001832 114.87450 580.95923
570.0 0.001754 114.92523 559.41882
566.0 0.001767 114.97616 521.24182
495.0 0.002020 115.02728 480.16849
452.0 0.002212 115.07854 442.14294
422.0 0.002370 115.13008 405.27509
333.0 0.003003 115.18179 365.19629
317.0 0.003155 115.23370 321.44348
272.0 0.00368 115.28576 278.69742
273.0 0.00366 115.33799 241.93338
223.0 0.00448 115.39045 213.50240
176.0 0.00568 115.44306 193.43678
172.0 0.00581 115.49586 180.38989
162.0 0.00617 115.54882 172.47806
164.0 0.00610 115.60197 167.92804
165.0 0.00606 115.65530 165.39240
191.0 0.00524 115.70877 164.07539
184.0 0.00543 115.76241 163.48918
175.0 0.00571 115.81626 163.39334
164.0 0.00610 115.87021 163.66571
184.0 0.00543 115.92432 164.23045
171.0 0.00585 115.97863 165.07085
167.0 0.00599 116.03306 166.15292
149.0 0.00671 116.08765 167.46266
175.0 0.00571 116.14240 168.99275
154.0 0.00649 116.19730 170.74118
181.0 0.00552 116.25232 172.71037
156.0 0.00641 116.30749 174.90694
189.0 0.00529 116.36279 177.34126
184.0 0.00543 116.41827 180.02754
203.0 0.00493 116.47385 182.98367
187.0 0.00535 116.52955 186.23184
184.0 0.00543 116.58543 189.79857
188.0 0.00532 116.64140 193.71558
194.0 0.00515 116.69750 198.02023
194.0 0.00515 116.75375 202.75665
217.0 0.00461 116.81011 207.97684
200.0 0.00500 116.86658 213.74214
213.0 0.00469 116.92316 220.12514
234.0 0.00427 116.97986 227.21211
205.0 0.00488 117.03666 235.10600
204.0 0.00490 117.09359 243.93037
228.0 0.00439 117.15063 254.89912
208.0 0.00481 117.20778 266.07880
247.0 0.00405 117.26503 278.74286
265.0 0.00377 117.32238 293.16754
271.0 0.00369 117.37982 309.70016
321.0 0.003115 117.43736 328.78799
291.0 0.003436 117.49500 351.55936
372.0 0.002688 117.55274 377.81903
367.0 0.002725 117.61054 409.40268
434.0 0.002304 117.66846 448.45361
471.0 0.002123 117.72646 498.54129
615.0 0.001626 117.78452 565.47827
680.0 0.001471 117.84267 658.25037
883.0 0.001133 117.90089 789.88879
1070.0 0.000935 117.95923 978.12659
1373.0 0.000728 118.01762 1245.61108
1835.0 0.000545 118.07608 1618.98743
2196.0 0.000455 118.13464 2126.93921
2863.0 0.0003493 118.19320 2802.43628
3763.0 0.0002657 118.25189 3687.37061
4770.0 0.0002096 118.31059 4812.34814
6403.0 0.0001562 118.36942 6168.26514
7712.0 0.0001297 118.42825 7705.24170
9627.0 0.0001039 118.48715 9295.33984
11171.0 0.0000895 118.54612 10706.52539
12094.0 0.0000827 118.60512 11658.09375
12222.0 0.0000818 118.66420 11895.25488
11972.0 0.0000835 118.72331 11381.16992
10715.0 0.0000933 118.78244 10405.94141
9529.0 0.0001049 118.84167 9335.48047
8389.0 0.0001192 118.90092 8345.60645
7577.0 0.0001320 118.96018 7411.17822
6733.0 0.0001485 119.01952 6410.43945
5654.0 0.0001769 119.07886 5289.29492
4542.0 0.0002202 119.13825 4140.43359
3348.0 0.0002987 119.19767 3103.67065
2358.0 0.000424 119.25710 2263.55615
1608.0 0.000622 119.31660 1639.65613
1203.0 0.000831 119.37608 1208.77246
833.0 0.001200 119.43562 926.76147
690.0 0.001449 119.49517 746.58197
603.0 0.001658 119.55473 629.72986
496.0 0.002016 119.61430 549.96271
421.0 0.002375 119.67391 491.68890
406.0 0.002463 119.73349 446.46008
386.0 0.002591 119.79311 409.84860
371.0 0.002695 119.85271 379.43958
308.0 0.003247 119.91235 353.77765
330.0 0.003030 119.97200 331.88309
302.0 0.003311 120.03162 313.04117
276.0 0.00362 120.09126 296.70645
283.0 0.00353 120.15087 282.45227
272.0 0.00368 120.21049 269.94000
264.0 0.00379 120.27012 258.89777
260.0 0.00385 120.32970 249.10510
241.0 0.00415 120.38931 240.38170
250.0 0.00400 120.44891 232.57903
235.0 0.00426 120.50847 225.57356
239.0 0.00418 120.56802 219.26212
244.0 0.00410 120.62756 213.55785
237.0 0.00422 120.68707 208.38721
239.0 0.00418 120.74656 203.68764
234.0 0.00427 120.80600 199.40558
262.0 0.00382 120.86544 195.49513
204.0 0.00490 120.92487 191.91646
205.0 0.00488 120.98420 188.63518
209.0 0.00478 121.04357 185.62134
225.0 0.00444 121.10289 182.84875
204.0 0.00490 121.16217 180.29446
197.0 0.00508 121.22138 177.93831
197.0 0.00508 121.28055 175.76254
201.0 0.00498 121.33969 173.75140
204.0 0.00490 121.39882 171.89101
209.0 0.00478 121.45786 170.16895
210.0 0.00476 121.51686 168.57417
217.0 0.00461 121.57582 167.09700
179.0 0.00559 121.63474 165.72845
198.0 0.00505 121.69358 164.46086
200.0 0.00500 121.75237 163.28712
195.0 0.00513 121.81109 162.20105
229.0 0.00437 121.86974 161.19685
193.0 0.00518 121.92837 160.26961
170.0 0.00588 121.98689 159.41476
173.0 0.00578 122.04537 158.62823
192.0 0.00521 122.10379 157.90651
185.0 0.00541 122.16211 157.24634
197.0 0.00508 122.22036 156.64481
171.0 0.00585 122.27858 156.09949
202.0 0.00495 122.33667 155.60820
184.0 0.00543 122.39474 155.16896
165.0 0.00606 122.45267 154.78021
163.0 0.00613 122.51054 154.44055
184.0 0.00543 122.56836 154.14890
176.0 0.00568 122.62605 153.90437
160.0 0.00625 122.68367 153.70638
169.0 0.00592 122.74120 153.55449
185.0 0.00541 122.79866 153.44856
169.0 0.00592 122.85599 153.38873
210.0 0.00476 122.91325 153.37527
176.0 0.00568 122.97042 153.40881
191.0 0.00524 123.02747 153.49016
155.0 0.00645 123.08442 153.62059
156.0 0.00641 123.14127 153.80135
151.0 0.00662 123.19802 154.03430
189.0 0.00529 123.25469 154.32156
186.0 0.00538 123.31122 154.67039
185.0 0.00541 123.36765 155.07417
165.0 0.00606 123.42398 155.54106
177.0 0.00565 123.48020 155.97864
158.0 0.00633 123.53629 156.58528
185.0 0.00541 123.59229 157.26855
179.0 0.00559 123.64814 158.03682
172.0 0.00581 123.70388 158.89215
176.0 0.00568 123.75951 159.79637
185.0 0.00541 123.81499 160.85583
164.0 0.00610 123.87040 162.03188
192.0 0.00521 123.92564 163.33646
170.0 0.00588 123.98076 164.78337
184.0 0.00543 124.03575 166.38860
174.0 0.00575 124.09061 168.17084
192.0 0.00521 124.14532 170.15182
193.0 0.00518 124.19994 172.35724
167.0 0.00599 124.25439 174.81711
171.0 0.00585 124.30872 177.56725
188.0 0.00532 124.36288 180.65022
181.0 0.00552 124.41692 184.11716
198.0 0.00505 124.47083 188.02980
181.0 0.00552 124.52457 192.46323
189.0 0.00529 124.57818 197.50970
188.0 0.00532 124.63165 203.28369
209.0 0.00478 124.68497 209.92938
203.0 0.00493 124.73812 217.63313
226.0 0.00442 124.79110 226.64612
216.0 0.00463 124.84399 237.32912
230.0 0.00435 124.89667 250.23990
266.0 0.00376 124.94920 266.29272
276.0 0.00362 125.00158 287.02039
330.0 0.003030 125.05379 314.94803
382.0 0.002618 125.10585 354.05673
445.0 0.002247 125.15776 410.28046
530.0 0.001887 125.20949 491.96924
683.0 0.001464 125.26104 610.19366
871.0 0.001148 125.31242 778.55347
1045.0 0.000957 125.36365 1012.14038
1370.0 0.000730 125.41471 1326.58972
1783.0 0.000561 125.46558 1736.76282
2290.0 0.000437 125.51630 2247.65112
2841.0 0.000352 125.56683 2842.72827
3528.0 0.0002834 125.61716 3480.57959
4020.0 0.0002488 125.66735 4085.28564
4601.0 0.0002173 125.71735 4549.67432
4838.0 0.0002067 125.76717 4765.72119
4815.0 0.0002077 125.81681 4681.43457
4437.0 0.0002254 125.86623 4362.86475
3952.0 0.0002530 125.91548 3954.59692
3575.0 0.0002797 125.96455 3566.46753
3213.0 0.0003112 126.01344 3223.82446
2893.0 0.0003457 126.06212 2890.06372
2586.0 0.000387 126.11062 2513.73828
2241.0 0.000446 126.15893 2085.39795
1746.0 0.000573 126.20705 1648.95605
1255.0 0.000797 126.25496 1257.12158
886.0 0.001129 126.30267 940.04382
649.0 0.001541 126.35018 704.53619
466.0 0.002146 126.39752 541.77020
377.0 0.002653 126.44463 435.13702
359.0 0.002786 126.49155 366.97537
270.0 0.00370 126.53826 322.81241
253.0 0.00395 126.58477 292.73816
233.0 0.00429 126.63107 270.82281
228.0 0.00439 126.67714 253.83229
223.0 0.00448 126.72304 241.40491
194.0 0.00515 126.76871 229.96547
219.0 0.00457 126.81414 220.28802
208.0 0.00481 126.85941 212.00935
184.0 0.00543 126.90443 204.86589
202.0 0.00495 126.94925 195.99925
186.0 0.00538 126.99386 190.60234
174.0 0.00575 127.03822 186.52458
180.0 0.00556 127.08241 182.33777
210.0 0.00476 127.12631 178.61996
196.0 0.00510 127.17004 175.30414
174.0 0.00575 127.21355 171.01361
205.0 0.00488 127.25680 168.36203
169.0 0.00592 127.29984 165.97501
185.0 0.00541 127.34267 163.81384
185.0 0.00541 127.38522 161.85402
180.0 0.00556 127.42761 160.07196
167.0 0.00599 127.46972 158.44754
175.0 0.00571 127.51159 156.96329
182.0 0.00549 127.55325 155.60435
167.0 0.00599 127.59469 154.35909
165.0 0.00606 127.63587 153.21313
157.0 0.00637 127.67684 152.15811
169.0 0.00592 127.71756 151.18520
169.0 0.00592 127.75803 150.28670
161.0 0.00621 127.79826 149.45590
165.0 0.00606 127.83825 148.68669
166.0 0.00602 127.87802 147.97375
166.0 0.00602 127.91752 147.31227
150.0 0.00667 127.95679 146.69803
141.0 0.00709 127.99580 146.12714
174.0 0.00575 128.03458 145.59622
175.0 0.00571 128.07310 145.10214
157.0 0.00637 128.11136 144.64215
155.0 0.00645 128.14941 144.21375
178.0 0.00562 128.18719 143.81462
138.0 0.00725 128.22469 143.44270
151.0 0.00662 128.26199 143.09615
147.0 0.00680 128.29900 142.77325
165.0 0.00606 128.33575 142.47247
160.0 0.00625 128.37225 142.19232
130.0 0.00769 128.40851 141.93159
151.0 0.00662 128.44450 141.68912
137.0 0.00730 128.48022 141.46376
167.0 0.00599 128.51567 141.25453
133.0 0.00752 128.55092 141.06059
157.0 0.00637 128.58585 140.88109
139.0 0.00719 128.62053 140.71524
138.0 0.00725 128.65497 140.56229
172.0 0.00581 128.68909 140.42168
133.0 0.00752 128.72299 140.29285
177.0 0.00565 128.75664 140.17523
150.0 0.00667 128.78996 140.06824
127.0 0.00787 128.82306 139.97160
142.0 0.00704 128.85587 139.88478
148.0 0.00676 128.88840 139.80742
162.0 0.00617 128.92072 139.73921
130.0 0.00769 128.95271 139.67978
155.0 0.00645 128.98444 139.62892
150.0 0.00667 129.01588 139.58635
164.0 0.00610 129.04707 139.55183
149.0 0.00671 129.07797 139.52522
136.0 0.00735 129.10861 139.50626
155.0 0.00645 129.13896 139.49486
150.0 0.00667 129.16905 139.49086
135.0 0.00741 129.19884 139.49416
160.0 0.00625 129.22835 139.50475
124.0 0.00806 129.25758 139.52249
136.0 0.00735 129.28656 139.54738
111.0 0.00901 129.31522 139.57938
137.0 0.00730 129.34358 139.61853
150.0 0.00667 129.37173 139.66490
134.0 0.00746 129.39952 139.71852
145.0 0.00690 129.42706 139.77950
130.0 0.00769 129.45432 139.84796
122.0 0.00820 129.48129 139.92413
115.0 0.00870 129.50798 140.00816
144.0 0.00694 129.53435 140.10037
152.0 0.00658 129.56044 140.20096
154.0 0.00649 129.58626 140.31047
115.0 0.00870 129.61180 140.42923
156.0 0.00641 129.63701 140.55791
151.0 0.00662 129.66194 140.69704
112.0 0.00893 129.68661 140.84763
127.0 0.00787 129.71095 141.01056
136.0 0.00735 129.73503 141.18715
126.0 0.00794 129.75877 141.37920
137.0 0.00730 129.78226 141.58902
135.0 0.00741 129.80542 141.82031
134.0 0.00746 129.82832 142.07886
135.0 0.00741 129.85091 142.37418
161.0 0.00621 129.87318 142.72166
126.0 0.00794 129.89519 143.14545
156.0 0.00641 129.91687 143.68143
165.0 0.00606 129.93828 144.38049
162.0 0.00617 129.95937 145.31062
154.0 0.00649 129.98015 146.55487
143.0 0.00699 130.00064 148.20129
149.0 0.00671 130.02083 150.32376
149.0 0.00671 130.04071 152.96686
143.0 0.00699 130.06030 156.11182
115.0 0.00870 130.07959 159.59653
125.0 0.00800 130.09859 163.09315
156.0 0.00641 130.11725 166.16177
169.0 0.00592 130.13562 168.26895
129.0 0.00775 130.15370 168.98030
165.0 0.00606 130.17145 168.33029
175.0 0.00571 130.18892 166.89018
148.0 0.00676 130.20605 165.32703
151.0 0.00662 130.22292 164.00163
166.0 0.00602 130.23946 162.91705
155.0 0.00645 130.25568 161.83142
169.0 0.00592 130.27161 160.50200
140.0 0.00714 130.28723 158.92465
158.0 0.00633 130.30252 157.33018
159.0 0.00629 130.31752 156.02136
124.0 0.00806 130.33220 155.04768
160.0 0.00625 130.34659 154.49680
153.0 0.00654 130.36066 154.33638
145.0 0.00690 130.37440 154.49655
129.0 0.00775 130.38785 154.89928
170.0 0.00588 130.40099 155.47832
121.0 0.00826 130.41380 156.21135
126.0 0.00794 130.42632 157.02263
139.0 0.00719 130.43851 157.92247
156.0 0.00641 130.45041 158.90614
166.0 0.00602 130.46194 159.97386
157.0 0.00637 130.47322 161.12877
143.0 0.00699 130.48416 162.37598
144.0 0.00694 130.49480 163.72200
171.0 0.00585 130.50507 164.12128
136.0 0.00735 130.51511 165.70354
161.0 0.00621 130.52478 167.41197
156.0 0.00641 130.53415 169.25888
169.0 0.00592 130.54321 171.25847
151.0 0.00662 130.55193 173.42683
157.0 0.00637 130.56036 175.25636
155.0 0.00645 130.56847 177.82813
155.0 0.00645 130.57625 180.63359
165.0 0.00606 130.58372 183.70151
183.0 0.00546 130.59088 187.06544
144.0 0.00694 130.59773 190.76447
171.0 0.00585 130.60425 194.84451
192.0 0.00521 130.61046 199.35985
184.0 0.00543 130.61633 204.37469
174.0 0.00575 130.62190 209.96585
196.0 0.00510 130.62717 216.22572
184.0 0.00543 130.63210 223.26608
189.0 0.00529 130.63670 231.22388
219.0 0.00457 130.64099 240.26823
179.0 0.00559 130.64497 250.61200
208.0 0.00481 130.64862 262.52826
222.0 0.00450 130.65198 276.37924
217.0 0.00461 130.65498 292.66852
265.0 0.00377 130.65770 312.13669
292.0 0.003425 130.66008 335.93362
336.0 0.002976 130.66212 365.90689
386.0 0.002591 130.66388 405.04129
406.0 0.002463 130.66530 458.07114
504.0 0.001984 130.66641 532.25055
668.0 0.001497 130.66718 638.19562
823.0 0.001215 130.66765 790.60040
1043.0 0.000959 130.66780 1008.40143
1391.0 0.000719 130.66762 1313.36450
1773.0 0.000564 130.66713 1725.91089
2168.0 0.000461 130.66632 2259.23853
2834.0 0.000353 130.66519 2914.01855
3599.0 0.0002779 130.66374 3667.87988
4445.0 0.0002250 130.66196 4460.62207
5231.0 0.0001912 130.65985 5197.60693
5986.0 0.0001671 130.65747 5761.14893
6281.0 0.0001592 130.65472 6029.46533
6000.0 0.0001667 130.65167 5946.41455
5464.0 0.0001830 130.64830 5587.70557
5001.0 0.0002000 130.64462 5117.71680
4469.0 0.0002238 130.64059 4667.25879
4223.0 0.0002368 130.63626 4271.74805
3896.0 0.0002567 130.63162 3897.45190
3580.0 0.0002793 130.62665 3488.09033
3090.0 0.0003236 130.62137 3007.69116
2662.0 0.000376 130.61577 2479.70703
2068.0 0.000484 130.60983 1965.98730
1534.0 0.000652 130.60359 1516.96606
1194.0 0.000838 130.59703 1155.77625
886.0 0.001129 130.59013 884.33862
668.0 0.001497 130.58295 691.50439
536.0 0.001866 130.57542 559.95557
423.0 0.002364 130.56758 471.78256
376.0 0.002660 130.55945 412.02411
332.0 0.003012 130.55095 369.94919
304.0 0.003289 130.54216 338.70844
314.0 0.003185 130.53307 314.28043
250.0 0.00400 130.52365 294.40280
281.0 0.00356 130.51390 277.79108
259.0 0.00386 130.50381 263.67007
205.0 0.00488 130.49345 251.52802
239.0 0.00418 130.48276 240.99802
213.0 0.00469 130.47176 231.80130
200.0 0.00500 130.46042 223.71945
239.0 0.00418 130.44879 216.57753
211.0 0.00474 130.43684 210.23407
199.0 0.00503 130.42456 204.57338
192.0 0.00521 130.41196 199.49997
189.0 0.00529 130.39908 194.93478
205.0 0.00488 130.38583 190.81160
191.0 0.00524 130.37231 187.07469
177.0 0.00565 130.35847 183.67685
160.0 0.00625 130.34431 180.57803
175.0 0.00571 130.32985 177.74388
163.0 0.00613 130.31503 175.14484
187.0 0.00535 130.29994 172.75551
154.0 0.00649 130.28453 170.55368
192.0 0.00521 130.26880 168.52022
174.0 0.00575 130.25276 166.63818
164.0 0.00610 130.23642 164.89291
150.0 0.00667 130.21974 163.27141
176.0 0.00568 130.20279 161.76215
185.0 0.00541 130.18550 160.35506
164.0 0.00610 130.16791 159.04100
182.0 0.00549 130.15002 157.81203
170.0 0.00588 130.13179 156.66096
167.0 0.00599 130.11327 155.58139
176.0 0.00568 130.09445 154.56752
172.0 0.00581 130.07530 153.61421
153.0 0.00654 130.05586 152.71677
157.0 0.00637 130.03609 153.96918
152.0 0.00658 130.01605 153.19644
176.0 0.00568 129.99570 152.46834
158.0 0.00633 129.97499 151.78203
165.0 0.00606 129.95404 151.13464
142.0 0.00704 129.93272 150.52370
171.0 0.00585 129.91115 149.94685
138.0 0.00725 129.88925 149.40201
144.0 0.00694 129.86705 149.93845
151.0 0.00662 129.84457 149.46681
158.0 0.00633 129.82176 149.01976
171.0 0.00585 129.79863 148.59827
141.0 0.00709 129.77524 148.20093
139.0 0.00719 129.75153 147.82671
130.0 0.00769 129.72749 147.47444
143.0 0.00699 129.70320 147.14320
159.0 0.00629 129.67859 146.83331
157.0 0.00637 129.65367 146.54182
146.0 0.00685 129.62846 146.26910
181.0 0.00552 129.60295 146.01480
159.0 0.00629 129.57716 145.77821
168.0 0.00595 129.55104 145.55911
155.0 0.00645 129.52461 145.35722
147.0 0.00680 129.49792 145.17233
151.0 0.00662 129.47093 145.00446
131.0 0.00763 129.44366 144.85365
170.0 0.00588 129.41606 144.72000
155.0 0.00645 129.38820 144.60378
157.0 0.00637 129.36002 144.50551
151.0 0.00662 129.33154 144.42580
131.0 0.00763 129.30280 144.35928
149.0 0.00671 129.27374 144.31923
164.0 0.00610 129.24442 144.30081
126.0 0.00794 129.21478 144.30550
158.0 0.00633 129.18484 144.33522
149.0 0.00671 129.15466 144.39250
159.0 0.00629 129.12415 144.47702
129.0 0.00775 129.09335 144.59851
146.0 0.00685 129.06229 144.75838
125.0 0.00800 129.03093 144.96199
145.0 0.00690 128.99928 145.21631
147.0 0.00680 128.96735 145.52995
162.0 0.00617 128.93512 145.91411
165.0 0.00606 128.90263 146.38431
178.0 0.00562 128.86984 146.96259
164.0 0.00610 128.83678 147.68315
140.0 0.00714 128.80344 148.60168
154.0 0.00649 128.76979 149.81140
141.0 0.00709 128.73589 151.46600
160.0 0.00625 128.70172 153.81119
142.0 0.00704 128.66725 157.21983
153.0 0.00654 128.63252 162.22501
185.0 0.00541 128.59747 169.53514
190.0 0.00526 128.56218 180.00087
179.0 0.00559 128.52661 194.47731
191.0 0.00524 128.49075 213.53374
246.0 0.00407 128.45464 237.11111
250.0 0.00400 128.41823 264.38495
281.0 0.00356 128.38156 294.57959
349.0 0.002865 128.34460 322.30292
346.0 0.002890 128.30739 343.73459
369.0 0.002710 128.26991 354.46985
364.0 0.002747 128.23213 352.49246
320.0 0.003125 128.19411 340.03284
322.0 0.003106 128.15582 322.89557
305.0 0.003279 128.11726 306.46594
268.0 0.00373 128.07845 293.49570
248.0 0.00403 128.03935 282.12073
267.0 0.00375 127.99998 270.41220
267.0 0.00375 127.96035 256.12466
265.0 0.00377 127.92046 238.79904
249.0 0.00402 127.88030 220.18002
224.0 0.00446 127.83991 202.59848
201.0 0.00498 127.79922 187.60030
187.0 0.00535 127.75829 175.79266
145.0 0.00690 127.71709 167.10599
178.0 0.00562 127.67564 161.06546
156.0 0.00641 127.63393 157.03136
164.0 0.00610 127.59197 154.38531
159.0 0.00629 127.54974 152.63495
168.0 0.00595 127.50727 151.43971
151.0 0.00662 127.46453 150.58813
148.0 0.00676 127.42156 149.95827
151.0 0.00662 127.37832 149.48196
153.0 0.00654 127.33482 149.12044
150.0 0.00667 127.29108 148.85013
150.0 0.00667 127.24710 148.65529
137.0 0.00730 127.20287 148.52455
164.0 0.00610 127.15837 148.44943
149.0 0.00671 127.11363 148.42329
138.0 0.00725 127.06866 148.44089
139.0 0.00719 127.02344 148.49821
149.0 0.00671 126.97798 148.59195
140.0 0.00714 126.93225 148.71954
150.0 0.00667 126.88631 148.87914
156.0 0.00641 126.84011 149.06917
165.0 0.00606 126.79369 149.28853
166.0 0.00602 126.74700 149.53644
158.0 0.00633 126.70010 149.81242
148.0 0.00676 126.65296 150.11632
148.0 0.00676 126.60558 150.44798
132.0 0.00758 126.55794 150.80765
141.0 0.00709 126.51009 151.19580
173.0 0.00578 126.46200 151.61285
135.0 0.00741 126.41367 152.05963
176.0 0.00568 126.36511 152.53694
157.0 0.00637 126.31634 153.04590
167.0 0.00599 126.26733 153.58778
160.0 0.00625 126.21806 154.16394
171.0 0.00585 126.16861 154.77589
168.0 0.00595 126.11892 155.42551
160.0 0.00625 126.06899 156.11470
194.0 0.00515 126.01883 156.84564
178.0 0.00562 125.96847 157.62068
173.0 0.00578 125.91787 158.44252
162.0 0.00617 125.86707 159.31401
172.0 0.00581 125.81602 158.90912
143.0 0.00699 125.76476 159.90524
166.0 0.00602 125.71330 160.96132
146.0 0.00685 125.66159 162.08159
180.0 0.00556 125.60969 163.27075
185.0 0.00541 125.55759 164.53381
155.0 0.00645 125.50525 165.87666
173.0 0.00578 125.45268 166.64267
159.0 0.00629 125.39993 168.17203
185.0 0.00541 125.34695 169.80177
167.0 0.00599 125.29378 171.54047
168.0 0.00595 125.24038 173.39771
182.0 0.00549 125.18678 175.38396
192.0 0.00521 125.13299 177.51109
196.0 0.00510 125.07897 179.79237
185.0 0.00541 125.02474 182.24269
200.0 0.00500 124.97032 184.87877
178.0 0.00562 124.91573 187.71951
177.0 0.00565 124.86090 190.78639
213.0 0.00469 124.80585 194.10368
208.0 0.00481 124.75064 197.69920
199.0 0.00503 124.69523 201.60463
225.0 0.00444 124.63960 205.85648
190.0 0.00526 124.58379 210.49672
216.0 0.00463 124.52779 215.57404
228.0 0.00439 124.47160 221.14505
244.0 0.00410 124.41520 227.27588
226.0 0.00442 124.35863 234.04428
236.0 0.00424 124.30186 241.54193
203.0 0.00493 124.24488 249.87788
235.0 0.00426 124.18774 259.18237
218.0 0.00459 124.13041 269.61212
226.0 0.00442 124.07288 281.35727
270.0 0.00370 124.01518 294.65015
291.0 0.003436 123.95729 309.77744
270.0 0.00370 123.89922 327.09909
289.0 0.003460 123.84097 347.07660
330.0 0.003030 123.78255 370.32553
351.0 0.002849 123.72392 397.71591
364.0 0.002747 123.66513 430.56693
443.0 0.002257 123.60616 471.01434
489.0 0.002045 123.54706 522.65369
580.0 0.001724 123.48773 591.56317
704.0 0.001420 123.42826 687.76343
847.0 0.001181 123.36860 827.02191
1112.0 0.000899 123.30874 1032.66846
1389.0 0.000720 123.24876 1336.66467
1789.0 0.000559 123.18861 1778.50159
2397.0 0.000417 123.12827 2399.66699
3218.0 0.0003108 123.06779 3231.17822
4116.0 0.0002430 123.00713 4275.36621
5456.0 0.0001833 122.94630 5492.15869
6659.0 0.0001502 122.88531 6794.38330
8086.0 0.0001237 122.82418 8033.48584
9232.0 0.0001083 122.76288 8999.31543
9622.0 0.0001039 122.70139 9489.06641
9674.0 0.0001034 122.63977 9409.61816
8943.0 0.0001118 122.57800 8860.38477
8198.0 0.0001220 122.51608 8097.06299
7233.0 0.0001383 122.45401 7363.46338
6732.0 0.0001485 122.39177 6779.49463
6255.0 0.0001599 122.32938 6329.33252
5786.0 0.0001728 122.26685 5905.46289
5290.0 0.0001890 122.20415 5385.27930
4842.0 0.0002065 122.14131 4708.61768
4053.0 0.0002467 122.07835 3920.24536
3212.0 0.0003113 122.01523 3124.25537
2565.0 0.000390 121.95197 2409.11206
1918.0 0.000521 121.88857 1821.71643
1386.0 0.000722 121.82498 1373.53247
1021.0 0.000979 121.76133 1052.06824
754.0 0.001326 121.69747 832.08960
605.0 0.001653 121.63350 685.38141
519.0 0.001927 121.56941 587.36011
447.0 0.002237 121.50519 519.87463
411.0 0.002433 121.44082 471.07751
369.0 0.002710 121.37631 433.90402
358.0 0.002793 121.31168 404.36646
352.0 0.002841 121.24691 380.23328
334.0 0.002994 121.18203 360.19751
303.0 0.003300 121.11700 343.42761
293.0 0.003413 121.05185 329.34753
298.0 0.003356 120.98658 317.53455
297.0 0.003367 120.92120 307.66937
299.0 0.003344 120.85567 299.50891
278.0 0.00360 120.79004 292.86954
267.0 0.00375 120.72429 287.61514
290.0 0.003448 120.65840 283.64984
276.0 0.00362 120.59245 280.91238
284.0 0.00352 120.52633 279.37393
290.0 0.003448 120.46009 279.03705
274.0 0.00365 120.39378 279.93646
278.0 0.00360 120.32731 282.14261
295.0 0.003390 120.26077 285.76813
255.0 0.00392 120.19410 290.97940
282.0 0.00355 120.12731 298.01880
308.0 0.003247 120.06043 307.24829
336.0 0.002976 119.99343 319.23349
328.0 0.003049 119.92635 334.90027
388.0 0.002577 119.85917 355.80832
378.0 0.002646 119.79186 384.58661
424.0 0.002358 119.72446 425.55649
480.0 0.002083 119.65697 485.50543
609.0 0.001642 119.58938 574.45508
772.0 0.001295 119.52168 706.07886
947.0 0.001056 119.45388 897.16589
1179.0 0.000848 119.38602 1165.25525
1542.0 0.000649 119.31804 1523.54163
1947.0 0.000514 119.25002 1973.29175
2549.0 0.000392 119.18182 2497.24902
3130.0 0.0003195 119.11359 3057.45947
3727.0 0.0002683 119.04527 3592.10938
4219.0 0.0002370 118.97684 4014.78662
4385.0 0.0002281 118.90833 4238.69043
4411.0 0.0002267 118.83976 4220.75391
4006.0 0.0002496 118.77108 3998.17993
3672.0 0.0002723 118.70235 3675.62085
3402.0 0.0002939 118.63351 3357.25879
3010.0 0.0003322 118.56461 3099.00757
2826.0 0.000354 118.49563 2902.07788
2824.0 0.000354 118.42657 2726.40576
2595.0 0.000385 118.35742 2518.62988
2347.0 0.000426 118.28824 2245.32007
2090.0 0.000478 118.21896 1915.41028
1655.0 0.000604 118.14961 1569.27820
1336.0 0.000749 118.08018 1247.34167
1048.0 0.000954 118.01070 974.02246
779.0 0.001284 117.94115 758.26563
645.0 0.001550 117.87152 598.02832
488.0 0.002049 117.80186 484.69144
413.0 0.002421 117.73209 407.03348
367.0 0.002725 117.66228 354.27698
292.0 0.003425 117.59243 317.78186
271.0 0.00369 117.52251 291.48056
290.0 0.003448 117.45253 271.52142
274.0 0.00365 117.38250 255.62749
239.0 0.00418 117.31241 242.49768
229.0 0.00437 117.24226 231.37961
235.0 0.00426 117.17207 221.81219
236.0 0.00424 117.10181 213.48836
218.0 0.00459 117.03152 206.18639
225.0 0.00444 116.96117 199.73711
224.0 0.00446 116.89080 194.00677
230.0 0.00435 116.82034 188.88776
198.0 0.00505 116.74985 184.29210
202.0 0.00495 116.67934 180.14742
204.0 0.00490 116.60875 176.51871
191.0 0.00524 116.53817 173.10677
189.0 0.00529 116.46751 169.99310
177.0 0.00565 116.39684 167.14185
193.0 0.00518 116.32612 164.52255
170.0 0.00588 116.25536 162.10899
203.0 0.00493 116.18458 159.87877
170.0 0.00588 116.11375 157.81242
166.0 0.00602 116.04288 155.89310
190.0 0.00526 115.97201 154.16875
170.0 0.00588 115.90109 152.50175
163.0 0.00613 115.83016 150.94284
192.0 0.00521 115.75922 149.48209
183.0 0.00546 115.68822 148.11066
183.0 0.00546 115.61722 146.82066
167.0 0.00599 115.54617 145.60510
163.0 0.00613 115.47511 144.45792
146.0 0.00685 115.40405 143.37341
180.0 0.00556 115.33296 142.34659
176.0 0.00568 115.26184 141.37292
195.0 0.00513 115.19072 140.44853
180.0 0.00556 115.11958 139.56955
168.0 0.00595 115.04843 138.73274
172.0 0.00581 114.97726 137.93510
163.0 0.00613 114.90610 137.17387
172.0 0.00581 114.83492 136.44652
170.0 0.00588 114.76373 135.75082
153.0 0.00654 114.69254 135.08472
161.0 0.00621 114.62136 134.44618
152.0 0.00658 114.55013 133.83356
142.0 0.00704 114.47896 133.24521
165.0 0.00606 114.40771 132.67961
153.0 0.00654 114.33651 132.13544
154.0 0.00649 114.26531 131.61142
127.0 0.00787 114.19411 131.10635
149.0 0.00671 114.12289 130.61919
151.0 0.00662 114.05171 130.14896
152.0 0.00658 113.98055 129.69470
163.0 0.00613 113.90937 129.25551
151.0 0.00662 113.83817 128.83061
125.0 0.00800 113.76703 128.41928
145.0 0.00690 113.69589 128.02083
133.0 0.00752 113.62474 127.63453
153.0 0.00654 113.55363 127.25985
140.0 0.00714 113.48251 126.89616
156.0 0.00641 113.41144 126.54298
140.0 0.00714 113.34038 126.19981
116.0 0.00862 113.26931 125.86611
124.0 0.00806 113.19830 125.54153
126.0 0.00794 113.12728 125.22558
128.0 0.00781 113.05629 124.91790
140.0 0.00714 112.98534 124.61819
133.0 0.00752 112.91440 124.32600
138.0 0.00725 112.84351 124.04112
155.0 0.00645 112.77262 123.76311
135.0 0.00741 112.70177 123.49178
129.0 0.00775 112.63097 123.22683
139.0 0.00719 112.56017 122.96802
131.0 0.00763 112.48941 122.71507
143.0 0.00699 112.41870 122.46778
129.0 0.00775 112.34801 122.22593
124.0 0.00806 112.27736 121.98930
116.0 0.00862 112.20676 121.75771
148.0 0.00676 112.13620 121.57127
126.0 0.00794 112.06568 121.34967
103.0 0.00971 111.99519 121.13257
134.0 0.00746 111.92475 120.92091
104.0 0.00962 111.85435 120.71242
122.0 0.00820 111.78400 120.50799
111.0 0.00901 111.71372 120.30749
125.0 0.00800 111.64346 120.11084
113.0 0.00885 111.57327 119.91782
138.0 0.00725 111.50311 119.74860
104.0 0.00962 111.43299 119.56288
117.0 0.00855 111.36297 119.38049
127.0 0.00787 111.29296 119.20193
130.0 0.00769 111.22301 119.02601
123.0 0.00813 111.15314 118.85315
124.0 0.00806 111.08332 118.68330
136.0 0.00735 111.01357 116.41214
119.0 0.00840 110.94386 116.27217
125.0 0.00800 110.87421 116.13490
114.0 0.00877 110.80464 115.99992
117.0 0.00855 110.73513 115.86714
116.0 0.00862 110.66566 115.73660
116.0 0.00862 110.59629 115.60813
122.0 0.00820 110.52697 115.48177
130.0 0.00769 110.45774 114.31533
101.0 0.00990 110.38856 114.20274
130.0 0.00769 110.31944 114.09428
109.0 0.00917 110.25042 113.98752
117.0 0.00855 110.18147 113.88248
111.0 0.00901 110.11259 113.77912
128.0 0.00781 110.04378 113.67741
133.0 0.00752 109.97505 113.57731
134.0 0.00746 109.90643 113.47773
126.0 0.00794 109.83784 113.38085
136.0 0.00735 109.76936 113.28554
108.0 0.00926 109.70094 113.19181
130.0 0.00769 109.63262 113.09962
121.0 0.00826 109.56438 113.00904
133.0 0.00752 109.49622 112.91994
132.0 0.00758 109.42815 112.83240
139.0 0.00719 109.36020 112.74640
116.0 0.00862 109.29230 112.66196
112.0 0.00893 109.22450 112.57906
117.0 0.00855 109.15679 112.49770
116.0 0.00862 109.08916 112.41792
121.0 0.00826 109.02166 112.33973
95.0 0.01053 108.95423 112.26311
108.0 0.00926 108.88689 112.18813
118.0 0.00847 108.81966 112.11476
112.0 0.00893 108.75251 112.04307
106.0 0.00943 108.68550 111.97305
110.0 0.00909 108.61856 111.90472
124.0 0.00806 108.55171 111.83813
117.0 0.00855 108.48499 111.77334
112.0 0.00893 108.41836 111.71039
93.0 0.01075 108.35184 111.64930
94.0 0.01064 108.28542 111.59011
115.0 0.00870 108.21912 111.53291
99.0 0.01010 108.15292 111.47776
117.0 0.00855 108.08681 111.42466
118.0 0.00847 108.02084 111.37376
123.0 0.00813 107.95496 111.32510
117.0 0.00855 107.88920 111.27879
126.0 0.00794 107.82359 111.23489
115.0 0.00870 107.75805 111.19353
123.0 0.00813 107.69264 111.15480
107.0 0.00935 107.62733 111.11880
94.0 0.01064 107.56217 111.08569
107.0 0.00935 107.49711 111.05560
100.0 0.01000 107.43215 111.02868
110.0 0.00909 107.36735 111.00507
103.0 0.00971 107.30266 110.98500
113.0 0.00885 107.23807 110.96864
98.0 0.01020 107.17363 110.95619
110.0 0.00909 107.10931 110.94791
95.0 0.01053 107.04510 109.94547
107.0 0.00935 106.98106 109.95783
118.0 0.00847 106.91711 109.97502
101.0 0.00990 106.85330 109.99689
95.0 0.01053 106.78963 110.02473
115.0 0.00870 106.72608 110.05849
87.0 0.01149 106.66265 110.09863
114.0 0.00877 106.59938 109.64422
112.0 0.00893 106.53624 109.70447
122.0 0.00820 106.47324 109.77269
108.0 0.00926 106.41035 109.84949
96.0 0.01042 106.34763 109.93549
114.0 0.00877 106.28502 110.04865
115.0 0.00870 106.22256 110.15642
90.0 0.01111 106.16026 110.27641
122.0 0.00820 106.09809 110.40984
109.0 0.00917 106.03607 110.55797
105.0 0.00952 105.97418 110.72233
112.0 0.00893 105.91242 110.90470
101.0 0.00990 105.85085 111.10694
95.0 0.01053 105.78938 111.33133
106.0 0.00943 105.72809 111.58875
101.0 0.00990 105.66694 111.86546
102.0 0.00980 105.60594 112.17313
133.0 0.00752 105.54510 112.51567
109.0 0.00917 105.48438 112.89761
98.0 0.01020 105.42384 113.32427
136.0 0.00735 105.36344 113.80190
115.0 0.00870 105.30322 114.33789
128.0 0.00781 105.24311 114.94104
111.0 0.00901 105.18320 115.62188
102.0 0.00980 105.12340 116.39303
124.0 0.00806 105.06382 117.26991
125.0 0.00800 105.00436 118.27147
126.0 0.00794 104.94508 119.42131
141.0 0.00709 104.88595 120.74976
111.0 0.00901 104.82697 122.29737
113.0 0.00885 104.76816 124.12139
117.0 0.00855 104.70951 126.30802
130.0 0.00769 104.65103 128.99428
125.0 0.00800 104.59273 132.40453
114.0 0.00877 104.53458 136.90614
143.0 0.00699 104.47662 143.08394
116.0 0.00862 104.41879 151.82283
174.0 0.00575 104.36115 164.37317
163.0 0.00613 104.30369 182.35294
203.0 0.00493 104.24638 207.62979
227.0 0.00441 104.18925 242.02431
258.0 0.00388 104.13229 286.79123
300.0 0.003333 104.07549 341.86685
388.0 0.002577 104.01891 404.98489
468.0 0.002137 103.96246 471.12314
552.0 0.001812 103.90619 532.98804
636.0 0.001572 103.85012 582.10492
594.0 0.001684 103.79421 609.66248
570.0 0.001754 103.73847 609.87860
561.0 0.001783 103.68295 585.81348
487.0 0.002053 103.62758 548.85010
455.0 0.002198 103.57239 511.05203
476.0 0.002101 103.51740 479.57693
426.0 0.002347 103.46256 456.00955
428.0 0.002336 103.40792 437.86411
432.0 0.002315 103.35347 420.08279
431.0 0.002320 103.29922 396.86972
398.0 0.002513 103.24512 365.21448
372.0 0.002688 103.19124 327.11276
286.0 0.003497 103.13752 287.32462
256.0 0.00391 103.08398 250.06415
236.0 0.00424 103.03068 217.83292
216.0 0.00463 102.97752 191.64368
154.0 0.00649 102.92456 171.46162
122.0 0.00820 102.87181 156.58492
135.0 0.00741 102.81923 145.98053
129.0 0.00775 102.76685 138.56375
121.0 0.00826 102.71468 133.38504
122.0 0.00820 102.66268 129.71457
108.0 0.00926 102.61090 127.04614
137.0 0.00730 102.55929 125.05640
107.0 0.00935 102.50788 123.55238
117.0 0.00855 102.45668 122.42638
114.0 0.00877 102.40568 121.62635
106.0 0.00943 102.35485 121.14092
113.0 0.00885 102.30428 120.99958
132.0 0.00758 102.25384 121.28433
140.0 0.00714 102.20364 122.15211
108.0 0.00926 102.15363 123.86314
133.0 0.00752 102.10381 126.80608
128.0 0.00781 102.05422 131.50287
134.0 0.00746 102.00481 138.57106
135.0 0.00741 101.95560 148.62148
165.0 0.00606 101.90663 162.07480
164.0 0.00610 101.85786 178.89841
187.0 0.00535 101.80927 198.30399
211.0 0.00474 101.76089 218.56839
232.0 0.00431 101.71273 237.21458
247.0 0.00405 101.66476 251.40498
283.0 0.00353 101.61700 258.33356
257.0 0.00389 101.56947 256.52390
270.0 0.00370 101.52215 247.52464
215.0 0.00465 101.47504 235.18848
194.0 0.00515 101.42811 223.19487
184.0 0.00543 101.38142 213.62314
198.0 0.00505 101.33494 206.84091
210.0 0.00476 101.28867 201.91818
192.0 0.00521 101.24260 197.10992
183.0 0.00546 101.19677 190.48880
180.0 0.00556 101.15113 181.08601
175.0 0.00571 101.10571 169.54630
163.0 0.00613 101.06052 157.36372
146.0 0.00685 101.01553 145.87256
145.0 0.00690 100.97079 135.90556
120.0 0.00833 100.92622 127.82745
108.0 0.00926 100.88190 121.66570
116.0 0.00862 100.83779 117.14354
103.0 0.00971 100.79390 113.93877
106.0 0.00943 100.75022 111.69488
105.0 0.00952 100.70676 110.10691
106.0 0.00943 100.66355 108.94654
114.0 0.00877 100.62055 108.05926
114.0 0.00877 100.57774 107.36848
107.0 0.00935 100.53519 106.78674
100.0 0.01000 100.49284 106.28984
104.0 0.00962 100.45072 105.84548
103.0 0.00971 100.40884 105.45164
107.0 0.00935 100.36716 105.09920
101.0 0.00990 100.32574 104.78153
90.0 0.01111 100.28451 104.49329
91.0 0.01099 100.24351 104.23036
92.0 0.01087 100.20274 103.99938
92.0 0.01087 100.16220 103.77744
97.0 0.01031 100.12189 103.57764
103.0 0.00971 100.08181 103.38714
112.0 0.00893 100.04195 103.20964
77.0 0.01299 100.00233 103.04376
104.0 0.00962 99.96294 102.88827
102.0 0.00980 99.92377 102.74210
91.0 0.01099 99.88482 102.60437
88.0 0.01136 99.84612 102.47433
95.0 0.01053 99.80763 102.35128
86.0 0.01163 99.76940 102.23455
104.0 0.00962 99.73140 102.12377
103.0 0.00971 99.69363 102.01837
109.0 0.00917 99.65605 101.91795
97.0 0.01031 99.61874 101.82224
89.0 0.01124 99.58165 101.73083
97.0 0.01031 99.54482 101.64352
118.0 0.00847 99.50818 101.56005
94.0 0.01064 99.47182 101.48022
104.0 0.00962 99.43567 101.40375
117.0 0.00855 99.39977 101.33059
106.0 0.00943 99.36409 101.26057
114.0 0.00877 99.32867 101.19352
118.0 0.00847 99.29346 101.12935
99.0 0.01010 99.25850 101.06800
109.0 0.00917 99.22376 101.00937
85.0 0.01176 99.18929 100.95345
95.0 0.01053 99.15501 100.90012
114.0 0.00877 99.12101 100.84938
110.0 0.00909 99.08723 100.80126
106.0 0.00943 99.05370 100.75568
97.0 0.01031 99.02040 100.71269
99.0 0.01010 98.98735 100.67237
109.0 0.00917 98.95454 100.63467
97.0 0.01031 98.92194 100.59976
106.0 0.00943 98.88960 100.56763
106.0 0.00943 98.85751 100.53845
112.0 0.00893 98.82566 100.51235
98.0 0.01020 98.79404 100.48944
92.0 0.01087 98.76267 100.46986
94.0 0.01064 98.73154 100.45389
96.0 0.01042 98.70065 100.44178
83.0 0.01205 98.66999 100.43376
93.0 0.01075 98.63959 100.43031
96.0 0.01042 98.60942 100.43172
81.0 0.01235 98.57952 100.43854
109.0 0.00917 98.54981 100.45124
82.0 0.01220 98.52039 100.47065
93.0 0.01075 98.49120 100.49741
114.0 0.00877 98.46225 100.53249
101.0 0.00990 98.43356 100.57706
90.0 0.01111 98.40510 100.63239
90.0 0.01111 98.37688 100.70016
106.0 0.00943 98.34891 100.78232
104.0 0.00962 98.32117 100.88126
93.0 0.01075 98.29369 101.00001
97.0 0.01031 98.26645 101.14241
92.0 0.01087 98.23947 101.31355
98.0 0.01020 98.21272 101.52035
94.0 0.01064 98.18622 101.77338
99.0 0.01010 98.15998 102.08939
92.0 0.01087 98.13397 102.49627
109.0 0.00917 98.10820 103.04128
90.0 0.01111 98.08267 103.80287
96.0 0.01042 98.05740 104.90478
116.0 0.00862 98.03239 106.52993
89.0 0.01124 98.00763 108.92518
100.0 0.01000 97.98309 112.38757
118.0 0.00847 97.95882 117.22130
112.0 0.00893 97.93475 123.65730
133.0 0.00752 97.91098 131.73817
137.0 0.00730 97.88742 141.17827
139.0 0.00719 97.86414 151.24478
163.0 0.00613 97.84109 160.76045
167.0 0.00599 97.81831 168.28223
171.0 0.00585 97.79573 172.37273
168.0 0.00595 97.77343 172.15353
169.0 0.00592 97.75136 168.11574
173.0 0.00578 97.72955 162.04189
150.0 0.00667 97.70800 155.88742
135.0 0.00741 97.68669 150.92357
124.0 0.00806 97.66562 147.55804
161.0 0.00621 97.64480 145.47279
146.0 0.00685 97.62422 143.86650
147.0 0.00680 97.60390 141.73351
158.0 0.00633 97.58384 138.28049
134.0 0.00746 97.56400 133.41595
131.0 0.00763 97.54441 127.73540
121.0 0.00826 97.52508 122.00405
107.0 0.00935 97.50598 116.78745
117.0 0.00855 97.48716 112.39090
97.0 0.01031 97.46857 108.91160
109.0 0.00917 97.45022 106.30061
108.0 0.00926 97.43214 104.42191
85.0 0.01176 97.41428 103.10608
113.0 0.00885 97.39668 102.19109
83.0 0.01205 97.37933 101.54520
111.0 0.00901 97.36226 101.07319
121.0 0.00826 97.34538 100.71227
85.0 0.01176 97.32877 100.42391
106.0 0.00943 97.31242 100.18528
87.0 0.01149 97.29630 99.98278
84.0 0.01190 97.28045 99.80817
99.0 0.01010 97.26482 99.65605
94.0 0.01064 97.24944 99.52251
86.0 0.01163 97.23432 99.40470
109.0 0.00917 97.21945 99.30037
88.0 0.01136 97.20483 99.20762
83.0 0.01205 97.19044 99.12505
90.0 0.01111 97.17630 99.05138
89.0 0.01124 97.16241 98.98563
108.0 0.00926 97.14876 98.92695
105.0 0.00952 97.13536 98.87460
105.0 0.00952 97.12222 98.82803
94.0 0.01064 97.10933 98.78674
95.0 0.01053 97.09665 98.75032
103.0 0.00971 97.08424 98.71838
76.0 0.01316 97.07207 98.56579
86.0 0.01163 97.06016 98.54339
91.0 0.01099 97.04849 98.52475
109.0 0.00917 97.03705 98.50969
95.0 0.01053 97.02584 98.49815
93.0 0.01075 97.01492 98.49004
82.0 0.01220 97.00423 98.48520
85.0 0.01176 96.99378 98.48370
102.0 0.00980 96.98357 98.42303
83.0 0.01205 96.97360 98.42876
98.0 0.01020 96.96387 98.43786
109.0 0.00917 96.95441 98.45034
96.0 0.01042 96.94518 98.46628
108.0 0.00926 96.93620 98.48586
110.0 0.00909 96.92744 98.75471
85.0 0.01176 96.91894 98.78445
93.0 0.01075 96.91068 98.81832
97.0 0.01031 96.90266 98.85659
100.0 0.01000 96.89487 98.89946
95.0 0.01053 96.88736 98.94725
116.0 0.00862 96.88006 99.00037
90.0 0.01111 96.87299 99.01906
106.0 0.00943 96.86620 99.08446
107.0 0.00935 96.85962 99.15548
85.0 0.01176 96.85330 99.35750
101.0 0.00990 96.84721 99.44604
86.0 0.01163 96.84135 99.54338
97.0 0.01031 96.83574 99.65041
100.0 0.01000 96.83038 99.76817
90.0 0.01111 96.82523 99.87778
100.0 0.01000 96.82036 100.02110
79.0 0.01266 96.81570 100.17941
99.0 0.01010 96.81128 100.35419
93.0 0.01075 96.80710 100.54875
104.0 0.00962 96.80315 100.76526
100.0 0.01000 96.79945 101.00697
95.0 0.01053 96.79600 101.27779
95.0 0.01053 96.79278 101.58239
98.0 0.01020 96.78979 101.92669
93.0 0.01075 96.78702 102.31802
117.0 0.00855 96.78450 102.76616
106.0 0.00943 96.78220 103.28469
101.0 0.00990 96.78017 103.89377
102.0 0.00980 96.77835 104.62511
100.0 0.01000 96.77676 105.53000
92.0 0.01087 96.77540 106.69167
110.0 0.00909 96.77428 108.24143
99.0 0.01010 96.77341 110.37598
122.0 0.00820 96.77277 113.36997
115.0 0.00870 96.77232 117.57352
112.0 0.00893 96.77214 123.38449
135.0 0.00741 96.77219 131.18655
141.0 0.00709 96.77245 141.25385
169.0 0.00592 96.77296 153.62772
160.0 0.00625 96.77371 167.98346
204.0 0.00490 96.77466 183.53259
198.0 0.00505 96.77586 199.06215
219.0 0.00457 96.77729 213.16333
240.0 0.00417 96.77892 224.65384
236.0 0.00424 96.78081 233.30766
236.0 0.00424 96.78291 240.30678
278.0 0.00360 96.78523 247.40463
247.0 0.00405 96.78780 255.53177
267.0 0.00375 96.79060 264.14987
277.0 0.00361 96.79360 271.39059
281.0 0.00356 96.79684 274.71176
305.0 0.003279 96.80029 272.15424
300.0 0.003333 96.80399 263.50665
280.0 0.00357 96.80788 250.36252
259.0 0.00386 96.81201 235.30316
237.0 0.00422 96.81637 220.83174
233.0 0.00429 96.82095 208.51353
210.0 0.00476 96.82575 198.69296
181.0 0.00552 96.83076 190.69019
202.0 0.00495 96.83601 183.22850
198.0 0.00505 96.84147 175.08539
168.0 0.00595 96.84715 165.77722
170.0 0.00588 96.85303 155.70465
159.0 0.00629 96.85915 145.69308
109.0 0.00917 96.86548 136.48409
136.0 0.00735 96.87204 128.52994
120.0 0.00833 96.87880 122.00803
117.0 0.00855 96.88579 116.89266
106.0 0.00943 96.89300 113.02541
109.0 0.00917 96.90040 110.17956
112.0 0.00893 96.90804 108.11436
111.0 0.00901 96.91586 106.61304
113.0 0.00885 96.92394 105.50234
107.0 0.00935 96.93221 104.65601
84.0 0.01190 96.94069 103.98841
101.0 0.00990 96.94937 103.44441
110.0 0.00909 96.95828 102.98946
96.0 0.01042 96.96740 102.60181
98.0 0.01020 96.97673 102.26742
108.0 0.00926 96.98626 101.97662
82.0 0.01220 96.99602 101.72231
102.0 0.00980 97.00594 101.49917
95.0 0.01053 97.01611 101.30291
101.0 0.00990 97.02647 101.13005
101.0 0.00990 97.03706 100.97783
82.0 0.01220 97.04784 100.84407
99.0 0.01010 97.05881 101.20625
111.0 0.00901 97.07001 101.10912
90.0 0.01111 97.08138 101.02668
104.0 0.00962 97.09298 100.95850
105.0 0.00952 97.10478 100.90424
101.0 0.00990 97.11678 100.86359
92.0 0.01087 97.12897 100.83575
98.0 0.01020 97.14137 100.81937
97.0 0.01031 97.15397 100.81194
92.0 0.01087 97.16678 100.80969
89.0 0.01124 97.17979 101.04597
92.0 0.01087 97.19296 101.04078
92.0 0.01087 97.20635 101.02827
103.0 0.00971 97.21995 101.02666
97.0 0.01031 97.23373 101.00988
104.0 0.00962 97.24772 100.99824
109.0 0.00917 97.26189 100.99471
98.0 0.01020 97.27625 101.00024
96.0 0.01042 97.29081 101.01412
99.0 0.01010 97.30556 101.03404
100.0 0.01000 97.32051 101.05666
106.0 0.00943 97.33564 101.07916
101.0 0.00990 97.35096 101.10081
102.0 0.00980 97.36646 101.13068
113.0 0.00885 97.38216 101.15540
110.0 0.00909 97.39806 101.18427
95.0 0.01053 97.41412 101.21841
96.0 0.01042 97.43040 101.25816
123.0 0.00813 97.44686 101.30373
95.0 0.01053 97.46347 101.35479
106.0 0.00943 97.48029 101.41111
103.0 0.00971 97.49728 101.47221
119.0 0.00840 97.51449 101.53786
112.0 0.00893 97.53186 101.60778
106.0 0.00943 97.54938 101.68189
94.0 0.01064 97.56710 101.76011
92.0 0.01087 97.58501 101.84248
100.0 0.01000 97.60311 101.92906
121.0 0.00826 97.62136 102.02000
108.0 0.00926 97.63981 102.11536
107.0 0.00935 97.65841 102.21536
118.0 0.00847 97.67721 102.32016
90.0 0.01111 97.69617 102.42999
110.0 0.00909 97.71532 102.54503
113.0 0.00885 97.73462 102.66553
93.0 0.01075 97.75412 102.79179
111.0 0.00901 97.77377 102.92411
99.0 0.01010 97.79358 103.06277
94.0 0.01064 97.81359 103.20817
96.0 0.01042 97.83376 103.34391
111.0 0.00901 97.85410 103.50414
109.0 0.00917 97.87460 103.67239
110.0 0.00909 97.89527 103.85212
103.0 0.00971 97.91611 104.03797
128.0 0.00781 97.93710 104.23351
116.0 0.00862 97.95827 104.43946
110.0 0.00909 97.97958 104.65652
97.0 0.01031 98.00108 104.88554
104.0 0.00962 98.02273 105.11911
101.0 0.00990 98.04453 105.37494
124.0 0.00806 98.06651 105.64577
106.0 0.00943 98.08864 105.93719
120.0 0.00833 98.11092 106.24336
100.0 0.01000 98.13338 106.56721
106.0 0.00943 98.15598 106.91193
95.0 0.01053 98.17873 107.27936
110.0 0.00909 98.20164 107.67171
115.0 0.00870 98.22472 109.12202
104.0 0.00962 98.24792 109.58260
117.0 0.00855 98.27130 110.07654
121.0 0.00826 98.29482 110.60734
97.0 0.01031 98.31850 111.17896
105.0 0.00952 98.34232 111.79821
122.0 0.00820 98.36629 112.46603
121.0 0.00826 98.39041 113.19050
110.0 0.00909 98.41467 113.97871
110.0 0.00909 98.43908 114.83879
110.0 0.00909 98.46363 116.29198
124.0 0.00806 98.48834 117.33109
115.0 0.00870 98.51318 118.47574
136.0 0.00735 98.53816 119.74135
123.0 0.00813 98.56329 121.14645
119.0 0.00840 98.58855 122.71307
129.0 0.00775 98.61397 124.46800
138.0 0.00725 98.63949 126.44360
125.0 0.00800 98.66518 128.68004
131.0 0.00763 98.69099 131.22752
128.0 0.00781 98.71694 134.15131
120.0 0.00833 98.74303 137.54016
137.0 0.00730 98.76926 141.52429
137.0 0.00730 98.79560 146.30981
128.0 0.00781 98.82209 152.24457
142.0 0.00704 98.84872 159.93134
159.0 0.00629 98.87547 170.40265
154.0 0.00649 98.90234 185.35088
187.0 0.00535 98.92934 207.36356
240.0 0.00417 98.95648 240.04913
271.0 0.00369 98.98372 287.88058
299.0 0.003344 99.01111 355.57846
392.0 0.002551 99.03862 446.95480
499.0 0.002004 99.06625 563.32471
648.0 0.001543 99.09401 701.74860
768.0 0.001302 99.12188 853.29657
874.0 0.001144 99.14987 1001.37903
1056.0 0.000947 99.17799 1121.25989
1064.0 0.000940 99.20622 1185.44861
1143.0 0.000875 99.23455 1178.82324
1080.0 0.000926 99.26302 1111.51270
1022.0 0.000978 99.29160 1012.15045
959.0 0.001043 99.32030 910.49524
877.0 0.001140 99.34911 827.39288
810.0 0.001235 99.37804 772.96271
742.0 0.001348 99.40707 747.31030
708.0 0.001412 99.43619 741.48419
718.0 0.001393 99.46545 739.27441
690.0 0.001449 99.49482 722.36951
737.0 0.001357 99.52427 679.65894
656.0 0.001524 99.55386 613.16339
606.0 0.001650 99.58354 533.61841
504.0 0.001984 99.61333 452.40845
446.0 0.002242 99.64320 377.70163
374.0 0.002674 99.67319 314.13263
311.0 0.003215 99.70329 263.43475
279.0 0.00358 99.73348 225.18532
215.0 0.00465 99.76379 197.60789
196.0 0.00510 99.79417 178.34915
173.0 0.00578 99.82465 165.08784
150.0 0.00667 99.85524 155.89082
154.0 0.00649 99.88592 149.33296
134.0 0.00746 99.91668 144.45810
144.0 0.00694 99.94755 140.66867
123.0 0.00813 99.97849 137.60800
146.0 0.00685 100.00954 135.06613
113.0 0.00885 100.04069 132.91656
124.0 0.00806 100.07193 131.07843
119.0 0.00840 100.10324 129.49612
107.0 0.00935 100.13465 128.12848
143.0 0.00699 100.16613 126.94362
117.0 0.00855 100.19772 125.91594
127.0 0.00787 100.22936 125.02468
122.0 0.00820 100.26111 124.25407
137.0 0.00730 100.29292 123.58693
124.0 0.00806 100.32483 123.01282
121.0 0.00826 100.35681 122.52167
138.0 0.00725 100.38887 122.10506
133.0 0.00752 100.42101 121.75586
113.0 0.00885 100.45324 121.46804
133.0 0.00752 100.48553 121.23643
133.0 0.00752 100.51788 121.05679
114.0 0.00877 100.55033 120.90281
123.0 0.00813 100.58283 120.81680
129.0 0.00775 100.61542 120.77405
120.0 0.00833 100.64809 120.77098
141.0 0.00709 100.68080 120.80653
133.0 0.00752 100.71358 120.87926
131.0 0.00763 100.74644 120.96784
135.0 0.00741 100.77936 121.11216
115.0 0.00870 100.81236 121.28031
134.0 0.00746 100.84541 121.48266
115.0 0.00870 100.87852 121.73072
125.0 0.00800 100.91172 122.01333
123.0 0.00813 100.94493 122.33083
129.0 0.00775 100.97823 122.68391
101.0 0.00990 101.01159 123.07338
122.0 0.00820 101.04498 123.50038
137.0 0.00730 101.07847 123.95623
147.0 0.00680 101.11199 124.45717
132.0 0.00758 101.14557 125.00602
135.0 0.00741 101.17918 125.59937
132.0 0.00758 101.21288 126.23975
139.0 0.00719 101.24662 126.93010
148.0 0.00676 101.28041 127.67362
141.0 0.00709 101.31423 128.47404
142.0 0.00704 101.34811 129.33563
147.0 0.00680 101.38204 130.26317
139.0 0.00719 101.41601 131.26204
133.0 0.00752 101.45003 132.33846
144.0 0.00694 101.48409 133.49937
144.0 0.00694 101.51818 134.75279
125.0 0.00800 101.55233 136.10780
140.0 0.00714 101.58652 137.57480
154.0 0.00649 101.62075 139.16588
145.0 0.00690 101.65499 140.89470
165.0 0.00606 101.68930 142.77718
145.0 0.00690 101.72363 144.83200
158.0 0.00633 101.75799 147.08078
150.0 0.00667 101.79241 149.54893
143.0 0.00699 101.82684 152.26720
158.0 0.00633 101.86131 155.27261
153.0 0.00654 101.89580 158.61169
127.0 0.00787 101.93033 162.34453
148.0 0.00676 101.96487 166.55183
178.0 0.00562 101.99945 171.34528
183.0 0.00546 102.03405 176.88148
164.0 0.00610 102.06870 183.37799
193.0 0.00518 102.10333 191.12814
205.0 0.00488 102.13802 200.51018
200.0 0.00500 102.17271 211.98744
221.0 0.00452 102.20744 226.10390
206.0 0.00485 102.24216 243.49249
213.0 0.00469 102.27692 264.92386
289.0 0.003460 102.31171 291.42419
275.0 0.00364 102.34649 324.46045
327.0 0.003058 102.38129 366.17419
388.0 0.002577 102.41611 419.70953
410.0 0.002439 102.45096 489.76019
489.0 0.002045 102.48579 583.01086
628.0 0.001592 102.52064 707.37915
746.0 0.001340 102.55550 869.67236
991.0 0.001009 102.59039 1072.71143
1202.0 0.000832 102.62526 1312.70947
1493.0 0.000670 102.66013 1576.74609
1721.0 0.000581 102.69505 1839.98828
1969.0 0.000508 102.72994 2064.14795
2087.0 0.000479 102.76483 2203.69214
2193.0 0.000456 102.79974 2226.71973
2063.0 0.000485 102.83463 2138.20703
1931.0 0.000518 102.86954 1978.15356
1775.0 0.000563 102.90442 1796.54382
1564.0 0.000639 102.93934 1632.86926
1481.0 0.000675 102.97421 1510.11267
1446.0 0.000692 103.00912 1435.56360
1349.0 0.000741 103.04398 1402.36096
1412.0 0.000708 103.07885 1390.94714
1404.0 0.000712 103.11372 1373.13855
1376.0 0.000727 103.14858 1322.74255
1236.0 0.000809 103.18343 1229.36914
1213.0 0.000824 103.21825 1102.06580
1017.0 0.000983 103.25310 959.29077
850.0 0.001176 103.28789 818.01563
737.0 0.001357 103.32271 689.72034
621.0 0.001610 103.35748 580.68835
516.0 0.001938 103.39223 493.18756
481.0 0.002079 103.42700 426.94934
411.0 0.002433 103.46172 378.74509
369.0 0.002710 103.49641 345.54156
310.0 0.003226 103.53111 323.90295
355.0 0.002817 103.56578 310.83890
316.0 0.003165 103.60042 304.05853
299.0 0.003344 103.63503 301.99539
326.0 0.003067 103.66963 303.72348
301.0 0.003322 103.70419 308.80423
298.0 0.003356 103.73875 317.25934
300.0 0.003333 103.77324 329.53940
299.0 0.003344 103.80774 346.83655
320.0 0.003125 103.84216 370.61368
337.0 0.002967 103.87659 404.10303
389.0 0.002571 103.91097 452.14328
393.0 0.002545 103.94532 521.87659
536.0 0.001866 103.97964 623.03473
647.0 0.001546 104.01392 767.60028
831.0 0.001203 104.04816 968.46832
1074.0 0.000931 104.08237 1236.89172
1387.0 0.000721 104.11655 1578.97278
1871.0 0.000534 104.15067 1991.61499
2403.0 0.000416 104.18475 2458.23218
2864.0 0.0003492 104.21880 2943.83252
3347.0 0.0002988 104.25279 3390.27295
3642.0 0.0002746 104.28674 3718.83594
3891.0 0.0002570 104.32063 3855.37451
3662.0 0.0002731 104.35452 3776.18750
3380.0 0.0002959 104.38832 3529.58862
3162.0 0.0003163 104.42210 3204.10205
3013.0 0.0003319 104.45580 2882.67676
2812.0 0.000356 104.48946 2621.13428
2428.0 0.000412 104.52308 2446.06616
2333.0 0.000429 104.55664 2357.62280
2367.0 0.000422 104.59013 2331.92969
2397.0 0.000417 104.62358 2324.69849
2326.0 0.000430 104.65698 2282.41504
2158.0 0.000463 104.69034 2165.68408
2052.0 0.000487 104.72360 1970.22107
1766.0 0.000566 104.75682 1722.48279
1559.0 0.000641 104.78996 1457.45154
1330.0 0.000752 104.82307 1203.09338
1083.0 0.000923 104.85611 976.91272
901.0 0.001110 104.88909 787.48041
748.0 0.001337 104.92199 636.60199
609.0 0.001642 104.95484 521.39386
533.0 0.001876 104.98761 436.27155
403.0 0.002481 105.02031 374.67929
371.0 0.002695 105.05296 330.37070
310.0 0.003226 105.08552 298.14813
295.0 0.003390 105.11802 274.44540
283.0 0.00353 105.15045 255.88086
242.0 0.00413 105.18281 241.01770
208.0 0.00481 105.21508 228.73793
242.0 0.00413 105.24731 218.34288
208.0 0.00481 105.27941 209.38693
235.0 0.00426 105.31148 201.57359
203.0 0.00493 105.34346 194.69415
218.0 0.00459 105.37534 188.59375
206.0 0.00485 105.40718 183.15265
192.0 0.00521 105.43890 178.27548
201.0 0.00498 105.47056 174.05302
189.0 0.00529 105.50212 170.08629
176.0 0.00568 105.53364 166.48875
185.0 0.00541 105.56502 162.96872
165.0 0.00606 105.59633 159.98372
158.0 0.00633 105.62759 157.25201
157.0 0.00637 105.65872 154.74564
176.0 0.00568 105.68977 152.44035
158.0 0.00633 105.72073 150.31532
157.0 0.00637 105.75161 148.35219
152.0 0.00658 105.78239 146.53503
152.0 0.00658 105.81309 144.84988
154.0 0.00649 105.84368 143.28432
167.0 0.00599 105.87418 141.70486
168.0 0.00595 105.90461 140.34851
149.0 0.00671 105.93491 139.08266
154.0 0.00649 105.96513 137.89970
166.0 0.00602 105.99522 136.79280
166.0 0.00602 106.02526 135.75577
161.0 0.00621 106.05516 134.78317
172.0 0.00581 106.08495 133.87004
152.0 0.00658 106.11469 133.01192
136.0 0.00735 106.14429 132.20477
158.0 0.00633 106.17381 131.44495
153.0 0.00654 106.20320 130.72914
138.0 0.00725 106.23250 130.05432
155.0 0.00645 106.26166 129.41772
154.0 0.00649 106.29077 128.81700
168.0 0.00595 106.31973 128.24968
140.0 0.00714 106.34858 127.71383
156.0 0.00641 106.37733 127.20752
173.0 0.00578 106.40596 126.72905
154.0 0.00649 106.43449 126.27682
140.0 0.00714 106.46291 125.84943
125.0 0.00800 106.49120 125.44552
146.0 0.00685 106.51937 125.06396
156.0 0.00641 106.54745 124.70375
142.0 0.00704 106.57539 124.36385
173.0 0.00578 106.60321 124.04350
135.0 0.00741 106.63092 123.74195
148.0 0.00676 106.65852 123.45863
165.0 0.00606 106.68600 123.19314
155.0 0.00645 106.71332 122.94516
149.0 0.00671 106.74055 122.71476
161.0 0.00621 106.76766 122.50241
138.0 0.00725 106.79462 122.30923
118.0 0.00847 106.82147 122.13754
122.0 0.00820 106.84821 121.99149
138.0 0.00725 106.87482 121.87786
127.0 0.00787 106.90128 121.80682
127.0 0.00787 106.92762 121.79264
147.0 0.00680 106.95382 121.85318
148.0 0.00676 106.97990 122.00842
145.0 0.00690 107.00585 122.27692
133.0 0.00752 107.03167 122.67110
118.0 0.00847 107.05737 123.19091
136.0 0.00735 107.08292 123.81739
146.0 0.00685 107.10831 124.50586
173.0 0.00578 107.13360 125.17825
145.0 0.00690 107.15873 125.72109
144.0 0.00694 107.18374 126.00751
147.0 0.00680 107.20862 125.95779
165.0 0.00606 107.23335 125.59787
155.0 0.00645 107.25793 125.04593
140.0 0.00714 107.28237 124.44302
159.0 0.00629 107.30669 123.90083
145.0 0.00690 107.33083 123.48643
134.0 0.00746 107.35486 123.22475
129.0 0.00775 107.37875 123.10233
142.0 0.00704 107.40247 123.07095
147.0 0.00680 107.42606 123.05459
163.0 0.00613 107.44951 122.97046
132.0 0.00758 107.47279 122.76612
137.0 0.00730 107.49593 122.44537
140.0 0.00714 107.51891 122.05416
153.0 0.00654 107.54177 121.64700
131.0 0.00763 107.56448 121.26603
135.0 0.00741 107.58701 120.93781
130.0 0.00769 107.60941 120.67538
127.0 0.00787 107.63163 120.48171
135.0 0.00741 107.65373 120.35267
134.0 0.00746 107.67566 120.65681
143.0 0.00699 107.69745 120.63347
136.0 0.00735 107.71905 120.64655
123.0 0.00813 107.74052 120.68798
123.0 0.00813 107.76183 120.75160
136.0 0.00735 107.78298 120.83321
145.0 0.00690 107.80398 120.93015
119.0 0.00840 107.82478 121.04091
109.0 0.00917 107.84545 121.16459
129.0 0.00775 107.86596 121.30093
126.0 0.00794 107.88633 121.44984
119.0 0.00840 107.90648 121.61144
123.0 0.00813 107.92651 121.97491
140.0 0.00714 107.94637 122.16475
115.0 0.00870 107.96605 122.36846
106.0 0.00943 107.98560 122.58669
131.0 0.00763 108.00494 122.81994
133.0 0.00752 108.02413 123.06911
110.0 0.00909 108.04316 123.33495
144.0 0.00694 108.06202 123.61841
137.0 0.00730 108.08070 123.92047
116.0 0.00862 108.09922 124.24236
99.0 0.01010 108.11755 124.58521
117.0 0.00855 108.13574 124.95051
121.0 0.00826 108.15375 125.33976
128.0 0.00781 108.17157 125.75472
113.0 0.00885 108.18923 126.19721
110.0 0.00909 108.20672 126.66937
155.0 0.00645 108.22403 127.17357
112.0 0.00893 108.24116 127.71231
116.0 0.00862 108.25813 128.28857
127.0 0.00787 108.27489 128.90552
120.0 0.00833 108.29150 129.56671
120.0 0.00833 108.30793 130.27634
142.0 0.00704 108.32420 131.03880
105.0 0.00952 108.34026 131.85928
155.0 0.00645 108.35614 132.74350
129.0 0.00775 108.37186 133.69812
133.0 0.00752 108.38741 134.73044
136.0 0.00735 108.40274 135.84908
134.0 0.00746 108.41789 137.06371
126.0 0.00794 108.43288 138.38541
144.0 0.00694 108.44769 139.82716
152.0 0.00658 108.46231 141.40381
144.0 0.00694 108.47674 143.13268
132.0 0.00758 108.49098 145.03398
160.0 0.00625 108.50504 147.13142
152.0 0.00658 108.51891 149.45311
153.0 0.00654 108.53259 152.03238
155.0 0.00645 108.54609 154.90894
131.0 0.00763 108.55941 158.13118
149.0 0.00671 108.57253 161.75838
157.0 0.00637 108.58547 165.86562
161.0 0.00621 108.59821 170.55124
161.0 0.00621 108.61078 175.47295
192.0 0.00521 108.62314 181.79346
164.0 0.00610 108.63528 189.34021
174.0 0.00575 108.64728 198.61038
209.0 0.00478 108.65906 210.40320
207.0 0.00483 108.67065 225.97824
227.0 0.00441 108.68206 247.24060
256.0 0.00391 108.69328 276.90866
286.0 0.003497 108.70427 318.58307
301.0 0.003322 108.71510 376.60931
415.0 0.002410 108.72573 455.37186
488.0 0.002049 108.73614 559.50433
637.0 0.001570 108.74638 691.21240
807.0 0.001239 108.75641 849.97620
1053.0 0.000950 108.76624 1030.88123
1289.0 0.000776 108.77586 1223.09229
1557.0 0.000642 108.78529 1408.27124
1616.0 0.000619 108.79455 1560.33093
1695.0 0.000590 108.80357 1650.63538
1668.0 0.000600 108.81240 1661.29834
1601.0 0.000625 108.82104 1597.70801
1521.0 0.000657 108.82948 1485.94897
1361.0 0.000735 108.83773 1358.03833
1289.0 0.000776 108.84576 1239.98315
1212.0 0.000825 108.85358 1147.90454
1137.0 0.000880 108.86120 1088.38647
1022.0 0.000978 108.86862 1059.69641
1093.0 0.000915 108.87586 1053.07117
1067.0 0.000937 108.88287 1052.80957
1067.0 0.000937 108.88968 1040.75037
1019.0 0.000981 108.89630 1002.16443
942.0 0.001062 108.90269 933.31531
881.0 0.001135 108.90887 841.82495
779.0 0.001284 108.91487 740.09473
674.0 0.001484 108.92065 639.13538
576.0 0.001736 108.92622 546.36353
465.0 0.002151 108.93159 465.80402
436.0 0.002294 108.93678 398.92453
375.0 0.002667 108.94172 345.48627
307.0 0.003257 108.94646 304.33691
255.0 0.00392 108.95099 273.38345
223.0 0.00448 108.95534 250.69543
241.0 0.00415 108.95945 234.33598
233.0 0.00429 108.96334 222.66142
230.0 0.00435 108.96705 214.42766
217.0 0.00461 108.97054 208.74141
184.0 0.00543 108.97382 204.99765
205.0 0.00488 108.97686 202.80569
187.0 0.00535 108.97972 201.93053
194.0 0.00515 108.98237 202.25366
212.0 0.00472 108.98479 203.75598
204.0 0.00490 108.98701 206.52367
190.0 0.00526 108.98901 210.77486
191.0 0.00524 108.99081 216.95230
175.0 0.00571 108.99236 225.80127
226.0 0.00442 108.99373 238.53770
211.0 0.00474 108.99488 257.04221
235.0 0.00426 108.99581 284.00626
295.0 0.003390 108.99652 322.98401
354.0 0.002825 108.99703 378.21622
422.0 0.002370 108.99731 454.12701
522.0 0.001916 108.99739 554.45123
664.0 0.001506 108.99724 679.96265
832.0 0.001202 108.99687 831.51300
1018.0 0.000982 108.99629 1002.04950
1180.0 0.000847 108.99552 1179.52393
1304.0 0.000767 108.99450 1344.39868
1435.0 0.000697 108.99329 1470.25513
1437.0 0.000696 108.99183 1530.79761
1351.0 0.000740 108.99018 1513.97717
1329.0 0.000752 108.98829 1431.32617
1273.0 0.000786 108.98618 1311.05530
1117.0 0.000895 108.98388 1183.23792
1065.0 0.000939 108.98135 1070.71948
950.0 0.001053 108.97858 987.10553
975.0 0.001026 108.97561 937.39008
913.0 0.001095 108.97243 918.78998
938.0 0.001066 108.96902 921.42017
882.0 0.001134 108.96539 929.39679
884.0 0.001131 108.96154 924.23077
848.0 0.001179 108.95746 891.82001
811.0 0.001233 108.95318 829.31940
728.0 0.001374 108.94865 744.75732
663.0 0.001508 108.94394 650.29224
573.0 0.001745 108.93897 556.50708
528.0 0.001894 108.93382 470.59241
439.0 0.002278 108.92841 396.59125
364.0 0.002747 108.92281 336.05124
314.0 0.003185 108.91698 288.66733
274.0 0.00365 108.91092 252.91812
233.0 0.00429 108.90464 226.66478
220.0 0.00455 108.89813 207.67065
216.0 0.00463 108.89144 193.93074
166.0 0.00602 108.88451 183.83957
170.0 0.00588 108.87733 176.21870
183.0 0.00546 108.86994 170.26050
167.0 0.00599 108.86235 165.43929
162.0 0.00617 108.85451 161.42358
161.0 0.00621 108.84647 158.00621
153.0 0.00654 108.83821 155.05469
151.0 0.00662 108.82970 152.48093
167.0 0.00599 108.82098 150.22255
163.0 0.00613 108.81204 148.23297
140.0 0.00714 108.80288 146.47571
148.0 0.00676 108.79350 144.92146
144.0 0.00694 108.78389 143.54611
171.0 0.00585 108.77407 142.32964
131.0 0.00763 108.76402 141.25548
158.0 0.00633 108.75373 140.30949
145.0 0.00690 108.74324 139.48013
138.0 0.00725 108.73253 138.75742
137.0 0.00730 108.72159 138.13321
128.0 0.00781 108.71041 137.60075
110.0 0.00909 108.69903 137.15430
141.0 0.00709 108.68742 136.78947
149.0 0.00671 108.67559 136.50250
151.0 0.00662 108.66354 136.29082
130.0 0.00769 108.65124 136.15242
155.0 0.00645 108.63874 136.08611
140.0 0.00714 108.62601 136.09145
134.0 0.00746 108.61308 136.16882
137.0 0.00730 108.59991 136.31898
123.0 0.00813 108.58652 136.54376
116.0 0.00862 108.57292 136.84560
149.0 0.00671 108.55907 137.22780
136.0 0.00735 108.54501 137.69453
141.0 0.00709 108.53074 138.25095
125.0 0.00800 108.51623 138.90329
145.0 0.00690 108.50150 139.65895
149.0 0.00671 108.48655 140.52695
148.0 0.00676 108.47139 141.51773
174.0 0.00575 108.45599 142.64377
137.0 0.00730 108.44037 143.91977
130.0 0.00769 108.42455 145.36311
135.0 0.00741 108.40849 146.99435
158.0 0.00633 108.39220 148.83792
149.0 0.00671 108.37572 150.92311
157.0 0.00637 108.35899 153.28487
128.0 0.00781 108.34203 155.96574
159.0 0.00629 108.32487 159.01801
201.0 0.00498 108.30749 162.50627
158.0 0.00633 108.28989 166.52014
196.0 0.00510 108.27206 171.17764
191.0 0.00524 108.25401 176.65392
179.0 0.00559 108.23576 183.21846
161.0 0.00621 108.21725 191.30138
188.0 0.00532 108.19855 201.59248
188.0 0.00532 108.17963 215.18031
217.0 0.00461 108.16048 233.71861
226.0 0.00442 108.14111 259.58658
272.0 0.00368 108.12152 295.97678
318.0 0.003145 108.10172 346.82004
390.0 0.002564 108.08170 416.44067
465.0 0.002151 108.06145 508.89294
633.0 0.001580 108.04099 626.98480
783.0 0.001277 108.02030 771.09833
994.0 0.001006 107.99940 937.93140
1199.0 0.000834 107.97828 1119.18958
1394.0 0.000717 107.95693 1300.19043
1609.0 0.000622 107.93539 1458.97656
1673.0 0.000598 107.91363 1568.63440
1605.0 0.000623 107.89163 1606.60583
1518.0 0.000659 107.86945 1568.00317
1547.0 0.000646 107.84700 1469.99573
1435.0 0.000697 107.82439 1341.80737
1299.0 0.000770 107.80152 1211.56860
1132.0 0.000883 107.77845 1099.75598
1052.0 0.000951 107.75516 1018.18384
1024.0 0.000977 107.73167 970.71161
971.0 0.001030 107.70796 953.98224
1013.0 0.000987 107.68403 958.02869
990.0 0.001010 107.65988 967.32532
996.0 0.001004 107.63552 963.86639
970.0 0.001031 107.61095 933.55585
874.0 0.001144 107.58617 872.97955
775.0 0.001290 107.56116 788.63379
715.0 0.001399 107.53594 692.49994
604.0 0.001656 107.51054 595.33954
553.0 0.001808 107.48490 504.79385
449.0 0.002227 107.45905 425.42236
407.0 0.002457 107.43299 359.28400
345.0 0.002899 107.40671 306.52869
292.0 0.003425 107.38024 265.97882
246.0 0.00407 107.35353 235.70204
196.0 0.00510 107.32664 213.51390
206.0 0.00485 107.29955 197.34897
165.0 0.00606 107.27219 185.47337
175.0 0.00571 107.24467 176.68692
158.0 0.00633 107.21692 169.78496
171.0 0.00585 107.18898 164.25639
148.0 0.00676 107.16081 159.68761
158.0 0.00633 107.13244 155.81607
166.0 0.00602 107.10387 152.47462
155.0 0.00645 107.07510 149.55359
169.0 0.00592 107.04613 146.97763
127.0 0.00787 107.01691 144.69191
123.0 0.00813 106.98753 142.65419
140.0 0.00714 106.95792 140.83104
153.0 0.00654 106.92812 139.19505
141.0 0.00709 106.89809 137.72339
154.0 0.00649 106.86787 136.39705
129.0 0.00775 106.83746 135.19969
125.0 0.00800 106.80685 134.11772
132.0 0.00758 106.77602 133.13930
135.0 0.00741 106.74498 132.25432
115.0 0.00870 106.71376 131.45425
128.0 0.00781 106.68232 130.73169
145.0 0.00690 106.65069 130.08012
131.0 0.00763 106.61886 129.49413
136.0 0.00735 106.58683 128.96910
129.0 0.00775 106.55460 128.50084
144.0 0.00694 106.52216 128.08592
143.0 0.00699 106.48953 127.72154
131.0 0.00763 106.45670 127.40519
129.0 0.00775 106.42368 127.13489
122.0 0.00820 106.39046 126.90900
125.0 0.00800 106.35703 126.72637
113.0 0.00885 106.32341 126.58612
129.0 0.00775 106.28960 126.48766
99.0 0.01010 106.25561 126.43080
123.0 0.00813 106.22142 126.41570
113.0 0.00885 106.18703 126.44277
138.0 0.00725 106.15244 126.51283
144.0 0.00694 106.11765 126.62710
131.0 0.00763 106.08266 126.78705
127.0 0.00787 106.04751 126.99463
130.0 0.00769 106.01214 127.25220
107.0 0.00935 105.97662 127.56268
111.0 0.00901 105.94088 127.92946
106.0 0.00943 105.90492 128.35661
105.0 0.00952 105.86884 128.84882
119.0 0.00840 105.83251 129.41165
121.0 0.00826 105.79603 130.05161
133.0 0.00752 105.75934 130.40627
137.0 0.00730 105.72247 131.21622
123.0 0.00813 105.68544 132.14174
119.0 0.00840 105.64819 133.18355
143.0 0.00699 105.61076 134.35631
155.0 0.00645 105.57315 135.67783
135.0 0.00741 105.53537 137.17032
126.0 0.00794 105.49739 138.85251
140.0 0.00714 105.45923 140.77798
129.0 0.00775 105.42088 142.98438
149.0 0.00671 105.38238 145.53305
132.0 0.00758 105.34367 148.32018
140.0 0.00714 105.30479 151.81731
136.0 0.00735 105.26574 155.98773
165.0 0.00606 105.22648 161.00583
158.0 0.00633 105.18707 167.10962
151.0 0.00662 105.14746 174.62155
156.0 0.00641 105.10770 183.99178
175.0 0.00571 105.06775 195.85576
195.0 0.00513 105.02763 211.12770
216.0 0.00463 104.98734 231.04408
227.0 0.00441 104.94685 257.21805
283.0 0.00353 104.90621 291.62238
327.0 0.003058 104.86536 336.52734
361.0 0.002770 104.82439 394.34332
427.0 0.002342 104.78322 467.21393
603.0 0.001658 104.74190 556.29004
666.0 0.001502 104.70039 660.83777
816.0 0.001225 104.65871 777.36963
950.0 0.001053 104.61687 898.73492
1076.0 0.000929 104.57486 1013.26324
1151.0 0.000869 104.53267 1104.92957
1155.0 0.000866 104.49033 1156.82959
1036.0 0.000965 104.44781 1158.82104
1069.0 0.000935 104.40513 1114.12476
1004.0 0.000996 104.36229 1037.78052
941.0 0.001063 104.31929 948.72559
767.0 0.001304 104.27613 863.17181
763.0 0.001311 104.23280 792.21216
699.0 0.001431 104.18930 741.81519
713.0 0.001403 104.14564 713.33887
695.0 0.001439 104.10182 703.93518
702.0 0.001425 104.05785 706.85547
755.0 0.001325 104.01373 712.07153
728.0 0.001374 103.96942 708.25299
681.0 0.001468 103.92499 686.72919
649.0 0.001541 103.88037 645.35699
621.0 0.001610 103.83561 588.59821
517.0 0.001934 103.79070 523.90320
469.0 0.002132 103.74564 457.84479
411.0 0.002433 103.70042 396.06021
346.0 0.002890 103.65505 341.21722
302.0 0.003311 103.60951 294.76505
253.0 0.00395 103.56385 256.97101
233.0 0.00429 103.51803 227.26286
207.0 0.00483 103.47205 204.55301
197.0 0.00508 103.42592 187.53186
180.0 0.00556 103.37964 174.89919
164.0 0.00610 103.33323 165.51372
138.0 0.00725 103.28666 158.46324
149.0 0.00671 103.23994 153.07338
141.0 0.00709 103.19312 148.70941
151.0 0.00662 103.14608 145.40413
149.0 0.00671 103.09897 142.79825
141.0 0.00709 103.05166 140.77577
128.0 0.00781 103.00425 139.26250
133.0 0.00752 102.95667 138.20233
150.0 0.00667 102.90895 137.54103
146.0 0.00685 102.86111 137.65108
141.0 0.00709 102.81313 137.57516
143.0 0.00699 102.76502 137.63371
126.0 0.00794 102.71676 137.69455
149.0 0.00671 102.66838 137.64981
146.0 0.00685 102.61986 137.48570
142.0 0.00704 102.57118 137.31149
150.0 0.00667 102.52239 137.30849
131.0 0.00763 102.47346 137.64204
142.0 0.00704 102.42442 138.40001
147.0 0.00680 102.37522 139.56540
142.0 0.00704 102.32592 141.00133
176.0 0.00568 102.27646 142.44189
161.0 0.00621 102.22690 143.73166
166.0 0.00602 102.17719 144.05220
129.0 0.00775 102.12739 143.39032
155.0 0.00645 102.07743 141.78311
136.0 0.00735 102.02736 139.49513
139.0 0.00719 101.97716 136.88785
138.0 0.00725 101.92684 134.30530
143.0 0.00699 101.87640 132.00888
124.0 0.00806 101.82582 130.15460
139.0 0.00719 101.77516 128.79413
113.0 0.00885 101.72435 127.88296
118.0 0.00847 101.67345 127.28927
119.0 0.00840 101.62238 126.81029
137.0 0.00730 101.57126 126.21713
130.0 0.00769 101.52000 125.33585
144.0 0.00694 101.46863 124.12136
124.0 0.00806 101.41713 122.65483
121.0 0.00826 101.36552 121.07359
131.0 0.00763 101.31380 119.50524
107.0 0.00935 101.26197 118.04070
126.0 0.00794 101.21004 116.73484
98.0 0.01020 101.15800 115.61360
121.0 0.00826 101.10584 114.68085
132.0 0.00758 101.05360 113.92477
123.0 0.00813 101.00121 113.32374
104.0 0.00962 100.94876 112.85154
110.0 0.00909 100.89618 112.48190
121.0 0.00826 100.84349 112.19136
105.0 0.00952 100.79072 111.96070
99.0 0.01010 100.73782 111.77549
106.0 0.00943 100.68488 111.62516
115.0 0.00870 100.63177 111.50253
117.0 0.00855 100.57862 111.40285
125.0 0.00800 100.52531 111.32301
112.0 0.00893 100.47196 111.26103
98.0 0.01020 100.41849 111.21561
127.0 0.00787 100.36494 111.18587
119.0 0.00840 100.31128 111.17128
121.0 0.00826 100.25753 111.17158
108.0 0.00926 100.20371 111.18656
126.0 0.00794 100.14977 111.21619
114.0 0.00877 100.09576 111.26064
107.0 0.00935 100.04165 111.32004
105.0 0.00952 99.98747 111.39480
100.0 0.01000 99.93317 111.48524
113.0 0.00885 99.87883 111.59204
95.0 0.01053 99.82439 111.71571
103.0 0.00971 99.76984 111.85703
107.0 0.00935 99.71523 112.01693
106.0 0.00943 99.66052 112.19633
103.0 0.00971 99.60574 112.39638
108.0 0.00926 99.55087 112.61841
107.0 0.00935 99.49596 112.86378
121.0 0.00826 99.44092 113.13421
132.0 0.00758 99.38585 113.43148
116.0 0.00862 99.33070 113.75764
122.0 0.00820 99.27544 114.11500
116.0 0.00862 99.22015 114.50618
100.0 0.01000 99.16474 114.93410
113.0 0.00885 99.10928 115.40206
105.0 0.00952 99.05376 115.91373
118.0 0.00847 98.99816 116.09438
111.0 0.00901 98.94248 116.71035
131.0 0.00763 98.88675 117.38451
123.0 0.00813 98.83097 118.12308
111.0 0.00901 98.77509 118.93313
108.0 0.00926 98.71917 119.82291
117.0 0.00855 98.66315 120.80180
121.0 0.00826 98.60712 121.88214
127.0 0.00787 98.55101 123.07426
113.0 0.00885 98.49483 124.39468
127.0 0.00787 98.43861 125.86135
111.0 0.00901 98.38229 127.49593
113.0 0.00885 98.32594 129.13603
113.0 0.00885 98.26952 131.19305
135.0 0.00741 98.21307 133.51640
122.0 0.00820 98.15655 136.15630
118.0 0.00847 98.09998 139.17769
141.0 0.00709 98.04335 142.66743
122.0 0.00820 97.98668 146.74654
139.0 0.00719 97.92997 151.59009
146.0 0.00685 97.87319 157.45779
153.0 0.00654 97.81637 164.73817
154.0 0.00649 97.75950 174.00134
140.0 0.00714 97.70259 186.06470
178.0 0.00562 97.64561 202.04655
175.0 0.00571 97.58862 223.40143
232.0 0.00431 97.53156 251.90253
256.0 0.00391 97.47449 289.53339
320.0 0.003125 97.41737 338.25198
352.0 0.002841 97.36021 399.63733
467.0 0.002141 97.30300 474.45340
547.0 0.001828 97.24574 562.17151
757.0 0.001321 97.18847 660.44568
830.0 0.001205 97.13116 764.49835
953.0 0.001049 97.07379 866.42810
971.0 0.001030 97.01643 954.88440
1047.0 0.000955 96.95901 1016.43274
1012.0 0.000988 96.90158 1039.95886
1005.0 0.000995 96.84409 1022.53143
855.0 0.001170 96.78659 971.59772
835.0 0.001198 96.72905 901.09106
714.0 0.001401 96.67149 825.44873
707.0 0.001414 96.61391 755.98572
727.0 0.001376 96.55630 700.02551
643.0 0.001555 96.49868 661.21393
620.0 0.001613 96.44102 639.95941
618.0 0.001618 96.38333 633.70789
668.0 0.001497 96.32562 637.11603
709.0 0.001410 96.26792 642.45135
668.0 0.001497 96.21016 640.92780
627.0 0.001595 96.15242 625.44971
581.0 0.001721 96.09464 593.53571
518.0 0.001931 96.03686 547.88525
490.0 0.002041 95.97908 494.09528
422.0 0.002370 95.92123 437.87302
371.0 0.002695 95.86343 383.59512
358.0 0.002793 95.80557 334.10373
298.0 0.003356 95.74773 290.96466
257.0 0.00389 95.68987 254.76605
213.0 0.00469 95.63202 225.37349
204.0 0.00490 95.57415 202.15936
186.0 0.00538 95.51626 184.21532
184.0 0.00543 95.45838 170.53563
133.0 0.00752 95.40051 160.15555
186.0 0.00538 95.34262 152.23741
122.0 0.00820 95.28471 146.10736
142.0 0.00704 95.22683 141.25635
133.0 0.00752 95.16891 137.31841
125.0 0.00800 95.11105 134.04024
137.0 0.00730 95.05318 131.25092
124.0 0.00806 94.99528 128.83549
115.0 0.00870 94.93742 126.71651
107.0 0.00935 94.87952 124.83978
124.0 0.00806 94.82166 123.16625
130.0 0.00769 94.76380 121.66627
120.0 0.00833 94.70595 120.31663
97.0 0.01031 94.64810 119.09839
131.0 0.00763 94.59029 117.99592
129.0 0.00775 94.53248 116.99606
109.0 0.00917 94.47468 116.08763
106.0 0.00943 94.41691 115.26101
130.0 0.00769 94.35912 114.50803
131.0 0.00763 94.30136 113.82153
119.0 0.00840 94.24360 113.19540
104.0 0.00962 94.18590 112.62430
107.0 0.00935 94.12820 112.10355
117.0 0.00855 94.07051 111.62913
115.0 0.00870 94.01286 111.19746
99.0 0.01010 93.95522 110.80553
105.0 0.00952 93.89761 110.45064
114.0 0.00877 93.84001 110.13040
125.0 0.00800 93.78246 109.84287
81.0 0.01235 93.72491 109.58615
110.0 0.00909 93.66740 109.35889
110.0 0.00909 93.60993 109.15977
107.0 0.00935 93.55248 108.98763
114.0 0.00877 93.49509 108.84171
119.0 0.00840 93.43768 108.72121
124.0 0.00806 93.38033 108.62572
119.0 0.00840 93.32299 108.55479
122.0 0.00820 93.26572 108.50833
86.0 0.01163 93.20846 108.48632
115.0 0.00870 93.15127 108.48903
113.0 0.00885 93.09409 108.51691
111.0 0.00901 93.03695 108.57089
93.0 0.01075 92.97987 108.65241
106.0 0.00943 92.92279 108.76353
107.0 0.00935 92.86580 108.90752
118.0 0.00847 92.80882 109.08909
120.0 0.00833 92.75190 109.31483
97.0 0.01031 92.69502 109.59363
118.0 0.00847 92.63820 109.93681
102.0 0.00980 92.58141 110.35781
114.0 0.00877 92.52466 110.87129
116.0 0.00862 92.46799 111.49133
105.0 0.00952 92.41132 112.22912
103.0 0.00971 92.35477 113.09014
129.0 0.00775 92.29821 114.07036
108.0 0.00926 92.24175 115.15347
106.0 0.00943 92.18533 116.30616
127.0 0.00787 92.12895 117.47423
142.0 0.00704 92.07265 118.58263
123.0 0.00813 92.01637 119.54848
124.0 0.00806 91.96019 120.31344
111.0 0.00901 91.90403 120.87730
125.0 0.00800 91.84797 121.30212
136.0 0.00735 91.79192 121.68327
95.0 0.01053 91.73600 122.11664
140.0 0.00714 91.68011 122.43305
129.0 0.00775 91.62427 123.18491
98.0 0.01020 91.56852 124.15680
123.0 0.00813 91.51283 125.36324
131.0 0.00763 91.45719 126.80392
119.0 0.00840 91.40163 128.45471
117.0 0.00855 91.34614 130.28625
139.0 0.00719 91.29072 132.26161
145.0 0.00690 91.23537 134.35503
126.0 0.00794 91.18011 136.73660
135.0 0.00741 91.12487 139.12164
126.0 0.00794 91.06976 141.74417
137.0 0.00730 91.01469 144.68698
157.0 0.00637 90.95972 147.90816
167.0 0.00599 90.90483 151.75967
160.0 0.00625 90.85000 156.21729
140.0 0.00714 90.79524 161.41438
158.0 0.00633 90.74058 167.53265
150.0 0.00667 90.68601 174.84189
157.0 0.00637 90.63148 183.74712
161.0 0.00621 90.57709 194.87346
184.0 0.00543 90.52271 209.16185
186.0 0.00538 90.46849 227.98759
236.0 0.00424 90.41431 253.26746
233.0 0.00429 90.36024 287.61920
262.0 0.00382 90.30627 334.00253
371.0 0.002695 90.25235 396.04037
458.0 0.002183 90.19852 477.32040
578.0 0.001730 90.14480 580.90283
774.0 0.001292 90.09116 708.57825
945.0 0.001058 90.03761 860.01111
1240.0 0.000806 89.98418 1031.85034
1447.0 0.000691 89.93082 1216.72705
1672.0 0.000598 89.87754 1402.14038
1678.0 0.000596 89.82440 1569.63464
1722.0 0.000581 89.77132 1696.00574
1749.0 0.000572 89.71835 1759.22375
1653.0 0.000605 89.66547 1748.53760
1588.0 0.000630 89.61270 1671.28308
1461.0 0.000684 89.56001 1549.31580
1346.0 0.000743 89.50744 1408.82971
1159.0 0.000863 89.45498 1272.37000
1177.0 0.000850 89.40260 1155.93604
1086.0 0.000921 89.35035 1069.02148
977.0 0.001024 89.29817 1015.31158
1061.0 0.000943 89.24613 993.27887
1043.0 0.000959 89.19418 996.57971
1022.0 0.000978 89.14233 1014.40088
1058.0 0.000945 89.09058 1032.30090
1014.0 0.000986 89.03898 1034.74036
981.0 0.001019 88.98745 1009.92596
891.0 0.001122 88.93604 954.58838
860.0 0.001163 88.88477 874.33936
797.0 0.001255 88.83356 779.44006
666.0 0.001502 88.78251 680.07037
558.0 0.001792 88.73154 584.02985
476.0 0.002101 88.68071 496.43930
443.0 0.002257 88.63000 420.16293
334.0 0.002994 88.57937 356.29800
326.0 0.003067 88.52888 304.61569
225.0 0.00444 88.47850 263.97870
212.0 0.00472 88.42827 232.73550
214.0 0.00467 88.37812 209.05814
203.0 0.00493 88.32813 191.20828
184.0 0.00543 88.27822 177.67593
169.0 0.00592 88.22844 167.25586
156.0 0.00641 88.17881 159.04289
160.0 0.00625 88.12927 152.39102
154.0 0.00649 88.07990 146.85646
135.0 0.00741 88.03060 142.14191
139.0 0.00719 87.98145 138.04987
123.0 0.00813 87.93242 134.44777
143.0 0.00699 87.88355 131.24431
117.0 0.00855 87.83478 128.37355
117.0 0.00855 87.78613 125.78604
122.0 0.00820 87.73764 123.44295
129.0 0.00775 87.68925 121.31264
143.0 0.00699 87.64102 119.36908
111.0 0.00901 87.59291 117.59016
121.0 0.00826 87.54494 115.95718
121.0 0.00826 87.49707 114.45387
122.0 0.00820 87.44937 113.06642
120.0 0.00833 87.40181 111.78281
114.0 0.00877 87.35436 110.59233
121.0 0.00826 87.30708 109.48589
122.0 0.00820 87.25990 108.45541
101.0 0.00990 87.21288 107.49377
104.0 0.00962 87.16599 106.59462
96.0 0.01042 87.11924 105.75246
109.0 0.00917 87.07262 104.96230
129.0 0.00775 87.02617 104.21972
102.0 0.00980 86.97985 103.52077
100.0 0.01000 86.93367 102.86190
125.0 0.00800 86.88763 102.23994
135.0 0.00741 86.84172 101.65203
115.0 0.00870 86.79598 101.09563
98.0 0.01020 86.75036 100.56828
99.0 0.01010 86.70492 100.06802
96.0 0.01042 86.65960 99.59283
115.0 0.00870 86.61444 99.14101
104.0 0.00962 86.56944 98.71096
110.0 0.00909 86.52454 98.30122
113.0 0.00885 86.47986 97.91049
107.0 0.00935 86.43526 97.53754
96.0 0.01042 86.39087 97.18130
102.0 0.00980 86.34658 96.84074
91.0 0.01099 86.30247 96.51492
105.0 0.00952 86.25853 96.20306
100.0 0.01000 86.21470 95.90425
120.0 0.00833 86.17105 95.61794
115.0 0.00870 86.12754 95.34338
89.0 0.01124 86.08421 95.07996
112.0 0.00893 86.04102 94.82725
102.0 0.00980 85.99798 94.58467
98.0 0.01020 85.95509 94.35182
95.0 0.01053 85.91238 94.12835
102.0 0.00980 85.86982 93.91380
86.0 0.01163 85.82741 93.70801
94.0 0.01064 85.78518 93.51066
94.0 0.01064 85.74308 93.32159
106.0 0.00943 85.70116 93.14073
98.0 0.01020 85.65939 92.96811
118.0 0.00847 85.61780 92.80374
102.0 0.00980 85.57635 92.64809
82.0 0.01220 85.53508 92.50175
89.0 0.01124 85.49399 92.36593
108.0 0.00926 85.45300 92.24232
101.0 0.00990 85.41225 92.13366
90.0 0.01111 85.37159 92.04381
111.0 0.00901 85.33116 91.97805
103.0 0.00971 85.29086 91.94312
105.0 0.00952 85.25076 91.94700
105.0 0.00952 85.21079 91.99850
94.0 0.01064 85.17100 92.10605
100.0 0.01000 85.13139 92.27661
93.0 0.01075 85.09193 92.51338
77.0 0.01299 85.05266 92.81577
92.0 0.01087 85.01352 93.17421
110.0 0.00909 84.97459 93.56984
113.0 0.00885 84.93580 93.97104
133.0 0.00752 84.89721 94.33118
74.0 0.01351 84.85878 94.59105
100.0 0.01000 84.82052 94.69222
101.0 0.00990 84.78242 94.60114
103.0 0.00971 84.74451 94.32825
110.0 0.00909 84.70678 93.92406
93.0 0.01075 84.66920 93.45557
82.0 0.01220 84.63182 92.72758
105.0 0.00952 84.59458 92.30122
88.0 0.01136 84.55755 91.94759
86.0 0.01163 84.52070 91.68086
100.0 0.01000 84.48399 91.50253
80.0 0.01250 84.44749 91.40230
97.0 0.01031 84.41114 91.35839
94.0 0.01064 84.37498 91.33884
94.0 0.01064 84.33898 91.30443
86.0 0.01163 84.30319 91.21746
81.0 0.01235 84.26756 91.05434
90.0 0.01111 84.23212 90.81457
95.0 0.01053 84.19684 90.51757
89.0 0.01124 84.16174 90.06258
110.0 0.00909 84.12685 89.73194
103.0 0.00971 84.09209 89.41489
105.0 0.00952 84.05756 89.12339
100.0 0.01000 84.02316 88.86394
108.0 0.00926 83.98900 88.63898
92.0 0.01087 83.95500 88.44771
108.0 0.00926 83.92117 88.28738
89.0 0.01124 83.88754 88.15394
94.0 0.01064 83.85407 88.04293
96.0 0.01042 83.82080 87.94987
107.0 0.00935 83.78769 87.87093
66.0 0.01515 83.75478 87.80292
103.0 0.00971 83.72207 87.74336
100.0 0.01000 83.68951 87.69049
94.0 0.01064 83.65717 87.64291
98.0 0.01020 83.62498 87.59985
93.0 0.01075 83.59301 87.56064
69.0 0.01449 83.56120 87.52491
100.0 0.01000 83.52958 87.49242
98.0 0.01020 83.49815 87.46294
89.0 0.01124 83.46690 87.43639
87.0 0.01149 83.43584 87.41267
88.0 0.01136 83.40498 87.39169
91.0 0.01099 83.37429 87.37349
97.0 0.01031 83.34379 87.35796
95.0 0.01053 83.31349 87.34511
84.0 0.01190 83.28336 87.33500
90.0 0.01111 83.25342 87.32760
86.0 0.01163 83.22368 87.32298
80.0 0.01250 83.19411 87.32111
86.0 0.01163 83.16476 87.69070
82.0 0.01220 83.13556 87.69754
78.0 0.01282 83.10657 87.70725
93.0 0.01075 83.07777 87.72000
98.0 0.01020 83.04917 87.73589
86.0 0.01163 83.02073 87.75497
91.0 0.01099 82.99249 87.77747
88.0 0.01136 82.96443 87.80379
92.0 0.01087 82.93659 87.83328
87.0 0.01149 82.90894 87.86652
80.0 0.01250 82.88146 87.90354
97.0 0.01031 82.85419 87.94466
94.0 0.01064 82.82707 87.98989
87.0 0.01149 82.80018 88.03951
76.0 0.01316 82.77345 88.09371
92.0 0.01087 82.74694 88.15272
104.0 0.00962 82.72062 88.40252
97.0 0.01031 82.69447 88.47318
110.0 0.00909 82.66853 88.54943
89.0 0.01124 82.64275 88.63152
60.0 0.01667 82.61721 88.71980
99.0 0.01010 82.59184 88.81460
101.0 0.00990 82.56665 88.91651
86.0 0.01163 82.54165 89.02554
100.0 0.01000 82.51685 89.14231
105.0 0.00952 82.49226 89.26731
83.0 0.01205 82.46783 89.40108
81.0 0.01235 82.44362 89.54420
99.0 0.01010 82.41959 89.69727
82.0 0.01220 82.39575 89.86100
92.0 0.01087 82.37211 90.03609
86.0 0.01163 82.34865 90.22345
100.0 0.01000 82.32538 90.42389
92.0 0.01087 82.30233 90.63847
67.0 0.01493 82.27944 90.86825
91.0 0.01099 82.25675 91.11441
84.0 0.01190 82.23428 91.37831
84.0 0.01190 82.21196 91.66142
85.0 0.01176 82.18987 91.96539
88.0 0.01136 82.16792 92.29202
85.0 0.01176 82.14621 92.64338
89.0 0.01124 82.12469 93.02168
82.0 0.01220 82.10336 93.42802
91.0 0.01099 82.08221 93.86824
104.0 0.00962 82.06125 94.34393
83.0 0.01205 82.04049 94.85892
82.0 0.01220 82.01992 95.41734
93.0 0.01075 81.99954 96.02368
98.0 0.01020 81.97935 96.68347
95.0 0.01053 81.95936 97.40267
121.0 0.00826 81.93955 98.18841
102.0 0.00980 81.91996 99.04871
112.0 0.00893 81.90053 99.99313
94.0 0.01064 81.88131 101.03242
90.0 0.01111 81.86227 102.17969
110.0 0.00909 81.84341 103.44969
106.0 0.00943 81.82477 104.86277
114.0 0.00877 81.80630 106.44167
108.0 0.00926 81.78804 108.21654
102.0 0.00980 81.76996 110.22730
91.0 0.01099 81.75208 112.52857
113.0 0.00885 81.73437 115.19731
103.0 0.00971 81.71686 118.34423
114.0 0.00877 81.69955 122.12983
109.0 0.00917 81.68240 126.78611
122.0 0.00820 81.66550 132.64330
130.0 0.00769 81.64874 140.16029
133.0 0.00752 81.63218 149.95296
136.0 0.00735 81.61581 162.81247
184.0 0.00543 81.59962 179.70161
177.0 0.00565 81.58364 201.71503
221.0 0.00452 81.56783 229.98984
243.0 0.00412 81.55223 265.55969
335.0 0.002985 81.53680 309.15475
411.0 0.002433 81.52158 360.96924
484.0 0.002066 81.50652 420.43210
565.0 0.001770 81.49167 486.00433
666.0 0.001502 81.47701 554.96338
697.0 0.001435 81.46251 623.09283
718.0 0.001393 81.44823 684.38159
748.0 0.001337 81.43410 731.30029
729.0 0.001372 81.42020 756.49194
713.0 0.001403 81.40646 755.80804
670.0 0.001493 81.39290 730.26489
708.0 0.001412 81.37955 687.29205
652.0 0.001534 81.36636 635.17639
575.0 0.001739 81.35339 582.01501
525.0 0.001905 81.34058 533.95020
482.0 0.002075 81.32797 494.98907
462.0 0.002165 81.31553 467.23441
492.0 0.002033 81.30327 451.14224
473.0 0.002114 81.29120 445.72333
479.0 0.002088 81.27933 448.67361
493.0 0.002028 81.26763 456.44208
470.0 0.002128 81.25612 464.38721
498.0 0.002008 81.24479 467.38190
450.0 0.002222 81.23364 461.13904
415.0 0.002410 81.22266 443.55997
432.0 0.002315 81.21188 416.20123
338.0 0.002959 81.20128 382.01917
305.0 0.003279 81.19085 344.68234
318.0 0.003145 81.18060 307.28760
305.0 0.003279 81.17056 272.03238
231.0 0.00433 81.16068 240.28699
231.0 0.00433 81.15099 212.76251
192.0 0.00521 81.14145 189.66457
181.0 0.00552 81.13210 170.82143
150.0 0.00667 81.12295 155.80185
140.0 0.00714 81.11396 144.02763
124.0 0.00806 81.10515 134.87624
124.0 0.00806 81.09653 127.76157
121.0 0.00826 81.08808 122.18439
121.0 0.00826 81.07980 117.74886
119.0 0.00840 81.07171 114.15630
115.0 0.00870 81.06377 111.18867
104.0 0.00962 81.05603 108.69067
124.0 0.00806 81.04845 106.55349
110.0 0.00909 81.04106 104.70105
113.0 0.00885 81.03384 103.07956
87.0 0.01149 81.02680 101.64951
115.0 0.00870 81.01992 100.38093
102.0 0.00980 81.01323 99.25002
94.0 0.01064 81.00668 98.23717
118.0 0.00847 81.00032 97.32620
86.0 0.01163 80.99416 96.50340
99.0 0.01010 80.98813 95.75728
87.0 0.01149 80.98228 95.07821
99.0 0.01010 80.97662 94.45808
83.0 0.01205 80.97112 93.89021
85.0 0.01176 80.96578 93.36897
85.0 0.01176 80.96062 92.88910
101.0 0.00990 80.95562 92.44672
100.0 0.01000 80.95078 92.03818
94.0 0.01064 80.94614 91.66036
92.0 0.01087 80.94164 91.31052
100.0 0.01000 80.93731 90.98630
101.0 0.00990 80.93314 90.68557
83.0 0.01205 80.92914 90.40641
108.0 0.00926 80.92532 90.14709
88.0 0.01136 80.92165 89.90614
107.0 0.00935 80.91814 89.68223
92.0 0.01087 80.91480 89.47414
86.0 0.01163 80.91162 89.28069
95.0 0.01053 80.90860 89.10094
95.0 0.01053 80.90575 88.93401
91.0 0.01099 80.90307 88.77911
80.0 0.01250 80.90052 88.63555
89.0 0.01124 80.89815 88.50250
95.0 0.01053 80.89593 88.37945
85.0 0.01176 80.89389 88.26588
84.0 0.01190 80.89198 88.16122
97.0 0.01031 80.89024 88.06506
86.0 0.01163 80.88866 87.97697
76.0 0.01316 80.88724 87.89669
113.0 0.00885 80.88596 87.82374
90.0 0.01111 80.88485 87.75783
82.0 0.01220 80.88390 87.69874
71.0 0.01408 80.88308 87.64616
115.0 0.00870 80.88243 87.59993
102.0 0.00980 80.88195 87.55979
86.0 0.01163 80.88158 87.52557
80.0 0.01250 80.88138 87.49709
102.0 0.00980 80.88135 87.47423
81.0 0.01235 80.88145 87.45686
82.0 0.01220 80.88171 87.44484
88.0 0.01136 80.88211 87.43809
105.0 0.00952 80.88266 87.43661
94.0 0.01064 80.88337 87.44013
117.0 0.00855 80.88421 87.44879
101.0 0.00990 80.88520 87.46249
112.0 0.00893 80.88634 87.48121
94.0 0.01064 80.88763 87.50491
96.0 0.01042 80.88906 87.53355
89.0 0.01124 80.89063 87.56725
89.0 0.01124 80.89237 87.60593
80.0 0.01250 80.89422 87.64969
81.0 0.01235 80.89622 87.69855
86.0 0.01163 80.89836 87.75258
91.0 0.01099 80.90065 87.81185
88.0 0.01136 80.90308 87.87644
107.0 0.00935 80.90564 87.94644
93.0 0.01075 80.90834 88.02199
81.0 0.01235 80.91118 88.10320
102.0 0.00980 80.91416 88.19018
85.0 0.01176 80.91727 88.28315
86.0 0.01163 80.92054 88.38221
99.0 0.01010 80.92392 88.48760
79.0 0.01266 80.92744 88.59951
96.0 0.01042 80.93108 88.71815
94.0 0.01064 80.93488 88.84383
92.0 0.01087 80.93878 88.97670
82.0 0.01220 80.94285 89.11716
105.0 0.00952 80.94703 89.26538
100.0 0.01000 80.95134 89.42186
107.0 0.00935 80.95576 89.58685
94.0 0.01064 80.96033 89.76083
98.0 0.01020 80.96505 89.94415
66.0 0.01515 80.96986 90.13729
80.0 0.01250 80.97482 90.34077
89.0 0.01124 80.97990 90.55511
100.0 0.01000 80.98510 90.78091
100.0 0.01000 80.99043 91.01880
97.0 0.01031 80.99587 91.26945
84.0 0.01190 81.00144 91.57947
77.0 0.01299 81.00714 91.85821
98.0 0.01020 81.01295 92.15216
93.0 0.01075 81.01891 92.46220
83.0 0.01205 81.02494 92.78943
100.0 0.01000 81.03114 93.13491
103.0 0.00971 81.03741 93.49988
90.0 0.01111 81.04382 93.88574
81.0 0.01235 81.05035 94.29391
85.0 0.01176 81.05700 94.72594
106.0 0.00943 81.06376 95.18363
87.0 0.01149 81.07063 95.66767
87.0 0.01149 81.07764 96.18263
103.0 0.00971 81.08471 96.72961
88.0 0.01136 81.09194 97.31116
90.0 0.01111 81.09927 98.08083
99.0 0.01010 81.10670 98.74143
101.0 0.00990 81.11424 99.46915
101.0 0.00990 81.12189 100.22194
96.0 0.01042 81.12965 101.02700
100.0 0.01000 81.13754 101.88914
119.0 0.00840 81.14551 102.81387
118.0 0.00847 81.15359 103.80724
109.0 0.00917 81.16176 104.87608
110.0 0.00909 81.17007 106.02808
109.0 0.00917 81.17845 107.27152
102.0 0.00980 81.18695 108.61742
114.0 0.00877 81.19555 110.07660
108.0 0.00926 81.20426 111.66196
111.0 0.00901 81.21305 113.38842
107.0 0.00935 81.22195 115.27303
119.0 0.00840 81.23096 117.33572
118.0 0.00847 81.24006 119.67542
120.0 0.00833 81.24925 122.16814
135.0 0.00741 81.25852 124.92142
111.0 0.00901 81.26791 127.97433
131.0 0.00763 81.27740 131.37521
124.0 0.00806 81.28699 135.18584
146.0 0.00685 81.29665 139.48859
149.0 0.00671 81.30640 144.39711
120.0 0.00833 81.31625 150.07471
127.0 0.00787 81.32620 156.76068
140.0 0.00714 81.33623 164.80922
160.0 0.00625 81.34635 174.74092
168.0 0.00595 81.35656 187.30621
224.0 0.00446 81.36685 203.55420
189.0 0.00529 81.37723 224.89301
231.0 0.00433 81.38770 253.12218
269.0 0.00372 81.39827 290.40842
335.0 0.002985 81.40891 339.17722
381.0 0.002625 81.41964 401.89859
517.0 0.001934 81.43044 480.76169
661.0 0.001513 81.44132 577.25354
808.0 0.001238 81.45229 691.67725
1013.0 0.000987 81.46333 822.62091
1119.0 0.000894 81.47446 966.42291
1321.0 0.000757 81.48566 1116.53064
1387.0 0.000721 81.49695 1262.84473
1408.0 0.000710 81.50832 1391.45703
1449.0 0.000690 81.51973 1485.95349
1423.0 0.000703 81.53124 1531.56824
1352.0 0.000740 81.54285 1521.33069
1319.0 0.000758 81.55450 1459.90344
1251.0 0.000799 81.56623 1361.57800
1233.0 0.000811 81.57805 1244.31580
1036.0 0.000965 81.58990 1124.59290
952.0 0.001050 81.60185 1015.10980
1024.0 0.000977 81.61388 924.55835
846.0 0.001182 81.62596 858.00806
864.0 0.001157 81.63809 817.33258
805.0 0.001242 81.65031 801.52716
840.0 0.001190 81.66261 806.94183
882.0 0.001134 81.67496 827.43781
871.0 0.001148 81.68738 854.57538
812.0 0.001232 81.69984 878.12756
876.0 0.001142 81.71240 887.63953
836.0 0.001196 81.72500 875.26410
755.0 0.001325 81.73765 838.54462
750.0 0.001333 81.75039 780.88324
640.0 0.001563 81.76318 709.25226
588.0 0.001701 81.77602 631.18677
558.0 0.001792 81.78893 552.94324
541.0 0.001848 81.80190 478.99661
427.0 0.002342 81.81491 412.18805
337.0 0.002967 81.82798 354.04587
300.0 0.003333 81.84111 305.06302
285.0 0.00351 81.85429 264.95361
186.0 0.00538 81.86754 232.89626
209.0 0.00478 81.88081 207.76111
175.0 0.00571 81.89417 188.30843
180.0 0.00556 81.90755 173.33893
154.0 0.00649 81.92100 161.79112
145.0 0.00690 81.93448 152.78841
144.0 0.00694 81.94804 145.64653
136.0 0.00735 81.96162 139.85561
127.0 0.00787 81.97527 135.04979
133.0 0.00752 81.98894 130.97339
119.0 0.00840 82.00267 127.45071
128.0 0.00781 82.01646 124.36137
118.0 0.00847 82.03027 121.62196
118.0 0.00847 82.04412 119.17301
128.0 0.00781 82.05802 116.97095
115.0 0.00870 82.07198 114.98244
134.0 0.00746 82.08595 113.18085
107.0 0.00935 82.09998 111.54433
113.0 0.00885 82.11407 110.05421
113.0 0.00885 82.12815 108.69421
99.0 0.01010 82.14232 107.44939
96.0 0.01042 82.15647 106.30607
102.0 0.00980 82.17072 105.25077
115.0 0.00870 82.18497 104.27054
111.0 0.00901 82.19923 103.35285
108.0 0.00926 82.21356 102.48713
110.0 0.00909 82.22792 101.66611
92.0 0.01087 82.24233 100.88641
93.0 0.01075 82.25674 100.14754
91.0 0.01099 82.27118 99.45032
106.0 0.00943 82.28567 98.79529
99.0 0.01010 82.30018 98.18244
106.0 0.00943 82.31474 97.61082
92.0 0.01087 82.32931 97.07902
97.0 0.01031 82.34391 96.58492
98.0 0.01020 82.35852 96.12588
94.0 0.01064 82.37318 95.69885
102.0 0.00980 82.38786 95.30019
101.0 0.00990 82.40258 94.92593
102.0 0.00980 82.41728 94.57156
125.0 0.00800 82.43204 94.23278
75.0 0.01333 82.44683 93.90609
95.0 0.01053 82.46162 93.58955
116.0 0.00862 82.47644 93.28288
111.0 0.00901 82.49126 92.98702
93.0 0.01075 82.50615 92.70319
91.0 0.01099 82.52101 92.43233
114.0 0.00877 82.53590 92.17484
92.0 0.01087 82.55083 91.93098
99.0 0.01010 82.56577 91.95439
94.0 0.01064 82.58071 91.73850
93.0 0.01075 82.59568 91.53493
92.0 0.01087 82.61066 91.34294
107.0 0.00935 82.62566 91.16187
87.0 0.01149 82.64068 90.82536
93.0 0.01075 82.65572 90.66474
98.0 0.01020 82.67073 90.51274
103.0 0.00971 82.68581 90.36856
88.0 0.01136 82.70087 90.23178
92.0 0.01087 82.71594 90.10185
105.0 0.00952 82.73103 89.97829
99.0 0.01010 82.74612 89.86021
80.0 0.01250 82.76124 89.74846
70.0 0.01429 82.77635 89.64218
85.0 0.01176 82.79147 89.53970
104.0 0.00962 82.80659 89.45087
101.0 0.00990 82.82174 89.35940
91.0 0.01099 82.83688 89.40180
97.0 0.01031 82.85202 89.31888
107.0 0.00935 82.86718 89.15685
109.0 0.00917 82.88235 89.08379
94.0 0.01064 82.89751 89.01456
91.0 0.01099 82.91267 88.94897
87.0 0.01149 82.92784 88.88689
90.0 0.01111 82.94302 88.82820
88.0 0.01136 82.95820 88.77283
99.0 0.01010 82.97337 88.72027
92.0 0.01087 82.98855 88.67108
102.0 0.00980 83.00372 88.62482
92.0 0.01087 83.01890 88.58143
78.0 0.01282 83.03409 88.54077
91.0 0.01099 83.04927 88.50283
99.0 0.01010 83.06443 88.46972
98.0 0.01020 83.07961 88.43697
72.0 0.01389 83.09479 88.40665
101.0 0.00990 83.10995 88.37870
82.0 0.01220 83.12511 88.35313
88.0 0.01136 83.14028 88.32983
89.0 0.01124 83.15543 88.30882
81.0 0.01235 83.17059 88.28993
86.0 0.01163 83.18574 88.27319
97.0 0.01031 83.20087 88.25860
86.0 0.01163 83.21601 88.24600
103.0 0.00971 83.23115 88.23550
85.0 0.01176 83.24625 88.22696
92.0 0.01087 83.26136 88.22044
107.0 0.00935 83.27648 88.21587
85.0 0.01176 83.29157 88.21325
80.0 0.01250 83.30666 88.21262
104.0 0.00962 83.32173 88.21384
97.0 0.01031 83.33681 88.21703
87.0 0.01149 83.35187 88.22211
92.0 0.01087 83.36691 88.22914
80.0 0.01250 83.38197 88.23814
80.0 0.01250 83.39698 88.24911
105.0 0.00952 83.41198 88.26206
90.0 0.01111 83.42702 88.27715
103.0 0.00971 83.44200 88.29432
97.0 0.01031 83.45698 88.31379
83.0 0.01205 83.47195 88.33563
108.0 0.00926 83.48689 88.36018
91.0 0.01099 83.50183 88.38772
86.0 0.01163 83.51676 88.41877
91.0 0.01099 83.53168 88.45386
85.0 0.01176 83.54658 88.49387
104.0 0.00962 83.56147 88.53976
104.0 0.00962 83.57633 88.59267
72.0 0.01389 83.59119 88.65389
83.0 0.01205 83.60604 88.72470
86.0 0.01163 83.62083 88.80618
95.0 0.01053 83.63566 88.89918
96.0 0.01042 83.65046 89.00388
104.0 0.00962 83.66523 89.11987
70.0 0.01429 83.67998 89.24561
94.0 0.01064 83.69473 89.37819
78.0 0.01282 83.70946 89.51311
85.0 0.01176 83.72414 89.64375
110.0 0.00909 83.73884 89.76194
87.0 0.01149 83.75352 89.85894
89.0 0.01124 83.76817 89.92852
84.0 0.01190 83.78279 89.96935
86.0 0.01163 83.79742 89.98618
73.0 0.01370 83.81203 89.98777
87.0 0.01149 83.82659 89.98373
83.0 0.01205 83.84116 89.98250
75.0 0.01333 83.85571 89.99046
110.0 0.00909 83.87023 90.01202
88.0 0.01136 83.88474 90.04978
82.0 0.01220 83.89921 90.10480
99.0 0.01010 83.91368 90.17728
90.0 0.01111 83.92813 90.26461
91.0 0.01099 83.94256 90.36459
92.0 0.01087 83.95698 90.47315
90.0 0.01111 83.97135 90.58530
106.0 0.00943 83.98570 90.69565
88.0 0.01136 84.00005 90.79937
85.0 0.01176 84.01438 90.89408
84.0 0.01190 84.02870 90.98022
96.0 0.01042 84.04296 91.06094
85.0 0.01176 84.05725 91.14217
100.0 0.01000 84.07150 91.22472
93.0 0.01075 84.08574 91.31354
101.0 0.00990 84.09992 91.41117
109.0 0.00917 84.11412 91.51873
81.0 0.01235 84.12829 91.63758
100.0 0.01000 84.14243 91.76817
100.0 0.01000 84.15655 91.91080
89.0 0.01124 84.17065 92.06542
106.0 0.00943 84.18475 92.23613
78.0 0.01282 84.19881 92.41440
92.0 0.01087 84.21284 92.60425
97.0 0.01031 84.22689 92.80577
95.0 0.01053 84.24088 93.01907
108.0 0.00926 84.25487 93.24435
91.0 0.01099 84.26883 93.48205
106.0 0.00943 84.28280 93.73280
84.0 0.01190 84.29671 93.99724
88.0 0.01136 84.31062 94.27615
79.0 0.01266 84.32451 94.57047
90.0 0.01111 84.33838 94.88127
92.0 0.01087 84.35223 95.20983
88.0 0.01136 84.36606 95.55743
70.0 0.01429 84.37989 95.92542
106.0 0.00943 84.39366 96.31539
99.0 0.01010 84.40746 96.72932
91.0 0.01099 84.42120 97.16906
93.0 0.01075 84.43494 97.63689
91.0 0.01099 84.44867 98.13528
97.0 0.01031 84.46236 98.66699
113.0 0.00885 84.47605 99.23502
108.0 0.00926 84.48973 99.84293
97.0 0.01031 84.50338 100.49455
103.0 0.00971 84.51703 101.19430
94.0 0.01064 84.53066 101.94707
91.0 0.01099 84.54424 102.75849
94.0 0.01064 84.55782 103.63505
111.0 0.00901 84.57143 104.58396
105.0 0.00952 84.58495 105.61356
107.0 0.00935 84.59851 106.73361
93.0 0.01075 84.61205 107.95532
93.0 0.01075 84.62557 109.29199
118.0 0.00847 84.63907 110.75945
105.0 0.00952 84.65255 112.37700
100.0 0.01000 84.66602 114.16908
106.0 0.00943 84.67949 116.16712
115.0 0.00870 84.69292 118.41357
113.0 0.00885 84.70636 120.96706
114.0 0.00877 84.71977 123.91029
114.0 0.00877 84.73319 127.36142
109.0 0.00917 84.74660 131.48868
142.0 0.00704 84.75997 136.52844
114.0 0.00877 84.77335 142.80493
151.0 0.00662 84.78673 150.74979
160.0 0.00625 84.80008 160.91501
153.0 0.00654 84.81344 173.97446
170.0 0.00588 84.82677 190.70615
180.0 0.00556 84.84011 211.94838
235.0 0.00426 84.85345 238.52673
306.0 0.003268 84.86674 271.15237
351.0 0.002849 84.88006 310.29584
394.0 0.002538 84.89336 356.04715
476.0 0.002101 84.90665 407.96198
544.0 0.001838 84.91996 464.89423
641.0 0.001560 84.93324 524.79761
636.0 0.001572 84.94652 584.50311
657.0 0.001522 84.95980 639.58905
677.0 0.001477 84.97309 684.64130
718.0 0.001393 84.98634 714.31677
678.0 0.001475 84.99962 725.18488
608.0 0.001645 85.01289 717.36938
639.0 0.001565 85.02618 694.67352
607.0 0.001647 85.03943 663.06110
629.0 0.001590 85.05270 628.71118
567.0 0.001764 85.06596 596.75336
588.0 0.001701 85.07924 570.82983
543.0 0.001842 85.09251 553.09680
614.0 0.001629 85.10577 544.32520
572.0 0.001748 85.11906 543.99115
639.0 0.001565 85.13232 550.40009
618.0 0.001618 85.14561 560.95514
632.0 0.001582 85.15890 572.60895
608.0 0.001645 85.17220 582.36755
627.0 0.001595 85.18549 587.57861
557.0 0.001795 85.19880 585.97473
557.0 0.001795 85.21211 575.82056
518.0 0.001931 85.22544 556.42975
474.0 0.002110 85.23877 528.32996
504.0 0.001984 85.25211 494.65524
421.0 0.002375 85.26547 458.15338
410.0 0.002439 85.27882 421.78357
373.0 0.002681 85.29221 387.82007
342.0 0.002924 85.30557 357.71597
309.0 0.003236 85.31899 332.16617
305.0 0.003279 85.33241 311.21173
312.0 0.003205 85.34582 294.34412
321.0 0.003115 85.35928 280.62039
266.0 0.00376 85.37274 268.85611
273.0 0.00366 85.38622 257.90790
231.0 0.00433 85.39969 246.97156
233.0 0.00429 85.41320 235.73863
225.0 0.00444 85.42673 224.32388
201.0 0.00498 85.44028 213.04797
224.0 0.00446 85.45388 202.04958
203.0 0.00493 85.46747 191.92177
194.0 0.00515 85.48109 182.58592
174.0 0.00575 85.49472 174.07414
171.0 0.00585 85.50838 166.39977
161.0 0.00621 85.52206 159.59473
167.0 0.00599 85.53579 153.71387
130.0 0.00769 85.54954 148.81287
131.0 0.00763 85.56329 144.92412
158.0 0.00633 85.57710 142.04115
157.0 0.00637 85.59091 140.11415
152.0 0.00658 85.60478 139.04987
158.0 0.00633 85.61865 138.70995
157.0 0.00637 85.63258 138.91078
124.0 0.00806 85.64652 139.43016
170.0 0.00588 85.66052 140.03229
138.0 0.00725 85.67455 140.51097
139.0 0.00719 85.68858 140.72633
139.0 0.00719 85.70266 140.60623
120.0 0.00833 85.71680 140.11107
138.0 0.00725 85.73098 139.20020
143.0 0.00699 85.74517 137.83417
154.0 0.00649 85.75941 136.01033
131.0 0.00763 85.77370 133.84743
126.0 0.00794 85.78802 131.39194
112.0 0.00893 85.80240 128.87860
139.0 0.00719 85.81682 126.48536
107.0 0.00935 85.83129 124.34797
125.0 0.00800 85.84577 122.54520
113.0 0.00885 85.86034 121.09864
135.0 0.00741 85.87492 119.97858
115.0 0.00870 85.88959 119.11350
117.0 0.00855 85.90427 118.40732
125.0 0.00800 85.91901 117.76514
104.0 0.00962 85.93382 117.11861
127.0 0.00787 85.94865 116.43440
109.0 0.00917 85.96358 115.70066
91.0 0.01099 85.97855 114.90588
135.0 0.00741 85.99356 114.02797
112.0 0.00893 86.00862 113.04330
109.0 0.00917 86.02374 111.94552
104.0 0.00962 86.03894 110.75806
106.0 0.00943 86.05417 109.55448
103.0 0.00971 86.06950 108.34258
101.0 0.00990 86.08485 107.19756
117.0 0.00855 86.10029 106.15538
103.0 0.00971 86.11579 105.23721
110.0 0.00909 86.13133 104.45219
114.0 0.00877 86.14696 103.80090
93.0 0.01075 86.16265 103.27799
88.0 0.01136 86.17841 102.87436
110.0 0.00909 86.19422 102.57860
110.0 0.00909 86.21014 102.37844
115.0 0.00870 86.22610 102.26180
106.0 0.00943 86.24213 102.21719
98.0 0.01020 86.25823 102.23478
101.0 0.00990 86.27444 102.30608
99.0 0.01010 86.29070 102.42455
103.0 0.00971 86.30701 102.58504
111.0 0.00901 86.32343 102.78406
111.0 0.00901 86.33992 103.01924
106.0 0.00943 86.35649 103.28925
94.0 0.01064 86.37314 103.59362
121.0 0.00826 86.38985 103.93246
98.0 0.01020 86.40668 104.30650
103.0 0.00971 86.42356 104.71685
102.0 0.00980 86.44054 105.16509
106.0 0.00943 86.45760 105.65314
112.0 0.00893 86.47475 106.18321
112.0 0.00893 86.49200 106.75797
102.0 0.00980 86.50933 107.38049
117.0 0.00855 86.52673 108.05419
120.0 0.00833 86.54425 108.78311
96.0 0.01042 86.56184 109.57169
132.0 0.00758 86.57952 110.42500
116.0 0.00862 86.59730 111.34897
99.0 0.01010 86.61516 112.35020
105.0 0.00952 86.63316 113.43631
122.0 0.00820 86.65119 114.61625
133.0 0.00752 86.66937 115.90037
115.0 0.00870 86.68763 117.30101
128.0 0.00781 86.70600 118.83294
124.0 0.00806 86.72445 120.51402
130.0 0.00769 86.74300 122.36618
137.0 0.00730 86.76168 124.41641
116.0 0.00862 86.78043 126.69822
121.0 0.00826 86.79930 129.25291
113.0 0.00885 86.81829 132.13161
119.0 0.00840 86.83737 135.39684
131.0 0.00763 86.85655 139.12526
147.0 0.00680 86.87584 143.41066
134.0 0.00746 86.89526 148.36841
145.0 0.00690 86.91477 154.14211
168.0 0.00595 86.93440 160.91371
164.0 0.00610 86.95414 168.91676
174.0 0.00575 86.97400 178.45424
179.0 0.00559 86.99395 189.91914
183.0 0.00546 87.01402 203.81314
202.0 0.00495 87.03422 220.76112
219.0 0.00457 87.05454 241.51358
206.0 0.00485 87.07496 266.94028
256.0 0.00391 87.09550 298.01669
317.0 0.003155 87.11619 335.80704
393.0 0.002545 87.13696 381.42087
414.0 0.002415 87.15786 435.90106
537.0 0.001862 87.17888 500.02179
646.0 0.001548 87.20003 574.02448
799.0 0.001252 87.22131 657.34015
898.0 0.001114 87.24270 748.30945
962.0 0.001040 87.26423 843.88141
1084.0 0.000923 87.28585 939.28369
1120.0 0.000893 87.30763 1027.79773
1147.0 0.000872 87.32953 1101.01770
1047.0 0.000955 87.35157 1150.14148
1040.0 0.000962 87.37370 1168.43799
977.0 0.001024 87.39600 1153.87927
907.0 0.001103 87.41842 1110.23889
862.0 0.001160 87.44094 1045.23853
837.0 0.001195 87.46362 968.42889
791.0 0.001264 87.48644 888.53131
695.0 0.001439 87.50937 812.50726
607.0 0.001647 87.53247 745.42694
650.0 0.001538 87.55566 690.68561
635.0 0.001575 87.57901 650.23035
652.0 0.001534 87.60248 624.71228
648.0 0.001543 87.62611 613.59320
607.0 0.001647 87.64983 615.21973
726.0 0.001377 87.67374 626.86475
687.0 0.001456 87.69775 644.73853
730.0 0.001370 87.72192 664.04761
678.0 0.001475 87.74622 679.30621
680.0 0.001471 87.77067 685.40491
675.0 0.001481 87.79525 677.92023
620.0 0.001613 87.81995 655.81177
568.0 0.001761 87.84483 620.66699
506.0 0.001976 87.86983 576.03375
478.0 0.002092 87.89497 526.10254
439.0 0.002278 87.92026 474.47659
376.0 0.002660 87.94569 424.05716
359.0 0.002786 87.97125 376.82150
318.0 0.003145 87.99697 334.01065
305.0 0.003279 88.02283 296.28058
243.0 0.00412 88.04881 263.83246
232.0 0.00431 88.07497 236.52211
214.0 0.00467 88.10126 213.96040
212.0 0.00472 88.12770 195.60406
189.0 0.00529 88.15428 180.83693
169.0 0.00592 88.18099 169.03574
155.0 0.00645 88.20786 159.61794
162.0 0.00617 88.23486 152.07121
140.0 0.00714 88.26202 145.96767
152.0 0.00658 88.28932 140.96407
125.0 0.00800 88.31677 136.92259
143.0 0.00699 88.34436 133.38986
134.0 0.00746 88.37209 130.34584
140.0 0.00714 88.39997 127.68751
124.0 0.00806 88.42802 125.33200
150.0 0.00667 88.45618 123.22678
136.0 0.00735 88.48449 121.33112
125.0 0.00800 88.51296 119.61414
133.0 0.00752 88.54156 118.05216
118.0 0.00847 88.57032 116.62628
128.0 0.00781 88.59920 115.32130
108.0 0.00926 88.62826 114.12369
104.0 0.00962 88.65745 113.02284
112.0 0.00893 88.68677 112.00941
116.0 0.00862 88.71623 111.07502
119.0 0.00840 88.74583 110.21313
105.0 0.00952 88.77560 109.41743
99.0 0.01010 88.80550 108.68262
111.0 0.00901 88.83556 108.00426
112.0 0.00893 88.86572 107.37844
106.0 0.00943 88.89606 106.80220
109.0 0.00917 88.92652 106.27329
101.0 0.00990 88.95712 105.79032
117.0 0.00855 88.98787 105.35290
115.0 0.00870 89.01874 104.96370
109.0 0.00917 89.04977 104.89615
107.0 0.00935 89.08091 104.60990
100.0 0.01000 89.11221 104.38396
109.0 0.00917 89.14362 104.22729
120.0 0.00833 89.17520 104.15121
113.0 0.00885 89.20689 104.16927
118.0 0.00847 89.23871 104.29562
99.0 0.01010 89.27069 104.54551
129.0 0.00775 89.30277 104.93194
91.0 0.01099 89.33499 105.46460
135.0 0.00741 89.36735 106.14733
124.0 0.00806 89.39983 106.97554
122.0 0.00820 89.43243 107.93346
98.0 0.01020 89.46517 108.99110
99.0 0.01010 89.49801 110.10015
111.0 0.00901 89.53098 111.19063
101.0 0.00990 89.56409 112.16962
118.0 0.00847 89.59731 112.92915
105.0 0.00952 89.63066 113.36782
118.0 0.00847 89.66410 113.42340
91.0 0.01099 89.69768 113.23650
111.0 0.00901 89.73136 112.59861
113.0 0.00885 89.76515 111.75204
104.0 0.00962 89.79906 110.80660
115.0 0.00870 89.83308 109.85406
95.0 0.01053 89.86721 108.96001
112.0 0.00893 89.90143 108.16581
129.0 0.00775 89.93578 107.49518
126.0 0.00794 89.97021 106.96151
128.0 0.00781 90.00475 106.57319
117.0 0.00855 90.03938 106.33334
127.0 0.00787 90.07412 106.23662
111.0 0.00901 90.10896 106.26468
116.0 0.00862 90.14387 106.38358
114.0 0.00877 90.17887 106.54341
131.0 0.00763 90.21397 106.68140
133.0 0.00752 90.24917 106.73138
101.0 0.00990 90.28441 106.63892
117.0 0.00855 90.31976 106.37721
104.0 0.00962 90.35518 105.95274
112.0 0.00893 90.39066 105.39818
124.0 0.00806 90.42626 104.75768
109.0 0.00917 90.46188 104.07434
120.0 0.00833 90.49760 103.38323
115.0 0.00870 90.53339 102.70862
98.0 0.01020 90.56920 102.06588
125.0 0.00800 90.60510 101.46403
93.0 0.01075 90.64102 100.90972
83.0 0.01205 90.67706 100.40860
115.0 0.00870 90.71308 99.96516
93.0 0.01075 90.74918 99.58163
95.0 0.01053 90.78532 99.25713
106.0 0.00943 90.82150 98.98812
97.0 0.01031 90.85773 98.76892
102.0 0.00980 90.89398 98.59261
97.0 0.01031 90.93024 98.45122
95.0 0.01053 90.96654 98.33632
106.0 0.00943 91.00288 98.23976
107.0 0.00935 91.03923 98.15395
100.0 0.01000 91.07560 98.07339
91.0 0.01099 91.11195 97.99505
100.0 0.01000 91.14835 97.91843
113.0 0.00885 91.18472 97.84447
101.0 0.00990 91.22111 97.77491
122.0 0.00820 91.25748 97.71133
81.0 0.01235 91.29385 97.65489
94.0 0.01064 91.33022 97.60622
86.0 0.01163 91.36655 97.56577
107.0 0.00935 91.40285 97.53349
95.0 0.01053 91.43914 97.50914
122.0 0.00820 91.47540 97.49241
119.0 0.00840 91.51163 97.48277
90.0 0.01111 91.54778 97.47968
102.0 0.00980 91.58394 97.48250
93.0 0.01075 91.62000 97.49055
81.0 0.01235 91.65604 97.50335
106.0 0.00943 91.69199 97.52037
97.0 0.01031 91.72790 97.54121
93.0 0.01075 91.76375 97.56538
101.0 0.00990 91.79948 97.59269
111.0 0.00901 91.83515 97.62285
93.0 0.01075 91.87072 97.65570
92.0 0.01087 91.90623 97.69115
100.0 0.01000 91.94159 97.72905
107.0 0.00935 91.97689 97.76939
88.0 0.01136 92.01205 97.81198
102.0 0.00980 92.04710 97.85698
94.0 0.01064 92.08204 97.90420
84.0 0.01190 92.11684 97.95380
93.0 0.01075 92.15151 98.00555
92.0 0.01087 92.18601 98.05965
92.0 0.01087 92.22041 98.11609
94.0 0.01064 92.25462 98.17484
104.0 0.00962 92.28869 98.23598
104.0 0.00962 92.32256 98.29951
81.0 0.01235 92.35629 98.36554
92.0 0.01087 92.38982 98.43409
101.0 0.00990 92.42316 98.50525
91.0 0.01099 92.45632 98.57906
94.0 0.01064 92.48924 98.65569
100.0 0.01000 92.52199 98.73505
103.0 0.00971 92.55450 98.81747
93.0 0.01075 92.58678 98.90297
99.0 0.01010 92.61882 98.99162
101.0 0.00990 92.65063 99.08362
104.0 0.00962 92.68220 99.17914
89.0 0.01124 92.71349 99.27831
102.0 0.00980 92.74454 99.38137
99.0 0.01010 92.77527 99.48847
120.0 0.00833 92.80577 99.59990
84.0 0.01190 92.83596 99.71583
94.0 0.01064 92.86585 99.83662
91.0 0.01099 92.89540 99.96249
117.0 0.00855 92.92467 100.09386
120.0 0.00833 92.95361 100.23100
105.0 0.00952 92.98219 100.37440
85.0 0.01176 93.01044 100.52441
106.0 0.00943 93.03834 100.68159
103.0 0.00971 93.06587 100.68417
117.0 0.00855 93.09302 100.85835
113.0 0.00885 93.11980 101.04152
115.0 0.00870 93.14617 101.23432
112.0 0.00893 93.17213 101.43781
111.0 0.00901 93.19772 101.65263
106.0 0.00943 93.22283 101.88005
120.0 0.00833 93.24754 102.12110
93.0 0.01075 93.27180 102.37723
95.0 0.01053 93.29560 102.64979
121.0 0.00826 93.31894 102.94051
113.0 0.00885 93.34179 103.25135
96.0 0.01042 93.36416 103.58450
92.0 0.01087 93.38604 103.94247
127.0 0.00787 93.40739 104.32829
93.0 0.01075 93.42822 104.74545
109.0 0.00917 93.44853 105.19819
90.0 0.01111 93.46828 105.60706
123.0 0.00813 93.48749 106.14883
107.0 0.00935 93.50610 106.74687
111.0 0.00901 93.52414 107.41296
104.0 0.00962 93.54160 108.16299
105.0 0.00952 93.55844 109.01870
113.0 0.00885 93.57466 110.01016
103.0 0.00971 93.59025 111.17831
104.0 0.00962 93.60519 112.57830
119.0 0.00840 93.61948 114.28273
112.0 0.00893 93.63309 116.38495
104.0 0.00962 93.64601 119.00096
127.0 0.00787 93.65823 122.26978
121.0 0.00826 93.66975 126.35078
138.0 0.00725 93.68055 131.41754
116.0 0.00862 93.69057 137.64729
156.0 0.00641 93.69985 145.20540
161.0 0.00621 93.70839 154.22638
185.0 0.00541 93.71613 164.79131
192.0 0.00521 93.72306 176.90283
211.0 0.00474 93.72917 190.45879
215.0 0.00465 93.73446 205.22202
236.0 0.00424 93.73891 220.78554
259.0 0.00386 93.74247 236.53236
256.0 0.00391 93.74519 251.59967
263.0 0.00380 93.74701 264.88153
259.0 0.00386 93.74791 275.12595
248.0 0.00403 93.74790 281.17673
226.0 0.00442 93.74695 282.31659
295.0 0.003390 93.74504 278.54092
271.0 0.00369 93.74215 270.57870
242.0 0.00413 93.73827 259.64246
239.0 0.00418 93.73338 247.08328
238.0 0.00420 93.72746 234.13097
226.0 0.00442 93.72051 221.77682
217.0 0.00461 93.71249 210.75723
207.0 0.00483 93.70339 201.57901
185.0 0.00541 93.69321 194.54977
162.0 0.00617 93.68192 189.80223
184.0 0.00543 93.66947 187.31233
195.0 0.00513 93.65588 186.91183
212.0 0.00472 93.64113 188.29767
177.0 0.00565 93.62518 191.03508
207.0 0.00483 93.60800 194.55826
194.0 0.00515 93.58963 198.16687
177.0 0.00565 93.57000 201.11263
196.0 0.00510 93.54910 202.63109
219.0 0.00457 93.52691 202.14806
184.0 0.00543 93.50341 199.42323
182.0 0.00549 93.47858 194.60425
183.0 0.00546 93.45241 188.13954
183.0 0.00546 93.42484 180.61055
157.0 0.00637 93.39592 172.58212
171.0 0.00585 93.36555 164.52106
170.0 0.00588 93.33379 156.77524
135.0 0.00741 93.30054 149.58350
138.0 0.00725 93.26582 143.09454
129.0 0.00775 93.22960 137.38458
119.0 0.00840 93.19185 132.47284
122.0 0.00820 93.15255 128.33453
124.0 0.00806 93.11169 124.91311
106.0 0.00943 93.06926 122.13210
123.0 0.00813 93.02518 119.90498
122.0 0.00820 92.97946 118.14348
106.0 0.00943 92.93209 116.76417
123.0 0.00813 92.88304 115.69231
115.0 0.00870 92.83227 114.86418
120.0 0.00833 92.77975 114.22739
101.0 0.00990 92.72549 113.74059
138.0 0.00725 92.66943 113.37183
96.0 0.01042 92.61156 113.09726
121.0 0.00826 92.55186 112.89924
126.0 0.00794 92.49029 112.76505
106.0 0.00943 92.42684 112.68556
110.0 0.00909 92.36143 112.65425
128.0 0.00781 92.29415 112.66644
104.0 0.00962 92.22485 112.71877
116.0 0.00862 92.15359 112.80901
108.0 0.00926 92.08027 112.93539
109.0 0.00917 92.00492 113.09692
112.0 0.00893 91.92749 113.29284
122.0 0.00820 91.84795 113.52290
134.0 0.00746 91.76627 113.78708
109.0 0.00917 91.68240 114.08574
130.0 0.00769 91.59638 114.41936
131.0 0.00763 91.50810 114.78887
113.0 0.00885 91.41759 115.19539
105.0 0.00952 91.32482 115.64022
137.0 0.00730 91.22968 116.12505
102.0 0.00980 91.13224 116.65187
125.0 0.00800 91.03240 117.22287
118.0 0.00847 90.93018 117.84071
108.0 0.00926 90.82549 118.50825
120.0 0.00833 90.71837 119.22890
129.0 0.00775 90.60871 120.00639
138.0 0.00725 90.49654 120.84496
118.0 0.00847 90.38183 121.74941
128.0 0.00781 90.26449 122.72508
136.0 0.00735 90.14453 123.77809
139.0 0.00719 90.02188 124.91520
111.0 0.00901 89.89658 126.14418
135.0 0.00741 89.76850 127.47368
135.0 0.00741 89.63767 128.91368
134.0 0.00746 89.50404 130.47536
141.0 0.00709 89.36760 132.17180
145.0 0.00690 89.22829 134.01791
138.0 0.00725 89.08603 136.03122
148.0 0.00676 88.94086 138.23274
132.0 0.00758 88.79269 140.64767
143.0 0.00699 88.64154 143.30765
134.0 0.00746 88.48729 146.25270
139.0 0.00719 88.33002 149.53516
175.0 0.00571 88.16959 153.22456
153.0 0.00654 88.00594 157.41463
154.0 0.00649 87.83917 162.23297
183.0 0.00546 87.66908 167.85179
188.0 0.00532 87.49580 174.50291
164.0 0.00610 87.31910 182.49191
192.0 0.00521 87.13912 192.21375
198.0 0.00505 86.95570 203.90286
197.0 0.00508 86.76888 218.68877
220.0 0.00455 86.57859 237.01529
210.0 0.00476 86.38470 259.67490
288.0 0.003472 86.18732 287.50919
312.0 0.003205 85.98628 321.35266
349.0 0.002865 85.78165 361.95914
446.0 0.002242 85.57327 409.90967
497.0 0.002012 85.36123 465.51181
660.0 0.001515 85.14533 528.68628
702.0 0.001425 84.92571 598.84497
834.0 0.001199 84.70222 674.74762
825.0 0.001212 84.47473 754.32819
947.0 0.001056 84.24337 834.50323
998.0 0.001002 84.00797 911.03638
1013.0 0.000987 83.76858 978.66095
982.0 0.001018 83.52501 1031.73584
957.0 0.001045 83.27742 1065.56421
942.0 0.001062 83.02564 1077.84363
887.0 0.001127 82.76955 1070.14978
956.0 0.001046 82.50926 1046.78516
960.0 0.001042 82.24458 1013.87219
958.0 0.001044 81.97560 977.61768
938.0 0.001066 81.70211 943.23425
909.0 0.001100 81.42427 914.49506
923.0 0.001083 81.14180 893.66870
902.0 . . .
loop_
_refln_index_h
_refln_index_k
_refln_index_l
_pd_refln_wavelength_id
_refln_observed_status
_refln_F_squared_meas
_refln_F_squared_calc
_refln_phase_calc
_refln_d_spacing
0 1 1 1 o 642.283 509.284 180.00 4.92922
0 1 1 2 o 628.418 509.284 180.00 4.92922
1 1 2 1 o 69168.95 69409.96 180.00 3.22567
0 1 3 1 o 826.724 829.791 180.00 3.22189
1 1 2 2 o 69209.83 69409.96 180.00 3.22567
0 1 3 2 o 823.121 829.791 180.00 3.22189
0 0 4 1 o 46860.78 45140.39 180.00 3.01028
0 0 4 2 o 46395.27 45140.39 180.00 3.01028
0 2 0 1 o 37053.78 37251.41 180.00 2.70132
0 2 0 2 o 37174.86 37251.41 180.00 2.70132
0 2 2 1 o 1037.910 1019.781 180.00 2.46461
0 2 2 2 o 1058.235 1019.781 180.00 2.46461
2 1 1 1 o 1749.387 1716.853 0.00 2.36892
1 2 1 1 o 1453.510 1424.281 180.00 2.36892
1 1 4 1 o 3734.887 3727.127 180.00 2.36443
2 1 1 2 o 1718.936 1716.853 0.00 2.36892
1 2 1 2 o 1426.152 1424.281 180.00 2.36892
1 1 4 2 o 3605.825 3727.127 180.00 2.36443
0 1 5 1 o 391.703 393.436 180.00 2.19960
0 1 5 2 o 404.852 393.436 180.00 2.19960
2 1 3 1 o 373.830 357.931 180.00 2.07002
1 2 3 1 o 1661.349 1598.955 180.00 2.07002
1 2 3 2 o 1639.385 1598.955 180.00 2.07002
2 1 3 2 o 368.233 357.931 180.00 2.07002
0 2 4 1 o 60547.91 58526.41 0.00 2.01051
0 2 4 2 o 60836.96 58526.41 0.00 2.01051
2 2 0 1 o 54417.48 53091.15 180.00 1.91012
2 2 0 2 o 54012.40 53091.15 180.00 1.91012
2 2 2 1 o 96.129 154.114 180.00 1.82069
2 2 2 2 o 119.393 154.114 180.00 1.82069
1 1 6 1 o 43213.36 43591.78 0.00 1.77663
1 1 6 2 o 43571.25 43591.78 0.00 1.77663
0 3 1 1 o 85.701 87.518 180.00 1.78107
0 3 1 2 o 86.918 87.518 180.00 1.78107
1 2 5 1 o 907.487 899.570 0.00 1.70566
2 1 5 1 o 712.292 706.029 0.00 1.70566
1 2 5 2 o 945.767 899.570 0.00 1.70566
2 1 5 2 o 742.571 706.029 0.00 1.70566
1 3 2 1 o 48638.13 48488.59 0.00 1.64357
3 1 2 1 o 32715.590 32615.529 180.00 1.64357
0 3 3 1 o 10.525 10.479 180.00 1.64307
1 3 2 2 o 48608.86 48488.59 0.00 1.64357
3 1 2 2 o 32696.006 32615.529 180.00 1.64357
0 1 7 1 o 83.968 83.753 180.00 1.63909
0 3 3 2 o 10.525 10.479 180.00 1.64307
0 1 7 2 o 79.417 83.753 180.00 1.63909
2 2 4 1 o 41625.03 40117.94 0.00 1.61283
0 2 6 1 o 17.057 16.440 0.00 1.61094
2 2 4 2 o 42122.59 40117.94 0.00 1.61283
0 2 6 2 o 17.589 16.440 0.00 1.61094
0 0 8 1 o 24341.518 25900.535 0.00 1.50514
0 0 8 2 o 25436.316 25900.535 0.00 1.50514
3 2 1 1 o 41.681 44.921 0.00 1.48696
2 3 1 1 o 1441.809 1565.001 0.00 1.48696
1 3 4 1 o 1.263 1.382 180.00 1.48584
3 1 4 1 o 42.928 46.964 0.00 1.48584
2 3 1 2 o 1406.622 1565.001 0.00 1.48696
3 2 1 2 o 40.755 44.921 0.00 1.48696
3 1 4 2 o 41.543 46.964 0.00 1.48584
1 3 4 2 o 1.223 1.382 180.00 1.48584
0 3 5 1 o 725.830 917.096 180.00 1.44222
0 3 5 2 o 794.921 917.096 180.00 1.44222
3 2 3 1 o 1188.594 1199.669 0.00 1.40379
2 3 3 1 o 133.403 134.792 0.00 1.40379
2 1 7 1 o 884.337 851.538 0.00 1.40130
1 2 7 1 o 268.871 258.394 180.00 1.40130
1 1 8 1 o 646.104 614.638 180.00 1.40037
2 3 3 2 o 144.634 134.792 0.00 1.40379
3 2 3 2 o 1278.156 1199.669 0.00 1.40379
1 2 7 2 o 272.670 258.394 180.00 1.40130
2 1 7 2 o 896.227 851.538 0.00 1.40130
1 1 8 2 o 631.991 614.638 180.00 1.40037
2 2 6 1 o 0.074 3.020 0.00 1.38359
2 2 6 2 o 3.725 3.020 0.00 1.38359
0 4 0 1 o 31598.627 33144.848 0.00 1.35066
0 4 0 2 o 35043.113 33144.848 0.00 1.35066
0 2 8 1 o 36920.75 38388.01 180.00 1.31482
0 2 8 2 o 39411.20 38388.01 180.00 1.31482
0 4 2 1 o 898.643 1017.323 180.00 1.31790
0 4 2 2 o 979.891 1017.323 180.00 1.31790
0 1 9 1 o 209.307 200.380 180.00 1.29867
1 4 1 1 o 48.835 54.120 0.00 1.30264
4 1 1 1 o 188.748 206.122 180.00 1.30264
0 1 9 2 o 232.689 200.380 180.00 1.29867
3 1 6 1 o 43709.85 44087.81 0.00 1.30090
1 3 6 1 o 25538.066 25757.051 180.00 1.30090
4 1 1 2 o 211.452 206.122 180.00 1.30264
1 4 1 2 o 55.742 54.120 0.00 1.30264
1 3 6 2 o 27249.553 25757.051 180.00 1.30090
3 1 6 2 o 46663.95 44087.81 0.00 1.30090
2 3 5 1 o 254.000 115.951 0.00 1.27225
3 2 5 1 o 13.589 3.479 180.00 1.27225
2 3 5 2 o 247.289 115.951 0.00 1.27225
3 2 5 2 o 13.097 3.479 180.00 1.27225
3 3 2 1 o 32571.986 32266.154 0.00 1.24585
1 4 3 1 o 765.932 755.017 180.00 1.24564
4 1 3 1 o 126.311 124.322 180.00 1.24564
0 3 7 1 o 715.944 698.823 180.00 1.24390
3 3 2 2 o 33127.625 32266.154 0.00 1.24585
4 1 3 2 o 128.555 124.322 180.00 1.24564
1 4 3 2 o 778.253 755.017 180.00 1.24564
0 3 7 2 o 717.832 698.823 180.00 1.24390
0 4 4 1 o 28798.539 29908.461 180.00 1.23230
0 4 4 2 o 30007.342 29908.461 180.00 1.23230
2 4 0 1 o 37645.60 36485.96 0.00 1.20807
4 2 0 1 o 32606.465 31604.322 180.00 1.20807
4 2 0 2 o 32748.400 31604.322 180.00 1.20807
2 4 0 2 o 37809.83 36485.96 0.00 1.20807
2 2 8 1 o 26380.891 26963.268 180.00 1.18222
2 2 8 2 o 27048.232 26963.268 180.00 1.18222
2 4 2 1 o 59.052 64.597 0.00 1.18446
4 2 2 1 o 458.625 501.693 0.00 1.18446
4 2 2 2 o 487.920 501.693 0.00 1.18446
2 4 2 2 o 62.824 64.597 0.00 1.18446
3 3 4 1 o 274.310 247.537 180.00 1.17280
1 2 9 1 o 145.936 127.215 0.00 1.17044
2 1 9 1 o 476.249 408.076 180.00 1.17044
3 3 4 2 o 278.683 247.537 180.00 1.17280
2 1 9 2 o 447.293 408.076 180.00 1.17044
1 2 9 2 o 137.984 127.215 0.00 1.17044
1 4 5 1 o 17.188 21.256 0.00 1.15099
4 1 5 1 o 19.359 26.429 0.00 1.15099
1 1 10 1 o 26232.406 27058.102 180.00 1.14842
4 1 5 2 o 25.142 26.429 0.00 1.15099
1 4 5 2 o 20.515 21.256 0.00 1.15099
1 1 10 2 o 26823.527 27058.102 180.00 1.14842
2 3 7 1 o 118.505 113.668 0.00 1.12986
3 2 7 1 o 38.176 35.947 180.00 1.12986
3 1 8 1 o 12.050 11.805 0.00 1.12937
1 3 8 1 o 0.355 0.347 180.00 1.12937
3 2 7 2 o 32.732 35.947 180.00 1.12986
2 3 7 2 o 106.688 113.668 0.00 1.12986
1 3 8 2 o 0.324 0.347 180.00 1.12937
3 1 8 2 o 11.024 11.805 0.00 1.12937
2 4 4 1 o 24130.313 23632.006 180.00 1.12115
4 2 4 1 o 25595.213 25066.100 0.00 1.12115
0 4 6 1 o 25.365 25.179 0.00 1.12052
4 2 4 2 o 25214.439 25066.100 0.00 1.12115
2 4 4 2 o 23771.701 23632.006 180.00 1.12115
0 4 6 2 o 25.254 25.179 0.00 1.12052
0 2 10 1 o 244.528 147.813 0.00 1.09980
0 2 10 2 o 235.589 147.813 0.00 1.09980
3 4 1 1 o 251.905 242.495 0.00 1.07620
4 3 1 1 o 40.455 38.607 0.00 1.07620
3 3 6 1 o 22551.293 21838.820 180.00 1.07522
0 3 9 1 o 61.374 59.208 0.00 1.07396
3 4 1 2 o 251.074 242.495 0.00 1.07620
4 3 1 2 o 40.292 38.607 0.00 1.07620
0 1 11 1 o 117.321 113.250 180.00 1.07285
3 3 6 2 o 22401.131 21838.820 180.00 1.07522
0 5 1 1 o 245.076 235.149 180.00 1.07620
0 3 9 2 o 61.284 59.208 0.00 1.07396
0 1 11 2 o 119.860 113.250 180.00 1.07285
0 5 1 2 o 243.510 235.149 180.00 1.07620
1 5 2 1 o 20701.102 20405.994 180.00 1.04351
5 1 2 1 o 27953.895 27553.098 180.00 1.04351
4 3 3 1 o 1.881 1.801 180.00 1.04338
0 5 3 1 o 0.295 0.219 180.00 1.04338
3 4 3 1 o 1.136 1.061 0.00 1.04338
4 1 7 1 o 29.412 29.330 0.00 1.04236
1 4 7 1 o 0.534 0.518 0.00 1.04236
5 1 2 2 o 27383.672 27553.098 180.00 1.04351
1 5 2 2 o 20281.242 20405.994 180.00 1.04351
0 5 3 2 o 0.160 0.219 180.00 1.04338
4 3 3 2 o 1.753 1.801 180.00 1.04338
3 4 3 2 o 1.015 1.061 0.00 1.04338
4 1 7 2 o 28.939 29.330 0.00 1.04236
1 4 7 2 o 0.443 0.518 0.00 1.04236
4 2 6 1 o 14.583 13.413 180.00 1.03501
2 4 6 1 o 1.878 1.727 180.00 1.03501
2 4 6 2 o 2.609 1.727 180.00 1.03501
4 2 6 2 o 20.261 13.413 180.00 1.03501
2 2 10 1 o 26.947 32.644 0.00 1.01861
2 2 10 2 o 37.810 32.644 0.00 1.01861
0 0 12 1 o 29878.156 29286.873 180.00 1.00343
0 4 8 1 o 22149.520 21902.203 0.00 1.00525
0 0 12 2 o 29848.900 29286.873 180.00 1.00343
0 4 8 2 o 21974.264 21902.203 0.00 1.00525
5 2 1 1 o 460.339 437.728 180.00 0.99978
2 5 1 1 o 0.851 0.534 0.00 0.99978
5 1 4 1 o 2.513 2.375 180.00 0.99944
1 5 4 1 o 63.939 60.434 0.00 0.99944
2 1 11 2 o 6.656 6.945 0.00 0.99709
1 2 11 2 o 483.707 497.701 0.00 0.99709
3 2 9 1 o 589.976 557.353 180.00 0.99798
2 3 9 1 o 25.039 23.103 0.00 0.99798
5 2 1 2 o 444.479 437.728 180.00 0.99978
2 5 1 2 o 0.629 0.534 0.00 0.99978
1 2 11 1 o 499.923 497.701 0.00 0.99709
2 1 11 1 o 6.991 6.945 0.00 0.99709
5 1 4 2 o 2.371 2.375 180.00 0.99944
1 5 4 2 o 60.328 60.434 0.00 0.99944
3 2 9 2 o 542.633 557.353 180.00 0.99798
2 3 9 2 o 22.230 23.103 0.00 0.99798
1 3 10 1 o 21250.320 21736.602 0.00 0.98423
3 1 10 1 o 19265.508 19705.467 180.00 0.98423
3 4 5 1 o 219.341 226.811 180.00 0.98584
0 5 5 1 o 185.875 192.405 0.00 0.98584
4 3 5 1 o 454.012 468.944 180.00 0.98584
1 3 10 2 o 21519.340 21736.602 0.00 0.98423
3 1 10 2 o 19508.889 19705.467 180.00 0.98423
4 3 5 2 o 447.143 468.944 180.00 0.98584
3 4 5 2 o 215.904 226.811 180.00 0.98584
0 5 5 2 o 182.581 192.405 0.00 0.98584
3 3 8 1 o 110.948 78.750 180.00 0.97216
5 2 3 2 o 146.951 87.798 0.00 0.97330
2 5 3 2 o 547.314 339.825 180.00 0.97330
1 1 12 1 o 57.327 37.888 0.00 0.97051
3 3 8 2 o 108.041 78.750 180.00 0.97216
2 5 3 1 o 380.200 339.825 180.00 0.97330
5 2 3 1 o 99.309 87.798 0.00 0.97330
1 1 12 2 o 50.909 37.888 0.00 0.97051
4 4 0 1 o 14672.986 14646.207 0.00 0.95506
4 4 0 2 o 14214.740 14646.207 0.00 0.95506
4 4 2 1 o 5.803 5.615 0.00 0.94327
4 2 8 1 o 18649.746 18474.561 180.00 0.94213
2 4 8 1 o 17092.201 16931.943 0.00 0.94213
