#------------------------------------------------------------------------------
#$Date: 2018-07-06 05:20:27 +0300 (Fri, 06 Jul 2018) $
#$Revision: 208877 $
#$URL: file:///home/coder/svn-repositories/cod/cif/2/30/06/2300641.cif $
#------------------------------------------------------------------------------
#
# This file is available in the Crystallography Open Database (COD),
# http://www.crystallography.net/. The original data for this entry
# were provided by IUCr Journals, http://journals.iucr.org/.
#
# The file may be used within the scientific community so long as
# proper attribution is given to the journal article from which the
# data were obtained.
#
data_2300641
loop_
_publ_author_name
'Wang, Yunchen'
'Yang, Taimin'
'Xu, Hongyi'
'Zou, Xiaodong'
'Wan, Wei'
_publ_section_title
;
 On the quality of the continuous rotation electron diffraction data for
 accurate atomic structure determination of inorganic compounds
;
_journal_issue                   4
_journal_name_full               'Journal of Applied Crystallography'
_journal_page_first
;
;
_journal_paper_doi               10.1107/S1600576718007604
_journal_volume                  51
_journal_year                    2018
_chemical_formula_sum            'O24 Si12'
_chemical_formula_weight         721.01
_space_group_crystal_system      orthorhombic
_space_group_IT_number           62
_space_group_name_Hall           '-P 2ac 2n'
_space_group_name_H-M_alt        'P n m a'
_symmetry_space_group_name_Hall  '-P 2ac 2n'
_symmetry_space_group_name_H-M   'P n m a'
_audit_creation_method           SHELXL-2018/3
_cell_angle_alpha                90
_cell_angle_beta                 90
_cell_angle_gamma                90
_cell_formula_units_Z            8
_cell_length_a                   20.022(4)
_cell_length_b                   19.899(4)
_cell_length_c                   13.383(3)
_cell_measurement_reflns_used    9808
_cell_measurement_temperature    293(2)
_cell_measurement_theta_max      0.827
_cell_measurement_theta_min      0.065
_cell_volume                     5332.0(19)
_computing_structure_refinement  'SHELXL-2018/3 (Sheldrick, 2018)'
_diffrn_ambient_temperature      293(2)
_diffrn_measured_fraction_theta_full 0.773
_diffrn_measured_fraction_theta_max 0.773
_diffrn_measurement_device_type  'JEOL JEM-2100'
_diffrn_radiation_wavelength     0.0251
_diffrn_reflns_av_R_equivalents  0.1909
_diffrn_reflns_av_unetI/netI     0.1671
_diffrn_reflns_Laue_measured_fraction_full 0.773
_diffrn_reflns_Laue_measured_fraction_max 0.773
_diffrn_reflns_limit_h_max       23
_diffrn_reflns_limit_h_min       -23
_diffrn_reflns_limit_k_max       20
_diffrn_reflns_limit_k_min       -20
_diffrn_reflns_limit_l_max       13
_diffrn_reflns_limit_l_min       -13
_diffrn_reflns_number            17564
_diffrn_reflns_point_group_measured_fraction_full 0.773
_diffrn_reflns_point_group_measured_fraction_max 0.773
_diffrn_reflns_theta_full        0.827
_diffrn_reflns_theta_max         0.827
_diffrn_reflns_theta_min         0.065
_exptl_absorpt_coefficient_mu    0.000
_exptl_crystal_colour            White
_exptl_crystal_density_diffrn    1.796
_exptl_crystal_description       Plate
_exptl_crystal_F_000             939
_refine_diff_density_max         0.237
_refine_diff_density_min         -0.162
_refine_diff_density_rms         0.047
_refine_ls_extinction_coef       874(100)
_refine_ls_extinction_expression Fc^*^=kFc[1+0.001xFc^2^\l^3^/sin(2\q)]^-1/4^
_refine_ls_extinction_method     'SHELXL-2018/3 (Sheldrick 2018)'
_refine_ls_goodness_of_fit_ref   1.131
_refine_ls_hydrogen_treatment    undef
_refine_ls_matrix_type           full
_refine_ls_number_parameters     150
_refine_ls_number_reflns         3390
_refine_ls_number_restraints     48
_refine_ls_restrained_S_all      1.138
_refine_ls_R_factor_all          0.2321
_refine_ls_R_factor_gt           0.1965
_refine_ls_shift/su_max          0.000
_refine_ls_shift/su_mean         0.000
_refine_ls_structure_factor_coef Fsqd
_refine_ls_weighting_details
'w=1/[\s^2^(Fo^2^)+(0.1964P)^2^+4.9252P] where P=(Fo^2^+2Fc^2^)/3'
_refine_ls_weighting_scheme      calc
_refine_ls_wR_factor_gt          0.4812
_refine_ls_wR_factor_ref         0.5085
_reflns_Friedel_coverage         0.000
_reflns_number_gt                2082
_reflns_number_total             3390
_reflns_threshold_expression     'I > 2\s(I)'
_cod_data_source_file            kc5069sup1.cif
_cod_data_source_block           dataset8
_cod_database_code               2300641
_shelx_shelxl_version_number     2018/3
_shelx_space_group_comment
;
The symmetry employed for this shelxl refinement is uniquely defined
by the following loop, which should always be used as a source of
symmetry information in preference to the above space-group names.
They are only intended as comments.
;
_shelx_res_file
;
TITL 3_a.res in Pnma
    3_a_Adjusted.res
    created by SHELXL-2018/3 at 11:45:28 on 24-Apr-2018

CELL  0.0251  20.0220  19.8990  13.3830   90.000   90.000   90.000
ZERR   8.000   0.0040   0.0040   0.0027    0.000    0.000    0.000
LATT 1
SYMM 1/2-x,-y,1/2+z
SYMM 1/2+x,1/2-y,1/2-z
SYMM -x,1/2+y,-z
REM  ------ Electron scattering factors ------
REM  SFAC Species a(1) b(1) a(2) b(2) a(3) b(3) =
REM  a(4) b(4) c f' f'' mu cov_radius weight
SFAC O      0.45480  23.78030   0.91730   7.62200   0.47190   2.14400 =
            0.13840   0.29590   0.00000   0.000   0.000   0.000   0.730  15.999
SFAC SI     2.12930  57.77480   2.53330  16.47560   0.83490   2.87960 =
            0.32160   0.38600   0.00000   0.000   0.000   0.000   1.110  28.086
UNIT 192 96
L.S. 20
BOND
LIST 6
FMAP 2
PLAN 20
SHEL 20 0.87
ACTA

EQIV $1   x-1/2, y, -z-1/2
EQIV $2   -x+1/2, -y, z-1/2
EQIV $3   x, -y-1/2, z
EQIV $4   -x+1/2, -y, z+1/2
EQIV $5   x+1/2, y, -z-1/2

DFIX 1.61 0.015 Si01 O01
DFIX 1.61 0.03 Si01 O15 Si01 O16 Si01 O21_$5
DFIX 1.61 0.015 Si02 O06
DFIX 1.61 0.03  Si02 O01 Si02 O02 Si02 O13
DFIX 1.61 0.01 Si03 O19_$4 Si03 O03
DFIX 1.61 0.03  Si03 O02 Si03 O20_$4
DFIX 1.61 0.01 Si04 O03
DFIX 1.61 0.03 Si04 O17_$4 Si04 O16_$4 Si04 O04
DFIX 1.61 0.015 Si05 O04
DFIX 1.61 0.03 Si05 O14 Si05 O21 Si05 O05
DFIX 1.61 0.015 Si06 O06
DFIX 1.61 0.03 Si06 O05 Si06 O19 Si06 O18
DFIX 1.61 0.015 Si07 O17 Si07 O22_$5
DFIX 1.61 0.03 Si07 O07 Si07 O23
DFIX 1.61 0.015 Si08 O12
DFIX 1.61 0.03  Si08 O13 Si08 O08 Si08 O07
DFIX 1.61 0.03 Si09 O18_$4 Si09 O25 Si09 O08 Si09 O09
DFIX 1.61 0.03 Si10 O09 Si10 O26 Si10 O15_$4 Si10 O10
DFIX 1.61 0.015 Si11 O10 Si11 O22 Si11 O11
DFIX 1.61 0.03   Si11 O14
DFIX 1.61 0.015 Si12 O11 Si12 O12 Si12 O20
DFIX 1.61 0.03   Si12 O24

WGHT    0.196400    4.925200
EXTI  873.579102
FVAR       1.33449
SI01  2    0.423136    0.057363   -0.335451    11.00000    0.02220
SI02  2    0.308769    0.029360   -0.188327    11.00000    0.02741
SI03  2    0.279748    0.061625    0.035272    11.00000    0.02457
SI04  2    0.122611    0.063867    0.028676    11.00000    0.02193
SI05  2    0.072514    0.028464   -0.183581    11.00000    0.01883
SI06  2    0.187546    0.059824   -0.326501    11.00000    0.02164
SI07  2    0.422758   -0.171820   -0.324488    11.00000    0.02111
SI08  2    0.308510   -0.129937   -0.183441    11.00000    0.02654
SI09  2    0.274632   -0.172432    0.031907    11.00000    0.02315
SI10  2    0.119797   -0.172332    0.030049    11.00000    0.02656
SI11  2    0.069191   -0.130084   -0.181927    11.00000    0.02098
SI12  2    0.187087   -0.172944   -0.316729    11.00000    0.02942
O01   1    0.373816    0.054272   -0.243248    11.00000    0.04966
O02   1    0.307993    0.059752   -0.076213    11.00000    0.04659
O03   1    0.201119    0.057389    0.031631    11.00000    0.04789
O04   1    0.095982    0.061694   -0.082170    11.00000    0.05829
O05   1    0.116304    0.055530   -0.273275    11.00000    0.04290
O06   1    0.245083    0.055928   -0.245669    11.00000    0.05666
O07   1    0.374630   -0.157154   -0.232951    11.00000    0.05324
O08   1    0.309366   -0.155045   -0.071485    11.00000    0.04631
O09   1    0.197103   -0.154583    0.026344    11.00000    0.04158
O10   1    0.086751   -0.164734   -0.078905    11.00000    0.07982
O11   1    0.117454   -0.158036   -0.266335    11.00000    0.05103
O12   1    0.242938   -0.152943   -0.239087    11.00000    0.05578
O13   1    0.307842   -0.050816   -0.180349    11.00000    0.08248
O14   1    0.078703   -0.050969   -0.171608    11.00000    0.05832
O15   1    0.416336    0.127927   -0.389040    11.00000    0.04548
O16   1    0.408214   -0.002325   -0.411712    11.00000    0.06448
O17   1    0.401387   -0.131924   -0.422168    11.00000    0.04746
O18   1    0.190221    0.130377   -0.380889    11.00000    0.04506
O19   1    0.191763    0.002628   -0.407874    11.00000    0.05644
O20   1    0.197336   -0.129541   -0.415198    11.00000    0.05708
O21   1   -0.002703    0.049457   -0.205960    11.00000    0.04037
O22   1   -0.004391   -0.152295   -0.209591    11.00000    0.04660
O23   1    0.424979   -0.250000   -0.352915    10.50000    0.05274
O24   1    0.190833   -0.250000   -0.348201    10.50000    0.05050
O25   1    0.285076   -0.250000    0.057886    10.50000    0.03935
O26   1    0.110146   -0.250000    0.060036    10.50000    0.04382
HKLF 4




REM  3_a.res in Pnma
REM wR2 = 0.5085, GooF = S = 1.131, Restrained GooF = 1.138 for all data
REM R1 = 0.1965 for 2082 Fo > 4sig(Fo) and 0.2321 for all 3390 data
REM 150 parameters refined using 48 restraints

END

WGHT      0.1954      4.9796

REM Highest difference peak  0.237,  deepest hole -0.162,  1-sigma level  0.047
Q1    1   0.1861 -0.2500  0.3181  10.50000  0.05    0.20
Q2    1   0.0014 -0.0567 -0.4478  11.00000  0.05    0.20
Q3    1   0.0801  0.2500 -0.1885  10.50000  0.05    0.19
Q4    1   0.4298  0.0582 -0.3053  11.00000  0.05    0.18
Q5    1   0.5041 -0.2500  0.0408  10.50000  0.05    0.18
Q6    1   0.4503 -0.2500  0.1728  10.50000  0.05    0.17
Q7    1   0.4476 -0.2500 -0.1250  10.50000  0.05    0.17
Q8    1  -0.0003  0.1660 -0.4427  11.00000  0.05    0.17
Q9    1   0.0012 -0.2500 -0.4257  10.50000  0.05    0.17
Q10   1   0.1877 -0.2500 -0.1212  10.50000  0.05    0.16
Q11   1  -0.0212 -0.2254 -0.3991  11.00000  0.05    0.16
Q12   1   0.2634  0.0590  0.0532  11.00000  0.05    0.15
Q13   1   0.0705 -0.2500 -0.4840  10.50000  0.05    0.15
Q14   1   0.2588 -0.1748 -0.2607  11.00000  0.05    0.15
Q15   1   0.4328 -0.1669 -0.2827  11.00000  0.05    0.15
Q16   1   0.3976 -0.2500 -0.3432  10.50000  0.05    0.14
Q17   1  -0.0142 -0.1347 -0.4299  11.00000  0.05    0.14
Q18   1   0.0076 -0.1756 -0.2318  11.00000  0.05    0.13
Q19   1   0.0446  0.1508 -0.3409  11.00000  0.05    0.13
Q20   1   0.2187  0.0037 -0.4025  11.00000  0.05    0.13
;
_shelx_res_checksum              19917
_shelx_hkl_file
;
   0   2   1   68.10   42.90   1
   0  -2  -1   62.50   42.90   1
   0   3   2  182.60   80.20   1
   0  -3  -2  249.70   80.50   1
   0   4   2  208.20   81.00   1
   0  -5  -3 6418.40 1046.90   1
   0   6   3  170.60   72.40   1
   0   6   4  337.60  104.10   1
   0  -6  -4  291.40  104.30   1
   0  -8  -4 6322.10 1034.70   1
   0   8   5   74.20   28.20   1
   0  -8  -5   13.50   28.10   1
   0   9   5  125.90   61.20   1
   0   9   6   26.50   29.80   1
   0  -9  -6   64.80   30.00   1
   0 -10  -5   10.10   16.60   1
   0  10   6  773.30  185.30   1
   0  10   7    8.20   14.90   1
   0 -11  -5   55.20   39.40   1
   0  11   6   82.00   48.50   1
   0  11   7  121.50   62.40   1
   0 -11  -7  156.80   62.70   1
   0 -12  -6  196.30   78.40   1
   0  12   7   71.00   44.90   1
   0  12   8  144.10   66.10   1
   0 -13  -6   21.90   24.50   1
   0 -13  -7 2173.20  412.50   1
   0  13   8   16.90   21.40   1
   0  13   9  119.90   60.00   1
   0  14   7   75.00   29.50   1
   0 -14  -7   25.70   29.10   1
   0  14   8  177.30   73.10   1
   0 -14  -8  169.50   72.90   1
   0  14   9    2.80   12.90   1
   0 -14  -9   22.30   13.00   1
   0  14  10    6.20   13.00   1
   0 -15  -7  433.00  127.60   1
   0 -15  -8   -0.10    0.30   1
   0  15   9   99.50   51.50   1
   0 -15  -9   84.60   51.50   1
   0  15  10    2.60    8.60   1
   0  16   8  135.50   59.20   1
   0 -16  -8  110.60   58.80   1
   0  16   9   -0.00    1.00   1
   0  16  10   83.20   27.90   1
   0 -16 -10   14.10   27.70   1
   0  16  11    1.90    7.30   1
   0 -17  -8   -0.00    2.50   1
   0  17   9   39.30   33.10   1
   0  17  10    7.20   12.60   1
   0 -17 -10    5.10   12.60   1
   0 -18  -8   26.60   27.20   1
   0  18   9   15.80   20.90   1
   0 -18 -10   14.90   20.10   1
   1   0   0   98.90   52.00   1
  -1   0   0   89.00   52.00   1
   1   0  -1 1260.00  287.70   1
  -1   0   1 1652.00  289.90   1
   1   1   0   46.60   40.60   1
  -1  -1   0   57.80   40.60   1
   1  -1   0   79.00   40.80   1
  -1   1   0  196.80   41.20   1
   1   1   1 1223.40  229.90   1
  -1  -1  -1 1315.20  230.60   1
   1  -1  -1 1022.10  227.80   1
  -1   1   1  901.50  227.40   1
   1   2   1 1055.60  218.70   1
  -1  -2  -1 1005.90  218.70   1
   1  -2  -1  821.40  218.10   1
  -1   2   1 1138.70  219.00   1
   1  -2  -2  258.40   85.00   1
  -1   2   2  205.90   84.80   1
   1   3   1 1905.20  304.90   1
  -1  -3  -1 1452.00  300.30   1
   1  -3  -1 1552.10  301.00   1
  -1   3   1 1310.60  299.40   1
   1   3   2  416.50  117.60   1
  -1  -3  -2  290.30  117.20   1
   1  -3  -2  473.10  117.40   1
  -1   3   2  463.60  117.50   1
   1  -3  -3 5107.60  903.30   1
  -1   3   3 5739.00  905.60   1
   1  -4  -1  659.60  173.10   1
  -1  -4  -2  421.40  108.70   1
   1  -4  -2  326.40  108.40   1
  -1   4   2  309.00  108.40   1
   1  -4  -3   24.20   25.40   1
  -1   4   3   22.90   25.40   1
  -1   4   4    8.70   15.40   1
   1  -5  -2 2563.40  362.50   1
  -1   5   2 1583.60  355.10   1
   1   5   3 4000.30  678.20   1
   1  -5  -3 3994.90  673.90   1
  -1   5   3 3820.80  673.20   1
   1  -5  -4 1523.80  305.30   1
  -1   5   4 1498.20  305.10   1
   1  -6  -2  220.20   87.10   1
  -1   6   2  266.20   87.90   1
   1  -6  -3   96.70   49.20   1
  -1   6   3   75.90   49.20   1
   1  -6  -4  480.80  143.60   1
  -1   6   4  601.40  143.80   1
   1  -6  -5  106.40   42.00   1
  -1   6   5   49.80   41.80   1
   1  -7  -3 2535.70  357.90   1
  -1   7   3 1525.60  352.30   1
   1  -7  -4  183.50   68.40   1
  -1   7   4  135.30   68.30   1
   1  -7  -5  340.50  106.90   1
  -1   7   5  326.40  106.60   1
  -1   7   6  103.60   55.20   1
   1  -8  -3  132.40   66.40   1
  -1   8   3  189.20   66.90   1
   1  -8  -4 2450.20  441.00   1
  -1   8   4 2342.70  441.50   1
   1  -8  -5  258.30   92.50   1
  -1   8   5  264.60   92.50   1
   1  -8  -6 2893.10  559.90   1
  -1   8   6 3526.30  565.70   1
   1  -9  -4   12.80   30.00   1
  -1   9   4  142.10   30.50   1
   1  -9  -5   21.00   17.40   1
  -1   9   5    4.30   17.40   1
   1  -9  -6   13.10   24.80   1
  -1   9   6   38.40   24.80   1
   1  -9  -7   77.50   39.00   1
  -1   9   7   46.10   38.80   1
   1 -10  -4   57.00   42.40   1
  -1  10   4   75.50   42.50   1
   1 -10  -5  216.70   77.60   1
  -1  10   5  177.20   77.50   1
   1 -10  -6  224.40   88.50   1
  -1  10   6  272.60   88.70   1
   1 -10  -7   22.10   16.30   1
  -1  10   7    6.40   16.20   1
  -1  10   8 1244.00  269.60   1
   1 -11  -5   33.50   34.60   1
  -1  11   5  511.30   39.90   1
   1 -11  -6   10.30   20.00   1
  -1  11   6   19.90   20.00   1
   1 -11  -7  113.20   45.70   1
  -1  11   7   58.00   45.60   1
   1 -11  -8   19.60   22.90   1
  -1  11   8   18.60   23.00   1
  -1  11   9   52.20   38.60   1
   1 -12  -5   22.60   24.70   1
  -1  12   5   21.30   24.70   1
   1 -12  -6 1069.00  230.50   1
  -1  12   6 1023.80  230.40   1
   1 -12  -7   19.20   22.80   1
  -1  12   7   19.00   22.80   1
   1 -12  -8  496.70  143.40   1
  -1  12   8  547.70  143.10   1
   1 -12  -9    3.60   13.60   1
  -1  12   9   11.80   13.70   1
   1 -13  -5  822.10  202.30   1
   1 -13  -6  366.70  115.90   1
  -1  13   6  395.90  116.40   1
   1 -13  -7  281.40   94.80   1
  -1  13   7  264.10   94.40   1
   1 -13  -8   32.90   26.30   1
  -1  13   8   20.20   26.30   1
   1 -13  -9   81.30   52.00   1
  -1  13   9  103.20   51.90   1
  -1  13  10   73.70   46.10   1
   1 -14  -6   30.00   35.00   1
  -1  14   6   74.20   35.30   1
   1 -14  -7   22.80   23.00   1
  -1  14   7   15.80   23.00   1
   1 -14  -8   51.80   40.10   1
  -1  14   8   69.00   40.20   1
   1 -14  -9   16.70   21.20   1
  -1  14   9   16.10   21.20   1
   1 -14 -10   24.90   22.00   1
  -1  14  10   12.60   21.90   1
  -1  14  11    2.30    8.10   1
   1 -15  -6   19.40   23.30   1
   1 -15  -7   38.70   34.50   1
  -1  15   7   51.70   34.70   1
   1 -15  -8    8.80   19.10   1
  -1  15   8   22.20   19.10   1
   1 -15  -9   52.10   31.70   1
  -1  15   9   28.30   31.60   1
   1 -15 -10   -0.00   14.40   1
  -1  15  10   10.70   14.30   1
   1 -15 -11   55.20   31.00   1
  -1  15  11   29.00   30.20   1
  -1  15  12   -0.00    1.70   1
   1 -16  -7    9.10   12.40   1
  -1  16   7    2.50   12.30   1
   1 -16  -8   52.90   33.20   1
  -1  16   8   29.40   33.10   1
   1 -16  -9   15.30   17.30   1
  -1  16   9    7.60   17.30   1
   1 -16 -10   13.70   19.80   1
  -1  16  10   15.30   19.80   1
   1 -16 -11   -0.00    9.40   1
  -1  16  11    5.20    9.30   1
   1 -17  -7   15.00   20.40   1
   1 -17  -8    7.20   15.70   1
  -1  17   8   12.80   15.80   1
   1 -17  -9    6.00   16.30   1
  -1  17   9   17.00   16.40   1
   1 -17 -10    8.50   16.00   1
  -1  17  10   11.20   16.10   1
   1 -18  -8  191.20   82.10   1
  -1  18   8  279.00   84.80   1
   1 -18  -9   21.00   21.70   1
  -1  18   9   11.70   21.70   1
   1 -18 -10   14.60   22.80   1
  -1  18  10   27.20   22.90   1
   1 -19  -8   -0.00    2.40   1
   1 -19  -9   18.30   22.50   1
  -1  19   9   18.40   22.60   1
   1 -20  -8   16.60   21.60   1
   2   0   0 2494.30  445.90   1
  -2   0   0 2350.80  444.90   1
   2   0   1  122.50   75.20   1
  -2   0  -1  132.80   75.20   1
   2   0  -1  279.70   75.40   1
  -2   0   1  244.00   75.30   1
   2   0  -2 2082.40  381.80   1
  -2   0   2 1925.90  380.50   1
   2   1   0  514.70  128.50   1
  -2  -1   0  438.80  128.30   1
   2  -1   0  397.90  128.30   1
  -2   1   0  462.90  128.50   1
   2   1   1  275.30   86.90   1
  -2  -1  -1  232.30   86.80   1
   2  -1  -1  203.70   86.80   1
  -2   1   1  280.70   86.90   1
  -2   1  -1  325.90   88.30   1
   2  -1   1  326.80   88.20   1
  -2  -1   1  227.00   87.00   1
   2   1  -1  187.10   86.90   1
   2   1   2  483.10  135.60   1
  -2  -1  -2  624.30  139.80   1
   2  -1  -2  563.50  132.60   1
  -2   1   2  403.50  132.10   1
   2  -1  -3  315.60   95.90   1
  -2   1   3  244.90   94.80   1
   2   2   0  887.20  194.90   1
  -2  -2   0  811.40  194.50   1
   2  -2   0  746.60  194.70   1
  -2   2   0  910.00  195.40   1
   2   2   1   40.60   24.40   1
  -2  -2  -1   36.50   24.40   1
   2  -2  -1    9.50   24.40   1
  -2   2   1    7.50   24.40   1
  -2  -2   1   26.00   24.60   1
   2   2  -1   22.80   24.60   1
   2   2   2  121.80   63.10   1
  -2  -2  -2  133.90   63.10   1
   2  -2  -2  131.90   63.00   1
  -2   2   2  140.60   63.00   1
   2  -2  -3   39.20   33.70   1
  -2   2   3   42.30   33.70   1
   2   3   0 1496.10  284.70   1
  -2  -3   0 1744.00  286.00   1
   2  -3   0 1103.90  282.50   1
  -2   3   0 1457.60  285.00   1
   2   3   1  179.50   54.70   1
  -2  -3  -1  200.20   54.80   1
   2  -3  -1   58.80   54.60   1
  -2   3   1  108.20   54.60   1
   2   3   2 1046.60  222.90   1
  -2  -3  -2 1221.70  223.20   1
   2  -3  -2  974.40  222.50   1
  -2   3   2  877.50  222.10   1
   2  -3  -3 1051.90  218.00   1
  -2   3   3  915.50  217.70   1
   2  -3  -4 1396.20  281.00   1
  -2   3   4 1321.00  280.00   1
   2   4   1   13.70   23.50   1
  -2  -4  -1   12.00   23.40   1
   2  -4  -1   47.70   23.80   1
  -2   4   1   56.50   23.80   1
   2   4   2   52.50   31.70   1
  -2  -4  -2   24.00   31.60   1
   2  -4  -2   32.70   31.70   1
  -2   4   2   53.00   31.70   1
   2   4   3  175.80   42.90   1
  -2  -4  -3   43.20   42.40   1
   2  -4  -3   87.40   42.40   1
  -2   4   3   52.00   42.40   1
   2  -4  -4   93.50   52.20   1
  -2   4   4   94.50   52.20   1
   2  -4  -5   54.40   41.30   1
  -2   4   5   65.30   41.30   1
   2  -5  -1   57.00   40.10   1
  -2   5   1   56.80   40.20   1
   2   5   2 1122.30  235.90   1
  -2  -5  -2 1001.30  235.50   1
   2  -5  -2 1033.50  235.80   1
  -2   5   2 1268.90  236.80   1
   2   5   3  709.10  165.20   1
  -2  -5  -3  904.50  166.20   1
   2  -5  -3  537.20  164.80   1
  -2   5   3  658.50  165.30   1
   2  -5  -4  918.90  179.10   1
  -2   5   4  648.40  178.30   1
   2  -5  -5   96.50   54.70   1
  -2   5   5  109.40   54.70   1
   2   6   2  181.40   72.30   1
  -2  -6  -2  210.10   72.20   1
   2  -6  -2  174.30   72.20   1
  -2   6   2  131.80   72.10   1
   2   6   3   21.90   25.40   1
  -2  -6  -3   24.80   25.40   1
   2  -6  -3   35.30   25.40   1
  -2   6   3   16.10   25.40   1
   2   6   4  124.50   46.40   1
  -2  -6  -4   65.10   46.20   1
   2  -6  -4   90.60   46.20   1
  -2   6   4   60.70   46.10   1
   2  -6  -5   17.10   22.00   1
  -2   6   5   18.10   22.00   1
   2  -6  -6  473.50  133.30   1
  -2   6   6  464.00  132.90   1
   2  -7  -2   87.30   58.10   1
  -2   7   2  219.00   58.60   1
   2   7   3   52.00   32.30   1
  -2  -7  -3   30.20   32.20   1
   2  -7  -3   31.70   32.30   1
  -2   7   3   56.40   32.30   1
   2   7   4  125.00   63.30   1
  -2  -7  -4  170.10   63.40   1
   2  -7  -4  113.40   63.30   1
  -2   7   4  158.30   63.40   1
   2  -7  -5   95.90   43.30   1
  -2   7   5   52.40   43.20   1
   2  -7  -6    1.50    5.60   1
  -2   7   6    0.50    5.50   1
   2  -7  -7    9.40   18.10   1
  -2   7   7   14.40   18.10   1
   2  -8  -2  555.60  152.80   1
   2  -8  -3  197.70   69.50   1
  -2   8   3  135.60   69.30   1
   2   8   4 1123.90  238.50   1
  -2  -8  -4 1025.90  237.80   1
   2  -8  -4 1126.30  238.10   1
  -2   8   4 1145.50  238.50   1
   2   8   5  107.70   36.60   1
  -2  -8  -5   41.20   36.40   1
   2  -8  -5   30.60   36.30   1
  -2   8   5  151.40   36.60   1
   2  -8  -6  166.30   58.40   1
  -2   8   6   94.50   58.20   1
   2  -8  -7  459.70  110.10   1
  -2   8   7  297.10  109.00   1
  -2   8   8   51.50   38.20   1
   2  -9  -3   23.50   21.90   1
  -2   9   3   11.70   21.80   1
  -2  -9  -4   71.60   48.00   1
   2  -9  -4   84.40   48.00   1
  -2   9   4   87.00   48.00   1
   2  -9  -5    8.60   18.90   1
  -2   9   5   19.40   19.00   1
   2  -9  -6   31.40   28.80   1
  -2   9   6   28.50   28.80   1
   2  -9  -7   38.50   35.30   1
  -2   9   7   49.90   35.30   1
   2  -9  -8   10.00   17.20   1
  -2   9   8   11.70   17.20   1
   2 -10  -3  138.20   64.90   1
   2 -10  -4  265.60  106.00   1
  -2  10   4  562.90  107.50   1
   2 -10  -5   96.70   56.10   1
  -2  10   5  122.70   56.10   1
   2 -10  -6  185.20   56.80   1
  -2  10   6   86.50   56.60   1
   2 -10  -7   46.40   41.40   1
  -2  10   7  127.20   41.60   1
   2 -10  -8    7.90   17.40   1
  -2  10   8   14.20   17.40   1
   2 -10  -9  145.10   68.60   1
  -2  10   9  151.00   67.70   1
   2 -11  -4   23.40   26.20   1
  -2  11   4   26.30   26.20   1
   2 -11  -5    9.90   17.70   1
  -2  11   5   14.10   17.80   1
   2 -11  -6   11.30   17.10   1
  -2  11   6   10.30   17.10   1
   2 -11  -7    8.40   18.50   1
  -2  11   7   18.80   18.50   1
   2 -11  -8   11.90   17.90   1
  -2  11   8   11.50   17.80   1
   2 -11  -9   58.40   26.60   1
  -2  11   9   13.70   26.30   1
  -2  11  10    9.20   15.90   1
   2 -12  -4  166.10   64.80   1
  -2  12   4  107.40   64.90   1
   2 -12  -5   73.70   43.50   1
  -2  12   5   58.70   43.50   1
   2 -12  -6   47.00   27.90   1
  -2  12   6   17.00   27.80   1
   2 -12  -7  122.00   60.10   1
  -2  12   7  121.20   60.10   1
   2 -12  -8   34.30   29.40   1
  -2  12   8   28.50   29.40   1
   2 -12  -9   23.50   24.80   1
  -2  12   9   21.70   24.70   1
   2 -12 -10    2.90   10.40   1
  -2  12  10    5.00   10.40   1
  -2  12  11    7.10   14.00   1
   2 -13  -5  218.80   84.00   1
  -2  13   5  220.10   84.00   1
   2 -13  -6  160.70   47.00   1
  -2  13   6   47.90   46.70   1
   2 -13  -7  236.50   83.60   1
  -2  13   7  208.20   83.30   1
   2 -13  -8    6.90   20.50   1
  -2  13   8   36.80   20.50   1
   2 -13  -9   28.10   31.90   1
  -2  13   9   50.30   31.90   1
   2 -13 -10   30.60   30.60   1
  -2  13  10   37.50   30.70   1
  -2  13  11  302.50  103.40   1
   2 -14  -5   13.80   22.80   1
  -2  14   5   30.90   23.20   1
   2 -14  -6    1.60   21.90   1
  -2  14   6   53.60   22.20   1
   2 -14  -7    9.80   18.50   1
  -2  14   7   15.30   18.50   1
   2 -14  -8   14.20   22.20   1
  -2  14   8   24.00   22.20   1
   2 -14  -9    2.60    9.30   1
  -2  14   9    3.70    9.30   1
   2 -14 -10    9.20   12.00   1
  -2  14  10    3.60   11.90   1
   2 -14 -11   12.40   13.60   1
  -2  14  11   -0.00   13.60   1
  -2  14  12   24.30   26.00   1
   2 -15  -5   33.60   30.90   1
   2 -15  -6   22.20   30.10   1
  -2  15   6  361.50   36.60   1
   2 -15  -7   75.90   44.00   1
  -2  15   7   57.80   44.00   1
   2 -15  -8   -0.00   11.40   1
  -2  15   8   11.10   11.40   1
   2 -15  -9   17.80   25.90   1
  -2  15   9   46.10   26.00   1
   2 -15 -10   12.20   20.60   1
  -2  15  10   19.90   20.60   1
   2 -15 -11   42.70   38.50   1
  -2  15  11   62.10   38.50   1
   2 -15 -12   10.40   20.50   1
  -2  15  12   23.30   20.50   1
   2 -16  -6   10.80   22.20   1
  -2  16   6   60.10   23.20   1
   2 -16  -7    5.30   22.10   1
  -2  16   7   62.80   22.60   1
   2 -16  -8   19.30   27.10   1
  -2  16   8   36.10   27.10   1
   2 -16  -9   27.80   18.60   1
  -2  16   9    5.80   18.50   1
   2 -16 -10   31.30   17.00   1
  -2  16  10    3.80   16.90   1
   2 -16 -11    2.70   12.80   1
  -2  16  11    9.60   12.90   1
   2 -17  -6    0.70    5.80   1
   2 -17  -7    9.00   24.20   1
  -2  17   7   46.00   24.40   1
   2 -17  -8   18.10   23.60   1
  -2  17   8   27.30   23.80   1
   2 -17  -9   14.80   23.40   1
  -2  17   9   29.90   23.50   1
   2 -17 -10    6.00    9.50   1
  -2  17  10   -0.00    9.50   1
   2 -18  -7   77.10   42.30   1
  -2  18   7   46.40   42.30   1
   2 -18  -8   43.00   28.60   1
  -2  18   8   16.40   28.60   1
   2 -18  -9   56.80   31.90   1
  -2  18   9   27.60   31.80   1
   2 -18 -10   24.20   13.70   1
  -2  18  10   -0.00   13.60   1
   2 -19  -7    7.90   15.10   1
   2 -19  -8    7.20   21.30   1
  -2  19   8   29.60   21.50   1
   2 -19  -9    5.70   11.10   1
  -2  19   9   -0.00   11.40   1
   2 -20  -8    8.10   16.20   1
  -2  20   8   10.70   16.20   1
  -3   0   0   16.70   21.40   1
   3   0   1 2271.90  406.60   1
  -3   0  -1 2410.20  407.10   1
   3   0  -1 2099.20  406.80   1
  -3   0   1 1973.70  406.30   1
   3   0   2   57.00   26.80   1
  -3   0  -2   40.20   26.80   1
   3   0  -2   30.70   26.50   1
  -3   0   2   10.90   26.50   1
   3   0  -3 6555.90 1040.60   1
  -3   0   3 6060.10 1035.40   1
   3   1   0  142.30   44.70   1
  -3  -1   0  105.90   44.60   1
   3  -1   0   46.40   44.60   1
  -3   1   0   49.40   44.60   1
   3   1   1  205.60   72.50   1
  -3  -1  -1  208.90   72.50   1
   3  -1  -1  192.00   72.40   1
  -3   1   1  178.20   72.40   1
  -3   1  -1  133.30   72.50   1
   3  -1   1   90.60   72.40   1
  -3  -1   1  170.40   72.40   1
   3   1  -1  179.60   72.40   1
   3   1   2 1732.00  341.70   1
  -3  -1  -2 1749.10  342.00   1
   3  -1  -2 1431.30  338.70   1
  -3   1   2 2056.90  340.80   1
  -3  -1   2 1993.30  343.50   1
   3   1  -2 2303.50  346.00   1
   3  -1  -3    7.70   20.80   1
  -3   1   3   26.60   20.90   1
   3  -1  -4 1310.50  256.90   1
  -3   1   4 1080.80  252.60   1
   3   2   0  167.00   54.30   1
  -3  -2   0  110.20   54.20   1
   3  -2   0   83.50   54.30   1
  -3   2   0   58.60   54.30   1
   3   2   1 1009.60  224.50   1
  -3  -2  -1  972.90  224.50   1
   3  -2  -1  871.80  223.50   1
  -3   2   1  986.50  223.80   1
  -3   2  -1 1373.80  227.10   1
   3  -2   1 1226.00  226.10   1
  -3  -2   1 1141.70  225.80   1
   3   2  -1  961.50  224.90   1
   3   2   2  162.20   74.70   1
  -3  -2  -2  197.50   74.80   1
   3  -2  -2  253.80   74.80   1
  -3   2   2  158.80   74.70   1
  -3  -2   2  161.80   75.10   1
   3   2  -2  165.90   75.10   1
   3   2   3 1989.00  363.10   1
  -3  -2  -3 1986.60  364.80   1
   3  -2  -3 1990.50  359.60   1
  -3   2   3 1718.80  358.60   1
   3  -2  -4  213.80   75.70   1
  -3   2   4  165.90   75.60   1
  -3   2   5  378.60  118.50   1
   3   3   0   20.80   25.40   1
  -3  -3   0   21.00   25.40   1
   3  -3   0   36.60   25.80   1
  -3   3   0   54.90   25.90   1
   3   3   1  537.30  140.90   1
  -3  -3  -1  572.20  140.90   1
   3  -3  -1  505.80  140.90   1
  -3   3   1  369.50  140.50   1
  -3   3  -1  635.40  150.00   1
   3  -3   1  659.90  148.70   1
  -3  -3   1 1209.90  146.10   1
   3   3  -1  851.90  143.30   1
   3   3   2 1240.20  280.00   1
  -3  -3  -2 1341.40  280.30   1
   3  -3  -2 1458.50  280.80   1
  -3   3   2 1473.70  281.10   1
   3   3   3  432.60  148.60   1
  -3  -3  -3  606.90  149.40   1
   3  -3  -3  747.90  149.20   1
  -3   3   3  561.10  148.50   1
   3  -3  -4  405.50  108.90   1
  -3   3   4  304.50  108.50   1
   3  -3  -5  646.10  189.40   1
  -3   3   5 1442.80  194.70   1
   3   4   0   83.50   32.50   1
  -3  -4   0    8.90   32.40   1
   3  -4   0   57.00   32.60   1
  -3   4   0   80.00   32.70   1
   3   4   1  139.60   60.70   1
   3  -4  -1  145.50   60.80   1
  -3   4   1   89.20   60.80   1
   3   4   2  325.60  105.40   1
  -3  -4  -2  327.40  105.40   1
   3  -4  -2  319.00  105.40   1
  -3   4   2  329.20  105.40   1
   3   4   3  633.70  159.90   1
  -3  -4  -3  696.10  160.00   1
   3  -4  -3  552.90  159.70   1
  -3   4   3  643.50  159.90   1
   3   4   4   80.90   54.90   1
  -3  -4  -4   42.30   54.80   1
   3  -4  -4  127.00   54.70   1
  -3   4   4  137.60   54.80   1
   3  -4  -5   32.90   22.60   1
  -3   4   5    8.50   22.50   1
   3  -4  -6  262.00   92.60   1
  -3   4   6  253.30   92.10   1
   3   5   0   17.20   22.20   1
  -3  -5   0   14.00   22.20   1
  -3   5   0  110.30   24.10   1
   3   5   1  452.90  103.90   1
  -3  -5  -1  346.40  103.40   1
   3  -5  -1  236.50  103.20   1
  -3   5   1  308.30  103.50   1
   3   5   2 4918.00  739.00   1
  -3  -5  -2 4765.70  736.40   1
   3  -5  -2 3706.50  735.30   1
  -3   5   2 4184.00  737.50   1
   3   5   3   56.90   32.20   1
  -3  -5  -3   30.90   32.20   1
   3  -5  -3   35.10   32.20   1
  -3   5   3   32.60   32.20   1
   3   5   4 2422.00  465.00   1
  -3  -5  -4 2369.30  464.10   1
   3  -5  -4 2562.60  462.10   1
  -3   5   4 2775.40  463.80   1
   3  -5  -5  408.20  116.60   1
  -3   5   5  365.30  116.40   1
   3  -5  -6 4791.50  674.70   1
  -3   5   6 3372.50  660.90   1
  -3   5   7   11.60   17.90   1
   3   6   1  409.00   60.30   1
   3  -6  -1   70.40   58.30   1
  -3   6   1  173.40   58.60   1
   3   6   2  194.30   78.00   1
  -3  -6  -2  174.30   78.00   1
   3  -6  -2  205.50   78.10   1
  -3   6   2  234.10   78.20   1
   3   6   3  541.60  143.90   1
  -3  -6  -3  527.40  144.00   1
   3  -6  -3  495.70  143.90   1
  -3   6   3  574.40  144.00   1
   3   6   4   37.10   31.70   1
  -3  -6  -4   28.80   31.70   1
   3  -6  -4   51.10   31.70   1
  -3   6   4   28.90   31.70   1
   3   6   5   94.50   66.60   1
  -3   6   5  186.50   66.50   1
   3  -6  -6   20.50   16.30   1
  -3   6   6    4.60   16.20   1
   3  -6  -7  430.50  128.20   1
  -3   6   7  447.70  128.00   1
   3  -7  -1   82.90   52.50   1
  -3   7   1  112.30   52.80   1
   3   7   2  301.10   86.80   1
  -3  -7  -2  188.70   86.40   1
   3  -7  -2  220.90   86.70   1
  -3   7   2  286.50   86.80   1
   3   7   3  164.90   66.60   1
  -3  -7  -3  122.40   66.50   1
   3  -7  -3  205.90   66.70   1
  -3   7   3  145.10   66.60   1
   3   7   4  448.20  132.50   1
  -3  -7  -4  485.00  132.50   1
   3  -7  -4  474.70  132.60   1
  -3   7   4  471.50  132.80   1
   3   7   5   91.40   48.80   1
  -3  -7  -5   88.80   48.80   1
   3  -7  -5   88.10   48.70   1
  -3   7   5   73.50   48.70   1
   3  -7  -6  195.20   53.70   1
  -3   7   6   75.80   53.50   1
   3  -7  -7    5.30   12.10   1
  -3   7   7    5.20   12.20   1
   3  -7  -8   22.70   30.50   1
  -3   7   8   53.20   30.60   1
  -3  -8  -2   10.90   20.80   1
   3  -8  -2   11.40   21.00   1
  -3   8   2   52.10   21.20   1
   3   8   3  475.50  138.60   1
  -3  -8  -3  368.80  138.30   1
   3  -8  -3  741.80  139.20   1
  -3   8   3  740.00  139.60   1
   3   8   4 1349.70  275.00   1
  -3  -8  -4 1425.50  275.90   1
   3  -8  -4 1410.50  275.50   1
  -3   8   4 1202.30  274.70   1
   3   8   5  419.60  133.70   1
  -3  -8  -5  626.60  134.40   1
   3  -8  -5  381.00  133.60   1
  -3   8   5  813.30  135.20   1
   3   8   6   19.50   49.40   1
   3  -8  -6  170.80   49.60   1
  -3   8   6  187.00   49.60   1
   3  -8  -7   88.30   47.00   1
  -3   8   7   70.30   46.90   1
   3  -8  -8   97.90   52.00   1
  -3   8   8   88.70   52.00   1
  -3   8   9   87.50   50.60   1
   3  -9  -2   53.40   43.30   1
  -3   9   2   90.80   43.60   1
   3   9   3  176.60   41.30   1
  -3  -9  -3   42.70   40.40   1
   3  -9  -3  200.70   41.40   1
  -3   9   3   49.50   40.60   1
   3   9   4   50.20   36.10   1
  -3  -9  -4   71.80   36.10   1
   3  -9  -4   46.40   36.10   1
  -3   9   4   25.40   36.10   1
   3   9   5   48.90   37.20   1
  -3  -9  -5   42.40   37.20   1
   3  -9  -5   66.10   37.20   1
  -3   9   5   53.20   37.20   1
   3   9   6   81.60   48.40   1
  -3  -9  -6   72.40   48.40   1
   3  -9  -6   84.40   48.30   1
  -3   9   6   83.70   48.30   1
   3  -9  -7   43.40   37.80   1
  -3   9   7   60.20   37.80   1
   3  -9  -8   24.10   18.70   1
  -3   9   8    7.20   18.50   1
   3  -9  -9   17.10   18.10   1
  -3   9   9    7.70   18.10   1
  -3   9  10    3.70   10.20   1
   3 -10  -3 2312.90  452.70   1
  -3  10   3 2664.10  455.40   1
   3  10   4  276.00  100.30   1
  -3 -10  -4  284.80  100.30   1
   3 -10  -4  286.80  100.00   1
  -3  10   4  360.90  100.40   1
   3  10   5 1135.80  173.10   1
  -3 -10  -5  836.70  171.40   1
   3 -10  -5  686.30  170.90   1
  -3  10   5  514.60  170.60   1
   3  10   6   25.50   30.60   1
  -3 -10  -6   48.20   30.70   1
   3 -10  -6   36.30   30.60   1
  -3  10   6   41.40   30.60   1
   3 -10  -7  323.40   83.60   1
  -3  10   7  179.90   83.20   1
   3 -10  -8   49.50   22.90   1
  -3  10   8    9.20   22.80   1
   3 -10  -9   55.50   38.00   1
  -3  10   9   46.90   38.00   1
   3 -10 -10   16.10   24.10   1
  -3  10  10   26.80   24.10   1
   3 -11  -3   42.20   30.50   1
  -3  11   3   22.30   30.60   1
  -3 -11  -4   91.80   54.70   1
   3 -11  -4  134.90   54.90   1
  -3  11   4   89.20   54.70   1
   3  11   5    6.70   19.30   1
  -3 -11  -5   32.80   19.30   1
   3 -11  -5    9.10   19.30   1
  -3  11   5    7.50   19.30   1
   3  11   6  116.80   49.90   1
  -3 -11  -6   82.50   49.80   1
   3 -11  -6  120.20   50.00   1
  -3  11   6   67.10   49.80   1
   3  11   7   55.90   18.10   1
  -3 -11  -7    8.60   17.80   1
   3 -11  -7    7.20   17.70   1
  -3  11   7   10.80   17.70   1
   3 -11  -8   27.90   31.80   1
  -3  11   8   50.70   31.80   1
   3 -11  -9   23.70   22.00   1
  -3  11   9   15.10   21.90   1
   3 -11 -10   27.40   22.20   1
  -3  11  10   11.30   22.20   1
  -3  11  11   -0.00    1.90   1
   3 -12  -3  193.40   79.20   1
   3 -12  -4  328.20   97.60   1
  -3  12   4  255.00   97.20   1
  -3 -12  -5  140.40   70.60   1
   3 -12  -5  164.40   70.60   1
  -3  12   5  191.00   70.80   1
   3  12   6   43.80   31.70   1
   3 -12  -6   31.20   31.70   1
  -3  12   6   28.00   31.70   1
   3  12   7   40.20   35.20   1
  -3 -12  -7   42.00   35.20   1
   3 -12  -7   63.30   35.30   1
  -3  12   7   39.80   35.20   1
   3 -12  -8   53.70   42.10   1
  -3  12   8   76.80   42.20   1
   3 -12  -9   29.10   25.80   1
  -3  12   9   20.40   25.70   1
   3 -12 -10   44.60   32.40   1
  -3  12  10   33.50   32.30   1
   3 -12 -11   35.20   30.20   1
  -3  12  11   30.70   30.00   1
  -3  12  12   10.00   16.60   1
   3 -13  -4    6.90   21.30   1
  -3  13   4   39.40   21.70   1
   3 -13  -5  402.10   82.90   1
  -3  13   5  161.00   81.50   1
   3  13   6   80.20   40.80   1
  -3 -13  -6   61.20   40.70   1
   3 -13  -6   73.40   40.80   1
  -3  13   6   39.90   40.70   1
   3 -13  -7   46.50   40.50   1
  -3  13   7   74.00   40.50   1
   3  13   8  127.60   33.30   1
   3 -13  -8   39.50   32.60   1
  -3  13   8   28.90   32.60   1
   3 -13  -9   74.50   49.10   1
  -3  13   9   98.10   49.20   1
   3 -13 -10   39.50   34.30   1
  -3  13  10   44.10   34.30   1
   3 -13 -11   31.90   24.90   1
  -3  13  11   15.20   24.80   1
   3 -13 -12    7.30   19.90   1
  -3  13  12   77.60   21.10   1
   3 -14  -4   22.90   25.40   1
   3 -14  -5   98.50   62.50   1
  -3  14   5  224.50   63.20   1
  -3 -14  -6   39.40   35.10   1
   3 -14  -6   54.20   35.10   1
  -3  14   6   36.70   35.20   1
   3 -14  -7   16.80   24.50   1
  -3  14   7   30.50   24.60   1
   3 -14  -8   66.10   31.90   1
  -3  14   8   24.60   31.80   1
   3 -14  -9   24.10   27.30   1
  -3  14   9   31.10   27.30   1
   3 -14 -10    0.00    6.70   1
  -3  14  10    3.40    6.70   1
   3 -14 -11    7.90   17.90   1
  -3  14  11   12.80   17.70   1
   3 -14 -12   11.20   12.50   1
  -3  14  12   -0.00   12.50   1
   3 -15  -5   37.80   35.70   1
  -3  15   5   59.90   36.00   1
   3 -15  -6   54.20   41.50   1
  -3  15   6   68.60   41.60   1
  -3 -15  -7    3.80   18.30   1
   3 -15  -7   25.40   18.40   1
  -3  15   7   18.30   18.40   1
   3 -15  -8   49.10   38.90   1
  -3  15   8   58.60   38.90   1
   3 -15  -9    2.80   12.50   1
  -3  15   9   10.20   12.60   1
   3 -15 -10   77.90   41.60   1
  -3  15  10   52.40   41.50   1
   3 -15 -11    3.10   14.30   1
  -3  15  11   11.90   14.30   1
   3 -16  -5   20.80   24.20   1
   3 -16  -6    5.20   14.80   1
  -3  16   6   10.10   14.80   1
   3 -16  -7   53.70   29.20   1
  -3  16   7    4.00   29.20   1
   3 -16  -8   88.70   35.30   1
  -3  16   8   29.70   35.20   1
   3 -16  -9   19.60   22.80   1
  -3  16   9   18.10   22.80   1
   3 -16 -10    5.30   13.50   1
  -3  16  10    8.70   13.50   1
   3 -16 -11   29.90   28.60   1
  -3  16  11   29.40   28.60   1
   3 -17  -6    9.20   16.40   1
  -3  17   6    9.80   16.50   1
   3 -17  -7   -0.00   18.80   1
  -3  17   7   35.50   19.10   1
  -3 -17  -8    8.20   15.50   1
   3 -17  -8   11.90   15.50   1
  -3  17   8    7.00   15.50   1
   3 -17  -9    3.60   15.40   1
  -3  17   9   17.80   15.50   1
   3 -17 -10   15.70   18.60   1
  -3  17  10    9.80   18.60   1
   3 -18  -6    7.80   15.00   1
   3 -18  -7   30.30   34.70   1
  -3  18   7  201.70   37.60   1
   3 -18  -8   20.40   23.00   1
  -3  18   8   16.10   23.20   1
   3 -18  -9   25.90   32.00   1
  -3  18   9  124.40   32.60   1
   3 -19  -6   -0.00    4.20   1
   3 -19  -7    0.30    3.90   1
  -3  19   7   -0.10    3.90   1
   3 -19  -8    4.50   20.40   1
  -3  19   8   39.90   20.80   1
   3 -19  -9    2.80   13.40   1
  -3  19   9   13.30   13.50   1
   3 -20  -7    8.30   15.30   1
   4   0   0 1796.90  330.80   1
  -4   0   0 1583.50  329.40   1
   4   0   1   40.70   32.90   1
  -4   0  -1   56.80   32.90   1
   4   0  -1   25.70   32.80   1
  -4   0   1   40.90   32.80   1
   4   0   2  423.50  139.10   1
  -4   0  -2  540.90  139.60   1
   4   0  -2  522.50  138.90   1
  -4   0   2  537.60  138.90   1
   4   0   3 3870.10  723.90   1
  -4   0  -3 3847.20  729.20   1
   4   0  -3 4537.90  708.10   1
  -4   0   3 3960.10  702.50   1
   4   0  -4 2215.90  411.30   1
  -4   0   4 2156.80  410.30   1
   4   1   0  424.80  120.40   1
  -4  -1   0  530.00  120.70   1
   4  -1   0  361.20  120.30   1
  -4   1   0  355.70  120.30   1
   4   1   1  169.70   72.40   1
  -4  -1  -1  161.60   72.40   1
   4  -1  -1  208.30   72.50   1
  -4   1   1  158.20   72.40   1
  -4   1  -1  133.50   72.50   1
   4  -1   1  155.00   72.60   1
  -4  -1   1  190.70   72.50   1
   4   1  -1  195.10   72.50   1
   4   1   2  561.00  130.50   1
  -4  -1  -2  538.30  130.50   1
   4  -1  -2  517.00  130.10   1
  -4   1   2  409.60  129.90   1
  -4   1  -2  409.30  130.20   1
   4  -1   2  348.30  130.00   1
  -4  -1   2  466.60  130.20   1
   4   1  -2  526.70  130.40   1
   4   1   3   12.30   24.00   1
  -4  -1  -3    1.20   24.00   1
   4  -1  -3   31.40   23.80   1
  -4   1   3   31.50   23.80   1
  -4  -1   3   10.80   23.90   1
   4   1  -3   18.60   23.90   1
   4  -1  -4   -0.00   20.00   1
  -4   1   4   22.80   20.00   1
  -4  -1   4   17.50   20.00   1
   4   1  -4   25.40   20.10   1
   4  -1  -5   -0.00   11.70   1
  -4   1   5   10.90   11.80   1
   4   2   0  302.10   93.10   1
  -4  -2   0  284.40   93.10   1
   4  -2   0  242.90   93.10   1
  -4   2   0  238.80   93.10   1
   4   2   1 2551.70  486.60   1
  -4  -2  -1 2493.80  486.60   1
   4  -2  -1 2781.50  485.30   1
  -4   2   1 2650.30  484.40   1
  -4   2  -1 3159.30  490.00   1
   4  -2   1 3322.20  490.90   1
  -4  -2   1 2527.00  483.50   1
   4   2  -1 2586.70  483.60   1
   4   2   2   17.50   23.30   1
  -4  -2  -2   15.30   23.30   1
   4  -2  -2   14.60   23.30   1
  -4   2   2   21.20   23.30   1
  -4   2  -2    9.50   23.80   1
   4  -2   2   16.70   23.80   1
  -4  -2   2   44.60   23.50   1
   4   2  -2   32.60   23.40   1
   4   2   3  389.30  160.80   1
  -4  -2  -3  593.80  161.60   1
   4  -2  -3 1175.40  163.10   1
  -4   2   3 1021.10  162.60   1
  -4  -2   3  801.90  164.80   1
   4   2  -3  847.70  166.00   1
   4   2   4   11.00   23.80   1
  -4  -2  -4  154.10   27.30   1
   4  -2  -4   43.90   23.50   1
  -4   2   4    8.60   23.40   1
   4  -2  -5  492.40   90.40   1
  -4   2   5  197.80   88.90   1
   4  -2  -6    6.70    9.20   1
  -4   2   6   -0.00    9.10   1
   4   3   0 3414.00  598.80   1
  -4  -3   0 3268.00  598.70   1
   4  -3   0 3619.40  601.70   1
  -4   3   0 3552.20  601.30   1
   4   3   1  293.70   77.90   1
  -4  -3  -1  360.70   78.10   1
   4  -3  -1  144.20   77.60   1
  -4   3   1  213.00   77.70   1
  -4   3  -1  122.30   77.70   1
   4  -3   1  193.20   77.80   1
  -4  -3   1  195.60   77.70   1
   4   3  -1  213.70   77.80   1
   4   3   2 4403.50  596.40   1
  -4  -3  -2 4015.60  595.00   1
   4  -3  -2 3967.60  598.50   1
  -4   3   2 2699.30  591.80   1
  -4  -3   2 3042.30  595.60   1
   4   3  -2 2944.60  595.60   1
   4   3   3   78.30   40.00   1
  -4  -3  -3   40.80   40.00   1
   4  -3  -3   60.70   39.90   1
  -4   3   3   53.20   39.90   1
   4   3   4 1229.40  261.10   1
  -4  -3  -4 1326.30  261.70   1
   4  -3  -4 1946.70  262.50   1
  -4   3   4 1001.40  259.00   1
   4  -3  -5   33.30   40.60   1
  -4   3   5  124.10   40.80   1
   4  -3  -6 2281.50  496.80   1
  -4   3   6 3898.30  509.60   1
  -4   3   7   44.90   35.70   1
   4   4   0   46.50   33.70   1
  -4  -4   0   34.70   33.70   1
   4  -4   0   34.30   34.10   1
  -4   4   0   64.20   34.20   1
   4   4   1   55.10   44.30   1
  -4  -4  -1   91.20   44.40   1
   4  -4  -1   67.20   44.40   1
  -4   4   1   61.30   44.40   1
  -4   4  -1  186.40   45.50   1
   4  -4   1  196.60   45.40   1
  -4  -4   1   65.60   44.40   1
   4   4  -1   60.70   44.40   1
   4   4   2   15.60   12.60   1
  -4  -4  -2    1.60   12.60   1
   4  -4  -2    4.70   12.70   1
  -4   4   2    6.20   12.70   1
  -4  -4   2    1.60   12.80   1
   4   4  -2    2.90   12.80   1
   4   4   3  128.90   59.60   1
  -4  -4  -3  201.80   59.70   1
   4  -4  -3  104.90   59.60   1
  -4   4   3   97.40   59.50   1
   4   4   4   69.10   39.80   1
  -4  -4  -4   50.50   39.70   1
   4  -4  -4   52.20   39.60   1
  -4   4   4   57.50   39.60   1
   4   4   5  117.00   41.30   1
   4  -4  -5   66.30   39.80   1
  -4   4   5   46.70   39.80   1
   4  -4  -6   43.80   33.10   1
  -4   4   6   34.90   33.10   1
   4  -4  -7   84.80   54.60   1
  -4   4   7  124.60   54.70   1
   4   5   0 1220.50  241.20   1
  -4  -5   0 1075.90  240.60   1
   4  -5   0 1277.20  240.60   1
  -4   5   0  962.30  239.30   1
   4   5   1  633.90  126.40   1
  -4  -5  -1  558.90  126.10   1
   4  -5  -1  467.20  126.20   1
  -4   5   1  274.50  125.60   1
  -4  -5   1  569.60  128.50   1
   4   5  -1  580.30  129.10   1
   4   5   2  574.10  144.40   1
  -4  -5  -2  482.10  144.20   1
   4  -5  -2  616.20  144.70   1
  -4   5   2  518.80  144.40   1
   4   5   3  105.20   57.20   1
  -4  -5  -3  130.80   57.20   1
   4  -5  -3   95.00   57.20   1
  -4   5   3  123.70   57.30   1
   4   5   4   45.60   29.80   1
  -4  -5  -4   14.20   29.70   1
   4  -5  -4   51.90   29.70   1
  -4   5   4   21.70   29.60   1
   4   5   5  153.90   66.90   1
  -4  -5  -5  139.00   66.90   1
   4  -5  -5  285.60   67.00   1
  -4   5   5  118.10   66.60   1
   4  -5  -6 1234.10  213.50   1
  -4   5   6  805.90  211.00   1
   4  -5  -7   80.40   39.90   1
  -4   5   7   43.10   39.80   1
   4  -5  -8   22.40   19.70   1
  -4   5   8    9.70   19.60   1
   4   6   0  209.50   57.90   1
   4  -6   0   79.70   57.60   1
  -4   6   0   94.90   57.70   1
   4   6   1   13.60   20.60   1
  -4  -6  -1   11.80   20.60   1
   4  -6  -1    7.30   20.90   1
  -4   6   1  108.20   21.50   1
   4   6   2   49.80   20.50   1
  -4  -6  -2   11.60   20.40   1
   4  -6  -2    7.10   20.50   1
  -4   6   2    4.20   20.50   1
   4   6   3   77.10   33.70   1
  -4  -6  -3   28.70   33.60   1
   4  -6  -3   45.60   33.70   1
  -4   6   3   36.40   33.60   1
   4   6   4   28.30   23.00   1
  -4  -6  -4   13.40   23.00   1
   4  -6  -4    3.60   23.00   1
  -4   6   4   55.30   23.10   1
   4   6   5  158.30   54.20   1
  -4  -6  -5  206.30   54.40   1
   4  -6  -5   65.10   53.80   1
  -4   6   5  154.30   54.00   1
   4  -6  -6   27.00   25.80   1
  -4   6   6   22.10   25.80   1
   4  -6  -7  300.50   94.20   1
  -4   6   7  243.70   93.90   1
   4  -6  -8  100.20   53.30   1
  -4   6   8   94.30   53.20   1
  -4   6   9   68.90   44.60   1
  -4  -7   0 2401.30  398.80   1
   4  -7   0 1527.40  365.40   1
  -4   7   0 2071.60  400.00   1
   4   7   1   57.20   34.70   1
  -4  -7  -1   24.90   34.70   1
   4  -7  -1   48.80   34.90   1
  -4   7   1  101.20   35.10   1
   4   7   2 1811.40  235.10   1
  -4  -7  -2 1353.80  232.80   1
   4  -7  -2 1827.50  236.70   1
  -4   7   2  681.80  231.30   1
   4   7   3    9.80   17.50   1
  -4  -7  -3    9.30   17.50   1
   4  -7  -3   23.10   17.60   1
  -4   7   3    9.80   17.50   1
   4   7   4   18.80   20.20   1
  -4  -7  -4   13.10   20.20   1
   4  -7  -4   12.80   20.20   1
   4   7   5   19.90   17.00   1
  -4  -7  -5    2.50   17.00   1
   4  -7  -5    4.10   16.80   1
  -4   7   5   18.30   16.80   1
   4   7   6  328.70  117.90   1
  -4  -7  -6  421.00  119.70   1
   4  -7  -6  433.10  117.70   1
  -4   7   6  380.10  117.70   1
   4  -7  -7   16.80   23.70   1
  -4   7   7   23.50   23.70   1
   4  -7  -8  620.10  164.00   1
  -4   7   8  660.10  164.10   1
   4  -7  -9    6.90   15.90   1
  -4   7   9   12.00   16.00   1
  -4   7  10  346.90  116.90   1
   4   8   1 1263.30  263.60   1
  -4  -8  -1 1267.90  260.70   1
   4  -8  -1 1135.50  255.50   1
  -4   8   1 1223.40  256.60   1
   4   8   2   90.70   41.70   1
  -4  -8  -2   45.10   41.60   1
   4  -8  -2   75.30   41.90   1
  -4   8   2   53.60   41.90   1
   4   8   3 3539.40  578.60   1
  -4  -8  -3 2944.00  577.90   1
   4  -8  -3 3368.20  579.10   1
  -4   8   3 3427.40  580.30   1
   4   8   4  201.70   74.00   1
  -4  -8  -4  160.10   74.00   1
   4  -8  -4  187.90   74.00   1
  -4   8   4  168.40   74.00   1
   4   8   5 1367.10  247.70   1
  -4  -8  -5  952.60  245.70   1
   4  -8  -5 1214.90  246.80   1
  -4   8   5 1303.90  247.50   1
   4   8   6  102.20   43.70   1
  -4  -8  -6   51.80   43.50   1
   4  -8  -6   58.50   43.40   1
  -4   8   6   75.40   43.40   1
   4  -8  -7 3696.40  662.50   1
  -4   8   7 4022.40  663.90   1
   4  -8  -8   28.80   28.60   1
  -4   8   8   29.80   28.50   1
   4  -8  -9   54.90   42.20   1
  -4   8   9   73.00   42.30   1
   4  -8 -10   14.90   18.20   1
  -4   8  10   10.00   18.10   1
   4  -9  -1   -0.00   11.90   1
  -4   9   1    7.70   11.70   1
   4   9   2   66.20   42.60   1
  -4  -9  -2   89.00   42.70   1
   4  -9  -2   19.50   42.70   1
  -4   9   2   99.20   42.90   1
   4   9   3   22.60   23.50   1
  -4  -9  -3   21.00   23.50   1
   4  -9  -3   25.30   23.80   1
  -4   9   3    2.50   23.70   1
   4   9   4   96.70   51.20   1
  -4  -9  -4  177.20   51.40   1
   4  -9  -4   68.80   51.20   1
  -4   9   4   71.00   51.20   1
   4   9   5   29.80   28.30   1
  -4  -9  -5   32.90   28.30   1
   4  -9  -5   25.00   28.30   1
  -4   9   5   26.90   28.30   1
   4   9   6   53.80   31.60   1
  -4  -9  -6   76.40   31.80   1
   4  -9  -6   36.70   31.50   1
  -4   9   6   21.50   31.50   1
   4   9   7   24.40   29.60   1
  -4  -9  -7   25.90   29.70   1
   4  -9  -7   33.60   29.50   1
  -4   9   7   34.20   29.50   1
   4  -9  -8    9.10   15.80   1
  -4   9   8    9.10   15.80   1
   4  -9  -9    5.20   11.70   1
  -4   9   9    4.20   11.70   1
   4  -9 -10   25.10   23.30   1
  -4   9  10   15.50   23.20   1
  -4   9  11   10.90   17.30   1
  -4 -10  -2   19.10   24.30   1
   4 -10  -2   20.70   24.50   1
  -4  10   2   27.60   24.60   1
   4  10   3  166.60   76.50   1
  -4 -10  -3  201.00   76.60   1
   4 -10  -3  153.40   76.60   1
  -4  10   3  315.70   77.30   1
   4  10   4   25.10   29.50   1
  -4 -10  -4  101.60   29.60   1
   4 -10  -4   20.30   29.50   1
  -4  10   4   22.40   29.60   1
   4  10   5  414.70  133.50   1
  -4 -10  -5  580.80  134.20   1
   4 -10  -5  425.20  133.70   1
  -4  10   5  592.60  134.10   1
   4  10   6   32.30   22.50   1
  -4 -10  -6   11.00   22.50   1
   4 -10  -6   41.30   22.60   1
  -4  10   6    7.00   22.50   1
   4  10   7   53.30   44.90   1
  -4 -10  -7   77.30   45.00   1
   4 -10  -7   79.00   44.80   1
  -4  10   7   69.20   44.80   1
   4 -10  -8   12.70   15.60   1
  -4  10   8    5.60   15.60   1
   4 -10  -9  430.30  122.40   1
  -4  10   9  392.50  121.90   1
   4 -10 -10   68.10   40.50   1
  -4  10  10   49.40   40.40   1
   4 -10 -11   20.60   27.40   1
  -4  10  11  252.90   33.20   1
  -4  10  12   39.60   33.60   1
   4 -11  -2   57.10   42.80   1
  -4  11   2   74.30   43.10   1
   4  11   3    0.90   13.00   1
  -4 -11  -3    8.00   13.00   1
   4 -11  -3   41.40   13.80   1
  -4  11   3    1.20   13.40   1
   4  11   4    6.90   19.00   1
  -4 -11  -4    6.10   19.00   1
   4 -11  -4   46.90   19.40   1
  -4  11   4   70.00   19.60   1
   4  11   5    4.50   12.60   1
  -4 -11  -5    3.50   12.60   1
   4 -11  -5    5.10   12.80   1
  -4  11   5   25.40   12.80   1
   4  11   6   29.70   26.50   1
  -4 -11  -6   25.60   26.50   1
   4 -11  -6  120.40   27.00   1
  -4  11   6   12.20   26.50   1
   4  11   7    9.40   18.80   1
  -4 -11  -7   28.00   18.90   1
   4 -11  -7    8.20   18.70   1
  -4  11   7   17.30   18.80   1
   4  11   8  199.50   86.40   1
   4 -11  -8  227.50   85.80   1
  -4  11   8  246.00   85.90   1
   4 -11  -9   15.60   20.00   1
  -4  11   9   13.80   20.00   1
   4 -11 -10    8.20   13.00   1
  -4  11  10    4.80   12.80   1
   4 -11 -11   31.10   25.20   1
  -4  11  11   17.60   25.10   1
   4 -11 -12   24.40   28.60   1
  -4  11  12   32.90   28.60   1
   4 -12  -3  290.70  105.30   1
  -4  12   3  380.60  106.10   1
   4  12   4   30.70   31.50   1
  -4 -12  -4   36.90   31.40   1
   4 -12  -4   18.90   31.70   1
  -4  12   4   93.60   32.10   1
   4  12   5  399.90  123.50   1
  -4 -12  -5  768.90  124.90   1
   4 -12  -5  322.80  123.00   1
  -4  12   5  494.70  123.60   1
   4  12   6    4.40   14.10   1
  -4 -12  -6    8.20   14.10   1
   4 -12  -6   24.30   14.20   1
  -4  12   6    0.00   14.20   1
   4  12   7 1973.90  370.30   1
  -4 -12  -7 2055.40  370.60   1
   4 -12  -7 1722.90  370.20   1
  -4  12   7 1968.10  372.30   1
   4  12   8   29.30   14.70   1
  -4 -12  -8    0.70   14.30   1
   4 -12  -8    9.40   14.20   1
  -4  12   8    4.70   14.20   1
   4 -12  -9  214.40   88.60   1
  -4  12   9  303.00   89.10   1
   4 -12 -10    4.80   11.20   1
  -4  12  10    4.40   11.20   1
   4 -12 -11   20.50   22.80   1
  -4  12  11   16.80   22.80   1
   4 -12 -12    2.20    6.90   1
  -4  12  12    0.90    7.00   1
  -4  12  13   79.10   48.50   1
   4 -13  -3    7.90   24.90   1
  -4  13   3   53.70   25.40   1
   4 -13  -4  712.60  183.80   1
  -4  13   4  805.20  184.20   1
   4  13   5   39.30   20.90   1
  -4 -13  -5    7.50   20.80   1
   4 -13  -5    7.70   21.00   1
  -4  13   5    7.10   21.10   1
   4  13   6 3388.80  584.90   1
  -4 -13  -6 3366.10  584.00   1
   4 -13  -6 3903.00  587.90   1
  -4  13   6 2868.90  581.80   1
   4  13   7   46.90   38.20   1
  -4 -13  -7   52.40   38.20   1
   4 -13  -7   81.60   38.40   1
  -4  13   7   46.40   38.20   1
   4  13   8  505.10  120.50   1
  -4 -13  -8  495.70  121.60   1
   4 -13  -8  316.20  119.60   1
  -4  13   8  439.70  120.30   1
   4  13   9    6.80   15.50   1
   4 -13  -9    4.20   15.30   1
  -4  13   9   16.00   15.40   1
   4 -13 -10   22.20   30.10   1
  -4  13  10  160.20   30.90   1
   4 -13 -11   21.50   23.60   1
  -4  13  11   19.30   23.40   1
   4 -13 -12  172.70   50.40   1
  -4  13  12   65.90   48.50   1
   4 -14  -3   35.70   32.10   1
   4 -14  -4    3.70    8.10   1
  -4  14   4    0.00    8.10   1
  -4 -14  -5   52.10   36.30   1
   4 -14  -5   43.80   36.50   1
  -4  14   5   39.10   36.40   1
   4  14   6   52.10   37.00   1
  -4 -14  -6   44.20   36.90   1
   4 -14  -6   49.50   37.00   1
  -4  14   6   55.60   37.10   1
   4  14   7   97.10   58.50   1
  -4 -14  -7  109.00   58.50   1
   4 -14  -7  146.20   58.70   1
  -4  14   7  155.90   58.70   1
   4  14   8   -0.20    7.30   1
   4 -14  -8    5.10    7.40   1
  -4  14   8    3.80    7.40   1
   4  14   9   35.30   33.80   1
  -4 -14  -9   36.40   33.90   1
   4 -14  -9   41.10   33.70   1
  -4  14   9   44.80   33.70   1
   4 -14 -10    1.90   11.60   1
  -4  14  10    8.50   11.60   1
   4 -14 -11   10.20   18.00   1
  -4  14  11   13.40   18.00   1
   4 -14 -12   -0.00    2.60   1
  -4  14  12   -0.00    1.90   1
   4 -15  -4   17.10   28.40   1
  -4  15   4   96.70   30.00   1
   4 -15  -5   38.40   39.50   1
  -4  15   5   88.00   39.80   1
  -4 -15  -6  276.90  116.70   1
   4 -15  -6  447.60  116.90   1
  -4  15   6  457.30  117.50   1
   4  15   7   11.70   20.80   1
  -4 -15  -7   12.20   20.70   1
   4 -15  -7   82.80   21.20   1
  -4  15   7   21.80   20.80   1
   4  15   8   71.70   38.60   1
  -4 -15  -8   53.70   38.60   1
   4 -15  -8   36.40   38.50   1
  -4  15   8   55.40   38.60   1
   4  15   9   14.80   17.60   1
  -4 -15  -9    6.80   17.70   1
   4 -15  -9   11.40   17.60   1
  -4  15   9    8.70   17.60   1
   4  15  10   13.50   20.60   1
   4 -15 -10   22.50   20.50   1
  -4  15  10   10.60   20.40   1
   4 -15 -11    7.50   13.60   1
  -4  15  11    6.00   13.50   1
   4 -16  -4   19.60   23.80   1
   4 -16  -5   23.70   22.80   1
  -4  16   5   13.70   22.80   1
   4 -16  -6   11.30   25.10   1
  -4  16   6   35.80   25.20   1
   4  16   7   62.20   38.10   1
  -4 -16  -7   40.10   37.90   1
   4 -16  -7   81.20   38.00   1
  -4  16   7   41.20   37.90   1
   4  16   8    3.00   11.20   1
  -4 -16  -8    7.00   11.30   1
   4 -16  -8   -0.00   11.30   1
  -4  16   8   12.30   11.40   1
   4  16   9    3.50   11.00   1
  -4  16   9    7.60   11.10   1
   4  16  10    4.10    9.90   1
   4 -16 -10    4.60    9.60   1
  -4  16  10    1.60    9.60   1
   4 -16 -11    9.90   16.10   1
  -4  16  11    9.20   16.10   1
   4 -17  -5    5.70   13.40   1
  -4  17   5    6.60   13.60   1
   4 -17  -6   61.30   49.30   1
  -4  17   6  210.80   50.90   1
  -4 -17  -7   10.00   15.10   1
   4 -17  -7   -0.00   15.30   1
  -4  17   7   16.60   15.80   1
   4  17   8   67.10   28.10   1
   4 -17  -8   96.10   28.10   1
  -4  17   8   11.00   27.70   1
  -4 -17  -9    1.70    9.30   1
   4 -17  -9    2.30    9.40   1
  -4  17   9   10.00    9.50   1
   4 -17 -10   10.70   22.00   1
  -4  17  10   52.00   22.30   1
   4 -18  -5  161.60   72.20   1
   4 -18  -6   17.80   20.30   1
  -4  18   6   11.70   20.30   1
   4 -18  -7  733.60  158.50   1
  -4  18   7  499.10  156.90   1
  -4 -18  -8    3.80   12.10   1
   4 -18  -8    8.30   12.10   1
  -4  18   8    3.10   12.30   1
   4 -18  -9  143.10   63.00   1
  -4  18   9  122.80   62.90   1
   4 -19  -6   20.50   24.20   1
  -4  19   6   21.30   24.40   1
   4 -19  -7   -0.00   10.70   1
  -4  19   7    7.90   10.80   1
   4 -19  -8   14.10   21.30   1
  -4  19   8   22.60   21.70   1
   4 -20  -6    5.00   12.40   1
   4 -20  -7   18.20   28.90   1
  -4  20   7   65.60   29.60   1
   4 -21  -6   33.90   31.40   1
   5   0   0   24.80   27.50   1
  -5   0   0   30.10   27.50   1
   5   0   110248.20 1635.70   1
  -5   0  -110623.90 1638.10   1
   5   0  -1 9988.80 1626.10   1
  -5   0   110394.20 1628.60   1
   5   0   2   53.00   49.20   1
  -5   0  -2   83.80   49.40   1
   5   0  -2   81.10   49.10   1
  -5   0   2  100.50   49.10   1
   5   0   3 4421.40  924.80   1
  -5   0  -3 6598.70  938.30   1
   5   0  -3 6453.70  930.70   1
  -5   0   3 5912.00  926.90   1
   5   0   4  258.50  115.10   1
   5   0  -4  595.00  114.60   1
  -5   0   4  315.30  113.10   1
   5   0  -5 2664.80  544.60   1
  -5   0   5 3752.70  551.80   1
   5   0  -6  234.00   75.80   1
  -5   0   6  153.20   72.70   1
   5   1   0   14.00   28.20   1
  -5  -1   0   20.90   28.30   1
   5  -1   0   49.90   28.30   1
  -5   1   0   51.50   28.30   1
   5   1   1  660.60  157.50   1
  -5  -1  -1  582.80  157.30   1
   5  -1  -1  759.00  158.30   1
  -5   1   1  650.10  157.80   1
  -5   1  -1  556.60  157.40   1
   5  -1   1  488.30  157.20   1
  -5  -1   1  695.70  157.70   1
   5   1  -1  670.10  157.70   1
   5   1   2 1337.10  295.80   1
  -5  -1  -2 1294.50  295.60   1
   5  -1  -2 1480.70  295.70   1
  -5   1   2 1566.80  296.00   1
  -5   1  -2 1326.20  296.80   1
   5  -1   2 1941.70  300.20   1
  -5  -1   2 1517.30  296.20   1
   5   1  -2 1570.40  296.40   1
   5   1   3  185.00   40.10   1
  -5  -1  -3   70.80   39.60   1
   5  -1  -3  216.40   39.60   1
  -5   1   3  258.30   39.70   1
  -5   1  -3  189.40   40.30   1
  -5  -1   3    5.90   39.20   1
   5   1  -3   10.20   39.20   1
   5   1   4 1226.80  285.10   1
  -5  -1  -4 1379.00  288.10   1
   5  -1  -4 1651.30  285.20   1
  -5   1   4 1287.50  283.50   1
  -5  -1   4 1230.50  284.10   1
   5   1  -4 1740.90  287.40   1
   5  -1  -5   18.40   19.50   1
  -5   1   5    4.70   19.40   1
  -5  -1   5   12.80   19.40   1
   5   1  -5   25.90   19.50   1
   5  -1  -6   65.60   35.40   1
  -5   1   6   33.20   35.20   1
   5   2   0  143.70   60.20   1
  -5  -2   0  111.30   60.10   1
   5  -2   0  106.90   60.20   1
  -5   2   0  137.70   60.20   1
   5   2   1 1239.70  270.40   1
  -5  -2  -1 1250.60  270.50   1
   5  -2  -1 1265.80  269.60   1
  -5   2   1 1237.80  269.30   1
  -5   2  -1 1412.10  270.50   1
   5  -2   1 1101.30  269.10   1
  -5  -2   1 1514.20  270.50   1
   5   2  -1 1502.40  270.30   1
   5   2   2  252.60   85.20   1
  -5  -2  -2  246.20   85.20   1
   5  -2  -2  306.10   85.40   1
  -5   2   2  223.60   85.20   1
  -5   2  -2  208.20   85.30   1
   5  -2   2  173.30   85.20   1
  -5  -2   2  195.90   85.10   1
   5   2  -2  247.30   85.30   1
   5   2   3 1647.40  322.50   1
  -5  -2  -3 1961.60  324.30   1
   5  -2  -3 1764.40  322.00   1
  -5   2   3 1623.00  321.70   1
  -5   2  -3 1912.80  356.90   1
   5  -2   3 1995.50  349.40   1
  -5  -2   3 1204.60  321.40   1
   5   2  -3 1891.40  325.30   1
   5   2   4  237.00   83.80   1
  -5  -2  -4  178.10   83.70   1
   5  -2  -4  214.10   83.50   1
  -5   2   4  219.10   83.50   1
  -5  -2   4  280.20   84.30   1
   5   2  -4  274.90   84.50   1
   5  -2  -5  232.20   46.20   1
  -5   2   5   45.70   45.30   1
   5  -2  -6   61.30   31.90   1
  -5   2   6   23.60   31.70   1
   5  -2  -7  131.30   48.70   1
  -5   2   7   66.30   48.00   1
   5   3   0  170.90   37.70   1
  -5  -3   0   59.60   37.40   1
   5  -3   0   35.90   37.50   1
  -5   3   0   12.60   37.40   1
   5   3   1  239.00   55.00   1
  -5  -3  -1  111.90   54.70   1
   5  -3  -1  101.00   54.70   1
  -5   3   1   77.10   54.70   1
  -5   3  -1  142.30   55.20   1
   5  -3   1   83.30   55.00   1
  -5  -3   1   97.90   54.70   1
   5   3  -1   92.70   54.70   1
   5   3   2  776.20  159.80   1
  -5  -3  -2  579.80  159.10   1
   5  -3  -2  588.40  159.30   1
  -5   3   2  715.50  159.70   1
  -5   3  -2  693.30  160.40   1
   5  -3   2  666.00  160.20   1
  -5  -3   2  458.00  159.40   1
   5   3  -2  655.30  160.30   1
   5   3   3  110.30   52.80   1
  -5  -3  -3   90.00   52.70   1
   5  -3  -3   87.30   52.70   1
  -5   3   3  100.90   52.70   1
   5   3   4 1347.80  229.10   1
  -5  -3  -4  959.00  227.10   1
   5  -3  -4 1044.40  226.20   1
  -5   3   4  937.60  226.00   1
  -5  -3   4  986.50  239.70   1
   5   3   5   21.80   20.60   1
  -5  -3  -5    2.90   20.50   1
   5  -3  -5   18.30   20.10   1
  -5   3   5   13.10   20.10   1
   5  -3  -6 2069.80  372.00   1
  -5   3   6 1801.90  370.90   1
   5  -3  -7  492.80  157.70   1
  -5   3   7  977.50  161.20   1
   5  -3  -8   17.80   19.40   1
  -5   3   8   11.00   19.20   1
   5   4   0   38.40   32.30   1
  -5  -4   0   42.20   32.30   1
   5  -4   0   27.00   32.50   1
  -5   4   0   23.70   32.60   1
   5   4   1  788.60  157.50   1
  -5  -4  -1  704.90  157.30   1
   5  -4  -1  519.40  156.90   1
  -5   4   1  514.70  156.80   1
  -5   4  -1  481.10  156.90   1
   5  -4   1  651.20  157.50   1
  -5  -4   1  670.70  157.50   1
   5   4  -1  826.70  158.20   1
   5   4   2   30.30   26.10   1
  -5  -4  -2   32.50   26.10   1
   5  -4  -2   31.90   26.10   1
  -5   4   2   24.90   26.10   1
  -5   4  -2   21.50   26.70   1
   5  -4   2   14.30   26.70   1
  -5  -4   2    5.90   26.10   1
   5   4  -2   19.00   26.10   1
   5   4   3   22.00   26.10   1
  -5  -4  -3   28.60   26.10   1
   5  -4  -3   26.90   26.10   1
  -5   4   3   51.80   26.10   1
  -5  -4   3    5.80   26.10   1
   5   4  -3   13.70   26.20   1
   5   4   4    8.30   18.90   1
  -5  -4  -4   16.20   19.10   1
   5  -4  -4    9.80   18.70   1
  -5   4   4   17.20   18.70   1
   5   4   5  408.00   87.70   1
  -5  -4  -5  196.40   86.80   1
   5  -4  -5  349.40   87.00   1
  -5   4   5  189.50   86.60   1
   5  -4  -6   19.00   18.20   1
  -5   4   6    8.10   18.10   1
   5  -4  -7   29.50   19.00   1
  -5   4   7    2.30   18.90   1
   5  -4  -8    0.80   11.40   1
  -5   4   8    7.70   11.40   1
  -5   4   9   31.90   29.90   1
   5   5   0   16.50   27.00   1
  -5  -5   0   26.30   27.00   1
   5  -5   0   38.90   27.50   1
  -5   5   0  180.90   28.40   1
   5   5   1   26.80   20.20   1
  -5  -5  -1   14.80   20.20   1
   5  -5  -1    8.80   20.20   1
  -5   5   1   25.50   20.30   1
  -5   5  -1   -0.00   20.50   1
   5  -5   1   15.90   20.50   1
  -5  -5   1   12.50   20.20   1
   5   5  -1    5.20   20.20   1
   5   5   2 4030.50  648.50   1
  -5  -5  -2 3972.40  648.30   1
   5  -5  -2 4021.20  648.30   1
  -5   5   2 3102.70  644.40   1
  -5  -5   2 4311.80  668.70   1
   5   5  -2 4087.90  670.90   1
   5   5   3   37.50   33.90   1
  -5  -5  -3  215.40   34.40   1
   5  -5  -3   37.30   33.90   1
  -5   5   3   28.40   33.90   1
   5   5   4  374.70  123.90   1
  -5  -5  -4  393.80  123.90   1
   5  -5  -4  437.60  124.00   1
  -5   5   4  514.70  124.10   1
   5   5   5   81.10   37.50   1
  -5  -5  -5   25.20   37.20   1
   5  -5  -5   47.70   37.10   1
  -5   5   5   56.20   37.10   1
   5   5   6   21.80   54.50   1
  -5  -5  -6  227.90   57.10   1
   5  -5  -6  211.30   54.70   1
  -5   5   6  110.30   54.40   1
   5  -5  -7  170.20   65.40   1
  -5   5   7  126.20   65.20   1
   5  -5  -8   46.80   29.90   1
  -5   5   8   23.10   29.80   1
   5  -5  -9   12.70   19.30   1
  -5   5   9   14.30   19.30   1
   5   6   0    2.30   20.50   1
  -5  -6   0   -0.00   20.50   1
   5  -6   0   55.80   21.00   1
  -5   6   0   71.40   21.10   1
   5   6   1  650.90  133.50   1
  -5  -6  -1  762.60  133.90   1
   5  -6  -1  311.80  132.80   1
  -5   6   1  801.90  134.70   1
  -5   6  -1  693.80  139.20   1
   5  -6   1  678.50  137.80   1
  -5  -6   1  405.40  133.20   1
   5   6  -1  384.40  133.20   1
   5   6   2  160.60   58.30   1
  -5  -6  -2  205.40   58.40   1
   5  -6  -2  101.70   58.20   1
  -5   6   2   96.10   58.20   1
  -5  -6   2   40.30   58.40   1
   5   6   3  154.90   72.30   1
  -5  -6  -3  244.10   72.50   1
   5  -6  -3  147.40   72.30   1
  -5   6   3  180.30   72.30   1
   5   6   4   18.40   27.50   1
  -5  -6  -4   14.30   27.50   1
   5  -6  -4   38.20   27.50   1
  -5   6   4   53.50   27.60   1
   5   6   5   12.40   31.50   1
  -5  -6  -5  126.00   32.00   1
   5  -6  -5   29.40   31.40   1
  -5   6   5   43.40   31.40   1
   5   6   6   13.50   27.40   1
  -5  -6  -6   38.80   27.50   1
   5  -6  -6   19.30   27.30   1
  -5   6   6   39.80   27.30   1
   5  -6  -7  144.70   65.30   1
  -5   6   7  139.00   65.30   1
   5  -6  -8   -0.00    2.40   1
  -5   6   8   -0.10    2.80   1
   5  -6  -9  270.80  109.70   1
  -5   6   9  615.20  113.10   1
  -5   6  10   28.90   28.40   1
   5   7   0   26.70   25.90   1
  -5  -7   0   16.00   25.90   1
   5  -7   0   69.20   26.30   1
  -5   7   0   14.40   26.10   1
   5   7   1   32.50   25.70   1
  -5  -7  -1   13.30   25.60   1
   5  -7  -1   51.80   26.10   1
  -5   7   1   29.60   26.00   1
  -5  -7   1   27.80   25.70   1
   5   7  -1   24.00   25.80   1
   5   7   2  206.30   85.40   1
  -5  -7  -2  280.60   85.60   1
   5  -7  -2  296.40   85.70   1
  -5   7   2  190.60   85.40   1
   5   7   3   96.50   56.60   1
  -5  -7  -3  117.00   56.70   1
   5  -7  -3  128.70   56.70   1
  -5   7   3  108.20   56.70   1
   5   7   4  129.50   54.50   1
  -5  -7  -4   94.20   54.50   1
   5  -7  -4  107.40   54.50   1
  -5   7   4   84.60   54.50   1
   5   7   5   66.80   44.80   1
  -5  -7  -5  104.30   44.90   1
   5  -7  -5   59.60   44.80   1
  -5   7   5   69.50   44.80   1
   5   7   6  146.50   60.30   1
  -5  -7  -6  174.10   60.40   1
   5  -7  -6   84.50   60.00   1
  -5   7   6  240.90   60.30   1
   5   7   7   21.00   39.50   1
   5  -7  -7   69.60   39.40   1
  -5   7   7   58.50   39.40   1
   5  -7  -8  360.00  106.30   1
  -5   7   8  305.20  105.90   1
   5  -7  -9   16.40   18.20   1
  -5   7   9    7.70   18.20   1
   5  -7 -10   94.00   36.70   1
  -5   7  10   36.10   35.90   1
  -5   7  11   43.90   35.40   1
   5   8   0   10.80   11.00   1
  -5  -8   0    0.00   11.00   1
   5  -8   0    1.90   12.00   1
  -5   8   0    1.60   12.10   1
   5   8   1  169.20   76.10   1
  -5  -8  -1  175.60   76.20   1
   5  -8  -1  162.80   76.30   1
  -5   8   1  316.80   76.80   1
   5   8   2   94.70   45.00   1
  -5  -8  -2   97.10   44.90   1
   5  -8  -2   12.70   45.00   1
  -5   8   2   72.90   45.30   1
   5   8   3  623.10  146.80   1
  -5  -8  -3  498.10  146.50   1
   5  -8  -3  529.10  146.60   1
  -5   8   3  561.50  146.50   1
   5   8   4   66.40   41.70   1
  -5  -8  -4   63.10   41.70   1
   5  -8  -4   53.30   41.70   1
  -5   8   4   63.10   41.70   1
   5   8   5 1482.00  322.70   1
  -5  -8  -5 1850.40  324.10   1
   5  -8  -5 1618.30  323.30   1
  -5   8   5 1658.60  324.30   1
   5   8   6   23.50   36.60   1
  -5  -8  -6   58.60   36.80   1
   5  -8  -6   50.50   36.50   1
  -5   8   6   59.90   36.50   1
   5   8   7  684.60  179.20   1
  -5  -8  -7  531.70  178.70   1
   5  -8  -7  837.40  178.30   1
  -5   8   7  822.40  178.50   1
   5  -8  -8   44.10   33.60   1
  -5   8   8   38.00   33.50   1
   5  -8  -9  651.50  159.40   1
  -5   8   9  577.60  158.30   1
   5  -8 -10   43.20   36.70   1
  -5   8  10   53.20   36.70   1
   5  -8 -11   13.40   18.00   1
  -5   8  11   10.10   17.90   1
  -5   8  12    9.00   16.00   1
   5  -9   0    7.20   15.00   1
   5   9   1   58.10   33.70   1
  -5  -9  -1   82.70   33.80   1
   5  -9  -1    4.80   33.80   1
  -5   9   1   13.00   33.80   1
   5   9   2   49.90   34.50   1
  -5  -9  -2   42.00   34.40   1
   5  -9  -2   12.10   34.60   1
  -5   9   2   75.20   34.80   1
   5   9   3    7.90   22.50   1
  -5  -9  -3   27.50   22.50   1
   5  -9  -3   65.90   22.70   1
  -5   9   3    7.80   22.60   1
   5   9   4  299.00   99.00   1
  -5  -9  -4  298.70   99.00   1
   5  -9  -4  265.60   99.00   1
  -5   9   4  311.20   99.10   1
   5   9   5   25.80   25.50   1
  -5  -9  -5   20.40   25.50   1
   5  -9  -5   27.40   25.50   1
  -5   9   5   22.20   25.50   1
   5   9   6   20.10   19.50   1
   5  -9  -6   10.80   19.50   1
  -5   9   6   11.50   19.50   1
   5   9   7   35.20   25.70   1
  -5  -9  -7   12.40   25.60   1
   5  -9  -7   27.70   25.50   1
  -5   9   7   20.70   25.50   1
   5   9   8   14.60   28.00   1
   5  -9  -8   23.00   27.80   1
  -5   9   8   39.10   27.80   1
   5  -9  -9    8.10   15.20   1
  -5   9   9    8.30   15.10   1
   5  -9 -10  142.80   68.40   1
  -5   9  10  165.50   68.60   1
   5  -9 -11   10.50   15.50   1
  -5   9  11    6.90   15.40   1
  -5   9  12   15.60   20.80   1
   5  10   1 1775.10  398.90   1
  -5 -10  -1 1796.20  375.60   1
   5 -10  -1 1827.30  366.00   1
  -5  10   1 2068.90  375.40   1
   5  10   2    2.70   16.70   1
  -5 -10  -2   11.00   16.70   1
   5 -10  -2   14.60   17.20   1
  -5  10   2   63.60   17.50   1
   5  10   3  438.40   95.00   1
  -5 -10  -3  353.20   94.50   1
   5 -10  -3  165.80   94.00   1
  -5  10   3  473.10   95.30   1
   5  10   4   24.30   23.70   1
  -5 -10  -4   26.10   23.60   1
   5 -10  -4   13.50   23.70   1
  -5  10   4   12.10   23.70   1
   5  10   5  171.60   31.60   1
  -5 -10  -5   29.20   31.10   1
   5 -10  -5   14.20   31.10   1
  -5  10   5   65.70   31.20   1
   5  10   6   28.20   30.00   1
  -5 -10  -6   37.50   30.00   1
   5 -10  -6   30.40   30.00   1
  -5  10   6   35.80   30.00   1
   5  10   7  114.30   69.20   1
  -5 -10  -7  151.10   69.40   1
   5 -10  -7  163.40   69.20   1
  -5  10   7  251.50   69.50   1
   5  10   8   40.80   24.50   1
  -5 -10  -8   25.90   24.60   1
   5 -10  -8   26.30   24.30   1
  -5  10   8   12.90   24.30   1
   5 -10  -9 1819.40  348.80   1
  -5  10   9 1743.70  347.60   1
   5 -10 -10   25.70   28.40   1
  -5  10  10   30.90   28.30   1
   5 -10 -11  173.00   50.70   1
  -5  10  11   67.10   49.40   1
   5 -10 -12    8.30   21.20   1
  -5  10  12   50.00   21.70   1
  -5  10  13    4.80   11.70   1
   5 -11  -1   56.70   40.60   1
   5  11   2  174.90   52.90   1
  -5 -11  -2   84.00   51.70   1
   5 -11  -2   84.60   51.70   1
  -5  11   2   91.30   51.80   1
   5  11   3    6.30   12.70   1
  -5 -11  -3   -0.00   12.70   1
   5 -11  -3    2.60   13.30   1
  -5  11   3   45.80   13.80   1
   5  11   4  113.60   51.50   1
  -5 -11  -4   82.70   51.40   1
   5 -11  -4   66.60   51.50   1
  -5  11   4  127.10   51.60   1
   5  11   5   30.90   23.50   1
  -5 -11  -5   11.30   23.50   1
   5 -11  -5   51.60   23.60   1
  -5  11   5    9.70   23.50   1
   5  11   6   12.90   23.50   1
  -5 -11  -6   17.80   23.50   1
   5 -11  -6   65.50   23.70   1
  -5  11   6   22.40   23.50   1
   5  11   7   18.60   27.20   1
  -5 -11  -7   28.90   27.20   1
   5 -11  -7   32.80   27.20   1
  -5  11   7   33.20   27.20   1
   5  11   8  115.10   55.30   1
  -5 -11  -8   77.70   55.10   1
   5 -11  -8  115.70   55.10   1
  -5  11   8  106.20   55.00   1
   5  11   9   -0.00   16.40   1
   5 -11  -9   12.00   16.10   1
  -5  11   9    9.20   16.00   1
   5 -11 -10   35.90   28.20   1
  -5  11  10   25.10   28.10   1
   5 -11 -11    1.80   10.70   1
  -5  11  11    6.10   10.70   1
   5 -11 -12   42.00   37.10   1
  -5  11  12   56.80   37.20   1
   5 -11 -13    3.10    9.50   1
  -5  11  13    3.10    9.50   1
   5 -12  -2   65.00   46.30   1
  -5  12   2   91.80   46.70   1
   5  12   3  776.30  186.00   1
  -5 -12  -3  646.50  183.20   1
   5 -12  -3 1106.00  186.90   1
  -5  12   3  718.50  183.20   1
   5  12   4  148.80   59.40   1
  -5 -12  -4   91.60   59.10   1
   5 -12  -4  140.40   59.30   1
  -5  12   4  166.30   59.60   1
   5  12   5   58.50   31.40   1
  -5 -12  -5  142.40   31.70   1
   5 -12  -5   13.60   31.30   1
  -5  12   5   14.50   31.40   1
   5  12   6   41.60   34.90   1
  -5 -12  -6   90.30   35.00   1
   5 -12  -6   22.10   34.90   1
  -5  12   6   55.40   35.00   1
   5  12   7  137.70   65.20   1
  -5 -12  -7  136.40   65.20   1
   5 -12  -7  149.90   65.30   1
  -5  12   7  147.20   65.30   1
   5  12   8   34.90   23.60   1
  -5 -12  -8    4.70   23.70   1
   5 -12  -8   18.60   23.50   1
  -5  12   8   21.60   23.50   1
   5  12   9  106.80   28.00   1
  -5 -12  -9   64.40   28.10   1
   5 -12  -9   11.60   26.90   1
  -5  12   9   45.60   27.00   1
   5 -12 -10   21.70   24.90   1
  -5  12  10   23.50   24.90   1
   5 -12 -11  154.50   51.20   1
  -5  12  11   74.10   50.30   1
   5 -12 -12    6.50   15.40   1
  -5  12  12   12.30   15.60   1
   5 -12 -13   15.60   18.80   1
  -5  12  13   10.50   18.80   1
   5 -13  -2   81.70   43.30   1
  -5  13   2   49.30   43.10   1
  -5 -13  -3  237.00   94.00   1
   5 -13  -3  273.60   93.10   1
  -5  13   3  260.70   93.10   1
   5  13   4  241.40   80.60   1
  -5 -13  -4  143.00   80.00   1
   5 -13  -4  367.20   81.60   1
  -5  13   4  278.40   80.90   1
   5  13   5   60.60   43.80   1
  -5 -13  -5   60.20   43.80   1
   5 -13  -5   89.70   43.90   1
  -5  13   5   83.10   44.00   1
   5  13   6 1668.70  348.00   1
  -5 -13  -6 2165.90  350.50   1
   5 -13  -6 1843.80  349.50   1
  -5  13   6 1617.00  348.50   1
   5  13   7   10.40   20.50   1
  -5 -13  -7   17.00   20.50   1
   5 -13  -7   20.20   20.60   1
  -5  13   7   19.30   20.50   1
   5  13   8  128.40   56.70   1
  -5 -13  -8  110.50   56.60   1
   5 -13  -8   82.50   56.50   1
  -5  13   8  156.00   56.90   1
   5  13   9   70.90   34.70   1
  -5 -13  -9   22.20   34.40   1
   5 -13  -9   44.20   34.30   1
  -5  13   9   49.10   34.30   1
   5  13  10  211.90   92.40   1
   5 -13 -10  226.30   88.80   1
  -5  13  10  273.30   89.10   1
   5 -13 -11   47.40   38.90   1
  -5  13  11   60.30   38.90   1
   5 -13 -12   51.40   44.50   1
  -5  13  12   97.00   44.70   1
   5 -14  -3  117.20   63.00   1
  -5  14   3  168.50   63.90   1
   5  14   4   11.80   20.10   1
  -5 -14  -4   22.00   20.10   1
   5 -14  -4    8.50   20.50   1
  -5  14   4    4.60   20.50   1
   5  14   5  798.30  219.80   1
  -5 -14  -5  843.40  219.60   1
   5 -14  -5 1070.20  219.80   1
  -5  14   5 1395.20  223.80   1
   5  14   6   58.80   35.50   1
  -5 -14  -6   41.80   35.40   1
   5 -14  -6   35.60   35.50   1
  -5  14   6   43.40   35.50   1
   5  14   7   60.30   29.80   1
  -5 -14  -7   36.10   29.80   1
   5 -14  -7   29.20   29.80   1
  -5  14   7   10.40   29.80   1
   5  14   8    9.10   16.50   1
  -5 -14  -8    9.30   16.50   1
   5 -14  -8   14.60   16.60   1
  -5  14   8    9.00   16.60   1
   5  14   9   55.90   36.80   1
  -5 -14  -9   40.00   36.80   1
   5 -14  -9   63.90   36.70   1
  -5  14   9   36.90   36.70   1
   5  14  10   10.80   13.00   1
   5 -14 -10    7.00   12.80   1
  -5  14  10    3.70   12.80   1
   5 -14 -11   15.30   17.30   1
  -5  14  11    7.50   17.30   1
   5 -14 -12   -0.00    4.70   1
  -5  14  12    0.90    4.30   1
   5 -15  -3   26.10   25.30   1
  -5  15   3   18.20   25.40   1
   5 -15  -4 1417.60  291.10   1
  -5  15   4 1364.70  292.80   1
   5  15   5    5.60   17.00   1
  -5 -15  -5    9.70   17.00   1
   5 -15  -5   24.50   17.80   1
  -5  15   5   75.20   18.40   1
   5  15   6   93.80   59.00   1
  -5 -15  -6  136.10   59.00   1
   5 -15  -6  106.70   58.90   1
  -5  15   6  147.20   59.10   1
   5  15   7    3.70   11.10   1
  -5 -15  -7    7.50   11.10   1
   5 -15  -7    0.00   11.30   1
  -5  15   7    1.30   11.30   1
   5  15   8   97.40   43.00   1
  -5 -15  -8   57.00   42.80   1
   5 -15  -8   42.10   42.80   1
  -5  15   8  123.00   43.10   1
   5  15   9   11.80   19.90   1
  -5 -15  -9   23.40   20.00   1
   5 -15  -9   11.30   19.90   1
  -5  15   9   15.60   19.90   1
   5  15  10   40.20   31.60   1
  -5 -15 -10    9.70   31.40   1
   5 -15 -10   43.60   31.40   1
  -5  15  10  104.00   31.70   1
   5 -15 -11   11.70   17.40   1
  -5  15  11   10.50   17.40   1
   5 -16  -3  104.10   56.90   1
   5 -16  -4   -0.00   10.40   1
  -5  16   4    8.20   10.70   1
  -5 -16  -5   39.10   33.60   1
   5 -16  -5   70.30   33.90   1
  -5  16   5   23.80   33.70   1
   5  16   6   21.60   16.80   1
  -5 -16  -6    0.40   16.80   1
   5 -16  -6   13.50   17.10   1
  -5  16   6   21.50   17.70   1
   5  16   7   18.80   28.50   1
  -5 -16  -7   32.90   28.50   1
   5 -16  -7   67.90   28.80   1
  -5  16   7   32.10   28.60   1
   5  16   8    3.50   15.20   1
  -5 -16  -8   10.60   15.30   1
   5 -16  -8   15.00   15.40   1
  -5  16   8   20.70   15.40   1
   5  16   9   24.80   30.50   1
  -5 -16  -9  102.00   30.80   1
   5 -16  -9   60.50   30.70   1
  -5  16   9   22.20   30.50   1
   5  16  10   11.00   10.90   1
  -5 -16 -10   -0.00   11.00   1
   5 -16 -10    2.40   10.80   1
  -5  16  10    3.30   10.80   1
   5  16  11  113.70   31.10   1
   5 -16 -11   36.40   29.30   1
  -5  16  11   24.40   29.20   1
   5 -17  -4   58.40   23.00   1
  -5  17   4   -0.00   22.30   1
   5 -17  -5    2.30   18.50   1
  -5  17   5   23.90   18.60   1
  -5 -17  -6   20.20   28.80   1
   5 -17  -6   58.80   29.40   1
  -5  17   6   84.10   29.60   1
   5  17   7    7.80   16.80   1
  -5 -17  -7   15.40   16.80   1
   5 -17  -7    5.90   16.80   1
  -5  17   7    9.20   17.10   1
   5  17   8   51.90   33.90   1
  -5 -17  -8   33.50   33.90   1
   5 -17  -8   48.60   34.00   1
  -5  17   8   41.90   34.00   1
   5  17   9    6.80    9.70   1
  -5 -17  -9    1.60    9.70   1
   5 -17  -9   -0.00    9.80   1
  -5  17   9    3.70    9.80   1
   5  17  10    8.80   20.30   1
  -5 -17 -10   20.30   20.40   1
   5 -17 -10   17.10   20.40   1
  -5  17  10   27.70   20.40   1
   5 -18  -4   -0.00    5.00   1
   5 -18  -5    6.70   21.90   1
  -5  18   5   49.80   22.60   1
   5 -18  -6   17.50   23.90   1
  -5  18   6   23.70   24.00   1
  -5 -18  -7   30.40   29.00   1
   5 -18  -7   30.10   29.20   1
   5  18   8    8.80   21.20   1
  -5 -18  -8   20.10   21.10   1
   5 -18  -8   13.80   21.20   1
  -5  18   8   20.60   21.20   1
   5  18   9  134.90   39.40   1
  -5 -18  -9   37.00   38.80   1
   5 -18  -9   55.40   39.00   1
  -5  18   9  138.70   39.50   1
   5 -19  -5    5.50   11.40   1
  -5  19   5    2.50   11.50   1
   5 -19  -6   18.20   26.50   1
  -5  19   6   34.30   26.60   1
  -5 -19  -7    7.60   15.90   1
   5 -19  -7    7.90   16.70   1
  -5  19   7   22.80   16.60   1
   5  19   8   10.10   17.50   1
  -5 -19  -8  122.20   19.70   1
   5 -19  -8    3.00   17.50   1
  -5  19   8   24.70   17.80   1
   5 -20  -5  405.20  131.30   1
   5 -20  -6   -0.00    3.80   1
  -5  20   6   -0.00    4.20   1
   5 -20  -7   47.70   39.70   1
  -5  20   7   67.30   40.00   1
   5 -21  -6   14.30   19.00   1
  -5  21   6   10.50   19.10   1
   6   0   0 3189.40  555.00   1
  -6   0   0 3070.60  553.50   1
   6   0   1 1188.60  272.40   1
  -6   0  -1 1137.00  272.30   1
   6   0  -1 1677.50  274.80   1
  -6   0   1 1716.30  275.00   1
   6   0   2   89.00   50.80   1
  -6   0  -2  101.20   50.80   1
   6   0  -2   84.80   50.70   1
  -6   0   2   87.20   50.70   1
   6   0   3 1220.80  301.90   1
  -6   0  -3 1604.10  304.20   1
   6   0  -3 1504.00  301.70   1
  -6   0   3 1759.00  302.40   1
   6   0   4   26.20   27.00   1
  -6   0  -4   22.70   27.00   1
   6   0  -4   28.70   26.80   1
  -6   0   4   24.70   26.70   1
   6   0  -5 1423.90  252.70   1
  -6   0   5 1029.60  250.50   1
   6   0  -6 1098.50  233.50   1
  -6   0   6 1018.20  232.40   1
   6   0  -7  519.80  131.60   1
  -6   0   7  392.00  127.00   1
   6   1   0  970.70  218.50   1
  -6  -1   0  927.20  218.40   1
   6  -1   0  980.60  218.00   1
  -6   1   0 1011.20  218.00   1
   6   1   1   95.10   51.40   1
  -6  -1  -1  127.80   51.40   1
   6  -1  -1   84.80   51.40   1
  -6   1   1   88.90   51.40   1
  -6   1  -1   77.70   51.40   1
   6  -1   1   86.80   51.40   1
  -6  -1   1   89.50   51.40   1
   6   1  -1   89.60   51.40   1
   6   1   2  487.20  134.20   1
  -6  -1  -2  484.80  134.20   1
   6  -1  -2  521.70  134.30   1
  -6   1   2  484.70  134.20   1
  -6   1  -2  535.80  135.00   1
   6  -1   2  432.60  134.40   1
  -6  -1   2  448.50  134.20   1
   6   1  -2  460.00  134.20   1
   6   1   3  108.20   64.50   1
  -6  -1  -3  241.20   65.00   1
   6  -1  -3  142.50   64.20   1
  -6   1   3  150.90   64.30   1
  -6   1  -3  121.30   64.40   1
   6  -1   3   86.50   64.40   1
  -6  -1   3  149.10   64.30   1
   6   1  -3  145.40   64.30   1
   6   1   4   38.90   47.40   1
  -6  -1  -4   62.70   47.40   1
   6  -1  -4   77.00   47.20   1
  -6   1   4  111.50   47.30   1
  -6   1  -4  249.50   50.00   1
   6  -1   4   84.80   47.80   1
  -6  -1   4   69.30   47.30   1
   6   1  -4   70.30   47.40   1
   6   1   5  223.20   58.50   1
  -6  -1  -5  128.50   57.60   1
   6  -1  -5  133.90   56.70   1
  -6   1   5  107.40   56.60   1
  -6  -1   5   77.80   56.50   1
   6   1  -5  116.90   56.60   1
   6  -1  -6   27.40   21.70   1
  -6   1   6   15.10   21.60   1
  -6  -1   6   12.10   21.60   1
   6   1  -6   16.80   21.60   1
   6  -1  -7   20.00   21.30   1
  -6   1   7   13.50   21.30   1
  -6   1   8    1.90    7.70   1
   6   2   0  124.50   61.30   1
  -6  -2   0  124.70   61.30   1
   6  -2   0  128.10   61.30   1
  -6   2   0  129.70   61.30   1
   6   2   1  191.10   78.70   1
  -6  -2  -1  244.60   78.90   1
   6  -2  -1  241.90   78.80   1
  -6   2   1  220.40   78.70   1
  -6   2  -1  213.10   78.80   1
   6  -2   1  186.30   78.70   1
  -6  -2   1  156.70   78.60   1
   6   2  -1  196.70   78.60   1
   6   2   2  120.80   56.60   1
  -6  -2  -2   95.10   56.50   1
   6  -2  -2  143.90   56.60   1
  -6   2   2  128.80   56.60   1
  -6   2  -2   82.90   56.80   1
   6  -2   2  141.00   57.00   1
  -6  -2   2   98.00   56.50   1
   6   2  -2   93.20   56.50   1
   6   2   3  137.20   28.60   1
  -6  -2  -3   42.20   28.30   1
   6  -2  -3   38.60   28.10   1
  -6   2   3   46.50   28.10   1
  -6   2  -3   16.10   28.40   1
   6  -2   3   15.60   28.40   1
  -6  -2   3    6.00   28.10   1
   6   2  -3   -0.00   28.10   1
   6   2   4   66.10   29.60   1
  -6  -2  -4   23.50   29.50   1
   6  -2  -4   32.80   29.10   1
  -6   2   4   31.80   29.10   1
  -6  -2   4   24.60   29.10   1
   6   2  -4   25.20   29.10   1
   6   2   5   22.10   28.80   1
  -6  -2  -5   73.60   29.00   1
   6  -2  -5   37.10   28.50   1
  -6   2   5   28.60   28.50   1
  -6  -2   5   18.20   28.50   1
   6   2  -5   27.20   28.50   1
   6  -2  -6   -0.00   11.60   1
  -6   2   6    5.40   11.50   1
  -6  -2   6    8.00   11.50   1
   6  -2  -7  229.60   91.00   1
  -6   2   7  287.90   91.30   1
   6  -2  -8   22.60   21.70   1
  -6   2   8   13.70   21.60   1
   6   3   0 2297.90  404.60   1
  -6  -3   0 2272.10  404.40   1
   6  -3   0 2042.20  404.00   1
  -6   3   0 2073.40  404.30   1
   6   3   1   25.40   33.10   1
  -6  -3  -1   42.10   33.10   1
   6  -3  -1   47.00   33.10   1
  -6   3   1   38.30   33.10   1
  -6   3  -1   26.70   33.60   1
   6  -3   1   26.90   33.50   1
  -6  -3   1   68.50   33.10   1
   6   3  -1   37.00   33.10   1
   6   3   2 2961.90  544.60   1
  -6  -3  -2 2741.30  543.50   1
   6  -3  -2 2979.40  545.10   1
  -6   3   2 2903.50  544.90   1
  -6   3  -2 3530.80  548.80   1
   6  -3   2 3677.00  550.30   1
  -6  -3   2 3226.70  547.10   1
   6   3  -2 3252.80  547.60   1
   6   3   3   93.00   45.90   1
  -6  -3  -3   84.60   45.90   1
   6  -3  -3   71.60   45.90   1
  -6   3   3   77.80   45.90   1
  -6   3  -3   99.60   46.60   1
   6  -3   3  123.90   46.70   1
  -6  -3   3   38.40   45.90   1
   6   3  -3   56.80   46.00   1
   6   3   4  851.90  152.00   1
  -6  -3  -4  553.90  150.90   1
   6  -3  -4  460.80  149.90   1
  -6   3   4  561.80  150.20   1
  -6  -3   4  681.90  151.50   1
   6   3  -4  761.30  152.30   1
   6   3   5  120.20   56.50   1
  -6  -3  -5   47.40   56.30   1
   6  -3  -5  149.40   56.30   1
  -6   3   5  157.10   56.30   1
  -6  -3   5   75.90   56.40   1
   6   3  -5   88.80   56.70   1
   6   3   6  427.30  109.60   1
  -6  -3  -6  619.20  120.50   1
   6  -3  -6  481.90  106.50   1
  -6   3   6  259.50  105.60   1
   6  -3  -7  199.50   78.80   1
  -6   3   7  194.60   78.80   1
   6  -3  -8  541.40  169.50   1
  -6   3   8 1648.20  183.10   1
   6  -3  -9   17.80   20.60   1
  -6   3   9   13.40   20.50   1
   6   4   0   75.60   37.40   1
  -6  -4   0   41.40   37.40   1
   6  -4   0   47.80   37.60   1
  -6   4   0   29.50   37.50   1
   6   4   1   20.10   30.60   1
  -6  -4  -1   17.60   30.60   1
   6  -4  -1   28.10   30.70   1
  -6   4   1   14.00   30.70   1
  -6   4  -1  239.90   32.40   1
   6  -4   1  181.70   31.80   1
  -6  -4   1   60.20   30.70   1
   6   4  -1   81.60   30.70   1
   6   4   2    9.70   14.50   1
  -6  -4  -2    5.20   14.50   1
   6  -4  -2    0.90   14.50   1
  -6   4   2    5.10   14.50   1
  -6   4  -2   19.10   15.10   1
   6  -4   2   21.80   15.20   1
  -6  -4   2   14.00   14.80   1
   6   4  -2   19.00   14.90   1
   6   4   3   36.10   26.70   1
  -6  -4  -3   54.40   26.70   1
   6  -4  -3   19.90   26.60   1
  -6   4   3   11.30   26.60   1
   6  -4   3   34.70   27.50   1
  -6  -4   3   28.30   26.70   1
   6   4  -3   30.80   26.70   1
   6   4   4   11.40   19.50   1
  -6  -4  -4   48.60   19.80   1
   6  -4  -4   31.00   19.40   1
  -6   4   4    3.60   19.40   1
  -6  -4   4   10.00   19.50   1
   6   4  -4    8.10   19.50   1
   6   4   5  128.60   44.50   1
  -6  -4  -5   80.20   44.20   1
   6  -4  -5   46.10   43.90   1
  -6   4   5   83.80   44.00   1
   6   4   6   62.30   39.60   1
  -6  -4  -6   55.60   39.70   1
   6  -4  -6   61.70   39.40   1
  -6   4   6   47.90   39.30   1
   6  -4  -7   21.20   16.80   1
  -6   4   7    4.60   16.60   1
   6  -4  -8   33.90   32.80   1
  -6   4   8   43.40   32.80   1
   6  -4  -9   49.00   29.50   1
  -6   4   9   22.50   29.30   1
  -6   4  10    9.20   16.10   1
   6   5   0 1279.60  325.60   1
  -6  -5   0 1866.80  327.30   1
   6  -5   0 2017.20  329.60   1
  -6   5   0 3317.40  341.00   1
   6   5   1  336.40  110.20   1
  -6  -5  -1  331.20  110.20   1
   6  -5  -1  321.30  110.10   1
  -6   5   1  344.00  110.20   1
  -6   5  -1  425.50  110.80   1
   6  -5   1  397.10  110.70   1
  -6  -5   1  341.40  110.30   1
   6   5  -1  389.00  110.50   1
   6   5   2 1726.90  340.80   1
  -6  -5  -2 1927.10  341.50   1
   6  -5  -2 1876.50  341.10   1
  -6   5   2 1596.40  340.40   1
  -6   5  -2 2534.10  360.40   1
   6  -5   2 2487.60  355.00   1
  -6  -5   2 1440.10  341.30   1
   6   5  -2 1700.80  343.00   1
   6   5   3   49.80   40.00   1
  -6  -5  -3   69.70   40.00   1
   6  -5  -3   52.00   40.00   1
  -6   5   3   40.90   40.00   1
  -6  -5   3   89.30   40.30   1
   6   5  -3   92.60   40.30   1
   6   5   4  126.00   62.50   1
  -6  -5  -4  112.10   62.50   1
  -6   5   4  183.80   62.70   1
   6   5   5   29.90   31.90   1
   6  -5  -5   17.80   31.60   1
  -6   5   5  137.70   31.90   1
   6   5   6  881.00  205.00   1
   6  -5  -6  892.40  204.10   1
   6   5   7  318.30   89.70   1
   6  -5  -7  232.80   86.00   1
  -6   5   7  220.10   85.90   1
   6  -5  -8   54.90   37.50   1
  -6   5   8   45.10   37.50   1
   6  -5  -9   28.60   24.50   1
  -6   5   9   16.60   24.40   1
   6  -5 -10  121.70   63.00   1
  -6   5  10  136.00   62.80   1
  -6   5  11  238.70   92.10   1
   6   6   0   84.80   50.00   1
  -6  -6   0   91.70   50.00   1
   6  -6   0   71.50   50.30   1
  -6   6   0   96.60   50.40   1
   6   6   1   41.80   31.50   1
  -6  -6  -1   70.10   31.60   1
   6  -6  -1   24.90   31.70   1
  -6   6   1   20.30   31.70   1
  -6   6  -1   29.30   31.90   1
   6  -6   1   31.70   31.80   1
  -6  -6   1   14.30   31.60   1
   6   6  -1   31.80   31.70   1
   6   6   2    3.60   15.70   1
  -6  -6  -2    8.60   15.70   1
   6  -6  -2    9.00   15.80   1
  -6   6   2   15.00   15.80   1
  -6   6  -2   20.80   17.00   1
   6  -6   2   65.10   17.80   1
   6   6   3   76.90   36.90   1
  -6  -6  -3   37.80   36.80   1
   6  -6  -3   54.00   36.80   1
  -6   6   3   38.00   36.80   1
  -6  -6   3   48.00   37.00   1
   6   6  -3   58.00   37.30   1
   6   6   4   35.00   27.60   1
  -6  -6  -4   20.00   27.60   1
   6  -6  -4   33.50   27.60   1
  -6   6   4   25.20   27.60   1
   6   6   5    5.60   14.10   1
  -6  -6  -5   11.30   14.20   1
   6  -6  -5    7.80   14.00   1
  -6   6   5    5.80   14.00   1
  -6  -6  -6   -0.10   18.30   1
   6  -6  -6    3.40   18.00   1
  -6   6   6   33.20   18.10   1
   6   6   7   80.10   48.20   1
  -6  -6  -7   88.40   48.40   1
   6  -6  -7   68.20   47.90   1
  -6   6   7   94.70   47.90   1
   6  -6  -8   -0.00   17.50   1
  -6   6   8   18.00   17.40   1
   6  -6  -9  134.90   35.50   1
  -6   6   9   23.30   34.90   1
   6  -6 -10  135.70   72.70   1
  -6   6  10  250.90   73.60   1
   6  -6 -11   31.80   30.60   1
  -6   6  11   34.20   30.50   1
   6   7   0   62.40   41.60   1
  -6  -7   0   33.20   41.50   1
   6  -7   0  100.60   41.90   1
  -6   7   0  174.30   42.20   1
   6   7   1   95.40   23.10   1
  -6  -7  -1    3.70   22.90   1
   6  -7  -1    2.60   23.30   1
  -6   7   1   22.80   23.70   1
  -6   7  -1  101.20   24.20   1
   6  -7   1  101.20   24.10   1
  -6  -7   1   14.60   23.00   1
   6   7  -1    5.30   23.00   1
   6   7   2  291.60   92.60   1
  -6  -7  -2  240.80   92.60   1
   6  -7  -2  217.90   92.50   1
  -6   7   2  314.60   92.80   1
  -6  -7   2  349.80   94.50   1
   6   7  -2  296.50   94.30   1
   6   7   3   27.80   23.90   1
  -6  -7  -3   22.60   23.90   1
   6  -7  -3    6.20   23.90   1
  -6   7   3   26.60   23.90   1
   6   7   4   68.20   40.70   1
  -6  -7  -4   52.50   40.70   1
   6  -7  -4   64.10   40.80   1
  -6   7   4   53.40   40.70   1
   6   7   5   17.80   23.90   1
  -6  -7  -5   25.00   23.90   1
   6  -7  -5   32.90   23.90   1
  -6   7   5   12.00   23.90   1
   6   7   6   14.00   26.60   1
  -6  -7  -6   42.70   26.70   1
   6  -7  -6   13.90   26.30   1
  -6   7   6   47.40   26.40   1
   6   7   7   71.70   32.10   1
  -6  -7  -7   63.00   32.00   1
   6  -7  -7   16.30   31.70   1
  -6   7   7   56.40   31.80   1
   6   7   8  129.60   49.30   1
   6  -7  -8   98.10   47.40   1
  -6   7   8   65.20   47.30   1
   6  -7  -9   66.20   35.80   1
  -6   7   9   34.80   35.60   1
   6  -7 -10  151.20   38.90   1
  -6   7  10   35.10   37.80   1
   6  -7 -11    2.50   15.70   1
  -6   7  11   18.50   15.90   1
  -6   7  12   25.70   26.80   1
   6   8   0  186.10   68.30   1
  -6  -8   0  118.50   68.10   1
   6  -8   0  186.90   68.50   1
  -6   8   0  163.90   68.40   1
   6   8   1   53.00   33.50   1
  -6  -8  -1   24.20   33.40   1
   6  -8  -1   28.30   33.70   1
  -6   8   1  197.90   34.70   1
  -6   8  -1   41.80   34.10   1
   6  -8   1   37.90   34.10   1
  -6  -8   1   57.90   33.60   1
   6   8   2   38.20   38.00   1
  -6  -8  -2   47.50   38.00   1
   6  -8  -2  124.20   38.40   1
  -6   8   2   78.50   38.40   1
   6   8   3  424.70  142.30   1
  -6  -8  -3  515.40  142.60   1
   6  -8  -3  678.10  143.40   1
  -6   8   3 1062.10  145.80   1
   6   8   4  121.00   66.00   1
  -6  -8  -4  156.80   66.10   1
   6  -8  -4  147.30   66.10   1
  -6   8   4  166.70   66.10   1
   6   8   5  193.00   66.40   1
  -6  -8  -5  131.00   66.30   1
   6  -8  -5  125.70   66.30   1
  -6   8   5  154.80   66.40   1
   6   8   6   50.20   38.00   1
  -6  -8  -6   47.90   38.00   1
   6  -8  -6   39.90   37.90   1
  -6   8   6   75.20   38.00   1
   6   8   7 1463.90  331.50   1
  -6  -8  -7 1780.10  334.60   1
   6  -8  -7 1772.40  330.50   1
  -6   8   7 1697.60  330.20   1
   6   8   8  106.50   63.30   1
  -6  -8  -8   83.30   63.40   1
   6  -8  -8  148.20   63.00   1
  -6   8   8  150.10   63.00   1
   6  -8  -9  741.80  151.80   1
  -6   8   9  492.00  149.70   1
   6  -8 -10   66.40   50.50   1
  -6   8  10  155.50   51.20   1
   6  -8 -11  187.50   80.60   1
  -6   8  11  217.50   80.70   1
   6  -8 -12   -0.00   11.30   1
  -6   8  12   10.40   11.40   1
  -6   8  13   76.00   47.70   1
   6   9   0   84.60   43.70   1
  -6  -9   0  135.10   43.90   1
   6  -9   0   25.80   43.70   1
  -6   9   0   37.70   43.80   1
   6   9   1   14.70   12.40   1
  -6  -9  -1   -0.00   12.40   1
   6  -9  -1   10.00   13.00   1
  -6   9   1    6.50   12.80   1
  -6  -9   1   -0.00   12.40   1
   6   9   2    7.70   14.70   1
  -6  -9  -2    7.70   14.70   1
   6  -9  -2   10.70   15.30   1
   6   9   3   16.00   15.00   1
  -6  -9  -3   -0.00   15.00   1
   6  -9  -3   37.50   15.20   1
  -6   9   3    1.30   15.10   1
   6   9   4   20.20   27.10   1
  -6  -9  -4   18.50   27.10   1
   6  -9  -4   34.60   27.20   1
  -6   9   4   67.20   27.20   1
   6   9   5   31.50   24.70   1
  -6  -9  -5   14.60   24.70   1
   6  -9  -5   14.10   24.70   1
  -6   9   5   41.60   24.80   1
   6   9   6   14.20   21.60   1
  -6  -9  -6   20.30   21.60   1
   6  -9  -6    5.70   21.50   1
  -6   9   6   41.10   21.60   1
   6   9   7   18.70   19.70   1
  -6  -9  -7    9.30   19.80   1
   6  -9  -7   15.00   19.50   1
  -6   9   7   12.30   19.50   1
   6   9   8   18.00   26.20   1
  -6  -9  -8   12.30   26.10   1
   6  -9  -8   30.30   26.00   1
  -6   9   8   27.90   26.00   1
   6  -9  -9   20.70   23.30   1
  -6   9   9   19.00   23.30   1
   6  -9 -10   13.40   18.60   1
  -6   9  10   11.70   18.40   1
   6  -9 -11    1.90    8.20   1
  -6   9  11    2.60    8.40   1
   6  -9 -12   21.30   26.70   1
  -6   9  12   31.70   26.70   1
   6  -9 -13   13.00   11.40   1
  -6   9  13   -0.00   11.00   1
  -6   9  14    8.50   15.60   1
   6  10   0  313.40  108.20   1
  -6 -10   0  324.70  107.50   1
   6 -10   0  335.00  108.00   1
  -6  10   0  344.20  109.10   1
   6  10   1   15.60   25.70   1
  -6 -10  -1   16.50   25.70   1
   6 -10  -1   66.80   26.30   1
  -6  10   1   88.20   26.40   1
   6  10   2   47.10   24.40   1
  -6 -10  -2   14.30   24.20   1
   6 -10  -2   -0.00   24.50   1
  -6  10   2   50.30   24.80   1
   6  10   3   88.50   51.20   1
  -6 -10  -3  339.10   52.00   1
   6 -10  -3   64.00   51.30   1
  -6  10   3   66.00   51.40   1
   6  10   4  122.60   49.50   1
  -6 -10  -4   62.40   49.30   1
   6 -10  -4   82.90   49.40   1
  -6  10   4  123.80   49.50   1
   6  10   5   61.40   31.00   1
  -6 -10  -5   34.90   30.90   1
   6 -10  -5   29.30   30.90   1
  -6  10   5   21.30   30.90   1
   6  10   6    8.70   19.10   1
  -6 -10  -6   18.80   19.10   1
   6 -10  -6    8.50   19.10   1
  -6  10   6   21.60   19.20   1
   6  10   7  217.00   79.40   1
  -6 -10  -7  181.60   79.30   1
   6 -10  -7  193.90   79.30   1
  -6  10   7  211.70   79.30   1
   6  10   8   97.80   26.00   1
  -6 -10  -8   23.40   25.40   1
   6 -10  -8   16.10   25.20   1
  -6  10   8   22.80   25.20   1
   6  10   9  243.00   97.50   1
   6 -10  -9  321.70   96.60   1
  -6  10   9  261.80   96.30   1
   6 -10 -10  151.50   61.90   1
  -6  10  10  116.10   61.60   1
   6 -10 -11   11.70   18.70   1
  -6  10  11   13.10   18.60   1
   6 -10 -12   41.20   22.40   1
  -6  10  12    5.70   22.10   1
   6 -10 -13    8.50   21.80   1
  -6  10  13   63.10   22.60   1
   6  11   1   40.80   37.20   1
  -6 -11  -1   42.70   37.20   1
   6 -11  -1   56.70   37.50   1
  -6  11   1  141.00   38.30   1
   6  11   2  128.60   39.60   1
  -6 -11  -2   36.50   39.20   1
   6 -11  -2   85.80   39.70   1
  -6  11   2   36.40   39.40   1
   6  11   3   10.10   20.50   1
  -6 -11  -3   21.80   20.50   1
   6 -11  -3   17.70   20.80   1
  -6  11   3   -0.00   21.20   1
   6  11   4  103.00   34.70   1
  -6 -11  -4   36.70   34.60   1
   6 -11  -4   45.70   34.70   1
  -6  11   4   20.50   34.60   1
   6  11   5   26.20   23.70   1
  -6 -11  -5   15.50   23.70   1
   6 -11  -5   14.30   23.80   1
  -6  11   5   28.40   23.80   1
   6  11   6   21.10   26.00   1
  -6 -11  -6   33.20   26.10   1
   6 -11  -6   24.70   26.10   1
  -6  11   6   20.30   26.10   1
   6  11   7   50.20   32.10   1
  -6 -11  -7   29.50   32.00   1
   6 -11  -7   89.10   32.20   1
  -6  11   7   18.70   32.00   1
   6  11   8   40.90   42.80   1
  -6 -11  -8   51.10   42.90   1
   6 -11  -8   69.90   42.70   1
  -6  11   8   83.10   42.70   1
   6  11   9    8.10   13.50   1
  -6 -11  -9    6.10   13.50   1
   6 -11  -9   10.20   13.20   1
  -6  11   9    2.50   13.10   1
   6 -11 -10   12.20   20.70   1
  -6  11  10   19.70   20.70   1
   6 -11 -11    7.30   11.80   1
  -6  11  11    3.80   11.60   1
   6 -11 -12   27.90   33.50   1
  -6  11  12  107.30   34.40   1
   6 -11 -13   43.60   30.00   1
  -6  11  13   26.30   29.70   1
  -6 -12  -1  120.30   60.20   1
   6 -12  -1  102.60   59.80   1
  -6  12   1  155.40   60.80   1
   6  12   2   72.90   44.20   1
  -6 -12  -2   75.60   44.10   1
   6 -12  -2   37.40   44.20   1
  -6  12   2   99.80   44.40   1
   6  12   3   12.90   23.10   1
  -6 -12  -3   21.70   23.00   1
   6 -12  -3   -0.00   23.40   1
  -6  12   3   80.50   23.90   1
   6  12   4   78.50   30.90   1
  -6 -12  -4   22.00   30.70   1
   6 -12  -4   28.40   30.90   1
  -6  12   4   27.80   31.00   1
   6  12   5  127.20   48.30   1
  -6 -12  -5   67.80   48.20   1
   6 -12  -5  162.40   48.50   1
  -6  12   5   51.70   48.20   1
   6  12   6   15.80   17.60   1
  -6 -12  -6    8.70   17.60   1
   6 -12  -6    8.10   17.60   1
  -6  12   6   14.00   17.70   1
   6  12   7  515.60  132.60   1
  -6 -12  -7  408.70  132.10   1
   6 -12  -7  463.00  132.70   1
  -6  12   7  531.20  133.30   1
   6  12   8   19.20   20.20   1
  -6 -12  -8   18.80   20.30   1
   6 -12  -8   10.60   20.20   1
  -6  12   8   13.80   20.20   1
   6  12   9   38.30   17.10   1
  -6 -12  -9   12.00   16.80   1
   6 -12  -9    9.00   16.50   1
  -6  12   9    6.40   16.50   1
   6  12  10    2.60   13.30   1
   6 -12 -10    9.20   13.00   1
  -6  12  10    4.40   13.00   1
   6 -12 -11   40.30   34.80   1
  -6  12  11   46.00   34.80   1
   6 -12 -12   15.00   15.10   1
  -6  12  12    5.60   14.80   1
   6 -13  -1   31.00   30.00   1
   6  13   2 2013.80  414.80   1
  -6 -13  -2 1960.30  384.90   1
   6 -13  -2 1775.10  369.50   1
  -6  13   2 2003.40  375.30   1
   6  13   3   61.60   36.00   1
  -6 -13  -3   35.40   35.80   1
   6 -13  -3   54.20   36.20   1
  -6  13   3   46.70   36.20   1
   6  13   4  437.20   79.10   1
  -6 -13  -4  310.40   77.70   1
   6 -13  -4  123.30   76.90   1
   6  13   5   75.90   52.10   1
  -6 -13  -5   85.50   52.20   1
   6 -13  -5  140.80   52.40   1
  -6  13   5  122.80   52.30   1
   6  13   6  304.00  105.20   1
  -6 -13  -6  279.50  105.20   1
   6 -13  -6  511.10  106.40   1
  -6  13   6  345.30  105.50   1
   6  13   7  264.70   88.60   1
  -6 -13  -7  221.30   88.30   1
   6 -13  -7  221.70   88.50   1
  -6  13   7  264.20   88.50   1
   6  13   8   60.80   29.60   1
  -6 -13  -8   49.80   29.60   1
   6 -13  -8    6.60   29.50   1
  -6  13   8  199.40   31.00   1
   6  13   9    3.80   18.00   1
  -6 -13  -9    0.00   18.10   1
   6 -13  -9   12.20   17.90   1
  -6  13   9   19.40   17.90   1
   6  13  10  139.40   54.40   1
  -6 -13 -10   57.60   53.90   1
   6 -13 -10  113.50   53.70   1
  -6  13  10   95.80   53.60   1
   6 -13 -11   30.50   34.50   1
  -6  13  11   76.30   34.70   1
   6 -13 -12   55.00   28.90   1
  -6  13  12   23.20   28.60   1
   6 -14  -2    0.60   14.30   1
  -6  14   2   12.90   14.40   1
   6  14   3   32.10   24.10   1
  -6 -14  -3   18.80   23.90   1
   6 -14  -3    9.50   24.20   1
  -6  14   3   21.30   24.30   1
   6  14   4    1.90   12.30   1
  -6 -14  -4    3.40   12.40   1
   6 -14  -4   -0.00   13.30   1
  -6  14   4   58.60   13.90   1
   6  14   5   77.50   41.50   1
  -6 -14  -5   51.80   41.40   1
   6 -14  -5   54.40   41.50   1
  -6  14   5   78.00   41.70   1
   6  14   6   51.90   35.60   1
  -6 -14  -6   43.40   35.50   1
   6 -14  -6   50.80   35.70   1
  -6  14   6   34.60   35.60   1
   6  14   7   81.80   53.00   1
  -6 -14  -7  100.70   53.10   1
   6 -14  -7  102.30   53.10   1
  -6  14   7  118.70   53.10   1
   6  14   8   11.70   15.00   1
  -6 -14  -8    4.10   15.00   1
   6 -14  -8    8.00   15.10   1
  -6  14   8    9.50   15.10   1
   6  14   9   15.20   23.50   1
  -6 -14  -9   22.90   23.60   1
   6 -14  -9   31.00   23.50   1
  -6  14   9   17.70   23.50   1
   6  14  10   19.60   13.50   1
  -6 -14 -10   10.00   13.20   1
   6 -14 -10    9.40   13.00   1
  -6  14  10   -0.00   13.00   1
   6  14  11    3.10   15.00   1
   6 -14 -11    7.40   14.80   1
  -6  14  11   10.20   14.80   1
   6 -14 -12    2.70   10.20   1
  -6  14  12    4.70   10.20   1
   6 -15  -2   41.00   34.60   1
  -6 -15  -3   41.60   30.70   1
   6 -15  -3   30.00   30.60   1
  -6  15   3   28.10   30.70   1
   6  15   4   43.10   34.00   1
  -6 -15  -4   37.40   33.90   1
   6 -15  -4   32.30   34.20   1
  -6  15   4   67.80   34.50   1
   6  15   5   76.40   38.10   1
  -6 -15  -5   71.50   38.00   1
   6 -15  -5    5.00   38.00   1
  -6  15   5   99.00   38.80   1
   6  15   6   88.60   31.20   1
  -6 -15  -6   36.70   31.00   1
   6 -15  -6   24.40   31.10   1
  -6  15   6   15.20   31.10   1
   6  15   7   22.90   27.30   1
  -6 -15  -7   26.00   27.30   1
   6 -15  -7   29.80   27.40   1
  -6  15   7   42.20   27.50   1
   6  15   8   10.40   19.30   1
  -6 -15  -8   10.40   19.30   1
   6 -15  -8   18.30   19.40   1
  -6  15   8   25.40   19.40   1
   6  15   9   43.20   29.40   1
  -6 -15  -9   26.90   29.40   1
   6 -15  -9   28.00   29.40   1
  -6  15   9   30.80   29.40   1
   6  15  10    6.10   27.50   1
  -6 -15 -10   24.20   27.60   1
   6 -15 -10   36.40   27.40   1
  -6  15  10   41.60   27.50   1
   6  15  11   22.60   13.10   1
  -6 -15 -11   12.00   13.00   1
   6 -15 -11    4.30   12.60   1
  -6  15  11    3.30   12.60   1
   6 -16  -3  385.30  122.20   1
  -6  16   3  424.90  125.70   1
  -6 -16  -4   33.80   20.60   1
   6 -16  -4    0.00   20.80   1
  -6  16   4    0.00   20.80   1
   6  16   5  108.40   57.10   1
  -6 -16  -5  106.10   57.00   1
   6 -16  -5   93.90   57.10   1
  -6  16   5  144.60   57.50   1
   6  16   6    3.30   15.20   1
  -6 -16  -6   10.50   15.10   1
   6 -16  -6   14.80   15.40   1
  -6  16   6   -0.20   15.50   1
   6  16   7   99.20   48.70   1
  -6 -16  -7   74.90   48.60   1
   6 -16  -7   67.90   48.60   1
  -6  16   7   94.60   48.70   1
   6  16   8    8.60   14.20   1
  -6 -16  -8    4.60   14.20   1
   6 -16  -8   18.90   14.30   1
  -6  16   8    1.20   14.30   1
   6  16   9   15.90   24.50   1
  -6 -16  -9   30.30   24.50   1
   6 -16  -9   35.30   24.60   1
  -6  16   9   17.20   24.50   1
   6  16  10   11.20   18.00   1
  -6 -16 -10    2.80   18.10   1
   6 -16 -10   25.30   18.10   1
  -6  16  10    7.80   18.00   1
   6 -17  -3   -0.00    5.40   1
   6 -17  -4    5.30   14.60   1
  -6  17   4    9.90   14.80   1
   6  17   5    1.00   10.70   1
  -6 -17  -5    7.70   10.70   1
   6 -17  -5   -0.00   11.60   1
  -6  17   5    8.30   11.80   1
   6  17   6   19.70   20.00   1
  -6 -17  -6    7.00   20.00   1
   6 -17  -6   11.80   20.20   1
  -6  17   6   45.50   21.00   1
   6  17   7    7.00   17.70   1
  -6 -17  -7   17.70   17.80   1
   6 -17  -7    9.40   17.80   1
  -6  17   7   13.30   17.90   1
   6  17   8   41.40   21.90   1
  -6 -17  -8    8.30   21.80   1
   6 -17  -8   53.90   22.10   1
  -6  17   8   13.60   21.90   1
   6  17   9    8.50   14.50   1
  -6 -17  -9    6.80   14.50   1
   6 -17  -9    6.10   14.60   1
  -6  17   9    9.80   14.60   1
   6  17  10   -0.00    9.20   1
  -6 -17 -10    4.90    9.20   1
   6 -17 -10    1.40    9.30   1
  -6  17  10    7.80    9.40   1
   6 -18  -4   14.60   19.40   1
  -6  18   4   11.10   19.50   1
  -6 -18  -5    9.70   24.60   1
   6 -18  -5   58.60   25.30   1
  -6  18   5   60.80   25.30   1
   6  18   6    5.10   13.90   1
  -6 -18  -6    6.50   13.90   1
   6 -18  -6   16.10   14.80   1
  -6  18   6   20.00   14.80   1
   6  18   7  144.10   66.30   1
  -6 -18  -7  107.90   65.80   1
   6 -18  -7  177.10   66.10   1
  -6  18   7  196.10   66.50   1
   6  18   8   26.40   16.60   1
  -6 -18  -8    6.00   16.50   1
   6 -18  -8   10.20   16.70   1
  -6  18   8    3.10   16.60   1
   6  18   9  102.20   39.30   1
  -6 -18  -9   43.60   39.10   1
   6 -18  -9   60.80   39.20   1
  -6  18   9   43.60   39.20   1
   6 -19  -4   10.30   17.60   1
   6 -19  -5    3.20   12.10   1
  -6  19   5    6.20   12.10   1
  -6 -19  -6   55.50   31.60   1
   6 -19  -6   36.80   31.50   1
  -6  19   6   19.30   31.40   1
   6  19   7    4.00   12.60   1
  -6 -19  -7   -0.00   12.70   1
   6 -19  -7   79.20   14.10   1
  -6  19   7   11.20   13.80   1
   6  19   8    6.50   16.40   1
  -6 -19  -8   11.00   16.30   1
   6 -19  -8    8.70   16.40   1
  -6  19   8   11.90   16.60   1
   6 -20  -4   31.50   30.30   1
   6 -20  -5   22.40   27.40   1
  -6  20   5   34.50   27.80   1
   6 -20  -6    7.20   22.90   1
  -6  20   6   34.00   23.10   1
  -6 -20  -7   17.80   27.10   1
   6 -20  -7   74.10   28.10   1
  -6  20   7   48.40   27.80   1
   6 -21  -5    9.70   17.00   1
   7   0   0   99.60   57.50   1
  -7   0   0  128.00   57.50   1
   7   0   1  700.90  166.10   1
  -7   0  -1  588.30  165.70   1
   7   0  -1  687.70  166.00   1
  -7   0   1  685.40  165.90   1
   7   0   2  480.60  140.60   1
  -7   0  -2  456.70  140.50   1
   7   0  -2  551.20  140.60   1
  -7   0   2  577.30  140.60   1
   7   0   3 5409.00  771.90   1
  -7   0  -3 5940.00  779.50   1
   7   0  -3 3989.80  759.20   1
  -7   0   3 4204.70  760.30   1
   7   0   4 1018.90  159.80   1
  -7   0  -4  491.60  157.10   1
   7   0  -4  603.30  156.90   1
  -7   0   4  626.10  157.00   1
   7   0   5   44.60   31.00   1
  -7   0  -5   82.30   31.50   1
   7   0  -5   15.50   30.50   1
  -7   0   5   41.20   30.60   1
   7   0  -6 1576.80  293.30   1
  -7   0   6 1319.70  291.30   1
   7   0  -7  353.50  125.90   1
  -7   0   7  626.40  127.70   1
   7   0  -8  393.50  115.00   1
  -7   0   8  332.80  112.90   1
   7   1   0   -0.00   11.00   1
  -7  -1   0    3.20   10.90   1
   7  -1   0   11.60   11.00   1
  -7   1   0    4.00   11.00   1
   7   1   1  166.70   64.10   1
  -7  -1  -1  235.90   64.30   1
   7  -1  -1  150.20   64.10   1
  -7   1   1  160.30   64.10   1
  -7   1  -1  125.60   64.10   1
   7  -1   1  124.90   64.10   1
  -7  -1   1  110.10   64.00   1
   7   1  -1  113.20   64.00   1
   7   1   2  223.60   95.50   1
  -7  -1  -2  281.40   95.60   1
   7  -1  -2  217.10   95.40   1
  -7   1   2  250.10   95.40   1
  -7   1  -2  364.70   96.00   1
   7  -1   2  371.90   95.90   1
  -7  -1   2  341.10   95.60   1
   7   1  -2  355.30   95.60   1
   7   1   3  382.60   86.50   1
  -7  -1  -3  321.90   86.40   1
   7  -1  -3  272.90   86.00   1
  -7   1   3  210.30   85.90   1
  -7   1  -3  136.20   86.10   1
   7  -1   3  399.20   87.00   1
  -7  -1   3  219.80   85.90   1
   7   1  -3  190.50   85.80   1
   7   1   4  123.80   26.70   1
  -7  -1  -4  110.80   26.60   1
   7  -1  -4   35.80   25.60   1
  -7   1   4   37.40   25.60   1
  -7   1  -4   12.90   25.90   1
   7  -1   4   15.40   25.90   1
  -7  -1   4    8.80   25.60   1
   7   1  -4    7.70   25.60   1
   7   1   5   31.30   36.00   1
  -7  -1  -5  124.30   36.40   1
   7  -1  -5   55.70   35.80   1
  -7   1   5   25.80   35.70   1
  -7   1  -5   66.90   36.90   1
   7  -1   5   69.40   36.60   1
  -7  -1   5   34.10   35.90   1
   7   1  -5   78.40   36.00   1
   7   1   6  183.60   64.00   1
   7  -1  -6  234.60   62.60   1
  -7   1   6  157.50   62.10   1
  -7  -1   6   91.50   61.80   1
   7   1  -6  122.70   61.90   1
   7  -1  -7   14.80   22.80   1
  -7   1   7   17.70   22.80   1
  -7  -1   7   11.80   22.80   1
   7   1  -7   55.10   23.20   1
   7  -1  -8  172.90   69.30   1
  -7   1   8  157.30   69.00   1
  -7  -1   8  121.00   69.80   1
   7  -1  -9    9.20   15.80   1
  -7   1   9    8.20   15.50   1
   7   2   0   37.30   40.30   1
  -7  -2   0  202.90   40.70   1
   7  -2   0   61.50   40.30   1
  -7   2   0   46.20   40.30   1
   7   2   1   42.10   33.50   1
  -7  -2  -1   32.80   33.50   1
   7  -2  -1   34.40   33.60   1
  -7   2   1   32.70   33.50   1
  -7   2  -1   52.70   33.60   1
   7  -2   1   63.00   33.60   1
  -7  -2   1   41.00   33.50   1
   7   2  -1   40.80   33.50   1
   7   2   2  176.10   64.00   1
  -7  -2  -2  228.60   64.10   1
   7  -2  -2  129.50   63.90   1
  -7   2   2  135.70   63.90   1
  -7   2  -2  129.10   64.40   1
   7  -2   2  143.60   64.40   1
  -7  -2   2  107.80   63.80   1
   7   2  -2  124.30   63.90   1
   7   2   3   62.10   48.20   1
  -7  -2  -3   57.00   48.20   1
   7  -2  -3   98.70   48.20   1
  -7   2   3   99.00   48.20   1
  -7   2  -3  100.90   48.50   1
   7  -2   3  139.90   48.70   1
  -7  -2   3   70.80   48.20   1
   7   2  -3   87.70   48.20   1
   7   2   4  447.60  123.40   1
  -7  -2  -4  688.10  125.10   1
   7  -2  -4  337.40  122.60   1
  -7   2   4  422.50  122.80   1
  -7   2  -4  315.30  123.30   1
   7  -2   4  375.40  123.40   1
  -7  -2   4  539.30  123.70   1
   7   2  -4  698.10  125.10   1
   7   2   5  103.40   31.00   1
  -7  -2  -5   28.30   30.60   1
   7  -2  -5   45.60   30.40   1
  -7   2   5   52.70   30.40   1
  -7  -2   5    8.40   30.40   1
   7   2  -5   13.30   30.40   1
   7   2   6   47.20   51.40   1
  -7  -2  -6   44.80   51.50   1
   7  -2  -6  128.10   51.30   1
  -7   2   6  100.20   51.20   1
  -7  -2   6   99.40   51.30   1
   7   2  -6  103.50   51.40   1
   7  -2  -7    8.70    9.80   1
  -7   2   7    2.40    9.70   1
  -7  -2   7    1.80    9.50   1
   7   2  -7   -0.00    9.80   1
   7  -2  -8   78.90   40.10   1
  -7   2   8   43.60   39.90   1
   7  -2  -9   56.20   44.10   1
  -7   2   9   83.50   44.20   1
  -7   2  10    5.00   12.10   1
   7   3   0   21.30   17.90   1
  -7  -3   0    6.50   17.90   1
   7  -3   0   11.50   18.00   1
  -7   3   0   10.00   18.00   1
   7   3   1 1420.40  278.00   1
  -7  -3  -1 1228.20  277.30   1
   7  -3  -1 1643.20  278.00   1
  -7   3   1 1373.30  276.90   1
  -7   3  -1 1996.00  281.00   1
   7  -3   1 1942.80  280.20   1
  -7  -3   1 1248.40  276.70   1
   7   3  -1 1002.60  276.10   1
   7   3   2  539.70  146.00   1
  -7  -3  -2  531.10  146.00   1
   7  -3  -2  590.30  146.20   1
  -7   3   2  569.90  146.30   1
  -7   3  -2  428.60  146.10   1
   7  -3   2  400.30  146.00   1
  -7  -3   2  665.70  146.30   1
   7   3  -2  739.30  146.50   1
   7   3   3  207.70   34.50   1
  -7  -3  -3   86.00   34.00   1
   7  -3  -3   32.80   33.90   1
  -7   3   3   45.30   33.90   1
  -7   3  -3   70.70   34.30   1
   7  -3   3   63.10   34.30   1
  -7  -3   3   11.90   33.90   1
   7   3  -3   19.40   33.90   1
   7   3   4  782.10  120.20   1
  -7  -3  -4  556.00  119.30   1
   7  -3  -4  423.80  118.60   1
  -7   3   4  306.80  118.30   1
  -7   3  -4  327.80  120.80   1
   7  -3   4  449.50  121.80   1
  -7  -3   4  350.50  118.70   1
   7   3  -4  371.00  118.80   1
   7   3   5  261.30   73.20   1
  -7  -3  -5  102.20   72.60   1
   7  -3  -5  165.30   72.50   1
  -7   3   5  212.10   72.60   1
   7   3   6  172.00   51.50   1
  -7  -3  -6  140.50   51.30   1
   7  -3  -6  100.40   50.80   1
  -7   3   6   57.10   50.80   1
  -7  -3   6  159.70   51.80   1
   7   3  -6  131.30   51.80   1
   7   3   7   32.10   21.70   1
   7  -3  -7   23.10   21.00   1
  -7   3   7   10.00   20.80   1
   7  -3  -8  418.50   86.00   1
  -7   3   8  178.50   84.30   1
   7  -3  -9  219.00   88.60   1
  -7   3   9  263.20   88.80   1
   7  -3 -10   62.90   38.20   1
  -7   3  10   44.80   37.90   1
   7   4   0  120.00   57.60   1
  -7  -4   0  122.50   57.60   1
   7  -4   0  121.80   57.60   1
  -7   4   0   89.40   57.60   1
   7   4   1   -0.80   12.70   1
  -7  -4  -1    4.10   12.70   1
   7  -4  -1    6.10   12.80   1
  -7   4   1    9.00   12.80   1
  -7   4  -1   30.50   14.30   1
   7  -4   1   50.30   14.20   1
  -7  -4   1    6.00   12.70   1
   7   4  -1    6.30   12.70   1
   7   4   2  133.00   48.50   1
  -7  -4  -2  167.20   48.60   1
   7  -4  -2  219.60   48.70   1
  -7   4   2  145.10   48.40   1
  -7   4  -2   45.90   48.50   1
   7  -4   2   45.30   48.60   1
  -7  -4   2   31.40   48.30   1
   7   4  -2   79.00   48.30   1
   7   4   3   27.90   23.90   1
  -7  -4  -3   14.00   23.80   1
   7  -4  -3   20.90   23.80   1
  -7   4   3   24.30   23.80   1
  -7   4  -3   40.80   24.50   1
   7  -4   3   39.90   24.40   1
  -7  -4   3    8.20   24.00   1
   7   4  -3   11.90   24.00   1
   7   4   4    8.10   21.20   1
  -7  -4  -4   11.90   21.30   1
   7  -4  -4   16.50   21.20   1
  -7   4   4   13.30   21.20   1
  -7  -4   4  136.60   22.10   1
   7   4   5   28.80   31.10   1
  -7  -4  -5   31.40   31.10   1
   7  -4  -5   17.80   30.60   1
  -7   4   5   73.60   30.80   1
  -7  -4   5   30.10   30.80   1
   7   4  -5   39.30   30.80   1
   7   4   6   44.50   34.20   1
  -7  -4  -6   13.00   34.10   1
   7  -4  -6   60.00   34.00   1
  -7   4   6   39.30   33.90   1
   7   4   7   37.70   27.30   1
  -7  -4  -7   36.80   27.40   1
   7  -4  -7   32.50   26.80   1
  -7   4   7   18.30   26.70   1
   7  -4  -8  114.40   53.80   1
  -7   4   8   88.00   53.60   1
   7  -4  -9   13.00   16.00   1
  -7   4   9    6.10   16.00   1
   7  -4 -10   19.30   26.40   1
  -7   4  10   31.10   26.40   1
   7  -4 -11    5.50   13.10   1
  -7   4  11    6.00   12.90   1
   7   5   0  673.30  157.10   1
  -7  -5   0  559.40  156.80   1
   7   5   1  212.90   87.40   1
  -7  -5  -1  310.40   87.60   1
   7  -5  -1  259.80   87.60   1
  -7   5   1  274.30   87.60   1
  -7   5  -1  103.50   87.50   1
   7  -5   1  206.30   87.80   1
  -7  -5   1  252.70   87.50   1
   7   5  -1  365.00   87.80   1
   7   5   2  388.70  115.90   1
  -7  -5  -2  252.80  115.60   1
   7  -5  -2  455.20  116.00   1
  -7   5   2  633.00  116.60   1
  -7   5  -2  583.10  117.40   1
   7  -5   2  334.60  116.10   1
  -7  -5   2  356.00  116.00   1
   7   5  -2  600.60  117.40   1
   7   5   3  190.80   75.40   1
  -7  -5  -3  245.30   75.50   1
   7  -5  -3  200.70   75.50   1
  -7   5   3  187.60   75.50   1
  -7   5  -3  227.70   77.10   1
   7  -5   3  164.00   76.20   1
  -7  -5   3  116.90   75.40   1
   7   5  -3  211.80   75.70   1
   7   5   4  105.90   54.30   1
  -7  -5  -4  372.60   55.50   1
   7  -5  -4  183.30   54.50   1
  -7   5   4  142.70   54.40   1
  -7  -5   4   59.00   54.30   1
   7   5  -4   49.80   54.30   1
   7   5   5  267.30   78.00   1
  -7  -5  -5  197.00   77.80   1
   7  -5  -5  208.90   77.70   1
  -7   5   5  161.90   77.60   1
  -7  -5   5  170.70   78.80   1
   7   5   6  354.60  116.90   1
  -7  -5  -6  314.10  116.80   1
   7  -5  -6  357.00  116.50   1
  -7   5   6  714.50  118.10   1
   7   5   7   44.50   51.30   1
  -7  -5  -7   89.60   51.60   1
   7  -5  -7  112.60   51.30   1
  -7   5   7  101.60   51.20   1
   7  -5  -8 1146.20  208.10   1
  -7   5   8  777.30  205.40   1
   7  -5  -9   59.10   30.90   1
  -7   5   9   17.90   30.70   1
   7  -5 -10   62.90   47.90   1
  -7   5  10  112.70   48.20   1
   7  -5 -11   21.00   25.40   1
  -7   5  11   25.00   25.40   1
  -7   5  12   21.00   24.20   1
   7   6   0    5.00   26.40   1
  -7  -6   0   64.50   26.50   1
   7  -6   0   20.30   27.20   1
  -7   6   0  117.80   27.70   1
   7   6   1   89.40   35.50   1
  -7  -6  -1   62.60   35.50   1
   7  -6  -1   21.90   35.50   1
  -7   6   1   42.40   35.50   1
  -7   6  -1   40.50   35.80   1
   7  -6   1   16.40   35.70   1
  -7  -6   1   28.50   35.40   1
   7   6  -1   51.80   35.50   1
   7   6   2   50.40   37.20   1
  -7  -6  -2   61.70   37.20   1
   7  -6  -2   41.40   37.20   1
  -7   6   2   45.00   37.20   1
  -7   6  -2   47.10   37.60   1
   7  -6   2   41.70   37.50   1
  -7  -6   2   30.20   37.30   1
   7   6  -2   75.80   37.40   1
   7   6   3   36.80   26.20   1
  -7  -6  -3   17.50   26.20   1
   7  -6  -3   14.40   26.20   1
  -7   6   3   12.00   26.20   1
   7  -6   3   85.70   28.50   1
  -7  -6   3  196.20   27.40   1
   7   6  -3  206.50   27.70   1
   7   6   4   26.90   19.20   1
  -7  -6  -4    5.00   19.20   1
   7  -6  -4   17.00   19.20   1
  -7   6   4   18.10   19.20   1
  -7  -6   4    5.50   19.30   1
   7   6  -4    6.30   19.30   1
   7   6   5   18.90   21.70   1
  -7  -6  -5   16.70   21.70   1
   7  -6  -5   16.30   21.70   1
  -7   6   5   16.80   21.70   1
   7   6   6   36.10   30.70   1
  -7  -6  -6   60.40   30.70   1
   7  -6  -6   15.30   30.20   1
  -7   6   6   59.80   30.30   1
   7   6   7   45.90   40.70   1
  -7  -6  -7   65.40   40.60   1
   7  -6  -7   49.60   40.40   1
  -7   6   7   67.70   40.40   1
   7   6   8   89.30   46.40   1
  -7  -6  -8   75.50   46.60   1
   7  -6  -8   70.70   45.70   1
  -7   6   8   72.10   45.70   1
   7  -6  -9   42.90   32.50   1
  -7   6   9   34.20   32.30   1
   7  -6 -10   29.40   27.00   1
  -7   6  10   23.00   27.00   1
   7  -6 -11   33.40   35.80   1
  -7   6  11   72.40   36.10   1
   7  -6 -12    5.60   14.20   1
  -7   6  12    8.80   14.20   1
  -7   6  13    4.20   11.30   1
   7   7   0   -0.10   15.70   1
  -7  -7   0   12.00   15.70   1
   7  -7   0   19.10   16.60   1
  -7   7   0   69.60   17.10   1
   7   7   1  467.80  115.20   1
  -7  -7  -1  471.20  115.30   1
   7  -7  -1  455.00  115.50   1
  -7   7   1  354.20  115.30   1
  -7   7  -1  366.70  115.50   1
   7  -7   1  259.80  115.10   1
  -7  -7   1  284.30  115.20   1
   7   7  -1  467.80  116.10   1
   7   7   2   16.70   23.80   1
  -7  -7  -2   72.30   23.90   1
   7  -7  -2   28.90   23.80   1
  -7   7   2    9.50   23.80   1
  -7   7  -2   11.50   24.50   1
   7  -7   2    8.20   24.60   1
  -7  -7   2    7.00   23.80   1
   7   7  -2   13.40   23.90   1
   7   7   3  214.90   64.70   1
  -7  -7  -3  200.30   64.70   1
   7  -7  -3  120.70   64.50   1
  -7   7   3  116.90   64.50   1
  -7  -7   3  118.60   64.80   1
   7   7  -3   97.20   64.70   1
   7   7   4   96.60   49.00   1
  -7  -7  -4   71.80   48.90   1
   7  -7  -4   96.70   49.00   1
  -7   7   4   77.70   49.00   1
   7   7   5  418.20   99.50   1
  -7  -7  -5  188.00   98.90   1
   7  -7  -5  432.80   99.60   1
  -7   7   5  470.30   99.70   1
   7   7   6   45.40   35.80   1
  -7  -7  -6   46.10   35.80   1
   7  -7  -6   65.70   35.70   1
  -7   7   6   32.80   35.70   1
   7   7   7   73.80   30.70   1
  -7  -7  -7   22.40   30.30   1
   7  -7  -7   15.80   30.10   1
  -7   7   7   70.50   30.20   1
   7   7   8   15.20   23.30   1
  -7  -7  -8   16.30   23.30   1
   7  -7  -8   30.10   23.00   1
  -7   7   8   13.20   23.00   1
   7  -7  -9    7.30   12.60   1
  -7   7   9    4.60   12.40   1
   7  -7 -10   48.40   22.50   1
  -7   7  10   -0.00   22.20   1
   7  -7 -11   35.90   26.40   1
  -7   7  11   18.00   26.30   1
   7  -7 -12    8.60   21.30   1
  -7   7  12   30.60   21.50   1
  -7   7  13   80.70   49.00   1
   7   8   0   21.10   19.90   1
  -7  -8   0    7.40   19.80   1
   7  -8   0    1.40   20.30   1
  -7   8   0   41.80   20.50   1
   7   8   1  401.30  135.70   1
  -7  -8  -1  591.30  136.20   1
   7  -8  -1  479.80  136.40   1
  -7   8  -1  551.50  137.30   1
   7  -8   1  735.40  138.40   1
  -7  -8   1  419.80  136.20   1
   7   8  -1  624.70  137.40   1
   7   8   2  310.20   67.30   1
  -7  -8  -2  215.90   66.90   1
   7  -8  -2   77.90   66.70   1
  -7   8   2  211.20   67.00   1
   7  -8   2  244.60   70.60   1
  -7  -8   2  120.40   66.90   1
   7   8  -2  153.10   67.20   1
   7   8   3  722.40  181.10   1
  -7  -8  -3  632.80  180.80   1
   7  -8  -3  947.10  182.00   1
  -7   8   3  878.80  181.90   1
  -7  -8   3  752.20  192.60   1
   7   8   4  681.80  177.90   1
  -7  -8  -4  632.20  177.70   1
   7  -8  -4  905.00  178.50   1
  -7   8   4  769.70  178.00   1
   7   8   5  251.90   82.40   1
  -7  -8  -5  177.00   82.20   1
   7  -8  -5  207.80   82.40   1
  -7   8   5  249.60   82.50   1
   7   8   6   77.70   40.40   1
  -7  -8  -6   45.30   40.30   1
   7  -8  -6   48.00   40.30   1
  -7   8   6   69.00   40.40   1
   7   8   7  161.50   38.60   1
  -7  -8  -7   48.50   38.00   1
   7  -8  -7   23.00   37.70   1
  -7   8   7  117.30   37.90   1
   7   8   8  105.80   63.70   1
  -7  -8  -8  120.40   63.80   1
   7  -8  -8  164.70   63.60   1
  -7   8   8  134.30   63.50   1
   7   8   9   35.70   32.40   1
   7  -8  -9   84.10   32.10   1
  -7   8   9   21.30   31.90   1
   7  -8 -10  643.30  132.10   1
  -7   8  10  384.30  129.10   1
   7  -8 -11   71.40   30.90   1
  -7   8  11   17.20   30.60   1
   7  -8 -12   24.90   17.40   1
  -7   8  12    3.30   17.20   1
   7  -8 -13  143.40   67.00   1
  -7   8  13  136.50   65.80   1
  -7   8  14   34.70   31.50   1
   7   9   0    0.20   12.60   1
  -7  -9   0   10.20   12.70   1
   7  -9   0   13.40   13.10   1
  -7   9   0    2.30   13.10   1
   7   9   1   49.70   33.40   1
  -7  -9  -1   18.80   33.30   1
   7  -9  -1    8.10   33.50   1
  -7   9   1   61.70   33.90   1
  -7   9  -1   46.90   34.10   1
   7  -9   1  113.30   34.60   1
  -7  -9   1  167.60   34.10   1
   7   9  -1   78.70   33.50   1
   7   9   2    7.70   14.20   1
  -7  -9  -2    1.80   14.10   1
   7  -9  -2   19.80   14.80   1
  -7   9   2   14.90   14.70   1
  -7  -9   2   17.90   14.40   1
   7   9  -2    5.80   14.30   1
   7   9   3   46.30   29.60   1
  -7  -9  -3   38.00   29.60   1
   7  -9  -3   20.00   29.60   1
  -7   9   3   19.70   29.60   1
   7   9   4   11.20   22.10   1
  -7  -9  -4   31.20   22.20   1
   7  -9  -4   29.10   22.20   1
  -7   9   4    7.50   22.20   1
   7   9   5   36.90   33.90   1
  -7  -9  -5   39.20   33.90   1
   7  -9  -5   56.20   34.00   1
  -7   9   5   39.60   33.90   1
   7   9   6    5.20   15.10   1
  -7  -9  -6   14.60   15.10   1
   7  -9  -6    7.80   15.10   1
  -7   9   6    5.90   15.10   1
   7   9   7   16.60   19.00   1
  -7  -9  -7   -0.00   19.10   1
   7  -9  -7   26.00   18.90   1
  -7   9   7    7.30   18.90   1
   7   9   8   66.80   31.10   1
  -7  -9  -8   72.30   31.10   1
   7  -9  -8   43.40   30.60   1
  -7   9   8   17.20   30.50   1
   7   9   9   12.50   18.20   1
  -7  -9  -9   -0.00   18.40   1
   7  -9  -9    1.80   17.90   1
  -7   9   9   33.20   18.00   1
   7  -9 -10   52.60   21.60   1
  -7   9  10    6.10   21.40   1
   7  -9 -11   -0.00   12.80   1
  -7   9  11    9.40   12.60   1
   7  -9 -12   25.90   26.80   1
  -7   9  12   25.40   26.80   1
   7  -9 -13   25.40   23.60   1
  -7   9  13   15.90   23.50   1
   7  10   0   23.80   23.00   1
  -7 -10   0    4.40   22.90   1
   7 -10   0   29.70   23.40   1
  -7  10   0   90.70   23.90   1
   7  10   1   33.30   26.00   1
  -7 -10  -1   26.30   25.90   1
   7 -10  -1   35.50   26.30   1
  -7  10   1   -0.00   26.20   1
  -7  10  -1   28.30   26.60   1
   7 -10   1   64.10   27.20   1
  -7 -10   1   12.10   25.90   1
   7  10  -1   37.20   26.10   1
   7  10   2   25.20   28.30   1
  -7 -10  -2   29.20   28.30   1
   7 -10  -2   20.30   28.80   1
  -7  10   2  115.10   29.70   1
   7  10   3  176.90   81.10   1
  -7 -10  -3  205.80   81.20   1
   7 -10  -3  232.20   81.30   1
  -7  10   3  258.60   81.40   1
   7  10   4   93.70   55.30   1
  -7 -10  -4   99.60   55.30   1
   7 -10  -4  134.40   55.50   1
  -7  10   4  112.50   55.50   1
   7  10   5    6.00   19.40   1
  -7 -10  -5   18.10   19.40   1
   7 -10  -5   19.40   19.50   1
  -7  10   5   17.40   19.40   1
   7  10   6  125.50   58.10   1
  -7 -10  -6  199.70   58.40   1
   7 -10  -6   97.70   58.10   1
  -7  10   6   88.70   58.10   1
   7  10   7  134.30   65.50   1
  -7 -10  -7  156.30   65.60   1
   7 -10  -7  134.20   65.50   1
  -7  10   7  152.30   65.60   1
   7  10   8   35.80   25.90   1
  -7 -10  -8    6.70   25.70   1
   7 -10  -8   17.80   25.50   1
  -7  10   8   34.20   25.50   1
   7  10   9   10.90   23.10   1
  -7 -10  -9    7.30   22.90   1
   7 -10  -9   16.20   22.80   1
  -7  10   9   32.90   22.80   1
   7  10  10   41.70   18.60   1
   7 -10 -10   11.70   17.60   1
  -7  10  10    7.60   17.60   1
   7 -10 -11   83.20   28.00   1
  -7  10  11   18.90   27.40   1
   7 -10 -12    0.00    8.00   1
  -7  10  12    5.00    8.20   1
   7 -10 -13   53.50   34.60   1
  -7  10  13   35.50   34.40   1
   7  11   0   23.50   25.30   1
  -7 -11   0   26.90   25.30   1
   7 -11   0   -0.00   25.70   1
  -7  11   0   36.30   26.00   1
   7  11   1   27.60   24.20   1
  -7 -11  -1   16.20   24.20   1
   7 -11  -1   47.50   24.70   1
  -7  11   1   30.90   24.60   1
  -7 -11   1    8.30   24.30   1
   7  11   2   43.70   27.80   1
  -7 -11  -2   20.10   27.60   1
   7 -11  -2    8.30   28.00   1
  -7  11   2   92.20   28.50   1
   7  11   3   18.60   24.40   1
  -7 -11  -3   26.50   24.40   1
   7 -11  -3   22.60   24.70   1
  -7  11   3   15.10   24.70   1
   7  11   4   20.70   25.90   1
  -7 -11  -4   19.60   25.90   1
   7 -11  -4   31.20   26.00   1
  -7  11   4   39.00   26.10   1
   7  11   5   25.90   29.60   1
  -7 -11  -5   29.40   29.60   1
   7 -11  -5   36.80   29.70   1
  -7  11   5   45.70   29.70   1
   7  11   6    5.40   12.70   1
  -7 -11  -6   11.00   12.70   1
   7 -11  -6    5.90   12.80   1
  -7  11   6    0.00   12.80   1
   7  11   7   60.30   23.40   1
  -7 -11  -7    9.40   23.30   1
   7 -11  -7    9.80   23.30   1
  -7  11   7   23.80   23.30   1
   7  11   8   33.40   25.20   1
  -7 -11  -8    5.60   25.20   1
   7 -11  -8   21.10   25.10   1
  -7  11   8   26.20   25.10   1
   7  11   9   75.90   17.80   1
  -7 -11  -9    1.50   16.80   1
   7 -11  -9    6.70   16.50   1
  -7  11   9   10.10   16.50   1
   7  11  10   31.10   38.40   1
  -7 -11 -10   66.20   39.30   1
   7 -11 -10   62.00   38.30   1
  -7  11  10   52.90   38.30   1
   7 -11 -11   15.50   22.60   1
  -7  11  11   21.40   22.60   1
   7 -11 -12    5.70   12.20   1
  -7  11  12    4.70   11.80   1
   7 -11 -13   23.10   18.60   1
  -7  11  13    3.10   18.60   1
   7  12   0   29.50   29.70   1
  -7 -12   0   50.90   29.80   1
   7 -12   0   15.80   30.00   1
  -7  12   0   19.50   30.00   1
   7  12   1  185.90   71.40   1
  -7 -12  -1  143.80   71.00   1
   7 -12  -1  160.50   71.30   1
  -7  12   1  191.40   71.60   1
   7  12   2   83.40   44.70   1
  -7 -12  -2   54.80   44.60   1
   7 -12  -2   69.20   44.80   1
  -7  12   2   83.00   45.00   1
   7  12   3   46.70   34.80   1
  -7 -12  -3   42.90   34.80   1
   7 -12  -3   22.30   35.10   1
  -7  12   3   66.00   35.60   1
   7  12   4  514.20  154.30   1
  -7 -12  -4  653.10  155.00   1
   7 -12  -4  591.90  154.90   1
  -7  12   4  684.40  155.10   1
   7  12   5   59.20   28.20   1
  -7 -12  -5   17.90   28.10   1
   7 -12  -5   31.20   28.20   1
  -7  12   5   21.30   28.10   1
   7  12   6   21.00   22.70   1
  -7 -12  -6   18.80   22.70   1
   7 -12  -6   13.10   22.70   1
  -7  12   6   21.90   22.70   1
   7  12   7    5.30   19.20   1
  -7 -12  -7    9.60   19.20   1
   7 -12  -7   33.80   19.30   1
  -7  12   7   22.40   19.30   1
   7  12   8   59.00   37.00   1
  -7 -12  -8   43.40   37.00   1
   7 -12  -8   45.90   36.90   1
  -7  12   8   47.80   37.00   1
   7  12   9   30.70   25.30   1
  -7 -12  -9   18.50   25.20   1
   7 -12  -9   24.80   25.00   1
  -7  12   9   19.90   25.00   1
   7  12  10  130.50   58.80   1
  -7 -12 -10   90.60   58.60   1
   7 -12 -10  104.80   58.20   1
  -7  12  10  135.50   58.30   1
   7  12  11    2.90   18.10   1
   7 -12 -11   19.70   17.80   1
  -7  12  11    7.10   17.70   1
   7 -12 -12   13.30   19.40   1
  -7  12  12   13.90   19.40   1
   7  13   1 1139.00  258.20   1
  -7 -13  -1  996.00  249.00   1
   7 -13  -1 1156.90  248.40   1
  -7  13   1 1248.00  254.90   1
   7  13   2  281.60   86.80   1
  -7 -13  -2  202.10   86.20   1
   7 -13  -2  252.90   86.60   1
  -7  13   2  213.50   86.40   1
   7  13   3  171.10   49.10   1
  -7 -13  -3   80.10   48.50   1
   7 -13  -3   26.50   48.60   1
  -7  13   3  144.10   49.30   1
   7  13   4  375.80  115.40   1
  -7 -13  -4  308.30  115.10   1
   7 -13  -4  538.30  116.20   1
  -7  13   4  413.20  115.80   1
   7  13   5  437.20  119.40   1
  -7 -13  -5  383.30  119.10   1
   7 -13  -5  380.00  119.20   1
  -7  13   5  391.60  119.20   1
   7  13   6  176.20   66.00   1
  -7 -13  -6  178.20   66.10   1
   7 -13  -6   89.70   65.80   1
  -7  13   6  300.50   66.70   1
   7  13   7   23.60   21.30   1
  -7 -13  -7   18.10   21.20   1
   7 -13  -7   30.00   21.30   1
  -7  13   7   -0.00   21.30   1
   7  13   8  173.50   75.70   1
  -7 -13  -8  179.70   75.80   1
   7 -13  -8  177.20   75.80   1
  -7  13   8  233.00   76.20   1
   7  13   9  132.30   49.00   1
  -7 -13  -9   81.30   48.90   1
   7 -13  -9  114.20   48.90   1
  -7  13   9   55.50   48.70   1
   7  13  10   69.80   54.70   1
  -7 -13 -10  125.60   55.20   1
   7 -13 -10  107.40   54.60   1
  -7  13  10  109.90   54.60   1
   7  13  11   39.90   32.10   1
   7 -13 -11   60.80   31.80   1
  -7  13  11   25.00   31.70   1
   7 -13 -12   32.60   33.00   1
  -7  13  12   47.50   33.10   1
  -7 -14  -1    4.50   12.90   1
   7 -14  -1    7.70   13.90   1
  -7  14   1    9.00   13.90   1
   7  14   2   19.20   24.20   1
  -7 -14  -2   39.20   24.30   1
   7 -14  -2    8.50   24.50   1
  -7  14   2    5.00   24.60   1
   7  14   3  110.60   52.30   1
  -7 -14  -3   76.40   52.10   1
   7 -14  -3   90.70   52.40   1
  -7  14   3  120.50   52.70   1
   7  14   4   13.70   21.20   1
  -7 -14  -4   14.50   21.10   1
   7 -14  -4   22.70   21.70   1
  -7  14   4   45.20   22.40   1
   7  14   5   19.90   14.20   1
  -7 -14  -5    3.30   14.10   1
   7 -14  -5   -0.40   14.30   1
  -7  14   5    1.30   14.50   1
   7  14   6    6.30   20.80   1
  -7 -14  -6   31.80   20.80   1
   7 -14  -6   30.10   21.00   1
  -7  14   6    8.40   20.90   1
   7  14   7    5.30   15.40   1
  -7 -14  -7   11.40   15.40   1
   7 -14  -7    8.50   15.50   1
  -7  14   7   12.00   15.50   1
   7  14   8   11.20   19.20   1
  -7 -14  -8   14.70   19.20   1
   7 -14  -8   15.90   19.30   1
  -7  14   8   13.40   19.30   1
   7  14   9    3.10   12.90   1
  -7 -14  -9   12.80   13.00   1
   7 -14  -9    2.40   12.90   1
  -7  14   9    8.60   12.90   1
   7  14  10    0.00   11.40   1
  -7 -14 -10    8.70   11.40   1
   7 -14 -10    5.30   11.00   1
  -7  14  10    3.20   11.00   1
   7  14  11   33.70   24.50   1
  -7 -14 -11   24.60   24.40   1
   7 -14 -11   16.80   24.10   1
  -7  14  11   22.60   24.10   1
   7 -15  -1  129.10   64.20   1
  -7 -15  -2   59.40   46.50   1
   7 -15  -2   94.20   46.90   1
  -7  15   2   88.40   47.10   1
   7  15   3  110.10   52.20   1
  -7 -15  -3   80.80   51.80   1
   7 -15  -3   83.00   52.00   1
  -7  15   3  112.90   52.20   1
   7  15   4   11.60   18.30   1
  -7 -15  -4    6.90   18.30   1
   7 -15  -4   -0.00   19.00   1
  -7  15   4   84.30   19.90   1
   7  15   5   23.20   23.20   1
  -7 -15  -5   20.50   23.20   1
   7 -15  -5   20.20   23.50   1
  -7  15   5    0.70   23.50   1
   7  15   6   44.90   41.60   1
  -7 -15  -6   62.00   41.60   1
   7 -15  -6  213.80   42.50   1
  -7  15   6   77.50   41.70   1
   7  15   7   14.80   21.40   1
  -7 -15  -7   54.70   21.50   1
   7 -15  -7   -0.00   21.50   1
  -7  15   7   12.80   21.50   1
   7  15   8   16.90   24.10   1
  -7 -15  -8   27.30   24.10   1
   7 -15  -8   32.10   24.20   1
  -7  15   8   15.00   24.10   1
   7  15   9   11.70   15.80   1
  -7 -15  -9   18.40   15.80   1
   7 -15  -9    6.60   15.80   1
  -7  15   9   -0.00   15.80   1
   7  15  10   18.20   15.80   1
  -7 -15 -10   13.90   16.00   1
   7 -15 -10    6.70   15.70   1
  -7  15  10    3.90   15.70   1
   7  15  11   23.40   20.20   1
  -7 -15 -11   19.20   20.00   1
   7 -15 -11   13.70   19.70   1
  -7  15  11   11.80   19.70   1
   7 -16  -2    4.80   10.50   1
  -7  16   2   -0.00   11.00   1
   7  16   3  262.60   84.40   1
  -7 -16  -3  235.40   80.60   1
   7 -16  -3  172.80   79.10   1
  -7  16   3  195.40   79.50   1
   7  16   4   78.40   44.30   1
  -7 -16  -4   65.80   44.20   1
   7 -16  -4   40.40   44.30   1
  -7  16   4  117.40   44.90   1
   7  16   5   34.70   29.00   1
  -7 -16  -5   34.10   28.80   1
   7 -16  -5    3.30   29.00   1
  -7  16   5   84.10   30.00   1
   7  16   6   68.00   44.40   1
  -7 -16  -6   67.90   44.30   1
   7 -16  -6   81.70   44.50   1
  -7  16   6   61.00   44.50   1
   7  16   7   18.70   24.10   1
  -7 -16  -7   17.90   24.10   1
   7 -16  -7   20.20   24.20   1
  -7  16   7   50.80   24.30   1
   7  16   8   21.90   29.40   1
  -7 -16  -8   33.30   29.50   1
   7 -16  -8   50.00   29.60   1
  -7  16   8   40.80   29.60   1
   7  16   9    8.70   19.10   1
  -7 -16  -9   21.90   19.10   1
   7 -16  -9   18.30   19.20   1
  -7  16   9    8.90   19.10   1
   7  16  10   25.90   31.00   1
  -7 -16 -10   35.80   31.10   1
   7 -16 -10   50.80   31.20   1
  -7  16  10   37.90   31.10   1
   7 -17  -2   12.10   19.20   1
  -7 -17  -3   32.20   24.50   1
   7 -17  -3   19.90   24.40   1
  -7  17   3    9.40   24.60   1
   7  17   4    6.20   17.00   1
  -7 -17  -4   16.40   17.10   1
   7 -17  -4    2.10   17.60   1
  -7  17   4   16.20   17.60   1
   7  17   5  137.40   35.50   1
  -7 -17  -5   28.60   34.10   1
   7 -17  -5   23.20   34.50   1
  -7  17   5  112.50   35.30   1
   7  17   6   21.40   22.10   1
  -7 -17  -6   19.10   22.00   1
   7 -17  -6   16.00   22.30   1
  -7  17   6    2.30   22.40   1
   7  17   7   11.00   14.80   1
  -7 -17  -7    5.10   14.80   1
   7 -17  -7   11.10   15.00   1
  -7  17   7    7.00   14.90   1
   7  17   8    3.70   14.70   1
  -7 -17  -8   12.10   14.80   1
   7 -17  -8    7.50   14.90   1
  -7  17   8   16.60   14.90   1
   7  17   9    4.80   12.20   1
  -7 -17  -9    3.70   12.30   1
   7 -17  -9    0.00   12.30   1
  -7  17   9   20.60   12.40   1
   7 -18  -3   98.90   55.70   1
  -7  18   3  107.90   56.50   1
  -7 -18  -4  113.90   60.30   1
   7 -18  -4  134.00   59.90   1
  -7  18   4  106.50   59.80   1
   7  18   5   50.00   33.50   1
  -7 -18  -5   41.30   33.30   1
   7 -18  -5   29.40   33.50   1
  -7  18   5   35.70   33.60   1
   7  18   6   23.30   21.40   1
  -7 -18  -6   14.50   21.40   1
   7 -18  -6   -0.00   21.50   1
  -7  18   6   64.50   22.70   1
   7  18   7   16.60   21.30   1
  -7 -18  -7   41.60   21.40   1
   7 -18  -7   -0.00   21.40   1
  -7  18   7    3.80   21.50   1
   7  18   8   37.40   30.50   1
  -7 -18  -8   24.20   30.40   1
  -7  18   8  114.10   31.10   1
   7 -19  -3    2.40    9.90   1
   7 -19  -4   30.40   24.50   1
  -7  19   4   10.70   24.60   1
  -7 -19  -5   37.10   33.00   1
   7 -19  -5   29.40   33.20   1
  -7  19   5   56.60   33.40   1
   7  19   6   23.20   15.30   1
  -7 -19  -6    1.20   15.20   1
   7 -19  -6   -0.00   16.00   1
  -7  19   6   20.90   16.10   1
   7  19   7    0.00    8.00   1
  -7 -19  -7    3.50    7.80   1
   7 -19  -7   -0.00    8.40   1
  -7  19   7   -0.00    8.90   1
   7 -20  -4    8.20   15.10   1
  -7  20   4    6.70   15.10   1
  -7 -20  -5   29.00   20.00   1
   7 -20  -5    0.00   19.80   1
  -7  20   5   17.30   20.00   1
  -7 -20  -6   23.90   26.90   1
   7 -20  -6   18.10   27.20   1
  -7  20   6   53.30   27.70   1
   7 -21  -4   -0.50    4.40   1
   7 -21  -5   38.50   37.50   1
  -7  21   5  111.90   40.00   1
   8   0   0 7524.70 1193.80   1
  -8   0   0 7134.00 1188.60   1
   8   0   1   20.30   27.30   1
  -8   0  -1   17.50   27.30   1
   8   0  -1   38.00   27.30   1
  -8   0   1   32.70   27.30   1
   8   0   2 2040.30  377.30   1
  -8   0  -2 2054.30  377.50   1
   8   0  -2 1966.70  377.50   1
  -8   0   2 1895.20  377.30   1
   8   0   3   91.00   55.90   1
  -8   0  -3   70.60   55.80   1
   8   0  -3  135.90   55.70   1
  -8   0   3  105.10   55.60   1
   8   0   4 6243.20 1178.50   1
  -8   0  -4 7264.90 1187.30   1
   8   0  -4 7586.90 1177.10   1
  -8   0   4 7839.30 1176.70   1
   8   0   5  962.40  227.30   1
  -8   0  -5  941.10  227.30   1
   8   0  -5 1203.30  227.60   1
  -8   0   5 1011.50  226.40   1
   8   0   6 6694.70 1129.80   1
  -8   0  -6 6852.40 1162.00   1
   8   0  -6 7694.80 1092.30   1
  -8   0   6 5847.90 1070.20   1
   8   0  -7   34.60   23.60   1
  -8   0   7   11.60   23.40   1
   8   0  -8 3712.50  553.50   1
  -8   0   8 2631.00  533.80   1
   8   0  -9   50.50   37.50   1
  -8   0   9   48.30   37.40   1
  -8   0  10  503.10  150.90   1
   8   1   0   28.40   24.70   1
  -8  -1   0   18.80   24.60   1
   8  -1   0   19.60   24.70   1
  -8   1   0   22.80   24.70   1
   8   1   1  833.20  178.30   1
  -8  -1  -1  756.20  178.10   1
   8  -1  -1  846.30  178.50   1
  -8   1   1  751.00  178.20   1
  -8   1  -1  575.20  177.70   1
   8  -1   1  619.40  177.70   1
  -8  -1   1  824.20  178.20   1
   8   1  -1  794.60  178.00   1
   8   1   2   43.40   30.30   1
  -8  -1  -2   43.50   30.30   1
   8  -1  -2   37.40   30.30   1
  -8   1   2   33.90   30.30   1
  -8   1  -2   42.20   30.40   1
   8  -1   2   48.70   30.40   1
  -8  -1   2   20.80   30.20   1
   8   1  -2   19.00   30.20   1
   8   1   3  224.00   88.00   1
  -8  -1  -3  188.80   87.90   1
   8  -1  -3  208.90   87.90   1
  -8   1   3  200.40   87.90   1
  -8   1  -3  425.30   89.60   1
   8  -1   3  260.10   88.60   1
  -8  -1   3  412.20   88.50   1
   8   1  -3  498.80   88.80   1
   8   1   4  205.90   56.90   1
  -8  -1  -4  182.10   56.80   1
   8  -1  -4  185.30   56.10   1
  -8   1   4  202.10   56.20   1
  -8   1  -4   97.60   56.20   1
   8  -1   4  104.10   56.30   1
  -8  -1   4   50.10   55.80   1
   8   1  -4  118.10   55.90   1
   8   1   5  255.80   89.90   1
  -8  -1  -5  289.70   90.00   1
   8  -1  -5  360.20   89.80   1
  -8   1   5  277.30   89.60   1
  -8   1  -5  222.60   90.00   1
   8  -1   5  202.30   89.80   1
  -8  -1   5  167.30   89.40   1
   8   1  -5  311.30   89.90   1
   8   1   6  107.80   37.60   1
  -8  -1  -6  103.40   37.70   1
   8  -1  -6   51.00   37.00   1
  -8   1   6   43.40   36.90   1
   8  -1   6   95.10   38.80   1
  -8  -1   6   16.50   37.00   1
   8   1  -6   51.90   37.10   1
   8  -1  -7 1806.40  285.80   1
  -8   1   7 1432.60  282.40   1
  -8  -1   7 1217.10  280.80   1
   8   1  -7 1196.60  280.70   1
   8  -1  -8  131.00   40.40   1
  -8   1   8   20.40   39.80   1
  -8  -1   8  161.10   41.00   1
   8   1  -8  246.90   43.40   1
   8  -1  -9  100.60   56.20   1
  -8   1   9   98.80   56.10   1
  -8  -1   9  204.40   59.00   1
   8  -1 -10   10.80   18.30   1
  -8   1  10   12.70   18.20   1
   8   2   0 1319.60  277.30   1
  -8  -2   0 1551.50  278.00   1
   8  -2   0 1356.30  277.70   1
  -8   2   0 1211.30  277.10   1
   8   2   1  120.40   58.50   1
  -8  -2  -1  137.70   58.60   1
   8  -2  -1  132.10   58.50   1
  -8   2   1  131.20   58.50   1
  -8   2  -1   93.30   58.40   1
   8  -2   1  104.70   58.50   1
  -8  -2   1  115.70   58.40   1
   8   2  -1  110.30   58.40   1
   8   2   2   75.70   45.50   1
  -8  -2  -2   21.90   45.50   1
   8  -2  -2   70.90   45.50   1
  -8   2   2   83.30   45.60   1
  -8   2  -2  130.60   46.00   1
   8  -2   2  202.30   46.20   1
  -8  -2   2  155.60   45.70   1
   8   2  -2  187.80   45.80   1
   8   2   3   54.90   40.40   1
  -8  -2  -3   51.70   40.40   1
   8  -2  -3   52.40   40.40   1
  -8   2   3   70.00   40.40   1
  -8   2  -3  246.50   42.00   1
   8  -2   3  165.70   41.40   1
  -8  -2   3   36.60   40.30   1
   8   2  -3   63.80   40.40   1
   8   2   4  399.90  120.10   1
  -8  -2  -4  295.90  119.80   1
   8  -2  -4  390.10  119.80   1
  -8   2   4  501.00  120.20   1
  -8   2  -4  458.00  120.60   1
   8  -2   4  638.60  121.60   1
  -8  -2   4  345.00  119.80   1
   8   2  -4  470.20  120.30   1
   8   2   5   91.50   24.00   1
  -8  -2  -5   19.00   23.50   1
   8  -2  -5   15.40   23.00   1
  -8   2   5   19.20   23.00   1
  -8   2  -5    9.90   23.80   1
   8  -2   5    1.60   23.70   1
  -8  -2   5   14.00   23.20   1
   8   2  -5   24.30   23.30   1
   8   2   6  226.40  108.30   1
  -8  -2  -6  364.10  109.00   1
   8  -2  -6  323.20  108.30   1
  -8   2   6  793.70  110.10   1
  -8  -2   6  311.00  108.60   1
   8   2  -6  425.10  109.30   1
   8   2   7   32.30   30.80   1
   8  -2  -7   43.80   30.40   1
  -8   2   7   23.20   30.20   1
  -8  -2   7   29.70   30.30   1
   8   2  -7   44.80   30.30   1
   8  -2  -8  605.20  152.20   1
  -8   2   8  520.40  151.60   1
  -8  -2   8  628.90  157.30   1
   8   2  -8  633.60  161.90   1
   8  -2  -9   36.20   29.20   1
  -8   2   9   26.00   29.10   1
   8  -2 -10   49.80   38.90   1
  -8   2  10   55.90   38.80   1
  -8   2  11    3.30   10.00   1
   8   3   0  402.10  126.30   1
  -8  -3   0  373.00  126.20   1
   8  -3   0  553.50  127.00   1
  -8   3   0  647.10  127.50   1
   8   3   1   57.30   46.40   1
  -8  -3  -1   58.20   46.40   1
   8  -3  -1   70.00   46.40   1
  -8   3   1   53.80   46.40   1
  -8   3  -1  265.80   47.10   1
   8  -3   1  280.70   47.20   1
  -8  -3   1   98.40   46.50   1
   8   3  -1   78.90   46.40   1
   8   3   2   20.20   26.80   1
  -8  -3  -2   22.30   26.80   1
   8  -3  -2   25.30   26.80   1
  -8   3   2   25.40   26.80   1
  -8   3  -2  105.00   28.30   1
   8  -3   2  125.70   28.20   1
  -8  -3   2   22.40   26.80   1
   8   3  -2   28.90   26.80   1
   8   3   3 1217.30  256.80   1
  -8  -3  -3 1629.40  259.00   1
   8  -3  -3 1298.50  257.50   1
  -8   3   3 1208.10  257.00   1
  -8   3  -3 1194.50  257.80   1
   8  -3   3 1124.90  257.80   1
  -8  -3   3 1073.00  256.20   1
   8   3  -3 1213.00  257.00   1
   8   3   4   96.80   49.50   1
  -8  -3  -4   98.50   49.50   1
   8  -3  -4  102.50   49.40   1
  -8   3   4  100.20   49.40   1
  -8   3  -4  211.40   50.60   1
   8  -3   4   69.20   49.70   1
  -8  -3   4   36.20   49.40   1
   8   3  -4   66.00   49.60   1
   8   3   5  441.60  108.50   1
  -8  -3  -5  431.20  108.50   1
   8  -3  -5  602.80  108.40   1
  -8   3   5  483.40  107.80   1
   8  -3   5  217.00  108.80   1
  -8  -3   5  185.50  107.20   1
   8   3  -5  426.70  108.30   1
   8   3   6  304.10  106.50   1
  -8  -3  -6  303.40  106.40   1
   8  -3  -6  316.30  106.10   1
  -8   3   6  383.40  106.30   1
  -8  -3   6  307.20  106.50   1
   8   3  -6  362.00  107.00   1
   8   3   7  350.50  123.30   1
  -8  -3  -7  733.40  129.90   1
   8  -3  -7  409.00  122.80   1
  -8   3   7  386.20  122.60   1
  -8  -3   7  554.80  127.30   1
   8   3  -7  587.10  129.60   1
   8  -3  -8    5.50   15.30   1
  -8   3   8    9.90   15.20   1
   8  -3  -9   21.00   22.60   1
  -8   3   9   15.90   22.50   1
   8  -3 -10   93.00   50.80   1
  -8   3  10   83.80   50.70   1
   8  -3 -11   13.20   13.50   1
  -8   3  11    2.00   13.40   1
  -8   3  12   -0.00    3.40   1
   8   4   0   50.40   38.70   1
  -8  -4   0   74.40   38.70   1
   8  -4   0   30.00   38.70   1
  -8   4   0   58.60   38.80   1
   8   4   1   62.10   38.00   1
  -8  -4  -1   68.80   38.10   1
   8  -4  -1   25.40   38.10   1
  -8   4   1   16.90   38.00   1
  -8   4  -1   72.60   38.40   1
   8  -4   1   90.90   38.60   1
  -8  -4   1   69.20   38.10   1
   8   4  -1   76.80   38.10   1
   8   4   2   89.30   51.20   1
  -8  -4  -2   85.60   51.20   1
   8  -4  -2   79.00   51.10   1
  -8   4   2   88.20   51.10   1
  -8   4  -2  104.20   51.60   1
   8  -4   2  128.50   51.70   1
  -8  -4   2   99.10   51.10   1
   8   4  -2   90.30   51.10   1
   8   4   3  230.80   36.50   1
  -8  -4  -3   21.40   36.00   1
   8  -4  -3  185.00   36.50   1
  -8   4   3  175.50   36.40   1
  -8   4  -3   61.40   36.40   1
   8  -4   3   75.00   36.50   1
  -8  -4   3   16.40   36.00   1
   8   4  -3   16.50   36.00   1
   8   4   4  335.90  109.30   1
  -8  -4  -4  270.90  109.10   1
   8  -4  -4  372.40  109.30   1
  -8   4   4  394.30  109.40   1
  -8   4  -4  361.70  111.30   1
   8  -4   4  385.90  111.00   1
  -8  -4   4  346.40  109.80   1
   8   4  -4  497.60  110.50   1
   8   4   5  105.90   38.60   1
  -8  -4  -5   18.20   38.30   1
   8  -4  -5   65.90   38.20   1
  -8   4   5   77.80   38.20   1
  -8  -4   5   17.70   38.10   1
   8   4  -5   73.00   38.30   1
   8   4   6   69.90   37.80   1
  -8  -4  -6   60.10   37.60   1
   8  -4  -6   79.40   37.30   1
  -8   4   6   22.10   37.20   1
  -8  -4   6   93.60   37.70   1
   8   4  -6   48.00   37.40   1
   8   4   7  158.70   58.40   1
  -8  -4  -7  122.60   58.20   1
   8  -4  -7  242.90   58.20   1
  -8   4   7  140.40   57.90   1
  -8  -4   7   29.00   57.80   1
   8   4   8   84.30   54.30   1
  -8  -4  -8  132.70   55.90   1
   8  -4  -8  166.70   54.00   1
  -8   4   8   77.00   53.60   1
   8  -4  -9   11.30   17.00   1
  -8   4   9    8.70   16.90   1
   8  -4 -10   21.10   32.90   1
  -8   4  10   84.30   33.30   1
   8  -4 -11    9.80   18.10   1
  -8   4  11   13.70   18.20   1
   8  -4 -12   10.20   17.70   1
  -8   4  12   11.70   17.60   1
  -8   4  13    8.50   15.80   1
   8   5   0   29.40   22.20   1
  -8  -5   0   16.80   22.10   1
   8  -5   0    8.10   22.30   1
  -8   5   0   10.20   22.30   1
   8   5   1  171.10   90.20   1
  -8  -5  -1  291.60   90.40   1
  -8   5  -1  412.80   91.80   1
   8  -5   1  306.00   91.10   1
   8   5  -1  454.20   90.90   1
   8   5   2  107.80   65.30   1
  -8  -5  -2  160.20   65.50   1
   8  -5  -2  104.70   65.30   1
  -8   5   2  294.50   65.80   1
  -8   5  -2  238.90   66.20   1
   8  -5   2  126.20   65.70   1
  -8  -5   2  132.90   65.40   1
   8   5  -2  218.60   65.70   1
   8   5   3 2227.60  445.10   1
  -8  -5  -3 2345.90  445.70   1
   8  -5  -3 2374.10  447.50   1
  -8   5   3 2199.10  447.50   1
  -8   5  -3 2813.80  454.00   1
   8  -5   3 2783.80  453.20   1
  -8  -5   3 2429.10  450.20   1
   8   5  -3 3418.30  460.30   1
   8   5   4   54.70   31.80   1
  -8  -5  -4   58.60   31.80   1
   8  -5  -4   15.20   31.70   1
  -8   5   4   70.10   31.90   1
  -8   5  -4   22.00   32.50   1
   8  -5   4   25.20   32.50   1
  -8  -5   4   23.80   31.80   1
   8   5  -4   32.00   31.90   1
   8   5   5 1874.00  352.20   1
  -8  -5  -5 1910.60  351.70   1
   8  -5  -5 1945.50  351.70   1
  -8   5   5 1624.60  350.80   1
  -8  -5   5 1791.50  357.30   1
   8   5  -5 1774.70  359.90   1
   8   5   6  716.60  143.40   1
  -8  -5  -6  517.20  142.10   1
   8  -5  -6  502.30  141.20   1
  -8   5   6  467.90  141.10   1
  -8  -5   6  578.80  146.90   1
   8   5  -6  735.00  157.10   1
   8   5   7 4839.60  679.60   1
  -8  -5  -7 4136.70  672.50   1
   8  -5  -7 3044.70  657.50   1
  -8   5   7 4942.80  666.30   1
   8   5   8   52.60   45.30   1
  -8  -5  -8   58.80   45.60   1
   8  -5  -8   71.40   45.10   1
  -8   5   8   82.80   45.10   1
   8  -5  -9 1509.30  223.80   1
  -8   5   9  810.60  215.00   1
   8  -5 -10  170.20   50.00   1
  -8   5  10   59.10   49.10   1
   8  -5 -11   30.80   17.60   1
  -8   5  11   -0.00   17.40   1
   8  -5 -12   17.70   19.70   1
  -8   5  12   11.10   19.50   1
  -8   5  13  310.70  109.00   1
   8   6   0  510.40  136.20   1
  -8  -6   0  515.50  136.30   1
   8  -6   0  620.20  137.00   1
  -8   6   0  386.60  136.20   1
   8   6   1   14.90   17.50   1
  -8  -6  -1    8.30   17.50   1
   8  -6  -1   27.90   17.60   1
  -8   6   1   12.20   17.60   1
  -8   6  -1   24.10   18.40   1
   8  -6   1   13.50   18.50   1
  -8  -6   1    5.80   17.50   1
   8   6  -1    5.50   17.50   1
   8   6   2    7.50   21.90   1
  -8  -6  -2   15.60   21.90   1
   8  -6  -2   19.20   21.90   1
  -8   6   2   17.40   21.90   1
  -8   6  -2   17.10   22.30   1
   8  -6   2   29.80   22.40   1
  -8  -6   2   21.80   22.00   1
   8   6  -2   49.40   22.20   1
   8   6   3   55.70   36.70   1
  -8  -6  -3   53.00   36.70   1
   8  -6  -3   56.70   36.70   1
  -8   6   3   39.40   36.70   1
  -8   6  -3   80.90   37.60   1
   8  -6   3   83.70   37.60   1
  -8  -6   3   17.60   36.70   1
   8   6  -3   73.20   36.90   1
   8   6   4  101.60   52.40   1
  -8  -6  -4  103.20   52.40   1
   8  -6  -4   87.00   52.40   1
  -8   6   4   63.20   52.30   1
  -8  -6   4  189.80   52.90   1
   8   6  -4  263.40   53.60   1
   8   6   5   10.90   18.00   1
  -8  -6  -5    7.00   17.90   1
   8  -6  -5   23.80   18.00   1
  -8   6   5   13.20   18.00   1
  -8  -6   5    7.20   18.00   1
   8   6  -5    7.40   18.10   1
   8   6   6   36.90   32.20   1
  -8  -6  -6   12.70   32.10   1
   8  -6  -6   34.00   32.00   1
  -8   6   6   53.60   32.00   1
   8   6   7   85.30   54.50   1
  -8  -6  -7   46.10   54.30   1
   8  -6  -7  190.20   54.50   1
  -8   6   7  106.60   54.20   1
   8   6   8  307.40  119.80   1
  -8  -6  -8  380.20  120.60   1
   8  -6  -8  459.80  119.60   1
  -8   6   8  415.60  119.50   1
   8   6   9   56.50   36.20   1
   8  -6  -9   60.60   35.40   1
  -8   6   9   34.50   35.30   1
   8  -6 -10  215.60   67.10   1
  -8   6  10  119.40   66.20   1
   8  -6 -11   -0.00    6.00   1
  -8   6  11    1.90    6.00   1
   8  -6 -12   27.70   34.10   1
  -8   6  12   96.60   34.80   1
   8  -6 -13    8.30   14.00   1
  -8   6  13    5.60   13.90   1
  -8   6  14   17.10   22.00   1
   8   7   0  102.30   57.10   1
  -8  -7   0  109.80   57.10   1
  -8   7   0  203.90   58.20   1
   8   7   1  277.80   71.50   1
  -8  -7  -1  135.60   71.20   1
   8  -7  -1  176.50   71.30   1
  -8   7   1  146.70   71.30   1
  -8   7  -1  156.70   71.60   1
   8  -7   1  193.40   71.70   1
  -8  -7   1  154.30   71.30   1
   8   7  -1  185.00   71.40   1
   8   7   2   12.30   24.20   1
  -8  -7  -2   11.00   24.20   1
   8  -7  -2   66.60   24.50   1
  -8   7   2   73.70   24.50   1
  -8   7  -2    8.80   24.70   1
   8  -7   2   24.40   24.70   1
  -8  -7   2   15.40   24.50   1
   8   7  -2   19.30   24.40   1
   8   7   3   90.40   43.20   1
  -8  -7  -3   93.20   43.20   1
   8  -7  -3   65.60   43.20   1
  -8   7   3   47.50   43.10   1
  -8   7  -3   42.20   43.80   1
   8  -7   3   51.00   43.80   1
  -8  -7   3   46.00   43.20   1
   8   7  -3   67.60   43.30   1
   8   7   4   59.60   36.00   1
  -8  -7  -4   45.40   36.00   1
   8  -7  -4   56.70   36.10   1
  -8   7   4   38.00   36.00   1
  -8  -7   4   26.40   36.10   1
   8   7  -4   59.00   36.30   1
   8   7   5  409.60  116.30   1
  -8  -7  -5  422.90  116.40   1
   8  -7  -5  384.80  116.30   1
  -8   7   5  336.50  116.10   1
  -8  -7   5  302.10  119.80   1
   8   7   6   28.50   24.10   1
  -8  -7  -6   29.70   24.20   1
   8  -7  -6   21.00   24.00   1
  -8   7   6   12.50   24.00   1
   8   7   7  119.90   50.30   1
  -8  -7  -7   82.50   49.90   1
   8  -7  -7   64.00   49.60   1
  -8   7   7  116.20   49.70   1
   8   7   8   43.10   23.40   1
  -8  -7  -8   -0.00   23.10   1
   8  -7  -8   14.30   22.80   1
  -8   7   8   27.10   22.90   1
   8   7   9  107.90   58.70   1
  -8  -7  -9   98.90   59.00   1
   8  -7  -9  125.50   58.20   1
  -8   7   9  111.40   58.10   1
   8  -7 -10    6.50   21.50   1
  -8   7  10   23.30   21.40   1
   8  -7 -11   57.60   41.20   1
  -8   7  11   61.30   41.30   1
   8  -7 -12   12.70   18.40   1
  -8   7  12   11.50   18.50   1
   8  -7 -13   15.20   25.30   1
  -8   7  13   40.00   25.60   1
   8  -7 -14   30.50   29.70   1
   8   8   0 1594.00  290.40   1
  -8  -8   0 1466.10  289.10   1
   8  -8   0 1120.60  288.80   1
  -8   8   0 1723.40  292.60   1
   8   8   1   32.10   31.70   1
  -8  -8  -1   31.10   31.70   1
   8  -8  -1  115.10   32.40   1
  -8   8   1   30.00   32.00   1
  -8   8  -1   53.70   32.20   1
   8  -8   1   47.30   32.20   1
  -8  -8   1   23.00   31.80   1
   8   8  -1   49.10   31.90   1
   8   8   2   82.70   52.70   1
  -8  -8  -2  162.70   52.90   1
   8  -8  -2   93.00   52.80   1
  -8   8   2   70.80   52.70   1
  -8   8  -2  255.30   55.10   1
   8  -8   2  317.80   55.30   1
  -8  -8   2   71.00   52.80   1
   8   8  -2  116.70   52.90   1
   8   8   3  704.90  134.10   1
  -8  -8  -3  409.20  133.20   1
   8  -8  -3  498.90  133.60   1
  -8   8   3  455.40  133.30   1
  -8  -8   3  384.40  133.90   1
   8   8  -3  511.10  135.50   1
   8   8   4  571.50  146.60   1
  -8  -8  -4  546.60  146.60   1
   8  -8  -4  643.60  146.70   1
  -8   8   4  466.70  146.10   1
  -8  -8   4  562.30  151.70   1
   8   8  -4  635.60  159.80   1
   8   8   5  576.20  148.90   1
  -8  -8  -5  499.90  148.60   1
   8  -8  -5  608.80  149.40   1
  -8   8   5  608.90  149.30   1
   8   8   6  342.80  119.70   1
  -8  -8  -6  394.40  119.80   1
   8  -8  -6  409.00  119.80   1
  -8   8   6  518.10  120.40   1
   8   8   7   69.60   45.50   1
  -8  -8  -7   91.30   45.60   1
   8  -8  -7   80.40   45.40   1
  -8   8   7   61.30   45.30   1
   8   8   8  593.20  129.40   1
  -8  -8  -8  491.40  128.70   1
   8  -8  -8  404.10  127.10   1
  -8   8   8  411.90  127.00   1
   8   8   9   62.50   25.50   1
  -8  -8  -9  115.30   26.50   1
   8  -8  -9    6.00   24.80   1
  -8   8   9   28.50   24.80   1
   8   8  10   27.30   31.40   1
   8  -8 -10   60.10   31.10   1
  -8   8  10   25.00   30.90   1
   8  -8 -11   80.70   37.80   1
  -8   8  11   39.60   37.30   1
   8  -8 -12  123.70   55.30   1
  -8   8  12   89.00   54.90   1
   8  -8 -13   65.50   20.70   1
  -8   8  13    4.20   19.60   1
   8   9   0   21.70   29.30   1
  -8  -9   0   39.90   29.30   1
   8  -9   0   21.10   29.70   1
  -8   9   0   40.00   29.70   1
   8   9   1  136.30   65.10   1
  -8  -9  -1  225.90   65.30   1
   8  -9  -1   97.20   65.40   1
  -8   9   1  225.00   66.10   1
  -8   9  -1  102.70   65.30   1
   8  -9   1   96.00   65.20   1
  -8  -9   1  125.50   65.20   1
   8   9  -1  221.30   65.60   1
   8   9   2   30.20   28.30   1
  -8  -9  -2   23.90   28.20   1
   8  -9  -2   18.40   28.30   1
  -8   9   2   -0.00   28.40   1
  -8   9  -2   25.70   29.10   1
   8  -9   2   15.90   29.10   1
  -8  -9   2  107.10   28.70   1
   8   9  -2   74.90   28.60   1
   8   9   3  199.30   83.00   1
  -8  -9  -3  274.60   83.20   1
   8  -9  -3  203.90   83.10   1
  -8   9   3  219.70   83.10   1
  -8  -9   3  196.10   83.90   1
   8   9  -3  207.00   84.40   1
   8   9   4  250.80   59.00   1
  -8  -9  -4  206.10   58.80   1
   8  -9  -4  244.40   59.00   1
  -8   9   4   53.80   58.50   1
   8   9   5   29.90   30.30   1
  -8  -9  -5   41.80   30.30   1
   8  -9  -5   28.30   30.30   1
  -8   9   5   32.20   30.30   1
   8   9   6   22.70   27.10   1
  -8  -9  -6   39.40   27.10   1
   8  -9  -6   20.50   27.10   1
  -8   9   6   27.00   27.10   1
   8   9   7   43.80   35.50   1
  -8  -9  -7   95.50   35.70   1
   8  -9  -7   30.00   35.40   1
  -8   9   7   48.00   35.50   1
   8   9   8   47.10   33.50   1
  -8  -9  -8    9.40   33.10   1
   8  -9  -8   48.30   32.90   1
  -8   9   8   40.80   32.90   1
   8   9   9   31.00   26.10   1
  -8  -9  -9   14.30   25.90   1
   8  -9  -9   22.90   25.70   1
  -8   9   9   27.20   25.70   1
   8   9  10    7.60   16.80   1
  -8  -9 -10   15.40   17.10   1
   8  -9 -10    7.20   16.30   1
  -8   9  10   11.40   16.30   1
   8  -9 -11   52.40   40.90   1
  -8   9  11   64.20   40.90   1
   8  -9 -12    2.00    6.30   1
  -8   9  12   -0.00    6.20   1
   8  -9 -13   21.50   18.00   1
  -8   9  13    4.00   17.90   1
   8  10   0   45.80   40.50   1
  -8 -10   0   62.00   40.60   1
   8 -10   0   86.10   40.90   1
   8  10   1   75.30   45.70   1
  -8 -10  -1   74.50   45.70   1
   8 -10  -1   47.20   46.00   1
  -8  10   1  116.50   46.40   1
  -8  10  -1  110.70   46.50   1
   8 -10   1   51.70   46.10   1
  -8 -10   1  100.10   45.90   1
   8  10  -1   57.90   45.80   1
   8  10   2  231.60   67.80   1
  -8 -10  -2  488.20   68.90   1
   8 -10  -2  106.00   67.70   1
  -8  10   2   54.80   67.60   1
   8 -10   2  345.00   77.10   1
  -8 -10   2  298.70   69.70   1
   8  10  -2  266.40   69.80   1
   8  10   3   14.80   20.80   1
  -8 -10  -3   14.40   20.80   1
   8 -10  -3   35.30   21.00   1
  -8  10   3   16.80   20.90   1
  -8 -10   3   -0.10   21.00   1
   8  10   4 1580.40  305.40   1
  -8 -10  -4 1284.10  304.00   1
   8 -10  -4 2135.20  309.10   1
  -8  10   4 1507.80  305.20   1
   8  10   5  223.00   86.20   1
  -8 -10  -5  208.30   86.10   1
   8 -10  -5  253.90   86.20   1
  -8  10   5  244.40   86.20   1
   8  10   6 1636.40  334.10   1
  -8 -10  -6 1949.20  334.90   1
   8 -10  -6 1631.10  335.20   1
  -8  10   6 1580.60  335.00   1
   8  10   7   16.10   21.40   1
  -8 -10  -7   16.60   21.40   1
   8 -10  -7   13.20   21.40   1
  -8  10   7   22.60   21.40   1
   8  10   8  876.70  170.00   1
  -8 -10  -8  823.60  170.20   1
   8 -10  -8  516.90  167.60   1
  -8  10   8  798.50  169.10   1
   8  10   9   64.00   30.40   1
  -8 -10  -9   37.30   30.20   1
   8 -10  -9   15.80   29.80   1
  -8  10   9   53.70   29.90   1
   8  10  10   62.00   24.50   1
  -8 -10 -10   13.30   24.10   1
  -8  10  10   17.00   23.70   1
   8  10  11   17.30   25.40   1
   8 -10 -11   24.30   24.90   1
  -8  10  11   22.20   24.90   1
   8 -10 -12   75.30   47.60   1
  -8  10  12   79.30   47.40   1
   8 -10 -13    5.00   11.00   1
  -8  10  13    2.80   11.10   1
   8  11   0   72.90   38.90   1
  -8 -11   0   36.80   38.70   1
   8 -11   0   63.70   39.10   1
  -8  11   0   69.40   39.10   1
   8  11   1   65.60   34.20   1
  -8 -11  -1   30.60   34.00   1
   8 -11  -1   29.50   34.30   1
  -8  11   1   39.30   34.30   1
  -8  11  -1   55.90   34.90   1
   8 -11   1   35.20   34.60   1
   8  11  -1   50.30   34.10   1
   8  11   2   26.20   17.10   1
  -8 -11  -2    5.90   17.00   1
   8 -11  -2    7.80   17.90   1
  -8  11   2   19.40   18.10   1
  -8 -11   2    1.00   17.20   1
   8  11   3  149.90   49.30   1
  -8 -11  -3  258.80   49.80   1
   8 -11  -3   47.50   49.20   1
  -8  11   3   36.20   49.20   1
   8  11   4   13.50   19.10   1
  -8 -11  -4   23.90   19.20   1
   8 -11  -4   10.40   19.20   1
  -8  11   4   -0.00   19.20   1
   8  11   5  137.70   52.40   1
  -8 -11  -5  102.00   52.30   1
   8 -11  -5   93.60   52.30   1
  -8  11   5   66.70   52.20   1
   8  11   6   20.50   25.20   1
  -8 -11  -6   25.60   25.20   1
   8 -11  -6   18.30   25.20   1
  -8  11   6   28.50   25.20   1
   8  11   7   90.30   40.30   1
  -8 -11  -7   58.40   40.20   1
   8 -11  -7   40.80   40.20   1
  -8  11   7   55.60   40.20   1
   8  11   8    5.50   15.30   1
  -8 -11  -8   11.20   15.50   1
   8 -11  -8    9.70   15.30   1
  -8  11   8    9.00   15.30   1
   8  11   9   57.10   44.50   1
  -8 -11  -9   71.60   44.50   1
   8 -11  -9   78.20   44.30   1
  -8  11   9   64.40   44.20   1
   8  11  10   37.60   28.80   1
  -8 -11 -10    5.50   28.50   1
   8 -11 -10   29.40   28.40   1
  -8  11  10   44.10   28.50   1
   8  11  11    6.20   25.00   1
   8 -11 -11   15.10   24.70   1
  -8  11  11  162.90   25.90   1
   8 -11 -12    7.40   12.10   1
  -8  11  12    4.00   11.90   1
   8  12   0  801.00  156.00   1
  -8 -12   0  421.70  151.20   1
   8 -12   0  753.50  154.80   1
  -8  12   0  856.60  158.40   1
   8  12   1   96.30   39.70   1
  -8 -12  -1   39.70   39.40   1
   8 -12  -1   46.20   39.80   1
  -8  12   1   43.90   39.70   1
   8 -12   1   99.90   41.20   1
  -8 -12   1   52.40   39.60   1
   8  12  -1   64.50   39.90   1
   8  12   2   34.50   26.30   1
  -8 -12  -2   21.80   26.20   1
   8 -12  -2   -0.00   26.60   1
  -8  12   2   61.40   27.00   1
   8  12   3  111.30   44.00   1
  -8 -12  -3   54.90   43.90   1
   8 -12  -3   98.80   44.30   1
  -8  12   3   20.70   44.20   1
   8  12   4   56.70   28.80   1
  -8 -12  -4   34.30   28.80   1
   8 -12  -4   13.30   28.90   1
  -8  12   4   12.80   28.80   1
   8  12   5  149.30   59.50   1
  -8 -12  -5   97.40   59.40   1
   8 -12  -5  129.20   59.60   1
  -8  12   5  123.70   59.60   1
   8  12   6  109.80   51.40   1
  -8 -12  -6   81.20   51.30   1
   8 -12  -6   90.60   51.40   1
  -8  12   6   87.90   51.40   1
   8  12   7   43.50   34.80   1
  -8 -12  -7   38.10   34.80   1
   8 -12  -7   45.40   34.80   1
  -8  12   7   50.70   34.90   1
   8  12   8   38.30   34.60   1
  -8 -12  -8   62.10   34.70   1
   8 -12  -8   27.60   34.60   1
  -8  12   8   63.30   34.70   1
   8  12   9   54.60   35.70   1
  -8 -12  -9   46.80   35.80   1
   8 -12  -9   38.10   35.50   1
  -8  12   9   49.40   35.60   1
   8  12  10   33.00   21.20   1
  -8 -12 -10   11.50   20.90   1
   8 -12 -10   17.70   20.60   1
  -8  12  10   10.80   20.70   1
   8  12  11   -0.00   18.00   1
  -8 -12 -11   11.30   18.20   1
   8 -12 -11   16.10   17.80   1
  -8  12  11   11.60   17.70   1
   8  12  12    6.40   18.80   1
   8 -12 -12    8.60   18.40   1
  -8  12  12   18.80   18.50   1
   8  13   0  469.00  134.70   1
  -8 -13   0  406.60  132.20   1
   8 -13   0  480.00  134.00   1
  -8  13   0  528.50  137.10   1
   8  13   1   84.90   43.30   1
  -8 -13  -1   67.30   43.20   1
   8 -13  -1   45.50   43.40   1
  -8  13   1   59.30   43.40   1
   8  13   2    5.90   13.70   1
  -8 -13  -2    4.90   13.60   1
   8 -13  -2   15.90   14.50   1
  -8  13   2    4.50   14.30   1
   8  13   3 1027.10  251.60   1
  -8 -13  -3 1026.40  250.90   1
   8 -13  -3 1444.30  254.60   1
  -8  13   3 1955.80  263.00   1
   8  13   4   71.30   34.70   1
  -8 -13  -4   33.80   34.60   1
   8 -13  -4   42.50   34.80   1
  -8  13   4   25.20   34.80   1
   8  13   5   87.50   37.70   1
  -8 -13  -5   32.40   37.50   1
   8 -13  -5   85.00   37.80   1
  -8  13   5   36.70   37.60   1
   8  13   6  233.50   97.30   1
  -8 -13  -6  258.40   97.50   1
   8 -13  -6  366.20   97.90   1
  -8  13   6  393.10   98.10   1
   8  13   7  163.30   74.00   1
  -8 -13  -7  170.80   74.00   1
   8 -13  -7  244.30   74.60   1
  -8  13   7  167.00   73.90   1
   8  13   8   20.60   27.00   1
  -8 -13  -8  130.10   27.60   1
   8 -13  -8   10.00   27.00   1
  -8  13   8   42.20   27.10   1
   8  13   9  126.80   63.70   1
  -8 -13  -9  192.20   64.10   1
   8 -13  -9  129.00   63.70   1
  -8  13   9  123.10   63.70   1
   8  13  10   42.20   24.20   1
  -8 -13 -10   23.50   24.00   1
   8 -13 -10   14.80   23.70   1
  -8  13  10   22.90   23.70   1
  -8 -13 -11   25.70   30.70   1
   8 -13 -11   26.90   30.50   1
  -8  13  11   48.00   30.50   1
   8  13  12   -0.00   14.10   1
   8 -13 -12    9.60   13.70   1
  -8  13  12    5.90   13.70   1
  -8 -14   0   46.50   32.80   1
   8 -14   0   22.50   33.20   1
   8  14   1    5.50   13.00   1
  -8 -14  -1    7.70   13.10   1
   8 -14  -1    3.90   14.00   1
  -8  14   1    3.50   14.20   1
   8  14   2  559.30  115.40   1
  -8 -14  -2  297.00  112.40   1
   8 -14  -2  507.70  114.30   1
  -8  14   2  303.40  112.60   1
   8  14   3   18.00   26.30   1
  -8 -14  -3   24.20   26.20   1
   8 -14  -3   17.10   26.80   1
  -8  14   3   78.40   27.40   1
   8  14   4    6.90   22.40   1
  -8 -14  -4   47.40   22.50   1
   8 -14  -4   10.50   23.00   1
  -8  14   4    7.20   23.00   1
   8  14   5   52.80   37.60   1
  -8 -14  -5   46.60   37.60   1
   8 -14  -5   62.00   37.80   1
  -8  14   5   44.10   37.70   1
   8  14   6  133.30   58.20   1
  -8 -14  -6  110.90   58.10   1
   8 -14  -6  141.40   58.30   1
  -8  14   6   88.10   58.20   1
   8  14   7    3.90    6.20   1
  -8 -14  -7    0.00    6.20   1
   8 -14  -7   -0.00    6.40   1
  -8  14   7    0.40    6.40   1
   8  14   8   27.70   27.10   1
  -8 -14  -8   20.90   27.00   1
   8 -14  -8   35.50   27.10   1
  -8  14   8   26.30   27.10   1
   8  14   9   10.50   14.90   1
  -8 -14  -9    7.90   14.90   1
   8 -14  -9    8.70   14.90   1
  -8  14   9    5.20   14.90   1
   8  14  10   14.30   18.90   1
  -8 -14 -10   23.00   19.30   1
   8 -14 -10   11.20   18.70   1
  -8  14  10   12.10   18.80   1
   8  14  11   -0.00   10.30   1
  -8 -14 -11    0.00   10.10   1
   8 -14 -11    3.80    9.50   1
  -8  14  11    4.00    9.50   1
   8  15   1  991.20  268.20   1
  -8 -15  -1 1096.90  256.80   1
   8 -15  -1 1130.70  253.40   1
  -8  15   1 1234.80  264.90   1
   8  15   2    5.30   17.50   1
  -8 -15  -2   13.50   17.50   1
   8 -15  -2    2.00   18.10   1
  -8  15   2   48.20   18.50   1
   8  15   3  375.60  109.60   1
  -8 -15  -3  285.60  108.70   1
   8 -15  -3  372.60  109.50   1
  -8  15   3  354.10  109.50   1
   8  15   4   60.10   42.50   1
  -8 -15  -4   62.90   42.40   1
   8 -15  -4   67.90   42.90   1
  -8  15   4   73.90   43.30   1
   8  15   5  124.40   39.10   1
  -8 -15  -5   34.70   38.70   1
   8 -15  -5   86.10   39.00   1
  -8  15   5   48.00   39.00   1
   8  15   6   15.50   19.90   1
  -8 -15  -6   10.90   19.90   1
   8 -15  -6   18.70   20.00   1
  -8  15   6   18.60   20.00   1
   8  15   7  217.50   72.20   1
  -8 -15  -7  174.30   72.10   1
   8 -15  -7  151.70   72.00   1
  -8  15   7  148.80   72.00   1
   8  15   8    9.70   10.80   1
  -8 -15  -8    3.40   10.80   1
   8 -15  -8   -0.00   10.90   1
  -8  15   8    1.90   10.90   1
   8  15   9  111.70   45.20   1
  -8 -15  -9   41.20   44.90   1
   8 -15  -9  321.70   48.30   1
  -8  15   9  151.90   45.70   1
   8  15  10    0.00   11.80   1
  -8 -15 -10   16.10   12.10   1
   8 -15 -10    4.90   11.80   1
  -8  15  10    7.40   11.90   1
   8 -16  -1   27.90   28.60   1
   8  16   2  200.60   74.60   1
  -8 -16  -2  230.60   73.90   1
   8 -16  -2  204.60   73.10   1
  -8  16   2  113.30   72.40   1
   8  16   3   59.20   22.70   1
  -8 -16  -3   10.30   22.30   1
   8 -16  -3    6.30   22.80   1
  -8  16   3   10.70   22.90   1
   8  16   4  401.50   93.10   1
  -8 -16  -4  263.80   91.20   1
   8 -16  -4  353.30   92.30   1
  -8  16   4  167.70   90.80   1
   8  16   5   39.60   35.10   1
  -8 -16  -5   38.30   35.10   1
   8 -16  -5   71.80   35.50   1
  -8  16   5   70.50   35.60   1
   8  16   6   44.20   29.00   1
  -8 -16  -6   25.20   29.00   1
   8 -16  -6   33.60   29.10   1
  -8  16   6   20.10   29.10   1
   8  16   7   12.50   21.80   1
  -8 -16  -7   17.50   21.90   1
   8 -16  -7   45.80   22.10   1
  -8  16   7   17.50   22.00   1
   8  16   8   17.70   25.10   1
  -8 -16  -8   39.30   25.20   1
   8 -16  -8   10.50   25.10   1
  -8  16   8   51.70   25.30   1
   8  16   9   18.80   25.30   1
  -8 -16  -9   51.30   25.40   1
   8 -16  -9   21.90   25.30   1
  -8  16   9   15.20   25.30   1
   8  16  10   27.20   21.60   1
  -8 -16 -10   10.00   21.50   1
   8 -16 -10   24.30   21.60   1
  -8  16  10   12.50   21.50   1
   8 -17  -1   92.00   53.50   1
  -8 -17  -2    2.60   12.30   1
   8 -17  -2   17.70   13.40   1
  -8  17   2    3.10   13.60   1
   8  17   3   42.20   31.80   1
  -8 -17  -3   30.70   31.50   1
   8 -17  -3   18.10   31.80   1
  -8  17   3  130.20   33.30   1
   8  17   4   19.90   15.50   1
  -8 -17  -4    0.00   15.40   1
   8 -17  -4   10.50   16.00   1
  -8  17   4   10.00   16.30   1
   8  17   5   18.60   19.70   1
  -8 -17  -5    9.60   19.50   1
   8 -17  -5    5.90   20.00   1
  -8  17   5  100.40   21.60   1
   8  17   6   14.80   24.90   1
  -8 -17  -6   39.00   24.90   1
   8 -17  -6   20.50   25.00   1
  -8  17   6   20.60   25.20   1
   8  17   7    3.80   13.30   1
  -8 -17  -7   10.10   13.30   1
   8 -17  -7   14.30   13.50   1
  -8  17   7   -0.00   13.40   1
   8  17   8    6.30   12.50   1
  -8 -17  -8    6.00   12.50   1
   8 -17  -8    8.60   12.60   1
  -8  17   8   -0.00   12.60   1
   8  17   9   24.10   17.20   1
  -8 -17  -9    7.60   17.10   1
   8 -17  -9    5.50   17.20   1
  -8  17   9    8.30   17.20   1
   8 -18  -2   39.40   22.20   1
  -8  18   2    4.50   21.50   1
  -8 -18  -3   40.20   22.20   1
   8 -18  -3   -0.00   22.10   1
  -8  18   3   15.20   22.30   1
   8  18   4  217.10   74.70   1
  -8 -18  -4  219.20   73.50   1
   8 -18  -4  132.00   72.40   1
  -8  18   4  168.40   72.80   1
   8  18   5  122.30   51.00   1
  -8 -18  -5   83.50   50.50   1
   8 -18  -5   71.30   50.70   1
  -8  18   5   84.00   50.80   1
   8  18   6    6.10   22.90   1
  -8 -18  -6   37.70   22.90   1
   8 -18  -6   17.10   23.20   1
   8  18   7    5.50   16.10   1
  -8 -18  -7   14.10   16.10   1
   8 -18  -7    8.80   16.20   1
  -8  18   7   12.50   16.30   1
   8  18   8  211.80   58.00   1
  -8 -18  -8  134.50   57.40   1
   8 -18  -8   62.80   57.20   1
  -8  18   8  240.00   58.50   1
   8 -19  -2   15.80   21.70   1
   8 -19  -3   16.70   26.80   1
  -8  19   3   42.80   27.50   1
   8  19   4   26.10   15.40   1
  -8 -19  -4    3.10   14.80   1
   8 -19  -4   12.30   15.50   1
  -8  19   4    7.00   15.40   1
   8  19   5   18.10   19.30   1
  -8 -19  -5    9.70   19.20   1
   8 -19  -5   27.00   20.00   1
  -8  19   5    4.80   19.90   1
   8  19   6    3.20   10.70   1
  -8 -19  -6    5.30   10.70   1
   8 -19  -6    2.80   11.30   1
  -8  19   6    3.40   12.20   1
   8  19   7   38.60   28.60   1
  -8 -19  -7   23.60   28.50   1
   8 -19  -7   25.10   28.60   1
  -8  19   7   59.30   29.10   1
   8 -20  -3   -0.00   12.60   1
  -8  20   3    9.40   12.60   1
  -8 -20  -4    3.00   12.10   1
   8 -20  -4    6.50   12.80   1
  -8  20   4   11.80   13.00   1
   8  20   5    6.20   14.50   1
  -8 -20  -5    8.10   14.50   1
   8 -20  -5    1.50   15.30   1
  -8  20   5   18.60   15.40   1
   8  20   6   21.40   22.30   1
  -8 -20  -6   13.80   22.30   1
   8 -20  -6   12.00   23.00   1
  -8  20   6   29.10   23.10   1
   8 -21  -3    0.90    7.60   1
   8 -21  -4   12.10   19.90   1
  -8  21   4   15.90   20.20   1
   9   0   0   55.40   42.90   1
  -9   0   0   74.00   42.90   1
   9   0   1   91.00   49.80   1
  -9   0  -1   51.60   49.70   1
   9   0  -1  114.20   49.80   1
  -9   0   1  119.20   49.80   1
   9   0   2  407.30  114.60   1
  -9   0  -2  336.00  114.40   1
   9   0  -2  369.60  114.40   1
  -9   0   2  387.20  114.40   1
   9   0   3   62.00   47.80   1
  -9   0  -3   58.40   47.90   1
   9   0  -3  113.40   47.80   1
  -9   0   3   76.90   47.70   1
   9   0   4  223.90   72.10   1
  -9   0  -4   31.70   71.30   1
   9   0  -4  231.30   71.40   1
  -9   0   4  253.90   71.50   1
   9   0   5  494.10  115.40   1
  -9   0  -5  445.10  115.00   1
   9   0  -5  333.90  114.00   1
  -9   0   5  351.00  114.10   1
   9   0   6  902.40  207.60   1
  -9   0  -6  864.20  207.70   1
   9   0  -6 1198.80  208.20   1
  -9   0   6  780.00  205.70   1
   9   0   7   48.40   40.00   1
  -9   0  -7   68.10   40.50   1
   9   0  -7   33.50   39.50   1
  -9   0   7   93.30   39.80   1
   9   0  -8  145.20   71.00   1
  -9   0   8  190.00   71.20   1
   9   0  -9  139.20   75.00   1
  -9   0   9  332.10   76.70   1
   9   0 -10  118.90   61.40   1
  -9   0  10  126.90   61.20   1
  -9   0  11   59.80   41.80   1
   9   1   0   -0.00    2.20   1
  -9  -1   0   -0.00    2.50   1
   9  -1   0   -0.00    2.40   1
   9   1   1   30.70   28.30   1
  -9  -1  -1   19.30   28.30   1
   9  -1  -1   20.30   28.30   1
  -9   1   1   22.70   28.30   1
  -9   1  -1   44.50   28.40   1
   9  -1   1   59.30   28.40   1
  -9  -1   1   27.80   28.30   1
   9   1  -1   29.00   28.30   1
   9   1   2    2.90   18.10   1
  -9  -1  -2   10.00   18.10   1
   9  -1  -2    6.20   18.10   1
  -9   1   2    8.30   18.10   1
  -9   1  -2   11.80   18.10   1
   9  -1   2    3.50   18.10   1
  -9  -1   2   26.30   18.10   1
   9   1  -2   24.60   18.10   1
   9   1   3    2.70   20.60   1
  -9  -1  -3    4.40   20.60   1
   9  -1  -3   12.30   20.60   1
  -9   1   3   -0.00   20.60   1
  -9   1  -3   22.20   21.10   1
   9  -1   3    8.40   20.90   1
  -9  -1   3   50.20   20.70   1
   9   1  -3   47.60   20.70   1
   9   1   4   10.80   44.40   1
  -9  -1  -4   66.90   44.60   1
   9  -1  -4   64.40   44.20   1
  -9   1   4   53.10   44.20   1
  -9   1  -4   80.60   44.80   1
   9  -1   4  118.50   45.10   1
  -9  -1   4   86.90   44.30   1
   9   1  -4  147.10   44.40   1
   9  -1  -5   71.30   44.90   1
  -9   1   5   93.10   45.00   1
  -9   1  -5  100.70   45.40   1
   9  -1   5   73.60   45.30   1
  -9  -1   5   52.70   44.90   1
   9   1  -5   66.80   44.90   1
   9   1   6   13.60   21.10   1
  -9  -1  -6    8.50   21.00   1
   9  -1  -6   14.30   20.60   1
  -9   1   6   11.20   20.60   1
  -9   1  -6    3.20   21.50   1
   9  -1   6    5.20   21.20   1
  -9  -1   6   18.30   20.80   1
   9   1  -6   74.90   21.30   1
   9   1   7    6.60   17.70   1
  -9  -1  -7   16.20   17.80   1
   9  -1  -7    8.90   17.10   1
  -9   1   7   11.50   16.90   1
  -9  -1   7    9.20   17.00   1
   9   1  -7    9.90   17.10   1
   9  -1  -8   18.00   27.20   1
  -9   1   8    3.10   27.10   1
  -9  -1   8   50.00   27.10   1
   9   1  -8   30.20   27.00   1
   9  -1  -9    6.90   20.40   1
  -9   1   9   16.30   20.40   1
  -9  -1   9   14.90   20.40   1
   9   1  -9   23.30   20.50   1
   9  -1 -10   13.50   15.30   1
  -9   1  10    6.40   15.30   1
  -9  -1  10    4.40   15.20   1
   9   1 -10    8.70   15.50   1
   9  -1 -11   -0.00   13.50   1
  -9   1  11   11.40   13.40   1
  -9   1  12   -0.00    4.40   1
   9   2   0    5.40    9.90   1
  -9  -2   0   -0.20    9.90   1
   9  -2   0    5.80   10.00   1
  -9   2   0    3.20    9.90   1
   9   2   1   25.30   21.30   1
  -9  -2  -1   18.30   21.20   1
   9  -2  -1   12.00   21.20   1
  -9   2   1    9.40   21.20   1
  -9   2  -1   20.50   21.30   1
   9  -2   1   19.20   21.30   1
  -9  -2   1   16.70   21.20   1
   9   2  -1   13.50   21.20   1
   9   2   2  284.90  110.40   1
  -9  -2  -2  271.30  110.40   1
   9  -2  -2  480.40  111.20   1
  -9   2   2  535.40  111.50   1
  -9   2  -2  380.60  110.80   1
   9  -2   2  278.60  110.50   1
  -9  -2   2  583.70  111.40   1
   9   2  -2  566.00  111.30   1
   9   2   3   53.30   27.80   1
  -9  -2  -3   15.10   27.80   1
   9  -2  -3   31.30   27.80   1
  -9   2   3   34.10   27.80   1
  -9   2  -3   49.00   28.50   1
   9  -2   3   35.20   28.60   1
  -9  -2   3   18.40   27.70   1
   9   2  -3   23.00   27.70   1
   9   2   4 1457.80  275.70   1
  -9  -2  -4 1821.20  277.50   1
   9  -2  -4 1255.00  275.30   1
  -9   2   4 1235.00  274.90   1
  -9   2  -4 1423.00  277.50   1
   9  -2   4 1195.90  276.60   1
  -9  -2   4 1175.80  274.60   1
   9   2  -4 1420.70  275.60   1
   9   2   5   65.20   44.50   1
  -9  -2  -5  157.00   44.90   1
   9  -2  -5   56.70   44.00   1
  -9   2   5   74.40   44.00   1
  -9   2  -5   50.90   44.30   1
   9  -2   5   73.80   44.40   1
  -9  -2   5   55.60   44.00   1
   9   2  -5   89.20   44.20   1
   9   2   6  430.10  104.70   1
  -9  -2  -6  375.00  104.20   1
   9  -2  -6  337.20  103.50   1
  -9   2   6  228.30  103.20   1
  -9   2  -6  261.30  105.90   1
   9  -2   6  437.90  108.10   1
  -9  -2   6  417.20  104.70   1
   9   2  -6  513.60  105.30   1
   9   2   7    3.40   19.90   1
  -9  -2  -7   49.20   20.20   1
   9  -2  -7   31.30   19.50   1
  -9   2   7    6.90   19.40   1
  -9  -2   7    7.10   19.50   1
   9   2  -7    7.80   19.50   1
   9   2   8   28.10   37.80   1
   9  -2  -8   21.30   37.40   1
  -9   2   8   48.10   37.40   1
  -9  -2   8   87.60   37.70   1
   9   2  -8  166.50   38.80   1
   9  -2  -9    6.70    7.40   1
  -9   2   9   -0.00    7.20   1
  -9  -2   9   -0.00    7.00   1
   9   2  -9   -0.00    7.40   1
   9  -2 -10  129.50   41.20   1
  -9   2  10   39.40   40.50   1
   9  -2 -11    2.00   15.10   1
  -9   2  11   15.40   15.20   1
   9  -2 -12   39.10   31.90   1
  -9   2  12   33.10   31.50   1
   9   3   0    9.40   22.70   1
  -9  -3   0   34.60   22.70   1
   9  -3   0   16.70   22.70   1
  -9   3   0   16.60   22.70   1
   9   3   1  323.50  116.10   1
  -9  -3  -1  448.50  116.50   1
   9  -3  -1  392.90  116.20   1
  -9   3   1  390.20  116.20   1
  -9   3  -1  353.80  116.20   1
   9  -3   1  338.80  116.10   1
  -9  -3   1  404.60  116.20   1
   9   3  -1  442.10  116.30   1
   9   3   2   48.60   33.90   1
  -9  -3  -2   38.60   33.90   1
   9  -3  -2   32.20   33.90   1
  -9   3   2   34.30   33.90   1
  -9   3  -2   25.10   34.20   1
   9  -3   2   20.80   34.10   1
  -9  -3   2   53.80   33.90   1
   9   3  -2   60.60   33.90   1
   9   3   3 2515.70  363.00   1
  -9  -3  -3 2312.30  361.60   1
   9  -3  -3 2274.30  362.10   1
  -9   3   3 2258.00  361.50   1
  -9   3  -3 1178.70  358.60   1
   9  -3   3 1346.00  359.20   1
  -9  -3   3 2092.40  360.70   1
   9   3  -3 2341.10  361.70   1
   9   3   4   -0.00   20.00   1
  -9  -3  -4   21.50   20.00   1
   9  -3  -4    7.30   20.00   1
  -9   3   4   31.50   20.00   1
  -9   3  -4   50.80   20.70   1
   9  -3   4   49.20   20.80   1
  -9  -3   4    8.00   20.00   1
   9   3  -4   12.20   20.00   1
   9   3   5  482.10  170.30   1
  -9  -3  -5  785.30  171.60   1
   9  -3  -5  849.80  171.20   1
  -9   3   5  623.30  170.50   1
  -9   3  -5  887.80  176.80   1
   9  -3   5  914.20  175.30   1
  -9  -3   5  759.10  172.20   1
   9   3  -5 1176.70  176.40   1
   9   3   6   87.20   20.30   1
  -9  -3  -6   20.40   19.70   1
   9  -3  -6   11.80   19.10   1
  -9   3   6   10.60   19.10   1
  -9  -3   6    7.30   19.20   1
   9   3  -6    9.70   19.20   1
   9   3   7  360.30  131.30   1
  -9  -3  -7  341.80  131.30   1
   9  -3  -7  653.50  131.80   1
  -9   3   7  565.20  131.40   1
  -9  -3   7  378.60  131.50   1
   9   3  -7  950.80  139.00   1
   9   3   8   11.20    9.20   1
  -9  -3  -8    3.70    9.80   1
   9  -3  -8    3.10    7.90   1
  -9   3   8   -0.00    7.70   1
  -9  -3   8    2.30    7.80   1
   9   3  -8   -0.00    8.00   1
   9  -3  -9  184.40   78.00   1
  -9   3   9  291.30   78.80   1
  -9  -3   9  122.40   78.60   1
   9  -3 -10    7.40   16.60   1
  -9   3  10   12.10   16.60   1
   9  -3 -11  189.30   87.70   1
  -9   3  11  823.70  102.50   1
   9  -3 -12   12.20   20.90   1
  -9   3  12   19.80   21.00   1
  -9   3  13   12.30   18.70   1
   9   4   0    3.00   14.30   1
  -9  -4   0    6.50   14.30   1
   9  -4   0   15.00   14.40   1
  -9   4   0    8.10   14.40   1
   9   4   1   82.10   30.10   1
  -9  -4  -1   29.70   30.00   1
   9  -4  -1   19.60   30.00   1
  -9   4   1   23.60   30.00   1
  -9   4  -1   48.50   30.30   1
   9  -4   1   40.20   30.20   1
  -9  -4   1   25.00   30.00   1
   9   4  -1   28.90   30.00   1
   9   4   2  156.10   41.80   1
  -9  -4  -2   94.00   41.60   1
   9  -4  -2   67.70   41.50   1
  -9   4   2  107.40   41.60   1
  -9   4  -2   34.90   42.00   1
   9  -4   2   79.70   42.20   1
  -9  -4   2   34.50   41.40   1
   9   4  -2   36.00   41.50   1
   9   4   3   -0.00   17.90   1
  -9  -4  -3   24.90   17.90   1
   9  -4  -3   15.10   17.90   1
  -9   4   3   14.60   17.90   1
  -9   4  -3   13.30   18.70   1
   9  -4   3    1.30   18.70   1
  -9  -4   3   11.00   17.90   1
   9   4  -3    7.80   17.90   1
   9   4   4   43.80   40.50   1
  -9  -4  -4   40.30   40.60   1
   9  -4  -4  111.10   40.70   1
  -9   4   4   50.60   40.60   1
  -9   4  -4   85.80   41.00   1
   9  -4   4   53.10   40.90   1
  -9  -4   4   56.00   40.60   1
   9   4  -4   82.80   40.80   1
   9   4   5    7.70   20.30   1
  -9  -4  -5   28.40   20.60   1
   9  -4  -5   13.60   20.20   1
  -9   4   5   25.80   20.20   1
  -9   4  -5   -0.00   21.30   1
   9  -4   5    4.90   21.30   1
  -9  -4   5    4.50   20.30   1
   9   4  -5   13.00   20.40   1
   9   4   6   23.10   26.80   1
  -9  -4  -6   14.00   26.50   1
   9  -4  -6   11.20   26.20   1
  -9   4   6   24.80   26.20   1
  -9  -4   6   45.60   26.30   1
   9   4  -6   61.30   26.50   1
   9   4   7   13.70   27.90   1
  -9  -4  -7   35.20   27.80   1
   9  -4  -7   44.00   27.40   1
  -9   4   7   41.20   27.40   1
  -9  -4   7   12.40   27.40   1
   9   4  -7   11.10   27.40   1
   9   4   8   19.00   33.50   1
  -9  -4  -8   41.50   33.70   1
   9  -4  -8   58.10   33.30   1
  -9   4   8   34.00   33.20   1
  -9  -4   8   41.20   33.50   1
   9   4  -8   41.00   33.80   1
   9   4   9   12.90   14.90   1
   9  -4  -9   16.20   14.20   1
  -9   4   9    1.80   13.70   1
   9  -4 -10   50.10   38.30   1
  -9   4  10   52.80   38.30   1
   9  -4 -11   10.30   17.20   1
  -9   4  11   10.70   17.10   1
   9  -4 -12   15.30   23.80   1
  -9   4  12   26.10   23.90   1
   9  -4 -13   -0.00    8.70   1
  -9   4  13    4.30    8.60   1
   9   5   0   52.80   32.10   1
  -9  -5   0   60.70   32.10   1
   9  -5   0    7.50   32.10   1
  -9   5   0   30.30   32.10   1
   9   5   1  373.90   84.80   1
  -9  -5  -1  381.20   84.90   1
   9  -5  -1  395.60   85.10   1
  -9   5   1  335.00   84.90   1
  -9   5  -1  173.00   84.60   1
   9  -5   1   72.40   84.40   1
  -9  -5   1  310.40   84.80   1
   9   5  -1  222.70   84.50   1
   9   5   2   36.10   36.90   1
  -9  -5  -2   35.60   36.90   1
   9  -5  -2   39.50   36.90   1
  -9   5   2   49.50   36.90   1
  -9   5  -2   47.90   37.40   1
   9  -5   2   26.00   37.30   1
  -9  -5   2   82.20   36.90   1
   9   5  -2   81.20   37.00   1
   9   5   3  205.40   57.90   1
  -9  -5  -3  111.30   57.60   1
   9  -5  -3  227.70   58.10   1
  -9   5   3   75.90   57.60   1
  -9   5  -3  193.60   58.30   1
   9  -5   3  145.70   58.10   1
  -9  -5   3   77.00   57.60   1
   9   5  -3  106.40   57.70   1
   9   5   4  254.10   82.90   1
  -9  -5  -4  250.00   82.90   1
   9  -5  -4  208.00   82.80   1
  -9   5   4  223.70   82.80   1
  -9   5  -4  224.00   83.70   1
   9  -5   4  231.90   83.50   1
  -9  -5   4  143.70   82.80   1
   9   5  -4  222.50   83.10   1
   9   5   5  400.30  112.80   1
  -9  -5  -5  354.50  112.80   1
   9  -5  -5  269.70  112.50   1
  -9   5   5  489.40  113.10   1
   9  -5   5  573.90  126.50   1
  -9  -5   5  366.80  113.30   1
   9   5  -5  564.00  114.80   1
   9   5   6   12.80   36.50   1
  -9  -5  -6   27.70   36.50   1
   9  -5  -6   84.70   36.40   1
  -9   5   6   49.40   36.30   1
  -9  -5   6   57.90   36.50   1
   9   5  -6   35.20   36.40   1
   9   5   7  631.50   79.40   1
  -9  -5  -7  134.40   74.90   1
   9  -5  -7  212.30   74.70   1
  -9   5   7  147.50   74.60   1
  -9  -5   7  220.00   76.30   1
   9   5  -7  247.60   77.80   1
   9   5   8  171.10   39.70   1
  -9  -5  -8    9.60   38.50   1
   9  -5  -8   77.20   38.50   1
  -9   5   8   48.00   38.40   1
   9   5   9  132.50   63.20   1
   9  -5  -9  152.00   62.30   1
  -9   5   9  114.90   62.10   1
   9  -5 -10   69.00   51.40   1
  -9   5  10  122.20   51.60   1
   9  -5 -11   77.60   31.00   1
  -9   5  11   16.30   30.60   1
   9  -5 -12   27.20   20.60   1
  -9   5  12    6.90   20.40   1
   9  -5 -13   50.00   27.90   1
  -9   5  13   20.30   27.30   1
   9   6   0  115.20   32.90   1
  -9  -6   0   17.30   32.70   1
   9  -6   0   67.10   33.00   1
  -9   6   0   26.30   33.00   1
   9   6   1   10.40   21.20   1
  -9  -6  -1    7.40   21.20   1
   9  -6  -1   79.60   21.50   1
  -9   6   1   10.00   21.30   1
  -9   6  -1   11.70   22.10   1
   9  -6   1    3.70   22.50   1
  -9  -6   1   14.10   21.20   1
   9   6  -1   26.00   21.20   1
   9   6   2   44.40   30.30   1
  -9  -6  -2   23.80   30.30   1
   9  -6  -2  150.80   30.80   1
  -9   6   2   72.20   30.50   1
  -9   6  -2   24.00   30.80   1
   9  -6   2   -0.00   30.80   1
  -9  -6   2    9.00   30.30   1
   9   6  -2   30.50   30.30   1
   9   6   3   21.70   15.40   1
  -9  -6  -3    3.50   15.30   1
   9  -6  -3    1.90   15.40   1
  -9   6   3    4.90   15.40   1
  -9   6  -3   21.00   16.10   1
   9  -6   3   21.80   16.10   1
  -9  -6   3    3.60   15.60   1
   9   6  -3    8.10   15.70   1
   9   6   4  146.00   45.60   1
  -9  -6  -4   41.40   45.40   1
   9  -6  -4   55.70   45.40   1
  -9   6   4   76.50   45.50   1
  -9   6  -4   40.00   46.00   1
   9  -6   4   60.40   46.10   1
  -9  -6   4  150.40   45.90   1
   9   6  -4  231.00   46.60   1
   9   6   5   30.20   31.20   1
  -9  -6  -5   31.30   31.20   1
   9  -6  -5   31.40   31.20   1
  -9   6   5   23.20   31.20   1
  -9  -6   5  138.30   32.00   1
   9   6  -5  161.00   32.30   1
   9   6   6   17.40   20.40   1
  -9  -6  -6   22.30   20.50   1
   9  -6  -6   25.20   20.20   1
  -9   6   6   13.40   20.20   1
  -9  -6   6    4.20   20.30   1
   9   6  -6    6.80   20.30   1
   9   6   7   26.40   26.80   1
  -9  -6  -7    5.70   26.40   1
   9  -6  -7   19.90   26.10   1
  -9   6   7   43.40   26.10   1
  -9  -6   7   17.00   26.40   1
   9   6   8  254.10   71.60   1
  -9  -6  -8  216.30   71.20   1
   9  -6  -8  135.00   70.30   1
  -9   6   8  164.10   70.40   1
   9   6   9   -0.00   18.60   1
  -9  -6  -9   11.50   18.80   1
   9  -6  -9   13.40   18.20   1
  -9   6   9   14.40   18.10   1
   9   6  10   13.20   29.80   1
   9  -6 -10   17.00   29.30   1
  -9   6  10   53.80   29.30   1
   9  -6 -11   22.20   27.30   1
  -9   6  11   31.60   27.40   1
   9  -6 -12   55.50   19.70   1
  -9   6  12   -0.00   19.10   1
   9  -6 -13    9.70   19.50   1
  -9   6  13   18.10   19.60   1
   9  -6 -14   11.70   18.20   1
   9   7   0    3.30   16.90   1
  -9  -7   0   18.00   16.90   1
   9  -7   0   11.40   17.40   1
  -9   7   0   25.50   17.60   1
   9   7   1  339.10   94.40   1
  -9  -7  -1  242.20   94.20   1
   9  -7  -1  278.20   94.30   1
  -9   7   1  266.80   94.30   1
  -9   7  -1  413.40   95.50   1
   9  -7   1  127.80   94.20   1
  -9  -7   1  287.00   94.20   1
   9   7  -1  491.70   95.00   1
   9   7   2   21.50   25.90   1
  -9  -7  -2   30.70   26.00   1
   9  -7  -2   25.50   26.00   1
  -9   7   2   14.50   26.00   1
  -9   7  -2   33.10   26.40   1
   9  -7   2   33.70   26.50   1
  -9  -7   2   18.90   26.00   1
   9   7  -2   36.40   26.10   1
   9   7   3  579.90  128.90   1
  -9  -7  -3  445.00  128.40   1
   9  -7  -3  451.90  128.30   1
  -9   7   3  422.90  128.10   1
  -9   7  -3  347.10  129.00   1
   9  -7   3  331.20  128.60   1
  -9  -7   3  494.60  129.10   1
   9   7  -3  634.30  130.00   1
   9   7   4   38.20   29.60   1
  -9  -7  -4   39.00   29.60   1
   9  -7  -4   28.70   29.60   1
  -9   7   4   20.60   29.50   1
   9  -7   4   61.10   31.00   1
  -9  -7   4   24.70   29.60   1
   9   7  -4   40.10   29.70   1
   9   7   5  827.90  185.00   1
  -9  -7  -5  764.90  184.60   1
   9  -7  -5  807.00  184.90   1
  -9   7   5  796.20  185.10   1
  -9  -7   5  607.90  186.40   1
   9   7  -5  689.40  188.50   1
   9   7   6   24.30   15.30   1
  -9  -7  -6    4.80   15.30   1
   9  -7  -6    7.80   15.20   1
  -9   7   6    3.70   15.20   1
  -9  -7   6    6.00   15.50   1
   9   7   7  134.10   78.50   1
  -9  -7  -7  182.30   78.80   1
   9  -7  -7  223.60   78.60   1
  -9   7   7  286.70   78.80   1
   9   7   8   77.10   25.40   1
  -9  -7  -8    9.70   24.70   1
   9  -7  -8   19.30   24.40   1
  -9   7   8   20.00   24.40   1
   9   7   9   67.10   39.80   1
  -9  -7  -9   31.20   39.60   1
   9  -7  -9   55.00   39.40   1
  -9   7   9   65.50   39.40   1
   9   7  10    8.00   17.80   1
  -9  -7 -10   48.50   19.00   1
   9  -7 -10    8.60   17.10   1
  -9   7  10    9.70   17.10   1
   9  -7 -11  166.90   57.00   1
  -9   7  11   89.60   56.10   1
   9  -7 -12   13.70   16.10   1
  -9   7  12    4.00   16.10   1
   9  -7 -13  260.10   76.00   1
  -9   7  13  145.50   73.40   1
   9   8   0   49.90   42.30   1
  -9  -8   0  198.20   42.80   1
   9  -8   0   40.80   42.90   1
  -9   8   0   20.30   42.70   1
   9   8   1  140.50   22.80   1
  -9  -8  -1   20.50   22.30   1
   9  -8  -1   12.90   22.50   1
  -9   8   1   22.40   22.70   1
  -9   8  -1   10.40   23.00   1
   9  -8   1   -0.30   22.90   1
  -9  -8   1    6.50   22.30   1
   9   8  -1    6.90   22.30   1
   9   8   2  272.70   64.60   1
  -9  -8  -2  118.00   64.20   1
   9  -8  -2  120.00   64.30   1
  -9   8   2  121.30   64.20   1
  -9   8  -2  113.50   64.50   1
   9  -8   2  145.80   64.60   1
  -9  -8   2  215.90   64.90   1
   9   8  -2  138.40   64.50   1
   9   8   3   34.70   30.40   1
  -9  -8  -3  113.30   30.60   1
   9  -8  -3   17.90   30.40   1
  -9   8   3   30.90   30.40   1
  -9   8  -3   68.60   31.50   1
   9  -8   3   63.20   31.30   1
  -9  -8   3   11.70   30.40   1
   9   8  -3   31.30   30.50   1
   9   8   4 3918.20  694.40   1
  -9  -8  -4 4110.50  698.20   1
   9  -8  -4 4373.90  695.30   1
  -9   8   4 4168.00  694.20   1
  -9  -8   4 3436.40  702.30   1
   9   8  -4 4037.00  718.80   1
   9   8   5  121.00   47.90   1
  -9  -8  -5   78.70   47.80   1
   9  -8  -5  103.20   47.90   1
  -9   8   5   55.30   47.80   1
  -9  -8   5   54.10   48.00   1
   9   8  -5   79.10   48.40   1
   9   8   6  471.40  115.40   1
  -9  -8  -6  295.20  114.70   1
   9  -8  -6  349.80  114.90   1
  -9   8   6  551.00  115.80   1
   9   8   7    9.90   22.60   1
  -9  -8  -7   -0.00   22.70   1
   9  -8  -7   27.60   22.50   1
  -9   8   7   23.20   22.50   1
   9   8   8  780.80  146.90   1
  -9  -8  -8  450.20  144.00   1
   9  -8  -8  440.90  143.10   1
  -9   8   8  802.00  145.20   1
   9   8   9   97.90   19.50   1
  -9  -8  -9  133.00   20.00   1
   9  -8  -9   -0.00   17.60   1
  -9   8   9   10.50   17.60   1
   9   8  10  267.70   81.40   1
  -9  -8 -10  270.50   83.40   1
   9  -8 -10  183.90   79.20   1
  -9   8  10  194.50   79.20   1
   9   8  11   81.60   44.70   1
   9  -8 -11   94.00   43.10   1
  -9   8  11   51.50   42.80   1
   9  -8 -12  104.90   39.00   1
  -9   8  12   37.00   38.20   1
   9  -8 -13   12.60   24.70   1
  -9   8  13   41.40   25.00   1
   9   9   0   22.00   25.20   1
  -9  -9   0   21.00   25.20   1
   9  -9   0   21.30   25.80   1
  -9   9   0   47.30   26.00   1
   9   9   1  124.20   56.00   1
  -9  -9  -1   74.50   55.90   1
   9  -9  -1  186.00   56.60   1
  -9   9   1  111.60   56.40   1
  -9   9  -1  176.50   56.70   1
   9  -9   1  138.40   56.60   1
  -9  -9   1   93.60   56.10   1
   9   9  -1  128.40   56.30   1
   9   9   2   15.10   19.30   1
  -9  -9  -2   15.10   19.30   1
   9  -9  -2    8.00   19.40   1
  -9   9   2   14.90   19.40   1
  -9   9  -2   16.20   20.10   1
   9  -9   2   -0.00   20.20   1
  -9  -9   2   12.70   19.50   1
   9   9  -2   17.40   19.50   1
   9   9   3    8.70   24.50   1
  -9  -9  -3   20.40   24.50   1
   9  -9  -3   20.60   24.70   1
  -9   9   3   17.00   24.60   1
  -9   9  -3  149.20   30.50   1
   9  -9   3   39.50   25.90   1
  -9  -9   3  161.60   25.90   1
   9   9  -3  152.70   25.90   1
   9   9   4   24.10   25.30   1
  -9  -9  -4   19.40   25.30   1
   9  -9  -4   26.80   25.40   1
  -9   9   4   35.60   25.40   1
  -9  -9   4   22.20   25.40   1
   9   9  -4   12.90   25.40   1
   9   9   5    4.30   17.00   1
  -9  -9  -5   26.40   17.10   1
   9  -9  -5   22.50   17.10   1
  -9   9   5   -0.00   17.10   1
  -9  -9   5    1.70   17.30   1
   9   9   6    3.20   11.10   1
  -9  -9  -6    2.20   11.10   1
   9  -9  -6    8.00   11.10   1
  -9   9   6    4.20   11.10   1
   9   9   7    6.20   21.90   1
  -9  -9  -7   11.30   21.90   1
   9  -9  -7   41.10   21.90   1
  -9   9   7   19.10   21.90   1
   9   9   8   21.30   21.70   1
  -9  -9  -8   22.20   22.10   1
   9  -9  -8   14.00   21.40   1
  -9   9   8   16.70   21.40   1
   9   9   9   30.30   23.60   1
  -9  -9  -9   18.30   23.40   1
   9  -9  -9   31.10   23.00   1
  -9   9   9    9.60   23.00   1
   9   9  10   19.70   22.60   1
  -9  -9 -10   13.00   22.60   1
   9  -9 -10   17.90   22.20   1
  -9   9  10   18.70   22.20   1
   9   9  11    5.70   17.90   1
   9  -9 -11   16.10   17.40   1
  -9   9  11    8.40   17.30   1
   9  -9 -12   16.20   14.60   1
  -9   9  12    4.10   14.30   1
   9  -9 -13   23.80   32.20   1
  -9   9  13   82.80   32.90   1
   9  10   0   35.30   28.70   1
  -9 -10   0   22.10   28.60   1
   9 -10   0   22.90   29.00   1
  -9  10   0   69.60   29.20   1
   9  10   1   58.60   28.70   1
  -9 -10  -1   28.20   28.70   1
   9 -10  -1  118.60   30.00   1
  -9  10   1   27.30   29.40   1
  -9  10  -1   30.10   29.00   1
   9 -10   1   15.50   29.00   1
  -9 -10   1   17.00   28.80   1
   9  10  -1   10.30   28.70   1
   9  10   2   43.30   40.10   1
  -9 -10  -2  126.60   40.30   1
   9 -10  -2   73.40   40.30   1
  -9  10   2   29.50   40.30   1
  -9  10  -2   93.80   41.30   1
   9 -10   2   60.50   40.70   1
  -9 -10   2   41.60   40.10   1
   9  10  -2   61.70   40.20   1
   9  10   3   36.00   24.30   1
  -9 -10  -3   17.80   24.20   1
   9 -10  -3   10.60   24.30   1
  -9  10   3    4.40   24.30   1
  -9 -10   3  102.10   25.20   1
   9  10  -3   88.90   25.20   1
   9  10   4  383.10   97.50   1
  -9 -10  -4  241.60   97.10   1
   9 -10  -4  313.90   97.40   1
  -9  10   4  256.90   97.20   1
  -9 -10   4  249.40   99.60   1
   9  10   5   -0.10   10.50   1
  -9 -10  -5    3.10   10.50   1
   9 -10  -5    3.80   10.70   1
  -9  10   5   11.90   10.70   1
   9  10   6   79.10   48.50   1
  -9 -10  -6   75.60   48.50   1
   9 -10  -6   78.30   48.50   1
  -9  10   6  103.70   48.60   1
   9  10   7   23.90   25.20   1
  -9 -10  -7   12.80   25.20   1
   9 -10  -7   47.00   25.30   1
  -9  10   7   19.80   25.20   1
   9  10   8  302.40  107.40   1
  -9 -10  -8  443.70  108.30   1
   9 -10  -8  303.90  107.40   1
  -9  10   8  354.00  107.60   1
   9  10   9   59.80   20.60   1
  -9 -10  -9   18.00   19.90   1
   9 -10  -9    9.10   19.40   1
   9  10  10  162.70   39.70   1
  -9 -10 -10   44.50   38.20   1
   9 -10 -10   47.60   38.00   1
  -9  10  10   48.80   38.00   1
   9  10  11   17.00   25.70   1
  -9 -10 -11   27.90   26.00   1
   9 -10 -11   30.50   25.40   1
  -9  10  11   19.40   25.30   1
   9 -10 -12   57.60   22.60   1
  -9  10  12    9.50   22.10   1
   9  11   0   -0.00   12.90   1
  -9 -11   0    9.40   12.80   1
   9 -11   0    5.10   13.20   1
  -9  11   0    8.70   13.50   1
   9  11   1   51.00   40.20   1
  -9 -11  -1   36.60   40.10   1
   9 -11  -1   39.60   40.50   1
  -9  11   1   87.80   40.80   1
  -9  11  -1  232.00   42.50   1
   9 -11   1   76.10   40.60   1
  -9 -11   1   66.00   40.30   1
   9  11  -1  177.50   41.10   1
   9  11   2   16.80   21.60   1
  -9 -11  -2    8.30   21.60   1
   9 -11  -2   24.20   22.20   1
  -9  11   2   12.20   22.30   1
  -9  11  -2   22.50   22.90   1
   9 -11   2   20.10   22.90   1
  -9 -11   2   55.20   22.00   1
   9  11  -2   15.60   21.80   1
   9  11   3   18.10   20.80   1
  -9 -11  -3   18.70   20.80   1
   9 -11  -3   10.30   20.90   1
  -9  11   3   23.40   21.00   1
  -9 -11   3   -0.00   20.90   1
   9  11  -3   23.00   21.10   1
   9  11   4    3.60   11.80   1
  -9 -11  -4   -0.10   11.80   1
   9 -11  -4    7.50   12.10   1
  -9  11   4   19.90   12.10   1
   9  11   5  134.40   56.60   1
  -9 -11  -5  112.90   56.50   1
   9 -11  -5   93.90   56.50   1
  -9  11   5  101.30   56.50   1
   9  11   6    7.40   10.50   1
  -9 -11  -6    5.60   10.50   1
   9 -11  -6    0.60   10.60   1
  -9  11   6   -0.00   10.60   1
   9  11   7   28.70   24.40   1
  -9 -11  -7   16.30   24.40   1
   9 -11  -7   20.90   24.40   1
   9  11   8   -0.00   11.10   1
  -9 -11  -8   -0.00   11.20   1
   9 -11  -8    7.80   11.10   1
  -9  11   8    9.40   11.20   1
   9  11   9   57.30   39.60   1
  -9 -11  -9   66.00   39.90   1
   9 -11  -9   44.80   39.40   1
  -9  11   9   65.90   39.50   1
   9  11  10   28.20   25.00   1
  -9 -11 -10   14.40   24.80   1
   9 -11 -10   57.40   24.70   1
  -9  11  10   11.00   24.50   1
   9  11  11  122.20   28.70   1
  -9 -11 -11   55.80   27.50   1
   9 -11 -11   19.90   26.60   1
  -9  11  11   22.90   26.60   1
   9  11  12    6.40    9.00   1
   9 -11 -12    0.80    8.00   1
  -9  11  12    2.50    8.00   1
   9  12   0    6.40   18.60   1
  -9 -12   0    8.40   18.60   1
   9 -12   0    7.70   19.00   1
  -9  12   0   66.70   19.60   1
   9  12   1   19.60   22.30   1
  -9 -12  -1   -0.00   22.10   1
   9 -12  -1   -0.10   22.60   1
  -9  12   1   -0.00   22.70   1
  -9  12  -1   10.50   23.20   1
   9 -12   1   20.40   22.90   1
  -9 -12   1   67.60   22.50   1
   9  12  -1   43.00   22.40   1
   9  12   2  379.30  114.30   1
  -9 -12  -2  312.30  113.90   1
   9 -12  -2  554.10  116.10   1
  -9  12   2  561.80  116.50   1
   9 -12   2  227.60  117.10   1
  -9 -12   2  391.40  117.00   1
   9  12  -2  372.20  117.90   1
   9  12   3   16.30   19.20   1
  -9 -12  -3   10.40   19.20   1
   9 -12  -3   14.30   19.60   1
  -9  12   3   16.40   19.80   1
   9  12   4 1584.60  313.00   1
  -9 -12  -4 1325.70  311.80   1
   9 -12  -4 1842.50  314.80   1
  -9  12   4 1676.70  313.60   1
   9  12   5   12.70   18.90   1
  -9 -12  -5   19.90   18.90   1
   9 -12  -5    7.70   19.10   1
  -9  12   5    6.70   19.00   1
   9  12   6  343.90  110.40   1
  -9 -12  -6  352.40  110.50   1
   9 -12  -6  319.40  110.10   1
  -9  12   6  386.00  110.40   1
   9  12   7   -0.00   11.30   1
  -9 -12  -7    4.50   11.30   1
   9 -12  -7   -0.00   11.40   1
  -9  12   7   20.10   11.50   1
   9  12   8   54.60   39.50   1
  -9 -12  -8  164.00   40.00   1
   9 -12  -8   36.30   39.40   1
  -9  12   8   56.10   39.50   1
   9  12   9    9.80   10.80   1
  -9 -12  -9    2.50   11.20   1
   9 -12  -9    2.00   10.70   1
  -9  12   9    2.80   10.70   1
   9  12  10  357.80   85.40   1
  -9 -12 -10  188.20   83.70   1
   9 -12 -10  189.80   83.10   1
  -9  12  10  236.40   83.30   1
   9  12  11   12.00   23.60   1
  -9 -12 -11   29.50   23.50   1
   9 -12 -11   18.70   23.10   1
  -9  12  11   19.20   23.10   1
   9  12  12   59.60   54.00   1
  -9 -12 -12  101.40   56.30   1
   9 -12 -12   97.30   53.80   1
  -9  12  12  138.00   54.00   1
   9  13   0   69.60   20.30   1
  -9 -13   0    1.80   19.80   1
   9 -13   0    7.20   20.30   1
  -9  13   0   -0.00   20.50   1
   9  13   1  590.60  129.60   1
  -9 -13  -1  535.90  129.10   1
   9 -13  -1  320.30  127.50   1
  -9  13   1  433.00  128.20   1
  -9  13  -1  489.90  136.50   1
   9 -13   1  793.70  142.80   1
  -9 -13   1  382.60  128.90   1
   9  13  -1  685.90  137.40   1
   9  13   2   87.80   44.10   1
  -9 -13  -2   58.60   43.90   1
   9 -13  -2   63.70   44.40   1
  -9  13   2   71.40   44.50   1
  -9 -13   2   68.00   44.50   1
   9  13   3 2868.60  528.00   1
  -9 -13  -3 2622.30  526.70   1
   9 -13  -3 3528.00  535.40   1
  -9  13   3 3177.00  533.20   1
   9  13   4   22.40   26.10   1
  -9 -13  -4   33.40   26.10   1
   9 -13  -4   14.70   26.20   1
  -9  13   4   24.40   26.30   1
   9  13   5 1849.90  332.70   1
  -9 -13  -5 1784.30  332.30   1
   9 -13  -5 1936.70  334.10   1
  -9  13   5 1358.90  330.50   1
   9  13   6   26.70   16.20   1
  -9 -13  -6   -0.00   16.10   1
   9 -13  -6   16.80   16.30   1
  -9  13   6    0.00   16.20   1
   9  13   7  207.40   75.70   1
  -9 -13  -7  156.00   75.40   1
   9 -13  -7  175.80   75.60   1
  -9  13   7  210.70   75.60   1
   9  13   8   19.50   19.30   1
  -9 -13  -8    8.00   19.20   1
   9 -13  -8   23.60   19.30   1
  -9  13   8    5.10   19.30   1
   9  13   9  632.20  106.00   1
  -9 -13  -9  358.20  103.60   1
   9 -13  -9  236.30  102.80   1
  -9  13   9  328.40  103.50   1
   9  13  10   38.00   26.40   1
  -9 -13 -10   23.40   26.60   1
   9 -13 -10   22.60   26.20   1
  -9  13  10   23.30   26.20   1
   9  13  11  230.40   70.40   1
  -9 -13 -11  147.40   69.40   1
   9 -13 -11  124.50   68.60   1
  -9  13  11  202.00   69.10   1
   9  14   0    7.50   22.60   1
  -9 -14   0   38.90   22.80   1
   9 -14   0   23.50   23.30   1
  -9  14   0   12.80   23.40   1
   9  14   1   32.90   28.60   1
  -9 -14  -1   21.70   28.60   1
   9 -14  -1   30.40   29.00   1
  -9  14   1   24.00   28.90   1
   9 -14   1   28.80   29.50   1
  -9 -14   1   48.70   29.00   1
   9  14   2   19.00   37.20   1
  -9 -14  -2  100.10   37.50   1
   9 -14  -2  213.50   39.30   1
  -9  14   2   40.20   37.60   1
   9  14   3   11.10   15.70   1
  -9 -14  -3    7.10   15.70   1
   9 -14  -3    7.00   17.20   1
  -9  14   3   12.50   17.20   1
   9  14   4  104.80   41.80   1
  -9 -14  -4   54.70   41.60   1
   9 -14  -4   46.80   41.80   1
  -9  14   4   43.90   41.90   1
   9  14   5    7.80    9.80   1
  -9 -14  -5   -0.00    9.80   1
   9 -14  -5   -0.20   10.10   1
  -9  14   5    5.40   10.10   1
   9  14   6    5.20   17.10   1
  -9 -14  -6   37.90   17.20   1
   9 -14  -6    2.60   17.30   1
  -9  14   6   -0.00   17.20   1
   9  14   7    7.00   17.10   1
  -9 -14  -7   16.40   17.10   1
   9 -14  -7    3.80   17.10   1
  -9  14   7   18.10   17.20   1
   9  14   8   21.30   20.90   1
  -9 -14  -8   20.90   21.00   1
   9 -14  -8    9.50   21.00   1
  -9  14   8   11.50   21.00   1
   9  14   9    2.20    5.70   1
  -9 -14  -9    1.30    5.60   1
   9 -14  -9    0.60    5.60   1
  -9  14   9   -0.00    5.60   1
   9  14  10   21.50   23.30   1
  -9 -14 -10   18.60   23.50   1
   9 -14 -10   10.80   23.30   1
  -9  14  10   41.20   23.40   1
   9  14  11   24.80   12.60   1
  -9 -14 -11   16.80   12.40   1
   9 -14 -11    0.00   11.60   1
  -9  14  11    5.80   11.60   1
   9  15   0   -0.00    7.80   1
  -9 -15   0    3.20    7.60   1
   9 -15   0   -0.30    9.80   1
  -9  15   0    4.60    9.70   1
   9  15   1   40.60   36.40   1
  -9 -15  -1   69.80   36.60   1
   9 -15  -1   70.50   37.00   1
  -9  15   1   18.70   36.60   1
   9  15   2   39.70   26.90   1
  -9 -15  -2   10.90   26.70   1
   9 -15  -2   63.60   27.70   1
  -9  15   2   30.00   27.30   1
   9  15   3  458.70  106.80   1
  -9 -15  -3  261.70  104.50   1
   9 -15  -3  275.30  105.00   1
  -9  15   3  743.30  110.90   1
   9  15   4    4.60   15.70   1
  -9 -15  -4    7.90   15.70   1
   9 -15  -4   32.70   16.50   1
  -9  15   4   41.70   17.30   1
   9  15   5   38.50   37.20   1
  -9 -15  -5   42.10   37.20   1
   9 -15  -5   83.40   37.50   1
  -9  15   5   89.90   37.50   1
   9  15   6   18.90   18.90   1
  -9 -15  -6   14.60   18.90   1
   9 -15  -6    7.50   19.10   1
  -9  15   6    3.50   19.10   1
   9  15   7   81.00   43.50   1
  -9 -15  -7   78.10   43.60   1
   9 -15  -7   40.90   43.50   1
  -9  15   7   81.50   43.60   1
   9  15   8   11.40   19.10   1
  -9 -15  -8   16.70   19.10   1
   9 -15  -8   24.50   19.20   1
  -9  15   8    4.60   19.20   1
   9  15   9   12.40   21.20   1
  -9 -15  -9   25.90   21.20   1
   9 -15  -9    6.00   21.20   1
  -9  15   9   34.20   21.40   1
   9  15  10   19.10   19.00   1
  -9 -15 -10   12.80   19.00   1
   9 -15 -10    9.80   19.00   1
  -9  15  10   11.90   19.00   1
  -9 -16   0   20.80   22.90   1
   9 -16   0   13.20   23.60   1
   9  16   1   33.50   24.90   1
  -9 -16  -1   10.70   24.60   1
   9 -16  -1   35.60   25.40   1
  -9  16   1  101.10   27.30   1
   9  16   2  222.60  100.60   1
  -9 -16  -2  366.70  102.00   1
   9 -16  -2  312.40  101.30   1
  -9  16   2  377.60  102.50   1
   9  16   3    3.70   10.70   1
  -9 -16  -3    3.60   10.70   1
   9 -16  -3   -0.00   12.00   1
  -9  16   3   10.10   12.10   1
   9  16   4   16.30   24.70   1
  -9 -16  -4   19.20   24.60   1
   9 -16  -4   77.40   25.90   1
  -9  16   4   44.40   25.80   1
   9  16   5   23.80   23.80   1
  -9 -16  -5   19.20   23.70   1
   9 -16  -5   16.20   24.00   1
  -9  16   5   20.20   24.20   1
   9  16   6   45.20   32.30   1
  -9 -16  -6   25.10   32.20   1
   9 -16  -6   68.80   32.50   1
  -9  16   6   40.90   32.30   1
   9  16   7   10.50   16.40   1
  -9 -16  -7    4.10   16.40   1
   9 -16  -7   11.30   16.60   1
  -9  16   7   29.90   16.60   1
   9  16   8   20.90   24.70   1
  -9 -16  -8   21.20   24.70   1
   9 -16  -8   19.50   24.80   1
  -9  16   8   30.40   24.80   1
   9  16   9    7.60   15.10   1
  -9 -16  -9   10.00   15.20   1
   9 -16  -9    6.70   15.20   1
  -9  16   9    8.80   15.20   1
  -9 -17  -1   59.80   23.80   1
   9 -17  -1    3.40   23.60   1
  -9  17   1    3.90   23.50   1
   9  17   2    2.60    9.20   1
  -9 -17  -2    4.50    9.10   1
   9 -17  -2   -0.00   10.10   1
  -9  17   2   -0.00   10.30   1
   9  17   3   32.40   32.50   1
  -9 -17  -3   48.00   32.50   1
   9 -17  -3   49.20   33.00   1
  -9  17   3   20.90   32.90   1
   9  17   4   -0.00   11.60   1
  -9 -17  -4    4.90   11.50   1
   9 -17  -4   -0.00   12.80   1
  -9  17   4   30.30   13.20   1
   9  17   5   76.80   40.00   1
  -9 -17  -5   39.80   39.80   1
   9 -17  -5   90.00   40.40   1
  -9  17   5  146.10   41.20   1
   9  17   6    1.80   13.70   1
  -9 -17  -6    8.70   13.70   1
   9 -17  -6   18.30   13.90   1
  -9  17   6    7.30   14.10   1
  -9 -17  -7   11.90   16.90   1
   9 -17  -7   14.60   17.10   1
  -9  17   7    3.70   17.00   1
   9  17   8   10.20   12.50   1
  -9 -17  -8    3.50   12.50   1
   9 -17  -8    5.50   12.60   1
  -9  17   8   -0.00   12.70   1
   9  17   9    7.70   12.20   1
  -9 -17  -9    2.70   12.20   1
   9 -17  -9    4.70   12.30   1
  -9  17   9    7.20   12.30   1
   9 -18  -1   -0.00    6.90   1
   9  18   2  309.80   81.60   1
  -9 -18  -2  169.00   70.20   1
   9 -18  -2  135.80   69.30   1
  -9  18   2  146.40   70.10   1
   9  18   3    8.40   19.50   1
  -9 -18  -3   10.50   19.50   1
   9 -18  -3   26.60   20.20   1
  -9  18   3   57.20   20.60   1
   9  18   4  684.30  156.60   1
  -9 -18  -4  499.70  152.00   1
   9 -18  -4  511.80  151.80   1
  -9  18   4  664.10  154.90   1
   9  18   5    3.40   21.10   1
  -9 -18  -5   24.80   21.00   1
   9 -18  -5   24.80   21.80   1
  -9  18   5   11.80   21.80   1
   9  18   6   60.20   48.40   1
  -9 -18  -6  141.00   48.80   1
   9 -18  -6   85.10   48.60   1
  -9  18   6   87.10   48.90   1
   9  18   7    1.20   10.70   1
  -9 -18  -7    9.30   10.70   1
   9 -18  -7   -0.00   10.90   1
  -9  18   7    4.80   10.90   1
   9  18   8   83.10   18.00   1
  -9 -18  -8    2.50   17.50   1
   9 -18  -8   -0.00   17.60   1
  -9  18   8   41.30   17.80   1
   9 -19  -1   21.80   25.50   1
  -9 -19  -2    3.90   13.20   1
   9 -19  -2   24.20   14.40   1
  -9  19   2   -0.00   14.20   1
   9  19   3   15.50   22.40   1
  -9 -19  -3   79.20   23.70   1
   9 -19  -3   17.00   22.70   1
  -9  19   3   -0.00   22.80   1
   9  19   4    7.10   11.90   1
  -9 -19  -4    4.00   11.90   1
   9 -19  -4    5.60   12.90   1
  -9  19   4   -0.00   13.00   1
   9  19   5    6.40   18.10   1
  -9 -19  -5    9.60   18.20   1
   9 -19  -5   17.60   19.00   1
  -9  19   5  101.10   20.70   1
   9  19   6   -0.00    8.20   1
  -9 -19  -6    2.70    8.00   1
   9 -19  -6    9.10    9.30   1
  -9  19   6   -0.00   10.50   1
   9  19   7   19.20   21.40   1
  -9 -19  -7   20.60   21.40   1
   9 -19  -7    5.40   21.50   1
  -9  19   7   16.80   21.70   1
   9 -20  -2   95.70   54.50   1
  -9 -20  -3    6.20   16.70   1
   9 -20  -3   15.30   17.40   1
  -9  20   3   20.20   17.60   1
   9  20   4   31.20   25.10   1
  -9 -20  -4   18.10   24.80   1
   9 -20  -4   39.20   25.40   1
  -9  20   4    9.90   25.20   1
   9  20   5   15.40   18.00   1
  -9 -20  -5    6.60   18.00   1
   9 -20  -5   19.00   18.80   1
  -9  20   5   14.60   18.80   1
   9 -21  -2   -0.00    5.90   1
   9 -21  -3   18.60   16.60   1
  -9  21   3    0.00   16.50   1
  10   0   0 7381.70 1183.60   1
 -10   0   0 7112.90 1178.40   1
  10   0   1   45.70   34.90   1
 -10   0  -1   69.70   34.90   1
  10   0  -1   34.10   34.80   1
 -10   0   1   34.70   34.80   1
  10   0   2 4954.30  844.70   1
 -10   0  -2 4534.20  842.70   1
  10   0  -2 5268.10  842.20   1
 -10   0   2 5423.20  843.80   1
  10   0   3  167.00   62.50   1
 -10   0  -3  161.90   62.50   1
  10   0  -3  129.10   62.30   1
 -10   0   3  104.60   62.30   1
  10   0   4  265.70  120.20   1
 -10   0  -4  483.80  121.10   1
  10   0  -4  517.70  120.70   1
 -10   0   4  491.30  120.50   1
  10   0   5  102.90   54.50   1
 -10   0  -5   89.70   54.40   1
  10   0  -5  132.50   54.10   1
 -10   0   5   82.30   54.00   1
  10   0   6   82.10   50.80   1
 -10   0  -6  111.40   50.90   1
  10   0  -6  197.70   50.80   1
 -10   0   6   61.50   50.40   1
  10   0   7   61.00   45.60   1
 -10   0  -7   62.60   45.70   1
  10   0  -7   97.80   45.40   1
 -10   0   7   63.90   45.20   1
  10   0   8 1614.70  382.00   1
  10   0  -8 2914.10  369.50   1
 -10   0   8 1505.60  351.10   1
  10   0  -9   54.20   38.70   1
 -10   0   9   51.30   38.60   1
  10   0 -10  891.50  199.90   1
 -10   0  10  764.10  196.00   1
  10   0 -11   28.00   26.70   1
 -10   0  11   23.40   26.60   1
 -10   0  12   11.40   18.00   1
  10   1   0   89.40   51.00   1
 -10  -1   0   81.50   51.00   1
  10  -1   0   88.30   51.00   1
 -10   1   0  103.40   51.00   1
  10   1   1  287.30   99.30   1
 -10  -1  -1  313.70   99.30   1
  10  -1  -1  279.70   99.30   1
 -10   1   1  288.10   99.40   1
 -10   1  -1  346.20   99.40   1
  10  -1   1  373.40   99.50   1
 -10  -1   1  252.90   99.20   1
  10   1  -1  269.40   99.20   1
  10   1   2   23.10   25.50   1
 -10  -1  -2   28.20   25.50   1
  10  -1  -2   31.20   25.50   1
 -10   1   2   47.10   25.50   1
 -10   1  -2   40.90   25.60   1
  10  -1   2   27.60   25.60   1
 -10  -1   2    6.30   25.40   1
  10   1  -2    9.70   25.40   1
  10   1   3   25.40   25.70   1
 -10  -1  -3   32.30   25.70   1
  10  -1  -3   23.50   25.60   1
 -10   1   3   34.30   25.60   1
 -10   1  -3   19.60   26.00   1
  10  -1   3   34.50   26.00   1
 -10  -1   3   18.90   25.60   1
  10   1  -3   13.30   25.60   1
  10   1   4   15.50   19.50   1
 -10  -1  -4   -0.00   19.50   1
  10  -1  -4   16.30   19.00   1
 -10   1   4   27.00   19.00   1
 -10   1  -4    5.80   19.90   1
  10  -1   4   -0.00   20.00   1
 -10  -1   4    5.40   19.00   1
  10   1  -4   11.10   19.00   1
  10   1   5   25.50   35.50   1
 -10  -1  -5   26.90   35.30   1
  10  -1  -5   53.60   35.00   1
 -10   1   5   67.70   35.00   1
 -10   1  -5   32.60   35.30   1
  10  -1   5   26.60   35.40   1
 -10  -1   5   39.90   34.90   1
  10   1  -5   39.80   34.90   1
  10   1   6    9.20   19.00   1
 -10  -1  -6    9.30   18.70   1
  10  -1  -6   17.20   18.10   1
 -10   1   6   19.90   18.20   1
 -10   1  -6    4.40   18.60   1
  10  -1   6    2.70   18.60   1
 -10  -1   6   11.30   18.10   1
  10   1  -6    5.50   18.20   1
  10   1   7   21.10   35.60   1
 -10  -1  -7   50.80   35.80   1
  10  -1  -7   40.60   35.40   1
 -10   1   7   56.80   35.40   1
 -10   1  -7   63.30   36.60   1
  10  -1   7  104.20   37.00   1
 -10  -1   7   25.40   35.60   1
  10   1  -7   49.90   35.70   1
 -10  -1  -8   44.00   25.60   1
  10  -1  -8   22.70   24.60   1
 -10   1   8   14.80   24.40   1
 -10  -1   8    7.60   24.30   1
  10   1  -8   41.20   24.50   1
  10  -1  -9  224.10   62.50   1
 -10   1   9  207.60   62.30   1
 -10  -1   9   94.10   61.50   1
  10   1  -9  102.50   61.60   1
  10  -1 -10   22.20   22.20   1
 -10   1  10   16.10   22.10   1
 -10  -1  10   13.10   22.10   1
  10   1 -10   21.00   22.20   1
  10  -1 -11   35.90   22.00   1
 -10   1  11   11.10   21.80   1
 -10  -1  11    9.00   21.70   1
  10   1 -11   25.60   22.10   1
  10  -1 -12    2.70   14.40   1
 -10   1  12   11.60   14.40   1
 -10   1  13   10.70   17.60   1
  10   2   0  879.20  204.90   1
 -10  -2   0  778.40  204.70   1
  10  -2   0 1115.00  205.40   1
 -10   2   0  870.80  204.70   1
  10   2   1  122.20   59.40   1
 -10  -2  -1  124.00   59.40   1
  10  -2  -1  108.50   59.40   1
 -10   2   1  111.60   59.40   1
 -10   2  -1  108.00   59.40   1
  10  -2   1  124.00   59.50   1
 -10  -2   1  139.20   59.40   1
  10   2  -1  117.60   59.30   1
  10   2   2  197.70   40.90   1
 -10  -2  -2  103.10   40.60   1
  10  -2  -2   98.40   40.60   1
 -10   2   2   75.40   40.50   1
 -10   2  -2   24.10   40.50   1
  10  -2   2   20.30   40.50   1
 -10  -2   2   42.50   40.50   1
  10   2  -2   41.10   40.50   1
  10   2   3   56.90   28.10   1
  10  -2  -3    8.70   27.90   1
 -10   2   3   13.50   27.90   1
 -10   2  -3   28.40   28.60   1
  10  -2   3   20.90   28.30   1
 -10  -2   3   54.20   28.00   1
  10   2  -3   46.20   27.90   1
  10   2   4   49.90   50.10   1
 -10  -2  -4  120.60   50.30   1
  10  -2  -4  143.70   50.20   1
 -10   2   4   70.10   50.10   1
 -10   2  -4  383.20   52.80   1
 -10  -2   4   78.90   50.10   1
  10   2  -4   89.00   50.10   1
  10   2   5    3.60   29.50   1
 -10  -2  -5   48.70   30.00   1
  10  -2  -5   39.60   29.30   1
 -10   2   5   38.40   29.30   1
 -10   2  -5   71.70   29.90   1
  10  -2   5  109.80   30.20   1
 -10  -2   5   12.30   29.20   1
  10   2  -5   33.60   29.30   1
  10   2   6   95.50   22.90   1
 -10  -2  -6   72.50   22.70   1
  10  -2  -6   18.00   21.50   1
 -10   2   6    8.40   21.50   1
 -10   2  -6    7.40   22.20   1
  10  -2   6   21.20   22.10   1
 -10  -2   6   13.40   21.60   1
  10   2  -6    7.00   21.70   1
  10   2   7   47.20   47.20   1
 -10  -2  -7  145.60   47.80   1
  10  -2  -7   92.00   47.00   1
 -10   2   7   70.30   47.00   1
  10  -2   7   73.00   48.00   1
 -10  -2   7   63.50   47.10   1
  10   2  -7   83.00   47.20   1
  10   2   8  123.40   58.50   1
 -10  -2  -8  166.40   59.40   1
  10  -2  -8  150.20   58.10   1
 -10   2   8  112.30   57.90   1
 -10  -2   8   72.70   57.90   1
  10   2  -8  149.20   58.30   1
  10   2   9    7.40   26.40   1
  10  -2  -9    5.50   25.70   1
 -10   2   9   39.10   25.80   1
 -10  -2   9   33.40   25.70   1
  10   2  -9   23.40   25.70   1
  10  -2 -10  306.70   66.50   1
 -10   2  10  100.30   64.20   1
 -10  -2  10  138.10   65.00   1
  10   2 -10  208.20   67.50   1
  10  -2 -11   23.20   24.40   1
 -10   2  11   15.40   24.30   1
 -10  -2  11   34.40   24.90   1
  10  -2 -12    5.70   21.30   1
 -10   2  12   81.50   22.60   1
  10  -2 -13   17.30   18.70   1
 -10   2  13    9.70   18.40   1
  10   3   0  198.50   71.10   1
 -10  -3   0  135.40   71.00   1
  10  -3   0  199.90   71.20   1
 -10   3   0  153.50   71.00   1
  10   3   1  220.30   74.10   1
 -10  -3  -1  159.70   74.00   1
  10  -3  -1  139.20   73.90   1
 -10   3   1  146.40   73.90   1
 -10   3  -1  168.80   74.00   1
  10  -3   1  172.60   74.00   1
 -10  -3   1  265.00   74.20   1
  10   3  -1  230.30   74.10   1
  10   3   2   -0.00   18.60   1
 -10  -3  -2   15.10   18.60   1
  10  -3  -2   11.60   18.60   1
 -10   3   2   18.60   18.70   1
 -10   3  -2   20.90   19.30   1
  10  -3   2   25.40   19.20   1
 -10  -3   2   12.70   18.60   1
  10   3  -2   17.50   18.60   1
  10   3   3  130.70   58.50   1
 -10  -3  -3   71.50   58.40   1
  10  -3  -3  130.00   58.40   1
 -10   3   3  126.40   58.40   1
 -10   3  -3   79.90   58.80   1
  10  -3   3  192.60   59.30   1
 -10  -3   3  122.30   58.40   1
  10   3  -3  138.40   58.40   1
  10   3   4   25.50   38.80   1
 -10  -3  -4   42.60   38.80   1
  10  -3  -4  121.60   39.00   1
 -10   3   4   26.40   38.80   1
 -10   3  -4   53.50   39.30   1
  10  -3   4   73.20   39.40   1
 -10  -3   4   87.60   38.90   1
  10   3  -4  105.10   39.00   1
  10   3   5  696.40  137.90   1
 -10  -3  -5  870.00  139.20   1
  10  -3  -5  500.40  137.10   1
 -10   3   5  606.20  137.40   1
 -10   3  -5  401.90  137.50   1
  10  -3   5  294.40  136.90   1
 -10  -3   5  422.40  137.10   1
  10   3  -5  641.00  138.10   1
  10   3   6   71.70   39.10   1
 -10  -3  -6   75.30   39.00   1
  10  -3  -6   60.10   38.60   1
 -10   3   6   38.60   38.50   1
 -10   3  -6   45.30   39.20   1
  10  -3   6   42.00   39.10   1
 -10  -3   6   58.20   38.80   1
  10   3  -6   55.40   38.80   1
  10   3   7  222.70   42.60   1
 -10  -3  -7   38.50   41.20   1
  10  -3  -7   44.80   40.90   1
 -10   3   7  211.20   41.50   1
 -10  -3   7   71.30   41.10   1
  10   3  -7   25.10   40.90   1
  10   3   8   -0.00   14.10   1
 -10  -3  -8   12.80   14.00   1
  10  -3  -8    8.30   13.20   1
 -10   3   8    4.30   13.20   1
  10   3   9  115.80   63.00   1
 -10  -3  -9  169.00   65.20   1
  10  -3  -9  126.30   62.20   1
 -10   3   9  137.40   62.10   1
 -10  -3   9  110.80   62.30   1
  10   3  -9  136.20   62.90   1
  10  -3 -10    9.20   10.50   1
 -10   3  10    2.30   10.50   1
 -10  -3  10   -0.00   10.20   1
  10  -3 -11    7.50   14.20   1
 -10   3  11    6.60   14.10   1
  10  -3 -12   22.90   30.20   1
 -10   3  12   51.50   30.40   1
  10  -3 -13   -0.00   10.10   1
 -10   3  13    7.20   10.10   1
  10   4   0  563.10  109.40   1
 -10  -4   0  439.30  108.90   1
  10  -4   0  309.60  108.70   1
 -10   4   0  250.10  108.50   1
  10   4   1   -0.00   11.80   1
 -10  -4  -1    4.80   11.80   1
  10  -4  -1   14.90   12.00   1
 -10   4   1   10.00   11.90   1
 -10   4  -1    0.90   12.10   1
  10  -4   1   -0.00   12.10   1
 -10  -4   1    3.70   11.80   1
  10   4  -1    6.80   11.80   1
  10   4   2  124.20   56.10   1
 -10  -4  -2  111.60   56.10   1
  10  -4  -2  112.00   56.00   1
 -10   4   2  105.00   56.00   1
 -10   4  -2  124.90   56.50   1
  10  -4   2   86.20   56.20   1
 -10  -4   2   96.40   56.00   1
  10   4  -2  106.90   56.00   1
  10   4   3   40.40   26.60   1
 -10  -4  -3   26.10   26.50   1
  10  -4  -3   18.50   26.50   1
 -10   4   3   30.80   26.50   1
 -10   4  -3   29.50   27.30   1
  10  -4   3   28.00   27.30   1
 -10  -4   3   16.20   26.50   1
  10   4  -3   24.20   26.50   1
  10   4   4    5.70   27.70   1
 -10  -4  -4  183.50   28.40   1
  10  -4  -4   12.30   27.60   1
 -10   4   4   11.00   27.60   1
 -10   4  -4   27.70   28.10   1
  10  -4   4    4.70   28.10   1
 -10  -4   4   70.20   27.80   1
  10   4  -4   63.70   27.80   1
  10   4   5   14.30   19.80   1
 -10  -4  -5   15.60   19.80   1
  10  -4  -5   18.40   19.70   1
 -10   4   5   14.70   19.70   1
 -10   4  -5   23.10   20.50   1
  10  -4   5   10.20   20.30   1
 -10  -4   5   -0.00   19.90   1
  10   4  -5   13.70   20.10   1
  10   4   6    6.80   24.20   1
 -10  -4  -6   13.10   24.50   1
  10  -4  -6   38.20   24.00   1
 -10   4   6   12.00   24.00   1
 -10   4  -6   27.50   25.30   1
  10  -4   6    5.30   24.90   1
 -10  -4   6   17.10   24.10   1
  10   4  -6   42.20   24.30   1
  10   4   7   61.30   19.80   1
 -10  -4  -7    6.60   19.20   1
  10  -4  -7    9.90   18.50   1
 -10   4   7   14.40   18.50   1
 -10  -4   7    7.50   18.70   1
  10   4  -7   10.90   18.70   1
  10   4   8   76.80   28.00   1
 -10  -4  -8   -0.00   27.50   1
  10  -4  -8   36.00   27.20   1
 -10   4   8   35.20   27.20   1
 -10  -4   8   16.20   27.30   1
  10   4  -8   15.40   27.30   1
  10   4   9   12.10   17.10   1
 -10  -4  -9   17.30   17.40   1
  10  -4  -9    3.30   16.20   1
 -10   4   9    4.00   16.20   1
 -10  -4   9   25.40   16.60   1
  10   4  -9   26.10   16.90   1
  10   4  10   20.80   28.10   1
  10  -4 -10   27.80   27.70   1
 -10   4  10   29.20   27.60   1
  10  -4 -11   -0.00    3.60   1
 -10   4  11   -0.00    3.60   1
  10  -4 -12    9.20   11.50   1
 -10   4  12   -0.00   11.40   1
  10  -4 -13   14.10   13.20   1
 -10   4  13   -0.00   13.00   1
  10  -4 -14    0.00    3.80   1
  10   5   0    7.90   22.70   1
 -10  -5   0   29.80   22.80   1
  10  -5   0   25.80   22.80   1
 -10   5   0   15.80   22.80   1
  10   5   1 1311.40  254.50   1
 -10  -5  -1 1487.10  255.70   1
  10  -5  -1 1498.80  255.40   1
 -10   5   1 1090.20  253.70   1
 -10   5  -1 1402.70  255.50   1
  10  -5   1 1547.30  255.80   1
 -10  -5   1 1251.60  254.10   1
  10   5  -1  829.20  252.90   1
  10   5   2   22.20   28.50   1
 -10  -5  -2    5.10   28.50   1
  10  -5  -2   27.40   28.50   1
 -10   5   2   45.70   28.60   1
 -10   5  -2    6.60   29.10   1
  10  -5   2   29.80   29.30   1
 -10  -5   2   94.70   28.70   1
  10   5  -2   42.70   28.60   1
  10   5   3   85.40   54.40   1
 -10  -5  -3   96.80   54.40   1
  10  -5  -3  124.90   54.60   1
 -10   5   3   84.30   54.50   1
 -10   5  -3   72.20   54.70   1
  10  -5   3   77.10   54.80   1
 -10  -5   3  140.10   54.50   1
  10   5  -3  130.20   54.50   1
  10   5   4   44.90   25.70   1
 -10  -5  -4    7.70   25.60   1
  10  -5  -4   78.20   25.80   1
 -10   5   4   20.10   25.60   1
 -10   5  -4   12.40   26.10   1
  10  -5   4    9.80   26.10   1
 -10  -5   4   15.30   25.70   1
  10   5  -4   17.80   25.90   1
  10   5   5   28.90   24.70   1
 -10  -5  -5    7.40   24.60   1
  10  -5  -5   26.20   24.70   1
 -10   5   5   55.10   24.70   1
 -10   5  -5   22.30   25.50   1
  10  -5   5   15.50   25.40   1
 -10  -5   5    6.80   24.80   1
  10   5  -5   12.40   24.80   1
  10   5   6   10.30   21.00   1
 -10  -5  -6   19.90   21.10   1
  10  -5  -6   13.80   20.70   1
 -10   5   6   42.40   20.80   1
 -10  -5   6    4.90   20.80   1
  10   5  -6    0.00   20.80   1
  10   5   7  142.40   62.20   1
 -10  -5  -7   78.10   61.70   1
  10  -5  -7  117.30   61.50   1
 -10   5   7  158.20   61.60   1
 -10  -5   7  133.40   61.90   1
  10   5  -7  158.40   62.20   1
  10   5   8   47.90   34.00   1
 -10  -5  -8  103.50   34.50   1
  10  -5  -8   24.70   33.50   1
 -10   5   8   58.40   33.60   1
 -10  -5   8   31.50   33.60   1
  10   5  -8   38.30   33.80   1
  10   5   9 1737.30  346.70   1
 -10  -5  -9 1637.00  349.00   1
  10  -5  -9 1962.70  339.90   1
 -10   5   9 1616.30  336.10   1
 -10  -5   9 1336.60  372.00   1
  10   5  10   27.20   27.10   1
  10  -5 -10   18.80   26.50   1
 -10   5  10   28.30   26.40   1
  10  -5 -11   48.80   42.40   1
 -10   5  11   79.50   42.50   1
  10  -5 -12    5.60   23.40   1
 -10   5  12   90.50   24.50   1
  10  -5 -13   39.40   30.20   1
 -10   5  13   27.30   30.10   1
  10   6   0  317.80  111.80   1
 -10  -6   0  356.20  111.90   1
  10  -6   0  376.90  112.10   1
 -10   6   0  415.80  112.10   1
  10   6   1   22.30   22.60   1
 -10  -6  -1   13.40   22.60   1
  10  -6  -1   12.70   22.70   1
 -10   6   1   13.00   22.70   1
 -10   6  -1   30.50   23.50   1
  10  -6   1    8.00   22.90   1
 -10  -6   1   14.20   22.60   1
  10   6  -1   42.80   22.70   1
  10   6   2   53.40   30.50   1
 -10  -6  -2   29.40   30.40   1
  10  -6  -2   10.60   30.40   1
 -10   6   2    3.60   30.40   1
 -10   6  -2   81.10   31.40   1
  10  -6   2   29.70   31.10   1
 -10  -6   2   52.00   30.50   1
  10   6  -2  120.10   30.70   1
  10   6   3    3.90    9.70   1
 -10  -6  -3    3.50    9.70   1
  10  -6  -3   -0.00    9.80   1
 -10   6   3   -0.00    9.70   1
 -10   6  -3   12.70   11.00   1
  10  -6   3    8.20   11.10   1
 -10  -6   3    4.40    9.70   1
  10   6  -3    7.20    9.90   1
  10   6   4   26.90   27.40   1
 -10  -6  -4   29.70   27.40   1
  10  -6  -4   29.80   27.40   1
 -10   6   4   30.20   27.40   1
 -10   6  -4   38.40   28.10   1
  10  -6   4   39.30   28.10   1
 -10  -6   4   10.50   27.60   1
  10   6  -4   17.30   27.70   1
  10   6   5   14.70   19.40   1
 -10  -6  -5   10.70   19.40   1
  10  -6  -5   -0.00   19.30   1
 -10   6   5   36.90   19.50   1
 -10   6  -5   14.60   20.50   1
  10  -6   5   -0.00   20.50   1
 -10  -6   5   17.90   19.50   1
  10   6  -5   19.40   19.50   1
  10   6   6   17.10   27.40   1
 -10  -6  -6   41.70   27.60   1
  10  -6  -6   21.00   27.40   1
 -10   6   6   15.60   27.40   1
 -10  -6   6   64.20   27.70   1
  10   6  -6   77.70   27.90   1
  10   6   7    4.30   15.80   1
 -10  -6  -7   13.00   16.60   1
  10  -6  -7   15.70   15.50   1
 -10   6   7    5.00   15.50   1
 -10  -6   7    2.20   15.60   1
  10   6  -7   11.00   15.70   1
  10   6   8  146.60   38.20   1
 -10  -6  -8   22.00   37.10   1
  10  -6  -8   50.30   36.80   1
 -10   6   8   55.40   36.90   1
 -10  -6   8   28.50   37.10   1
  10   6   9   13.80   26.60   1
 -10  -6  -9    7.70   26.40   1
  10  -6  -9   44.00   26.20   1
 -10   6   9   21.30   26.10   1
  10   6  10  119.80   52.30   1
 -10  -6 -10  152.00   54.00   1
  10  -6 -10  125.50   51.50   1
 -10   6  10   69.60   51.10   1
  10  -6 -11    3.20   10.40   1
 -10   6  11    3.30    9.80   1
  10  -6 -12    8.20   15.20   1
 -10   6  12    7.80   15.30   1
  10  -6 -13   -0.00   12.40   1
 -10   6  13   12.00   12.50   1
  10   7   0   63.90   36.60   1
 -10  -7   0   36.60   36.50   1
  10  -7   0   35.30   36.80   1
 -10   7   0   61.80   36.90   1
  10   7   1   48.80   33.10   1
 -10  -7  -1   47.70   33.10   1
  10  -7  -1   19.50   33.10   1
 -10   7   1   20.50   33.10   1
 -10   7  -1   28.10   33.80   1
  10  -7   1   30.30   33.80   1
 -10  -7   1   76.10   33.20   1
  10   7  -1   35.80   33.10   1
  10   7   2   43.50   28.20   1
 -10  -7  -2   56.70   28.30   1
  10  -7  -2   37.00   28.30   1
 -10   7   2   29.90   28.30   1
 -10   7  -2    9.90   28.70   1
  10  -7   2   12.10   28.70   1
 -10  -7   2   15.80   28.20   1
  10   7  -2   17.40   28.20   1
  10   7   3   33.60   35.00   1
 -10  -7  -3   40.80   35.00   1
  10  -7  -3   66.70   35.10   1
 -10   7   3   35.60   35.00   1
 -10   7  -3   98.40   35.70   1
  10  -7   3   23.50   35.30   1
 -10  -7   3   32.10   35.10   1
  10   7  -3  122.40   35.70   1
  10   7   4    5.30   13.40   1
 -10  -7  -4    8.20   13.40   1
  10  -7  -4   -0.00   13.40   1
 -10   7   4    4.00   13.50   1
 -10   7  -4    0.00   15.10   1
  10  -7   4   13.20   14.90   1
 -10  -7   4    7.80   13.70   1
  10   7  -4   29.90   13.90   1
  10   7   5   52.30   18.70   1
 -10  -7  -5    6.20   18.50   1
  10  -7  -5   13.90   18.50   1
 -10   7   5    0.90   18.50   1
  10  -7   5   20.60   19.90   1
 -10  -7   5    6.90   18.60   1
  10   7  -5   21.00   18.70   1
  10   7   6   45.50   26.80   1
 -10  -7  -6   14.90   26.70   1
  10  -7  -6   39.90   26.80   1
 -10   7   6   35.10   26.70   1
 -10  -7   6    9.80   26.80   1
  10   7  -6    9.10   26.80   1
  10   7   7   57.20   40.20   1
 -10  -7  -7   87.90   40.40   1
  10  -7  -7   50.00   40.00   1
 -10   7   7   75.10   40.10   1
 -10  -7   7   29.90   40.20   1
  10   7  -7   50.10   40.60   1
  10   7   8   29.80   23.00   1
 -10  -7  -8   24.00   22.40   1
  10  -7  -8   23.10   21.80   1
 -10   7   8    9.50   21.80   1
  10   7   9   77.20   34.50   1
 -10  -7  -9   47.20   34.10   1
  10  -7  -9   43.70   33.70   1
 -10   7   9   31.60   33.70   1
  10   7  10   12.10   18.90   1
 -10  -7 -10    7.90   18.90   1
  10  -7 -10   17.70   18.40   1
 -10   7  10    9.00   18.30   1
  10   7  11    9.80   21.20   1
  10  -7 -11   12.30   20.60   1
 -10   7  11   18.40   20.60   1
  10  -7 -12    4.50   11.70   1
 -10   7  12    4.20   11.30   1
  10  -7 -13   15.90   15.60   1
 -10   7  13    1.30   15.50   1
  10   8   0   30.20   24.50   1
 -10  -8   0   15.20   24.50   1
  10  -8   0    2.00   24.80   1
 -10   8   0   62.10   25.30   1
  10   8   1   39.40   37.50   1
 -10  -8  -1   54.40   37.60   1
  10  -8  -1   82.20   37.80   1
 -10   8   1   81.80   37.80   1
 -10   8  -1  134.30   38.60   1
  10  -8   1   26.20   37.90   1
 -10  -8   1   33.70   37.50   1
  10   8  -1   53.50   37.60   1
  10   8   2   68.70   31.30   1
 -10  -8  -2   26.50   31.20   1
  10  -8  -2   51.30   31.30   1
 -10   8   2   15.40   31.30   1
 -10   8  -2   99.50   32.00   1
  10  -8   2    9.00   31.70   1
 -10  -8   2   21.00   31.30   1
  10   8  -2   43.00   31.40   1
  10   8   3    5.40   18.80   1
 -10  -8  -3   16.30   18.80   1
  10  -8  -3   24.70   18.90   1
 -10   8   3   23.40   18.90   1
 -10   8  -3    7.60   19.60   1
  10  -8   3   12.80   19.50   1
 -10  -8   3    4.20   19.10   1
  10   8  -3   -0.00   19.10   1
  10   8   4  378.30   99.00   1
 -10  -8  -4  381.50   99.20   1
  10  -8  -4  526.30   99.60   1
 -10   8   4  305.60   98.60   1
 -10   8  -4  262.40  101.20   1
  10  -8   4  203.90   99.60   1
 -10  -8   4  167.30   98.40   1
  10   8  -4  338.00   99.40   1
  10   8   5   40.10   34.50   1
 -10  -8  -5   25.30   34.50   1
  10  -8  -5   46.70   34.60   1
 -10   8   5   43.30   34.50   1
 -10  -8   5  115.30   35.20   1
  10   8  -5   98.30   35.20   1
  10   8   6  548.80  119.00   1
 -10  -8  -6  413.60  118.60   1
  10  -8  -6  466.50  118.90   1
 -10   8   6  283.20  118.10   1
 -10  -8   6  502.00  123.90   1
  10   8  -6  576.00  128.80   1
  10   8   7   16.60   27.70   1
 -10  -8  -7   21.60   27.70   1
  10  -8  -7   16.50   27.60   1
 -10   8   7  114.00   28.00   1
  10   8   8   62.00   62.50   1
 -10  -8  -8  186.00   63.40   1
  10  -8  -8  140.30   62.50   1
 -10   8   8  224.40   62.90   1
  10   8   9   48.20   26.90   1
 -10  -8  -9   -0.00   26.50   1
  10  -8  -9   52.70   26.20   1
 -10   8   9   14.10   26.10   1
  10   8  10   48.80   24.30   1
 -10  -8 -10   -0.20   23.80   1
  10  -8 -10    6.40   23.60   1
 -10   8  10   64.50   23.80   1
  10   8  11    9.90   21.50   1
 -10  -8 -11   -0.00   21.60   1
  10  -8 -11   18.80   21.10   1
 -10   8  11   18.70   21.00   1
  10  -8 -12   17.70   17.10   1
 -10   8  12    6.90   16.80   1
  10  -8 -13   -0.00    4.40   1
  10   9   0   -0.00   10.60   1
 -10  -9   0    7.10   10.70   1
  10  -9   0    6.50   12.70   1
 -10   9   0   12.70   12.50   1
  10   9   1    8.90   25.10   1
 -10  -9  -1   62.70   25.20   1
  10  -9  -1   36.70   25.50   1
 -10   9   1   27.00   25.60   1
 -10   9  -1   33.50   25.90   1
  10  -9   1   35.00   25.70   1
 -10  -9   1    4.10   25.10   1
  10   9  -1   57.90   25.30   1
  10   9   2    5.20   14.00   1
 -10  -9  -2    8.00   14.00   1
  10  -9  -2   11.80   14.20   1
 -10   9   2    8.20   14.20   1
 -10   9  -2    7.80   14.80   1
  10  -9   2    9.50   14.80   1
 -10  -9   2    5.40   14.40   1
  10   9  -2   -0.00   14.50   1
  10   9   3   45.30   37.30   1
 -10  -9  -3   69.00   37.30   1
  10  -9  -3   50.20   37.40   1
 -10   9   3   25.60   37.30   1
 -10   9  -3   88.80   38.50   1
  10  -9   3  153.20   39.00   1
 -10  -9   3   38.80   37.40   1
  10   9  -3   87.10   37.60   1
  10   9   4   15.60   30.40   1
 -10  -9  -4   35.70   30.40   1
  10  -9  -4   48.00   30.50   1
 -10   9   4   43.70   30.50   1
  10  -9   4    8.20   31.20   1
 -10  -9   4   59.70   30.70   1
  10   9  -4   37.50   30.60   1
  10   9   5   22.00   19.90   1
 -10  -9  -5   13.90   19.90   1
  10  -9  -5   10.10   19.90   1
 -10   9   5   21.50   19.90   1
 -10  -9   5    3.90   19.90   1
  10   9  -5   12.30   20.10   1
  10   9   6   23.30   16.40   1
 -10  -9  -6    1.90   16.40   1
  10  -9  -6    8.10   16.40   1
 -10   9   6   12.40   16.40   1
 -10  -9   6    3.10   16.70   1
  10   9   7   22.30   19.70   1
 -10  -9  -7   12.30   19.70   1
  10  -9  -7    6.90   19.70   1
 -10   9   7   17.20   19.70   1
  10   9   8   13.80   25.80   1
 -10  -9  -8   33.50   26.00   1
  10  -9  -8   33.10   25.70   1
 -10   9   8   20.10   25.70   1
  10   9   9  120.40   51.20   1
 -10  -9  -9  118.20   51.00   1
  10  -9  -9   68.40   50.30   1
 -10   9   9  102.90   50.50   1
  10   9  10   -0.00   14.00   1
 -10  -9 -10   10.20   13.70   1
  10  -9 -10    6.20   13.10   1
 -10   9  10    6.20   13.10   1
  10   9  11   29.50   34.30   1
 -10  -9 -11   69.10   35.10   1
  10  -9 -11   45.90   34.00   1
 -10   9  11   38.40   34.00   1
  10   9  12   -0.00    8.60   1
  10  -9 -12    5.10    7.40   1
 -10   9  12    0.00    7.20   1
  10  10   0 2479.60  376.20   1
 -10 -10   0 1876.90  370.70   1
  10 -10   0 1710.50  372.00   1
 -10  10   0 1899.20  373.70   1
  10  10   1    8.50   18.30   1
 -10 -10  -1   27.20   18.30   1
  10 -10  -1   -0.00   18.60   1
 -10  10   1   13.20   19.40   1
 -10  10  -1   19.70   19.00   1
 -10 -10   1    2.50   18.40   1
  10  10  -1   19.70   18.60   1
  10  10   2  152.00   30.00   1
 -10 -10  -2   29.40   29.50   1
  10 -10  -2   12.30   29.60   1
 -10  10   2    9.50   29.70   1
 -10  10  -2   46.30   30.30   1
  10 -10   2   94.70   30.60   1
 -10 -10   2    1.40   29.60   1
  10  10  -2   67.50   29.90   1
  10  10   3   24.60   23.00   1
 -10 -10  -3   21.60   23.00   1
  10 -10  -3   12.60   23.00   1
 -10  10   3    6.90   23.00   1
 -10  10  -3   49.60   24.50   1
  10 -10   3   20.40   24.10   1
 -10 -10   3   24.10   23.10   1
  10  10  -3   21.60   23.10   1
  10  10   4   55.50   39.60   1
 -10 -10  -4   43.40   39.50   1
  10 -10  -4   51.40   39.60   1
 -10  10   4   90.30   39.70   1
 -10 -10   4   46.50   39.70   1
  10  10  -4   90.40   40.10   1
  10  10   5    6.50   14.00   1
 -10 -10  -5    4.70   13.90   1
  10 -10  -5   11.50   14.00   1
 -10  10   5    6.60   14.00   1
 -10 -10   5   -0.00   14.20   1
  10  10  -5   24.00   14.80   1
  10  10   6  143.20   61.80   1
 -10 -10  -6  102.40   61.70   1
  10 -10  -6  141.20   61.90   1
 -10  10   6  154.20   62.00   1
  10  10   7    8.10   30.20   1
 -10 -10  -7   69.00   30.40   1
  10 -10  -7   47.40   30.30   1
 -10  10   7   31.00   30.20   1
  10  10   8  483.70  126.30   1
 -10 -10  -8  479.40  126.30   1
  10 -10  -8  449.10  126.10   1
 -10  10   8  363.80  125.60   1
  10  10   9   16.70   20.00   1
 -10 -10  -9    5.40   20.30   1
  10 -10  -9   10.00   19.60   1
 -10  10   9   19.70   19.70   1
  10  10  10   43.90   25.80   1
 -10 -10 -10   11.70   25.40   1
  10 -10 -10   13.40   25.10   1
 -10  10  10   37.40   25.20   1
  10  10  11   21.40   23.30   1
 -10 -10 -11   -0.00   23.10   1
  10 -10 -11   10.60   22.90   1
 -10  10  11   50.80   23.00   1
  10  10  12    7.30   19.70   1
 -10 -10 -12   33.70   20.60   1
  10 -10 -12   30.70   19.30   1
 -10  10  12    4.80   19.20   1
  10  11   0   45.50   28.20   1
 -10 -11   0   20.60   28.10   1
  10 -11   0   33.60   28.70   1
 -10  11   0   22.10   28.70   1
  10  11   1   33.90   37.10   1
 -10 -11  -1   90.50   37.20   1
  10 -11  -1   41.60   37.90   1
 -10  11   1   39.70   37.80   1
 -10  11  -1   25.70   37.50   1
  10 -11   1   56.10   37.60   1
 -10 -11   1   48.40   37.30   1
  10  11  -1   51.60   37.30   1
  10  11   2    8.00   16.90   1
 -10 -11  -2    9.60   16.90   1
  10 -11  -2   -0.00   17.50   1
 -10  11   2   15.50   17.60   1
 -10  11  -2   46.10   18.70   1
  10 -11   2  124.50   19.60   1
 -10 -11   2    3.40   17.00   1
  10  11  -2   11.20   17.00   1
  10  11   3   79.50   40.20   1
 -10 -11  -3   32.70   40.10   1
  10 -11  -3  289.60   41.40   1
 -10  11   3   33.50   40.10   1
  10 -11   3   56.70   41.20   1
 -10 -11   3  133.80   40.90   1
  10  11  -3   86.60   40.60   1
  10  11   4   21.90   18.90   1
 -10 -11  -4   16.50   18.90   1
  10 -11  -4   10.90   19.10   1
 -10  11   4   10.20   19.10   1
 -10 -11   4   -0.00   19.10   1
  10  11  -4    4.00   19.20   1
  10  11   5   19.70   27.10   1
 -10 -11  -5   14.90   27.00   1
  10 -11  -5   31.10   27.10   1
 -10  11   5  128.40   27.60   1
  10  11   6   34.00   28.00   1
 -10 -11  -6   36.60   28.00   1
  10 -11  -6   28.70   28.10   1
 -10  11   6   14.60   28.00   1
  10  11   7   40.10   25.20   1
 -10 -11  -7   22.80   25.20   1
  10 -11  -7   30.20   25.20   1
 -10  11   7    5.30   25.20   1
  10  11   8    6.10   17.00   1
 -10 -11  -8    6.30   17.00   1
  10 -11  -8    9.70   17.00   1
 -10  11   8   21.60   17.10   1
  10  11   9    5.10   20.00   1
 -10 -11  -9   30.30   20.20   1
  10 -11  -9   26.30   19.90   1
 -10  11   9    4.90   19.90   1
  10  11  10   36.20   12.60   1
 -10 -11 -10    5.30   11.50   1
  10 -11 -10    2.60   10.80   1
 -10  11  10    2.20   10.80   1
  10  11  11   83.70   26.30   1
 -10 -11 -11   31.90   25.40   1
  10 -11 -11   15.40   24.90   1
 -10  11  11   23.40   24.90   1
  10  11  12    6.00   15.40   1
 -10 -11 -12   -0.00   15.50   1
  10 -11 -12   11.00   14.80   1
 -10  11  12    7.10   14.80   1
  10  12   0    6.90   15.50   1
 -10 -12   0    1.50   15.30   1
  10 -12   0   14.40   16.20   1
 -10  12   0   29.80   16.30   1
  10  12   1   82.50   39.20   1
 -10 -12  -1   46.60   39.10   1
  10 -12  -1   46.80   39.50   1
 -10  12   1   50.60   39.70   1
 -10  12  -1   48.50   39.60   1
  10 -12   1   43.40   39.40   1
 -10 -12   1   39.70   39.10   1
  10  12  -1   93.70   39.50   1
  10  12   2  152.90   51.70   1
 -10 -12  -2   93.30   51.50   1
  10 -12  -2   23.50   51.60   1
 -10  12   2   96.80   52.20   1
 -10  12  -2  108.80   52.80   1
  10 -12   2  106.50   52.70   1
 -10 -12   2  119.30   51.90   1
  10  12  -2   98.80   51.80   1
  10  12   3   21.40   25.50   1
 -10 -12  -3   22.10   25.50   1
  10 -12  -3   13.00   25.60   1
 -10  12   3   25.60   25.80   1
 -10 -12   3   48.10   25.80   1
  10  12  -3   26.20   25.80   1
  10  12   4   24.70   27.70   1
 -10 -12  -4   57.60   27.80   1
  10 -12  -4   13.50   27.80   1
 -10  12   4   28.20   27.80   1
 -10 -12   4   11.00   27.90   1
  10  12   5   42.50   30.80   1
 -10 -12  -5   45.20   30.80   1
  10 -12  -5   12.60   30.80   1
 -10  12   5   37.20   30.90   1
  10  12   6    8.20   21.90   1
 -10 -12  -6   21.20   22.00   1
  10 -12  -6   16.60   22.00   1
 -10  12   6   34.40   22.10   1
  10  12   7   58.70   41.30   1
 -10 -12  -7   60.30   41.30   1
  10 -12  -7   48.00   41.30   1
 -10  12   7   86.90   41.50   1
  10  12   8   18.30   21.80   1
 -10 -12  -8   14.40   21.80   1
  10 -12  -8    6.60   21.70   1
 -10  12   8   41.80   21.90   1
  10  12   9    5.90   17.00   1
 -10 -12  -9   11.10   17.10   1
  10 -12  -9    8.50   17.00   1
 -10  12   9   17.90   17.00   1
  10  12  10   49.30   19.30   1
 -10 -12 -10   20.50   19.50   1
  10 -12 -10   14.70   18.70   1
 -10  12  10    4.00   18.70   1
  10  12  11    8.00   11.80   1
 -10 -12 -11    3.30   11.60   1
  10 -12 -11    1.90   10.90   1
 -10  12  11    6.00   10.90   1
  10  13   0  224.90   86.30   1
 -10 -13   0  224.00   86.30   1
  10 -13   0  247.10   86.60   1
 -10  13   0  224.20   86.60   1
  10  13   1   78.10   39.80   1
 -10 -13  -1   58.60   39.60   1
  10 -13  -1   28.10   39.90   1
 -10  13   1   60.20   40.30   1
 -10  13  -1   82.80   40.70   1
  10 -13   1   28.00   40.00   1
 -10 -13   1   44.70   39.60   1
  10  13  -1   81.30   39.80   1
  10  13   2   62.70   42.10   1
 -10 -13  -2   48.60   42.00   1
  10 -13  -2  107.90   43.10   1
 -10  13   2   83.20   43.00   1
  10 -13   2   50.10   42.90   1
 -10 -13   2   86.50   42.50   1
  10  13  -2   80.00   42.50   1
  10  13   3  167.00   52.00   1
 -10 -13  -3  106.90   51.80   1
  10 -13  -3  206.10   52.50   1
 -10  13   3  130.80   52.30   1
 -10 -13   3   17.10   51.70   1
  10  13   4   48.60   30.30   1
 -10 -13  -4   23.00   30.20   1
  10 -13  -4   46.90   30.40   1
 -10  13   4   24.70   30.40   1
  10  13   5  253.80   91.80   1
 -10 -13  -5  265.90   91.90   1
  10 -13  -5  262.40   92.00   1
 -10  13   5  246.70   91.90   1
  10  13   6   82.20   48.30   1
 -10 -13  -6  101.20   48.40   1
  10 -13  -6  133.20   48.60   1
 -10  13   6   51.90   48.30   1
  10  13   7   42.30   37.10   1
 -10 -13  -7   85.00   37.30   1
  10 -13  -7  199.80   38.60   1
 -10  13   7   28.20   37.10   1
  10  13   8   25.30   26.60   1
 -10 -13  -8   20.20   26.60   1
  10 -13  -8   27.20   26.70   1
 -10  13   8   33.60   26.70   1
  10  13   9   75.10   29.90   1
 -10 -13  -9   34.00   29.70   1
  10 -13  -9   32.80   29.70   1
 -10  13   9   15.40   29.60   1
  10  13  10    7.00   19.00   1
 -10 -13 -10    0.00   19.20   1
  10 -13 -10    8.50   18.90   1
 -10  13  10   55.80   19.20   1
  10  13  11   53.00   20.40   1
 -10 -13 -11   19.30   19.70   1
  10 -13 -11   18.30   19.10   1
 -10  13  11    4.60   19.10   1
  10  14   0   45.00   35.50   1
 -10 -14   0   45.10   35.50   1
  10 -14   0   27.70   35.80   1
 -10  14   0   71.30   36.20   1
  10  14   1   11.90   16.30   1
 -10 -14  -1   -0.00   16.30   1
  10 -14  -1    8.00   17.10   1
 -10  14   1    5.50   16.90   1
 -10  14  -1   -0.00   17.30   1
  10 -14   1    0.00   17.50   1
 -10 -14   1   25.60   16.30   1
  10  14  -1    6.60   16.20   1
  10  14   2  121.40   49.00   1
 -10 -14  -2   74.50   48.70   1
  10 -14  -2   55.80   49.00   1
 -10  14   2   59.80   49.20   1
 -10 -14   2  123.80   49.90   1
  10  14  -2   90.20   49.80   1
  10  14   3   17.80   20.90   1
 -10 -14  -3   12.20   20.90   1
  10 -14  -3   36.60   21.70   1
 -10  14   3    8.00   22.10   1
  10  14   4   46.40   25.40   1
 -10 -14  -4   12.20   25.30   1
  10 -14  -4   14.30   25.50   1
 -10  14   4   32.00   25.70   1
  10  14   5   18.80   18.10   1
 -10 -14  -5   13.90   18.10   1
  10 -14  -5    6.50   18.20   1
 -10  14   5    2.60   18.20   1
  10  14   6  103.60   50.20   1
 -10 -14  -6   80.10   50.10   1
  10 -14  -6   65.60   50.20   1
 -10  14   6  112.80   50.30   1
  10  14   7    6.30   18.00   1
 -10 -14  -7   16.40   18.10   1
  10 -14  -7   22.70   18.10   1
 -10  14   7    6.70   18.10   1
  10  14   8   10.00   15.10   1
 -10 -14  -8    9.80   15.10   1
  10 -14  -8    9.30   15.20   1
 -10  14   8    3.00   15.20   1
  10  14   9    4.20   11.60   1
 -10 -14  -9    4.80   11.60   1
  10 -14  -9    3.70   11.60   1
 -10  14   9    6.40   11.60   1
  10  14  10   11.70   16.50   1
 -10 -14 -10   38.20   16.80   1
  10 -14 -10    2.20   16.40   1
 -10  14  10    7.00   16.50   1
  10  15   0   56.80   38.40   1
 -10 -15   0   45.30   38.20   1
  10 -15   0   44.50   38.60   1
 -10  15   0   80.30   39.20   1
  10  15   1   97.80   29.00   1
 -10 -15  -1   13.80   28.30   1
  10 -15  -1   72.60   29.10   1
 -10  15   1   15.60   28.80   1
 -10  15  -1   20.10   29.10   1
  10 -15   1   14.10   29.00   1
 -10 -15   1   26.60   28.40   1
  10  15  -1   34.60   28.60   1
  10  15   2   25.30   19.90   1
 -10 -15  -2    7.40   19.60   1
  10 -15  -2   32.30   20.60   1
 -10  15   2   -0.00   20.60   1
 -10 -15   2   14.70   19.80   1
  10  15   3   37.20   38.40   1
 -10 -15  -3  227.30   39.70   1
  10 -15  -3   38.80   39.10   1
 -10  15   3   48.60   39.20   1
  10  15   4   16.70   21.40   1
 -10 -15  -4   13.80   21.40   1
  10 -15  -4   22.90   21.90   1
 -10  15   4   29.00   22.00   1
  10  15   5   29.00   31.10   1
 -10 -15  -5   27.60   31.10   1
  10 -15  -5   59.20   31.30   1
 -10  15   5   57.20   31.30   1
  10  15   6    2.90    8.40   1
 -10 -15  -6    0.10    8.40   1
  10 -15  -6    6.30    8.80   1
 -10  15   6    5.50    8.70   1
  10  15   7    7.40   21.90   1
 -10 -15  -7   33.60   22.00   1
  10 -15  -7   12.70   22.00   1
 -10  15   7   33.80   22.00   1
  10  15   8   18.10   17.20   1
 -10 -15  -8    6.00   17.10   1
  10 -15  -8   12.70   17.20   1
 -10  15   8    8.10   17.20   1
  10  15   9   43.90   34.60   1
 -10 -15  -9   59.30   34.70   1
  10 -15  -9   24.00   34.60   1
 -10  15   9   77.00   35.00   1
  10  15  10   10.60   11.80   1
 -10 -15 -10   -0.00   11.80   1
  10 -15 -10   11.60   11.80   1
 -10  15  10   -0.00   11.80   1
  10  16   0  689.80  147.40   1
 -10 -16   0  483.00  136.70   1
  10 -16   0  380.90  135.40   1
 -10  16   0  502.10  141.60   1
  10  16   1   60.30   18.60   1
 -10 -16  -1    5.70   18.00   1
  10 -16  -1    6.60   18.50   1
 -10  16   1    4.70   18.60   1
  10 -16   1   20.90   19.30   1
 -10 -16   1    5.90   18.10   1
  10  16   2   62.50   34.40   1
 -10 -16  -2   32.50   34.20   1
  10 -16  -2   82.30   35.10   1
 -10  16   2   13.50   34.60   1
  10  16   3   10.20   13.60   1
 -10 -16  -3    2.80   13.30   1
  10 -16  -3    6.40   14.60   1
 -10  16   3   34.90   15.30   1
  10  16   4   95.30   59.70   1
 -10 -16  -4  139.60   59.80   1
  10 -16  -4  115.80   60.00   1
 -10  16   4  209.30   61.10   1
  10  16   5    9.40   16.00   1
 -10 -16  -5   14.10   16.00   1
  10 -16  -5    2.40   16.10   1
 -10  16   5   -0.00   16.50   1
  10  16   6   50.50   25.30   1
 -10 -16  -6   11.80   25.10   1
  10 -16  -6   33.60   25.30   1
 -10  16   6   19.70   25.30   1
  10  16   7    6.30   16.90   1
 -10 -16  -7   10.30   16.90   1
  10 -16  -7   20.20   17.10   1
 -10  16   7   14.10   17.10   1
  10  16   8   28.60   24.00   1
 -10 -16  -8   24.20   24.00   1
  10 -16  -8    9.80   24.00   1
 -10  16   8   22.30   24.00   1
  10  16   9    6.10   14.50   1
 -10 -16  -9   11.50   14.50   1
  10 -16  -9    5.70   14.60   1
 -10  16   9    6.50   14.60   1
  10  17   0    4.60   11.80   1
 -10 -17   0    4.50   11.60   1
  10 -17   0   -1.10   13.40   1
 -10  17   0   12.40   13.40   1
  10  17   1   57.20   21.40   1
 -10 -17  -1    8.20   20.60   1
  10 -17  -1    9.00   21.10   1
 -10  17   1   14.50   21.50   1
  10  17   2    5.70   15.30   1
 -10 -17  -2   11.30   15.30   1
  10 -17  -2   -0.00   16.10   1
 -10  17   2   17.30   16.10   1
  10  17   3   15.20   12.80   1
 -10 -17  -3   -0.10   12.60   1
  10 -17  -3   -0.00   13.70   1
 -10  17   3    8.70   13.90   1
  10  17   4   18.10   19.50   1
 -10 -17  -4   12.30   19.40   1
  10 -17  -4   12.10   20.60   1
 -10  17   4    7.50   20.40   1
  10  17   5   34.90   23.40   1
 -10 -17  -5   12.10   23.30   1
  10 -17  -5    9.50   23.70   1
 -10  17   5   36.10   23.90   1
  10  17   6    2.70    7.70   1
 -10 -17  -6    1.20    7.80   1
  10 -17  -6    4.20    8.20   1
 -10  17   6    1.30    8.10   1
  10  17   7    5.50   18.80   1
 -10 -17  -7   18.40   18.80   1
  10 -17  -7   21.50   19.00   1
 -10  17   7   21.90   19.00   1
  10  17   8    6.00   10.80   1
 -10 -17  -8    3.30   10.80   1
  10 -17  -8    1.50   11.00   1
 -10  17   8    5.10   11.00   1
 -10 -18   0   49.10   40.70   1
  10 -18   0   75.40   41.90   1
  10  18   1   23.90   28.80   1
 -10 -18  -1   35.40   28.90   1
  10 -18  -1   30.80   29.30   1
 -10  18   1   28.40   29.40   1
  10  18   2   31.40   24.70   1
 -10 -18  -2   15.70   24.50   1
  10 -18  -2   20.30   25.00   1
 -10  18   2   26.40   25.10   1
  10  18   3    4.50    8.30   1
 -10 -18  -3   -0.00    8.20   1
  10 -18  -3    4.60    9.60   1
 -10  18   3   -0.00    9.50   1
  10  18   4   11.00   18.50   1
 -10 -18  -4    9.60   18.30   1
  10 -18  -4   -0.00   19.10   1
 -10  18   4   76.70   20.30   1
  10  18   5   15.10   17.90   1
 -10 -18  -5    6.10   17.80   1
  10 -18  -5   59.70   18.90   1
 -10  18   5    8.80   19.40   1
  10  18   6   79.30   20.30   1
 -10 -18  -6    7.60   19.80   1
  10 -18  -6    9.20   20.00   1
 -10  18   6    8.40   20.30   1
  10  18   7   20.00   22.70   1
 -10 -18  -7   21.00   22.70   1
  10 -18  -7   12.60   22.80   1
 -10  18   7   18.20   22.90   1
 -10 -19  -1   -0.00    8.30   1
  10 -19  -1   -0.10   10.40   1
 -10  19   1   12.90    9.90   1
  10  19   2    2.00   13.70   1
 -10 -19  -2    8.60   13.70   1
  10 -19  -2   23.20   14.70   1
 -10  19   2    4.40   14.80   1
  10  19   3   15.00   17.50   1
 -10 -19  -3   11.00   17.40   1
  10 -19  -3   10.30   18.20   1
 -10  19   3   -0.00   18.00   1
  10  19   4    0.00    8.70   1
 -10 -19  -4    1.30    8.90   1
  10 -19  -4    8.10   10.00   1
 -10  19   4   15.20   10.80   1
  10  19   5    5.10   15.90   1
 -10 -19  -5   10.10   15.70   1
  10 -19  -5   10.80   16.80   1
 -10  19   5    9.10   16.80   1
  10  19   6    3.40   10.30   1
 -10 -19  -6    3.70   10.30   1
  10 -19  -6    5.70   11.00   1
 -10  19   6    5.20   11.20   1
  10 -20  -1   -0.00    6.70   1
 -10 -20  -2   66.80   19.70   1
  10 -20  -2    0.30   18.30   1
 -10  20   2   -0.00   18.40   1
  10  20   3   -0.00   13.70   1
 -10 -20  -3   14.60   13.80   1
  10 -20  -3    6.30   14.40   1
 -10  20   3    8.10   14.40   1
  10  20   4   20.00   19.60   1
 -10 -20  -4    9.30   19.50   1
  10 -20  -4   32.30   20.50   1
 -10  20   4    1.30   20.20   1
 -10 -21  -2    2.20    7.50   1
  10 -21  -2   -0.00    8.90   1
  11   0   0  104.80   57.20   1
 -11   0   0  117.30   57.20   1
  11   0   1  547.40  118.40   1
 -11   0  -1  388.20  117.90   1
  11   0  -1  350.80  117.90   1
 -11   0   1  339.60  117.90   1
  11   0   2  739.80  170.50   1
 -11   0  -2  605.60  170.20   1
  11   0  -2  756.90  170.50   1
 -11   0   2  664.30  170.30   1
  11   0   3  436.50  118.10   1
 -11   0  -3  297.70  117.70   1
  11   0  -3  429.40  117.90   1
 -11   0   3  458.80  118.00   1
  11   0   4  403.90  105.60   1
 -11   0  -4  310.80  105.30   1
  11   0  -4  422.10  105.30   1
 -11   0   4  256.20  104.90   1
  11   0   5   32.00   34.30   1
 -11   0  -5    9.10   33.80   1
  11   0  -5   47.70   33.50   1
 -11   0   5   45.00   33.50   1
  11   0   6 1567.80  253.30   1
 -11   0  -6 1133.70  248.60   1
  11   0  -6 1096.00  246.30   1
 -11   0   6 1099.00  246.40   1
  11   0   7   88.80   41.70   1
 -11   0  -7   53.30   41.40   1
  11   0  -7   76.70   41.20   1
 -11   0   7   46.20   41.10   1
  11   0   8  178.30   75.90   1
 -11   0  -8  166.60   76.20   1
  11   0  -8  241.70   75.50   1
 -11   0   8  157.50   74.90   1
  11   0   9   43.80   35.30   1
  11   0  -9   62.10   34.70   1
 -11   0   9   28.10   34.50   1
  11   0 -10  494.60   95.70   1
 -11   0  10  207.70   91.40   1
  11   0 -11   78.50   47.80   1
 -11   0  11   77.50   47.70   1
  11   0 -12  108.40   55.20   1
 -11   0  12   94.10   54.50   1
  11   0 -13   22.90   20.30   1
 -11   0  13   10.00   19.80   1
  11   1   0   -0.00   10.10   1
 -11  -1   0   13.40   10.10   1
  11  -1   0    1.40   10.10   1
 -11   1   0   -0.70   10.10   1
  11   1   1   96.70   56.80   1
 -11  -1  -1   92.40   56.70   1
  11  -1  -1  102.50   56.80   1
 -11   1   1  103.10   56.80   1
 -11   1  -1   90.70   56.80   1
  11  -1   1  112.70   56.80   1
 -11  -1   1  167.10   56.90   1
  11   1  -1  158.80   56.90   1
  11   1   2  127.00   39.80   1
 -11  -1  -2   60.20   39.60   1
  11  -1  -2   41.60   39.60   1
 -11   1   2   42.60   39.50   1
 -11   1  -2   56.70   39.60   1
  11  -1   2   69.90   39.70   1
 -11  -1   2   51.00   39.60   1
  11   1  -2   50.60   39.60   1
  11   1   3  101.30   54.50   1
 -11  -1  -3  104.40   54.50   1
  11  -1  -3  114.20   54.40   1
 -11   1   3  108.60   54.40   1
 -11   1  -3   82.00   54.50   1
  11  -1   3   93.20   54.50   1
 -11  -1   3   94.20   54.40   1
  11   1  -3  106.80   54.40   1
  11   1   4    6.40   25.30   1
 -11  -1  -4   26.50   25.40   1
  11  -1  -4   20.90   25.20   1
 -11   1   4    6.10   25.20   1
 -11   1  -4   75.00   26.60   1
  11  -1   4    3.40   25.80   1
 -11  -1   4   41.40   25.20   1
  11   1  -4   46.10   25.30   1
  11   1   5   22.90   40.00   1
 -11  -1  -5   44.60   40.30   1
  11  -1  -5   67.20   39.80   1
 -11   1   5   67.70   39.80   1
 -11   1  -5  132.90   40.90   1
  11  -1   5   81.60   40.40   1
 -11  -1   5   40.60   39.70   1
  11   1  -5   54.50   39.70   1
  11  -1  -6   23.20   37.60   1
 -11   1   6   38.00   37.60   1
 -11   1  -6   43.30   38.00   1
  11  -1   6   34.20   38.00   1
 -11  -1   6   94.80   37.80   1
  11   1  -6  140.90   38.00   1
  11   1   7   50.20   27.30   1
 -11  -1  -7   54.20   27.30   1
  11  -1  -7   18.30   26.60   1
 -11   1   7   31.00   26.60   1
 -11   1  -7   10.60   27.30   1
  11  -1   7   17.80   27.10   1
 -11  -1   7   14.80   26.60   1
  11   1  -7   39.40   26.80   1
  11   1   8   79.60   42.40   1
 -11  -1  -8  113.70   43.00   1
  11  -1  -8   58.70   42.00   1
 -11   1   8   62.00   41.90   1
 -11   1  -8   74.20   43.20   1
  11  -1   8   57.20   42.80   1
 -11  -1   8   38.60   42.00   1
  11   1  -8   68.40   42.20   1
  11   1   9   22.50   17.80   1
 -11  -1  -9    9.70   17.40   1
  11  -1  -9   12.90   16.90   1
 -11   1   9    8.80   16.60   1
 -11  -1   9    1.70   16.40   1
  11   1  -9   15.30   16.60   1
  11  -1 -10    9.70   27.40   1
 -11   1  10    5.60   27.40   1
 -11  -1  10   78.00   27.80   1
  11   1 -10   60.10   27.70   1
  11  -1 -11    7.30   23.70   1
 -11   1  11   41.40   23.90   1
 -11  -1  11   17.80   23.70   1
  11   1 -11   21.80   23.80   1
  11  -1 -12   54.70   26.30   1
 -11   1  12   46.10   26.10   1
 -11  -1  12   11.90   25.70   1
  11   1 -12   14.80   25.90   1
  11  -1 -13    5.60   11.80   1
 -11   1  13   -0.00   11.70   1
 -11  -1  13   15.70   12.40   1
  11   2   0   17.60   26.10   1
 -11  -2   0    5.00   26.10   1
  11  -2   0   45.80   26.30   1
 -11   2   0   72.00   26.30   1
  11   2   1   37.60   34.30   1
 -11  -2  -1   43.20   34.30   1
  11  -2  -1   33.40   34.30   1
 -11   2   1   55.10   34.30   1
 -11   2  -1   26.30   34.30   1
  11  -2   1   37.10   34.30   1
 -11  -2   1   51.40   34.30   1
  11   2  -1   55.20   34.30   1
  11   2   2  133.10   34.80   1
 -11  -2  -2  105.30   34.70   1
  11  -2  -2    8.40   34.50   1
 -11   2   2   -0.00   34.50   1
 -11   2  -2   33.20   34.60   1
  11  -2   2   34.70   34.60   1
 -11  -2   2  107.40   34.70   1
  11   2  -2  112.30   34.70   1
  11   2   3    8.80   24.30   1
 -11  -2  -3    9.20   24.40   1
  11  -2  -3   56.60   24.50   1
 -11   2   3   24.50   24.40   1
 -11   2  -3   12.90   24.70   1
  11  -2   3    4.10   24.70   1
 -11  -2   3   22.70   24.30   1
  11   2  -3   26.40   24.30   1
  11   2   4   90.30   49.30   1
 -11  -2  -4   75.40   49.30   1
  11  -2  -4   80.40   49.20   1
 -11   2   4   80.70   49.30   1
 -11   2  -4   74.60   49.70   1
  11  -2   4   90.70   50.00   1
 -11  -2   4   88.20   49.30   1
  11   2  -4   93.00   49.30   1
  11   2   5   23.60   25.00   1
 -11  -2  -5   17.80   24.90   1
  11  -2  -5    5.90   24.50   1
 -11   2   5    9.00   24.50   1
 -11   2  -5   34.90   25.40   1
  11  -2   5   31.30   25.30   1
 -11  -2   5   53.20   24.60   1
  11   2  -5   30.40   24.50   1
  11   2   6   44.70   26.50   1
 -11  -2  -6   -0.00   26.00   1
  11  -2  -6   44.20   25.60   1
 -11   2   6   54.10   25.60   1
 -11   2  -6   37.00   26.20   1
  11  -2   6   11.90   26.00   1
 -11  -2   6    4.30   25.50   1
  11   2  -6   13.30   25.60   1
  11   2   7   16.30   18.00   1
 -11  -2  -7   37.70   18.00   1
  11  -2  -7    5.60   17.00   1
 -11   2   7    5.00   17.00   1
 -11   2  -7   -0.00   18.10   1
  11  -2   7   -0.00   18.00   1
  11   2  -7   83.00   18.50   1
  11   2   8   71.50   20.20   1
 -11  -2  -8   17.00   19.60   1
  11  -2  -8   14.40   19.00   1
 -11   2   8    9.30   18.90   1
  11  -2   8   26.80   20.40   1
 -11  -2   8    0.60   19.20   1
  11   2  -8    9.00   19.20   1
  11   2   9   22.90   19.90   1
 -11  -2  -9   10.50   19.90   1
  11  -2  -9   14.50   19.20   1
 -11   2   9   20.90   18.90   1
 -11  -2   9    2.00   19.00   1
  11   2  -9    9.30   19.10   1
  11  -2 -10   42.20   28.50   1
 -11   2  10   23.20   28.30   1
 -11  -2  10   14.30   28.20   1
  11   2 -10   67.40   28.80   1
  11  -2 -11    8.60   17.10   1
 -11   2  11   -0.00   17.10   1
 -11  -2  11   27.10   17.40   1
  11   2 -11   13.50   17.30   1
  11  -2 -12   28.20   30.30   1
 -11   2  12   33.80   30.30   1
 -11  -2  12   39.80   30.70   1
  11  -2 -13    1.90   15.70   1
 -11   2  13   16.60   15.80   1
  11   3   0   24.10   21.60   1
 -11  -3   0    9.90   21.60   1
  11  -3   0    9.90   21.60   1
 -11   3   0   24.60   21.70   1
  11   3   1 1538.30  292.70   1
 -11  -3  -1 1175.00  291.00   1
  11  -3  -1 1283.20  291.20   1
 -11   3   1 1376.90  291.50   1
 -11   3  -1 1755.80  292.70   1
  11  -3   1 1963.40  294.30   1
 -11  -3   1 1304.30  291.10   1
  11   3  -1 1589.00  292.20   1
  11   3   2  112.70   38.60   1
 -11  -3  -2   37.40   38.40   1
  11  -3  -2  129.70   38.70   1
 -11   3   2   74.80   38.60   1
 -11   3  -2   42.30   38.60   1
  11  -3   2   33.70   38.60   1
 -11  -3   2   36.10   38.40   1
  11   3  -2   39.70   38.50   1
  11   3   3  165.50   71.50   1
 -11  -3  -3  118.60   71.40   1
  11  -3  -3  156.70   71.40   1
 -11   3   3  164.50   71.50   1
 -11   3  -3  302.10   72.60   1
  11  -3   3  123.10   71.70   1
 -11  -3   3  237.40   71.70   1
  11   3  -3  235.70   71.60   1
  11   3   4   76.20   38.00   1
 -11  -3  -4   50.70   38.00   1
  11  -3  -4   50.80   37.90   1
 -11   3   4  106.10   38.10   1
 -11   3  -4   81.40   38.70   1
  11  -3   4  141.20   39.00   1
 -11  -3   4   29.30   37.90   1
  11   3  -4   30.20   37.90   1
  11   3   5   -0.00   24.50   1
 -11  -3  -5  112.20   25.10   1
  11  -3  -5   23.00   24.40   1
 -11   3   5   28.90   24.50   1
 -11   3  -5   18.50   25.00   1
  11  -3   5   10.20   25.00   1
 -11  -3   5   14.00   24.40   1
  11   3  -5   22.70   24.50   1
  11   3   6   20.80   29.60   1
 -11  -3  -6   47.10   30.10   1
  11  -3  -6   29.50   29.30   1
 -11   3   6   47.40   29.30   1
 -11   3  -6   22.50   29.80   1
  11  -3   6   21.10   29.80   1
 -11  -3   6   23.10   29.40   1
  11   3  -6   29.60   29.50   1
  11   3   7   92.00   29.40   1
 -11  -3  -7   62.60   29.10   1
  11  -3  -7   20.20   28.20   1
 -11   3   7   49.30   28.30   1
 -11   3  -7   74.10   30.20   1
  11  -3   7   37.70   29.40   1
 -11  -3   7    4.70   28.50   1
  11   3  -7    4.10   28.50   1
  11   3   8   72.20   33.40   1
 -11  -3  -8   52.10   33.30   1
  11  -3  -8   44.90   32.80   1
 -11   3   8   27.20   32.70   1
 -11  -3   8   27.60   32.80   1
  11   3  -8   47.80   33.00   1
  11   3   9   80.20   47.70   1
 -11  -3  -9  102.50   48.30   1
  11  -3  -9   66.30   47.20   1
 -11   3   9   83.60   47.30   1
 -11  -3   9   82.50   47.50   1
  11   3  -9   72.30   47.50   1
  11   3  10   -0.00   15.60   1
  11  -3 -10   34.30   15.40   1
 -11   3  10    1.30   14.80   1
 -11  -3  10    5.90   14.70   1
  11   3 -10    8.00   14.80   1
  11  -3 -11    9.90   18.20   1
 -11   3  11   47.70   18.60   1
 -11  -3  11    5.80   18.10   1
  11   3 -11   -0.00   18.30   1
  11  -3 -12   16.40   23.80   1
 -11   3  12   24.10   23.80   1
  11  -3 -13   53.40   41.60   1
 -11   3  13   67.90   41.80   1
  11   4   0   34.70   27.10   1
 -11  -4   0   15.20   27.00   1
  11  -4   0   26.50   27.10   1
 -11   4   0   35.60   27.10   1
  11   4   1   16.40   24.80   1
 -11  -4  -1   45.50   24.90   1
  11  -4  -1   21.60   24.90   1
 -11   4   1   13.90   24.80   1
 -11   4  -1    3.00   24.90   1
  11  -4   1    7.10   24.90   1
 -11  -4   1   55.70   24.90   1
  11   4  -1   21.70   24.80   1
  11   4   2   -0.00   20.30   1
 -11  -4  -2    1.80   20.30   1
  11  -4  -2    7.10   20.40   1
 -11   4   2    4.60   20.30   1
 -11   4  -2   15.20   21.00   1
  11  -4   2   16.40   20.90   1
 -11  -4   2   70.60   20.50   1
  11   4  -2   87.00   20.60   1
  11   4   3   27.20   22.10   1
 -11  -4  -3   37.80   22.10   1
  11  -4  -3    9.80   22.00   1
 -11   4   3   11.90   22.00   1
 -11   4  -3   18.50   22.80   1
  11  -4   3   15.30   23.10   1
 -11  -4   3   13.70   22.00   1
  11   4  -3   13.90   22.00   1
  11   4   4   27.80   20.00   1
 -11  -4  -4   22.50   20.00   1
  11  -4  -4   -0.00   19.90   1
 -11   4   4   37.40   20.00   1
 -11   4  -4   10.70   20.90   1
  11  -4   4   27.40   20.80   1
 -11  -4   4    3.70   19.90   1
  11   4  -4    7.60   19.90   1
  11   4   5    9.00   14.00   1
 -11  -4  -5    4.30   14.00   1
  11  -4  -5   19.80   14.00   1
 -11   4   5    3.70   14.00   1
 -11   4  -5    8.10   14.70   1
  11  -4   5   10.30   14.80   1
 -11  -4   5   -0.00   14.00   1
  11   4  -5    3.10   14.10   1
  11   4   6   -0.00   24.40   1
 -11  -4  -6   26.40   24.60   1
  11  -4  -6   27.60   24.10   1
 -11   4   6   20.20   24.10   1
 -11   4  -6   24.00   25.20   1
  11  -4   6  141.20   26.60   1
 -11  -4   6   11.50   24.40   1
  11   4  -6   12.40   24.50   1
  11   4   7   -0.00   22.20   1
 -11  -4  -7   -0.00   22.00   1
  11  -4  -7    8.40   21.30   1
 -11   4   7   27.20   21.40   1
  11  -4   7   92.00   24.80   1
 -11  -4   7   11.70   21.50   1
  11   4  -7   30.30   21.70   1
  11   4   8   23.90   29.40   1
 -11  -4  -8   15.60   29.20   1
  11  -4  -8   37.90   28.90   1
 -11   4   8   39.00   28.90   1
 -11  -4   8   15.60   28.90   1
  11   4  -8   32.60   29.00   1
  11   4   9   41.50   28.60   1
 -11  -4  -9   15.40   28.40   1
  11  -4  -9   21.20   28.00   1
 -11   4   9   43.70   28.00   1
 -11  -4   9   31.10   28.20   1
  11   4  -9   19.50   28.10   1
  11   4  10   54.60   32.00   1
 -11  -4 -10   16.90   31.70   1
  11  -4 -10   27.70   31.10   1
 -11   4  10   35.20   31.00   1
 -11  -4  10   36.90   31.30   1
  11   4 -10   67.40   32.30   1
  11  -4 -11   -0.00   18.50   1
 -11   4  11   12.60   18.30   1
 -11  -4  11   50.70   20.00   1
  11  -4 -12    9.30   14.80   1
 -11   4  12    5.90   14.80   1
  11  -4 -13   55.80   18.40   1
 -11   4  13   -0.00   17.50   1
  11   5   0   13.70   20.10   1
 -11  -5   0   16.30   20.10   1
  11  -5   0   22.80   20.20   1
 -11   5   0    6.80   20.20   1
  11   5   1 1031.50  207.70   1
 -11  -5  -1 1065.10  207.90   1
  11  -5  -1  899.40  207.00   1
 -11   5   1  889.30  206.80   1
 -11   5  -1 1075.20  207.50   1
  11  -5   1  968.30  207.20   1
 -11  -5   1  736.50  206.40   1
  11   5  -1  820.10  206.50   1
  11   5   2   37.90   36.80   1
 -11  -5  -2   32.60   36.80   1
  11  -5  -2   59.30   36.80   1
 -11   5   2   26.20   36.80   1
 -11   5  -2   50.50   37.50   1
  11  -5   2   32.20   37.10   1
 -11  -5   2  102.20   36.90   1
  11   5  -2   94.20   36.90   1
  11   5   3  514.90  114.60   1
 -11  -5  -3  558.70  114.60   1
  11  -5  -3  553.50  115.20   1
 -11   5   3  608.70  115.70   1
 -11   5  -3  327.00  114.40   1
  11  -5   3  252.70  114.10   1
 -11  -5   3  279.60  113.70   1
  11   5  -3  355.00  113.80   1
  11   5   4   12.10   21.60   1
 -11  -5  -4   17.00   21.70   1
  11  -5  -4   25.90   21.70   1
 -11   5   4    5.90   21.60   1
 -11   5  -4   46.20   22.40   1
  11  -5   4  106.10   23.00   1
 -11  -5   4   16.10   21.70   1
  11   5  -4   12.90   21.70   1
  11   5   5   67.60   55.20   1
 -11  -5  -5   78.10   55.30   1
  11  -5  -5  293.00   55.90   1
 -11   5   5  132.50   55.40   1
 -11   5  -5   86.00   55.70   1
  11  -5   5  107.70   55.70   1
 -11  -5   5  107.60   55.40   1
  11   5  -5  173.50   55.90   1
  11   5   6   53.00   41.80   1
 -11  -5  -6   56.70   41.90   1
  11  -5  -6  111.10   41.80   1
 -11   5   6   50.20   41.70   1
 -11   5  -6   59.90   42.70   1
  11  -5   6   57.00   42.60   1
 -11  -5   6   54.40   41.90   1
  11   5  -6   55.70   41.90   1
  11   5   7  190.30  110.00   1
 -11  -5  -7  608.00  113.00   1
  11  -5  -7  410.30  110.40   1
 -11   5   7  563.90  111.20   1
 -11  -5   7  354.30  111.10   1
  11   5  -7  577.80  113.80   1
  11   5   8   93.70   76.80   1
 -11  -5  -8  343.30   78.70   1
  11  -5  -8  173.20   76.60   1
 -11   5   8  260.90   77.00   1
 -11  -5   8  208.60   77.50   1
  11   5  -8  288.60   79.10   1
  11   5   9   89.60   37.60   1
 -11  -5  -9   39.10   37.10   1
  11  -5  -9  181.80   37.50   1
 -11   5   9   31.40   36.70   1
 -11  -5   9   33.80   36.90   1
  11   5  -9   52.30   37.20   1
  11   5  10   13.50   28.70   1
 -11  -5 -10   28.90   29.00   1
  11  -5 -10   42.90   28.40   1
 -11   5  10   27.40   28.30   1
 -11  -5  10   21.20   28.70   1
  11   5  11   28.70   21.20   1
  11  -5 -11   18.20   20.40   1
 -11   5  11   11.10   20.00   1
  11  -5 -12  159.10   39.90   1
 -11   5  12   34.40   38.10   1
  11  -5 -13   19.30   18.30   1
 -11   5  13    5.20   18.30   1
  11   6   0   12.70   19.70   1
 -11  -6   0   25.80   19.70   1
  11  -6   0    5.60   19.70   1
 -11   6   0    8.60   19.70   1
  11   6   1   10.70   28.80   1
 -11  -6  -1   31.30   28.80   1
 -11   6   1   51.70   29.00   1
 -11   6  -1   51.00   29.40   1
  11  -6   1   51.10   29.30   1
 -11  -6   1   40.90   28.90   1
  11   6  -1   31.70   28.90   1
  11   6   2   23.00   29.80   1
 -11  -6  -2   43.60   29.80   1
  11  -6  -2   49.20   29.90   1
 -11   6   2   24.80   29.80   1
 -11   6  -2   67.30   30.70   1
  11  -6   2   56.70   30.80   1
 -11  -6   2   26.00   29.80   1
  11   6  -2   28.30   29.80   1
  11   6   3   13.20   21.80   1
 -11  -6  -3   19.00   21.80   1
  11  -6  -3   16.60   21.90   1
 -11   6   3   21.80   21.90   1
 -11   6  -3   32.10   22.60   1
  11  -6   3   53.20   22.80   1
 -11  -6   3   10.50   21.90   1
  11   6  -3   17.20   21.90   1
  11   6   4   19.00   23.40   1
 -11  -6  -4    9.40   23.40   1
  11  -6  -4   24.30   23.40   1
 -11   6   4   35.20   23.50   1
 -11   6  -4   27.80   24.00   1
  11  -6   4   40.30   24.10   1
 -11  -6   4   21.40   23.50   1
  11   6  -4    5.60   23.60   1
  11   6   5    3.50   25.70   1
 -11  -6  -5   24.20   25.70   1
  11  -6  -5   67.20   25.80   1
 -11   6   5   47.70   25.80   1
 -11   6  -5   15.50   26.50   1
  11  -6   5   22.30   26.60   1
 -11  -6   5   -0.00   25.80   1
  11   6  -5   10.30   25.90   1
  11   6   6   37.80   19.60   1
 -11  -6  -6   21.70   19.50   1
  11  -6  -6   11.40   19.40   1
 -11   6   6    6.10   19.50   1
  11  -6   6    6.80   21.10   1
 -11  -6   6    6.60   19.60   1
  11   6  -6    5.20   19.60   1
  11   6   7    8.90   22.00   1
 -11  -6  -7    9.50   22.10   1
  11  -6  -7    9.90   21.60   1
 -11   6   7   14.60   21.60   1
 -11  -6   7   31.10   21.90   1
  11   6  -7   57.00   22.20   1
  11   6   8   39.00   23.80   1
 -11  -6  -8   14.20   23.40   1
  11  -6  -8   18.30   22.70   1
 -11   6   8   12.30   22.70   1
 -11  -6   8   19.20   22.90   1
  11   6  -8   36.00   23.10   1
  11   6   9   22.40   30.80   1
 -11  -6  -9    4.30   30.50   1
  11  -6  -9   38.40   30.20   1
 -11   6   9   39.00   30.20   1
 -11  -6   9   73.20   31.40   1
  11   6  -9   22.00   30.60   1
  11   6  10   27.50   14.60   1
 -11  -6 -10    7.60   14.10   1
  11  -6 -10    3.50   13.40   1
 -11   6  10    5.60   13.30   1
  11   6  11    5.40   14.90   1
 -11  -6 -11    7.30   15.00   1
  11  -6 -11   14.10   13.90   1
 -11   6  11    3.50   13.70   1
  11  -6 -12    9.00   10.00   1
 -11   6  12    0.00    9.30   1
  11  -6 -13   -0.00    4.00   1
  11   7   0   11.30   20.30   1
 -11  -7   0   22.90   20.30   1
  11  -7   0    8.90   20.50   1
 -11   7   0    9.30   20.60   1
  11   7   1   67.10   35.20   1
 -11  -7  -1   39.00   35.20   1
  11  -7  -1   52.00   35.30   1
 -11   7   1   32.70   35.20   1
 -11   7  -1   48.90   35.90   1
  11  -7   1   22.50   35.50   1
 -11  -7   1   66.80   35.20   1
  11   7  -1   26.90   35.20   1
  11   7   2   19.70   36.10   1
 -11  -7  -2   59.50   36.20   1
  11  -7  -2   50.50   36.20   1
 -11   7   2   54.90   36.30   1
 -11   7  -2   74.30   36.90   1
  11  -7   2   63.20   36.90   1
 -11  -7   2   92.20   36.30   1
  11   7  -2   34.50   36.10   1
  11   7   3   19.00   24.80   1
 -11  -7  -3   27.30   24.80   1
  11  -7  -3   16.00   24.80   1
 -11   7   3    8.00   24.80   1
 -11   7  -3  156.30   26.60   1
  11  -7   3  152.40   26.80   1
 -11  -7   3   28.00   24.90   1
  11   7  -3   25.20   25.00   1
  11   7   4   34.40   28.70   1
 -11  -7  -4   23.80   28.60   1
  11  -7  -4   16.10   28.60   1
 -11   7   4   37.30   28.70   1
 -11   7  -4    5.30   29.20   1
  11  -7   4   16.80   29.10   1
 -11  -7   4   62.20   29.00   1
  11   7  -4  125.70   29.70   1
  11   7   5   64.60   44.90   1
 -11  -7  -5   46.50   44.90   1
  11  -7  -5   64.70   44.90   1
 -11   7   5   90.50   45.00   1
 -11   7  -5   96.10   46.30   1
  11  -7   5  101.30   46.20   1
 -11  -7   5   96.70   45.20   1
  11   7  -5  215.20   46.20   1
  11   7   6   23.40   25.60   1
 -11  -7  -6   24.00   25.60   1
  11  -7  -6   37.40   25.60   1
 -11   7   6   21.10   25.60   1
 -11  -7   6   17.80   25.70   1
  11   7  -6   15.50   25.70   1
  11   7   7    8.20   16.50   1
 -11  -7  -7   11.50   16.80   1
  11  -7  -7    7.30   16.40   1
 -11   7   7   11.20   16.40   1
 -11  -7   7   11.00   16.60   1
  11   7  -7   10.30   16.60   1
  11   7   8    5.20   17.80   1
 -11  -7  -8   15.60   18.70   1
  11  -7  -8   12.90   17.30   1
 -11   7   8   16.00   17.30   1
 -11  -7   8    5.60   17.50   1
  11   7  -8    2.40   17.70   1
  11   7   9   29.40   19.40   1
 -11  -7  -9    5.80   19.00   1
  11  -7  -9    7.30   18.30   1
 -11   7   9   16.10   18.40   1
  11   7  10   44.70   35.10   1
 -11  -7 -10   34.90   34.90   1
  11  -7 -10   58.90   34.70   1
 -11   7  10   35.50   34.60   1
  11   7  11   58.90   39.30   1
 -11  -7 -11   61.90   39.80   1
  11  -7 -11   48.20   38.90   1
 -11   7  11   55.10   38.80   1
  11   7  12   -0.00    6.60   1
  11  -7 -12   -0.00    5.10   1
 -11   7  12    0.70    4.20   1
  11  -7 -13    7.90   15.30   1
  11   8   0   15.00   31.50   1
 -11  -8   0  172.00   32.10   1
  11  -8   0   53.80   31.90   1
 -11   8   0   20.30   31.90   1
  11   8   1   55.80   38.40   1
 -11  -8  -1   38.60   38.40   1
  11  -8  -1   37.30   38.40   1
 -11   8   1  115.20   38.60   1
 -11   8  -1   53.30   39.10   1
  11  -8   1   75.30   39.20   1
 -11  -8   1   35.10   38.30   1
  11   8  -1   89.20   38.40   1
  11   8   2  189.00   90.60   1
 -11  -8  -2  225.00   90.70   1
  11  -8  -2  401.90   91.50   1
 -11   8   2  408.10   91.50   1
 -11   8  -2  291.80   91.60   1
  11  -8   2  271.70   91.50   1
 -11  -8   2  246.30   90.80   1
  11   8  -2  284.50   91.00   1
 -11  -8  -3   14.50   21.50   1
  11  -8  -3   24.50   21.60   1
 -11   8   3   17.30   21.60   1
 -11   8  -3   35.50   22.20   1
  11  -8   3   14.40   22.20   1
 -11  -8   3    5.50   21.70   1
  11   8  -3   22.20   21.90   1
  11   8   4   54.60   35.80   1
 -11  -8  -4   38.20   35.80   1
  11  -8  -4   29.20   35.80   1
 -11   8   4   30.80   35.80   1
 -11   8  -4  106.80   37.10   1
  11  -8   4  122.50   37.00   1
 -11  -8   4   57.00   36.00   1
  11   8  -4   76.40   36.10   1
  11   8   5   28.90   29.50   1
 -11  -8  -5   43.90   29.50   1
  11  -8  -5   39.60   29.50   1
 -11   8   5   25.40   29.50   1
 -11   8  -5   36.80   30.70   1
  11  -8   5   24.60   30.50   1
 -11  -8   5   22.00   29.50   1
  11   8  -5   25.80   29.60   1
  11   8   6  353.70   99.70   1
 -11  -8  -6  306.60   99.50   1
  11  -8  -6  321.90   99.60   1
 -11   8   6  319.10   99.60   1
 -11  -8   6  190.50   99.60   1
  11   8  -6  263.70  100.50   1
  11   8   7   27.50   24.80   1
 -11  -8  -7   31.70   24.90   1
  11  -8  -7   24.70   24.80   1
 -11   8   7   11.80   24.80   1
 -11  -8   7   16.60   24.90   1
  11   8  -7   23.10   25.10   1
  11   8   8  184.40   58.90   1
 -11  -8  -8   79.60   58.50   1
  11  -8  -8  129.30   58.40   1
 -11   8   8  118.80   58.40   1
 -11  -8   8   71.10   59.00   1
  11   8   9   15.20   22.00   1
 -11  -8  -9    5.30   21.60   1
  11  -8  -9   20.90   21.00   1
 -11   8   9   13.80   21.00   1
  11   8  10  505.80  109.40   1
 -11  -8 -10  302.60  106.40   1
  11  -8 -10  319.50  105.20   1
 -11   8  10  301.10  105.10   1
  11   8  11   11.30   23.40   1
 -11  -8 -11   17.40   23.50   1
  11  -8 -11   42.30   23.20   1
 -11   8  11   11.40   23.00   1
  11   8  12   30.30   31.50   1
  11  -8 -12   56.10   31.00   1
 -11   8  12   26.80   30.80   1
  11   9   0    4.40    8.70   1
 -11  -9   0   -0.00    8.70   1
  11  -9   0    5.20   10.10   1
 -11   9   0    6.10   11.40   1
  11   9   1   96.20   36.40   1
 -11  -9  -1   40.20   36.20   1
  11  -9  -1   52.10   36.40   1
 -11   9   1   50.80   36.50   1
 -11   9  -1  125.10   37.50   1
  11  -9   1   52.70   36.80   1
 -11  -9   1   38.40   36.20   1
  11   9  -1   29.10   36.20   1
  11   9   2    3.90   15.70   1
 -11  -9  -2    6.60   15.70   1
  11  -9  -2   18.60   15.90   1
 -11   9   2    5.90   15.80   1
 -11   9  -2    2.50   16.70   1
  11  -9   2   14.50   16.80   1
 -11  -9   2   14.70   15.80   1
  11   9  -2   13.90   16.00   1
  11   9   3   35.10   34.50   1
 -11  -9  -3   43.70   34.50   1
  11  -9  -3   65.10   34.70   1
 -11   9   3   40.20   34.60   1
 -11   9  -3   28.30   35.00   1
  11  -9   3   72.00   35.20   1
 -11  -9   3   29.10   34.60   1
  11   9  -3   56.30   34.80   1
  11   9   4   15.60   18.30   1
 -11  -9  -4    8.20   18.20   1
  11  -9  -4    7.20   18.30   1
 -11   9   4   -0.00   18.20   1
 -11   9  -4   17.60   19.70   1
  11  -9   4   -0.00   19.40   1
 -11  -9   4   39.50   18.50   1
  11   9  -4   39.60   18.60   1
  11   9   5   16.60   20.60   1
 -11  -9  -5    8.60   20.60   1
  11  -9  -5    5.20   20.60   1
 -11   9   5   12.90   20.60   1
 -11  -9   5   84.70   21.50   1
  11   9  -5   60.00   21.20   1
  11   9   6    8.20   15.10   1
 -11  -9  -6   -0.00   15.00   1
  11  -9  -6   42.10   15.30   1
 -11   9   6    4.70   15.10   1
 -11  -9   6    0.00   15.20   1
  11   9  -6    8.10   15.30   1
  11   9   7   12.50   19.30   1
 -11  -9  -7   10.20   19.30   1
  11  -9  -7   18.80   19.30   1
 -11   9   7   16.40   19.30   1
 -11  -9   7    5.70   19.60   1
  11   9   8   15.70   26.90   1
 -11  -9  -8   51.20   27.20   1
  11  -9  -8   26.80   26.90   1
 -11   9   8   25.30   26.90   1
  11   9   9   -0.00   18.50   1
 -11  -9  -9   18.40   19.20   1
  11  -9  -9   12.10   18.10   1
 -11   9   9   14.40   18.10   1
  11   9  10   38.20   21.40   1
 -11  -9 -10   15.50   21.00   1
  11  -9 -10   12.80   20.40   1
 -11   9  10   14.10   20.40   1
  11   9  11    9.70   21.80   1
 -11  -9 -11   10.10   21.60   1
  11  -9 -11   32.20   21.30   1
 -11   9  11    9.30   21.30   1
  11   9  12    5.40    9.70   1
 -11  -9 -12    7.40   10.00   1
  11  -9 -12    3.20    8.80   1
 -11   9  12    0.90    8.70   1
  11  10   0   66.30   34.40   1
 -11 -10   0   37.50   34.40   1
  11 -10   0   16.10   35.20   1
 -11  10   0   -0.00   35.00   1
  11  10   1   66.50   47.10   1
 -11 -10  -1   59.40   47.10   1
  11 -10  -1   59.60   47.40   1
 -11  10   1   98.00   47.60   1
 -11  10  -1  137.30   48.10   1
  11 -10   1  136.90   48.10   1
 -11 -10   1   82.10   47.20   1
  11  10  -1  108.10   47.30   1
  11  10   2  155.40   33.60   1
 -11 -10  -2   44.40   33.20   1
  11 -10  -2   28.00   33.30   1
 -11  10   2   17.80   33.30   1
 -11  10  -2   31.70   33.80   1
  11 -10   2   15.70   33.70   1
 -11 -10   2   52.80   33.40   1
  11  10  -2   18.60   33.50   1
  11  10   3    8.00   25.90   1
 -11 -10  -3   14.00   25.90   1
  11 -10  -3   60.00   26.30   1
 -11  10   3   96.70   26.40   1
 -11  10  -3   88.30   27.50   1
  11 -10   3   48.00   26.80   1
 -11 -10   3   19.90   26.10   1
  11  10  -3   41.10   26.20   1
  11  10   4   26.90   32.20   1
 -11 -10  -4   47.40   32.30   1
  11 -10  -4   30.50   32.30   1
 -11  10   4   30.60   32.30   1
 -11  10  -4   52.50   33.60   1
  11 -10   4  181.50   37.40   1
 -11 -10   4   34.90   32.40   1
  11  10  -4   74.80   32.60   1
  11  10   5   63.40   41.80   1
 -11 -10  -5  107.40   42.00   1
  11 -10  -5   67.20   41.80   1
 -11  10   5   66.40   41.80   1
 -11 -10   5   33.60   41.80   1
  11  10  -5   45.30   41.90   1
  11  10   6  469.20  122.60   1
 -11 -10  -6  347.00  122.00   1
  11 -10  -6  475.90  123.00   1
 -11  10   6  412.20  122.80   1
 -11 -10   6  399.20  126.70   1
  11  10  -6  521.00  135.30   1
  11  10   7   58.70   34.90   1
 -11 -10  -7   69.20   34.90   1
  11 -10  -7   27.20   34.80   1
 -11  10   7   33.80   34.80   1
  11  10   8   43.30   37.70   1
 -11 -10  -8   77.70   37.80   1
  11 -10  -8   47.30   37.70   1
 -11  10   8   45.70   37.70   1
  11  10   9   35.20   24.90   1
 -11 -10  -9   18.70   24.90   1
  11 -10  -9   21.80   24.50   1
 -11  10   9   19.00   24.50   1
  11  10  10  145.90   44.20   1
 -11 -10 -10   78.20   43.30   1
  11 -10 -10   47.80   42.70   1
 -11  10  10   75.90   42.80   1
  11  10  11   61.30   33.10   1
 -11 -10 -11   13.40   32.60   1
  11 -10 -11   51.70   32.40   1
 -11  10  11   33.40   32.40   1
 -11 -10 -12   18.00   13.10   1
  11 -10 -12    9.80   12.10   1
 -11  10  12   -0.00   12.10   1
  11  11   0   17.10   22.30   1
 -11 -11   0   14.50   22.20   1
  11 -11   0   14.10   23.10   1
 -11  11   0   74.00   23.80   1
  11  11   1   -0.00   14.90   1
 -11 -11  -1   16.70   15.00   1
  11 -11  -1   25.30   15.80   1
 -11  11   1   47.40   17.10   1
 -11  11  -1    4.90   16.30   1
  11 -11   1   11.60   16.00   1
 -11 -11   1    5.40   15.10   1
  11  11  -1    2.10   15.40   1
  11  11   2    2.40   14.60   1
 -11 -11  -2   21.60   14.60   1
  11 -11  -2    6.40   15.00   1
 -11  11   2    6.50   15.20   1
 -11  11  -2    5.70   15.80   1
  11 -11   2   -0.00   15.40   1
 -11 -11   2    3.20   14.90   1
  11  11  -2    3.10   14.80   1
  11  11   3    7.10   16.80   1
 -11 -11  -3    9.70   16.80   1
  11 -11  -3   46.80   17.10   1
 -11  11   3   -0.00   16.90   1
 -11  11  -3   11.30   18.30   1
  11 -11   3   -0.10   18.50   1
 -11 -11   3    6.60   16.90   1
  11  11  -3   10.60   17.10   1
  11  11   4   42.20   31.60   1
 -11 -11  -4   17.90   31.50   1
  11 -11  -4   48.30   31.70   1
 -11  11   4   24.90   31.60   1
  11 -11   4   45.70   33.10   1
 -11 -11   4   96.80   32.20   1
  11  11  -4   87.50   32.30   1
  11  11   5   65.60   27.20   1
 -11 -11  -5   18.00   27.00   1
  11 -11  -5   30.70   27.10   1
 -11  11   5   19.10   27.10   1
 -11 -11   5   17.90   27.10   1
  11  11  -5   24.90   27.30   1
  11  11   6   -0.00   12.30   1
 -11 -11  -6    4.30   12.30   1
  11 -11  -6   15.30   12.50   1
 -11  11   6    9.10   12.40   1
 -11 -11   6   -0.00   12.80   1
  11  11   7    8.10   12.40   1
 -11 -11  -7    7.50   12.40   1
  11 -11  -7   -0.00   12.40   1
 -11  11   7    6.40   12.40   1
  11  11   8   20.50   21.30   1
 -11 -11  -8   29.60   21.30   1
  11 -11  -8   11.30   21.20   1
 -11  11   8   10.00   21.20   1
  11  11   9   16.20   12.20   1
 -11 -11  -9   -0.00   12.40   1
  11 -11  -9    0.00   12.10   1
 -11  11   9    5.90   12.10   1
  11  11  10   -0.00   11.70   1
 -11 -11 -10   23.00   12.60   1
  11 -11 -10    3.30   11.10   1
 -11  11  10    4.70   11.10   1
  11  11  11   28.00   16.90   1
 -11 -11 -11  100.10   18.50   1
  11 -11 -11    5.00   16.00   1
 -11  11  11    5.70   15.90   1
  11  12   0   21.30   23.10   1
 -11 -12   0   19.00   22.80   1
  11 -12   0   -0.00   23.70   1
 -11  12   0   34.80   24.10   1
  11  12   1   35.20   37.90   1
 -11 -12  -1   50.20   37.90   1
  11 -12  -1   70.00   38.90   1
 -11  12   1   41.80   38.70   1
 -11  12  -1   65.70   38.50   1
  11 -12   1  106.10   38.80   1
 -11 -12   1   39.20   38.10   1
  11  12  -1  117.00   38.70   1
  11  12   2   16.20   22.80   1
 -11 -12  -2   22.80   22.80   1
  11 -12  -2   -0.00   23.40   1
 -11  12   2   32.70   23.50   1
 -11  12  -2   18.00   23.70   1
  11 -12   2   -0.00   23.60   1
 -11 -12   2   23.20   23.00   1
  11  12  -2   22.80   23.10   1
  11  12   3   12.10   25.50   1
 -11 -12  -3   20.30   25.50   1
  11 -12  -3   20.30   25.70   1
 -11  12   3   16.50   25.60   1
 -11  12  -3   17.70   26.80   1
  11 -12   3   83.50   27.90   1
 -11 -12   3  152.20   27.30   1
  11  12  -3   85.90   26.30   1
  11  12   4  165.60   73.10   1
 -11 -12  -4  184.60   73.10   1
  11 -12  -4  148.70   73.20   1
 -11  12   4  190.80   73.30   1
 -11 -12   4  199.20   74.50   1
  11  12  -4  202.10   75.20   1
  11  12   5   11.70   11.90   1
 -11 -12  -5   -0.00   11.90   1
  11 -12  -5   -0.00   12.10   1
 -11  12   5   10.20   12.10   1
 -11 -12   5    5.00   12.50   1
  11  12   6   35.70   30.10   1
 -11 -12  -6   32.80   30.10   1
  11 -12  -6   21.10   30.10   1
 -11  12   6   44.50   30.20   1
  11  12   7   14.60   12.10   1
 -11 -12  -7   -0.00   12.00   1
  11 -12  -7    5.30   12.10   1
 -11  12   7   -0.00   12.20   1
  11  12   8   18.60   24.80   1
 -11 -12  -8   55.30   24.90   1
  11 -12  -8   20.30   24.80   1
 -11  12   8   11.70   24.80   1
  11  12   9   19.20   20.10   1
 -11 -12  -9   14.50   20.10   1
  11 -12  -9   12.60   20.10   1
 -11  12   9   12.80   20.10   1
  11  12  10   81.80   33.90   1
 -11 -12 -10   29.20   33.70   1
  11 -12 -10   35.30   33.50   1
 -11  12  10   38.50   33.50   1
  11  12  11   17.50    9.20   1
 -11 -12 -11    8.80    8.00   1
  11 -12 -11    0.00    6.80   1
 -11  12  11    0.00    6.90   1
  11  13   0   14.20   23.80   1
 -11 -13   0   10.80   23.50   1
  11 -13   0   10.40   24.20   1
 -11  13   0  114.60   25.30   1
  11  13   1  997.50  207.20   1
 -11 -13  -1  758.70  204.80   1
  11 -13  -1  945.60  207.60   1
 -11  13   1  884.40  207.20   1
 -11  13  -1 1144.70  213.80   1
  11 -13   1  758.10  207.00   1
 -11 -13   1  874.70  207.50   1
  11  13  -1 1145.90  211.70   1
  11  13   2    8.40   20.00   1
 -11 -13  -2    8.60   20.00   1
  11 -13  -2    3.10   20.60   1
 -11  13   2   14.70   21.60   1
 -11  13  -2    6.20   21.20   1
  11 -13   2   11.10   21.10   1
 -11 -13   2   29.30   20.20   1
  11  13  -2   62.10   20.60   1
  11  13   3   52.80   35.20   1
 -11 -13  -3   53.10   35.20   1
  11 -13  -3  112.60   35.80   1
 -11  13   3   41.50   35.50   1
  11 -13   3   53.90   36.60   1
 -11 -13   3   31.70   35.30   1
  11  13  -3   14.60   35.20   1
  11  13   4   76.50   47.70   1
 -11 -13  -4   72.30   47.70   1
  11 -13  -4   67.80   47.80   1
 -11  13   4  141.60   48.00   1
 -11 -13   4   63.70   48.10   1
  11  13  -4   98.30   49.50   1
  11  13   5   14.30   27.30   1
 -11 -13  -5   48.00   27.40   1
  11 -13  -5   46.00   27.60   1
 -11  13   5   21.60   27.50   1
  11  13   6   21.00   28.70   1
 -11 -13  -6   30.60   28.70   1
  11 -13  -6   41.50   28.80   1
 -11  13   6   34.80   28.80   1
  11  13   7   -0.00   17.30   1
 -11 -13  -7   20.80   17.40   1
  11 -13  -7   38.60   17.60   1
 -11  13   7   -0.00   17.40   1
  11  13   8   33.90   28.80   1
 -11 -13  -8   22.60   28.80   1
  11 -13  -8   25.10   28.80   1
 -11  13   8   46.60   28.90   1
  11  13   9  106.60   60.90   1
 -11 -13  -9  133.20   61.10   1
  11 -13  -9  122.50   61.10   1
 -11  13   9  152.30   61.30   1
  11  13  10   20.00   21.70   1
 -11 -13 -10   12.10   21.90   1
  11 -13 -10   21.30   21.70   1
 -11  13  10   13.20   21.70   1
  11  14   0   11.40   13.80   1
 -11 -14   0   -0.00   13.90   1
  11 -14   0   11.20   14.80   1
 -11  14   0    3.40   14.80   1
  11  14   1    3.00   16.50   1
 -11 -14  -1    9.30   16.20   1
  11 -14  -1   46.80   17.60   1
 -11  14   1   38.90   17.80   1
 -11  14  -1   21.30   17.60   1
  11 -14   1    3.60   17.20   1
 -11 -14   1    2.40   16.30   1
  11  14  -1    7.10   16.30   1
  11  14   2    6.10   20.50   1
 -11 -14  -2   31.50   20.60   1
  11 -14  -2   13.70   21.80   1
 -11  14   2   -0.10   21.80   1
 -11  14  -2    5.30   21.80   1
  11 -14   2   21.40   21.80   1
 -11 -14   2   10.90   20.60   1
  11  14  -2   16.20   20.70   1
  11  14   3   17.90   20.00   1
 -11 -14  -3   10.70   20.00   1
  11 -14  -3   16.70   20.60   1
 -11  14   3   15.40   20.50   1
 -11 -14   3   16.50   20.20   1
  11  14  -3   13.70   20.30   1
  11  14   4    7.00   14.50   1
 -11 -14  -4    9.80   14.50   1
  11 -14  -4    5.00   14.70   1
 -11  14   4    4.30   14.70   1
 -11 -14   4    9.80   15.00   1
  11  14   5   19.60   20.30   1
 -11 -14  -5   13.60   20.30   1
  11 -14  -5   28.70   20.60   1
 -11  14   5   -0.00   20.50   1
  11  14   6   30.10   18.40   1
 -11 -14  -6    2.20   18.30   1
  11 -14  -6    8.80   18.50   1
 -11  14   6   13.00   18.50   1
  11  14   7    8.60   15.00   1
 -11 -14  -7    9.30   15.00   1
  11 -14  -7    4.80   15.10   1
 -11  14   7    9.00   15.10   1
  11  14   8    0.30   11.70   1
 -11 -14  -8    8.10   11.70   1
  11 -14  -8    8.00   11.80   1
 -11  14   8    4.90   11.80   1
  11  14   9   18.10   17.10   1
 -11 -14  -9    9.90   17.10   1
  11 -14  -9    6.60   17.10   1
 -11  14   9    8.10   17.10   1
  11  14  10   15.70   16.10   1
 -11 -14 -10    5.20   16.10   1
  11 -14 -10   11.00   16.10   1
 -11  14  10    5.10   16.10   1
  11  15   0    2.40   21.20   1
 -11 -15   0   45.30   21.50   1
  11 -15   0    9.60   21.70   1
 -11  15   0   13.60   21.90   1
  11  15   1    8.90   27.20   1
 -11 -15  -1   17.60   27.20   1
  11 -15  -1   39.60   27.80   1
 -11  15   1  122.90   29.10   1
 -11  15  -1    4.10   27.90   1
  11 -15   1    9.00   27.80   1
 -11 -15   1   31.30   27.20   1
  11  15  -1   55.60   27.50   1
  11  15   2   35.30   31.50   1
 -11 -15  -2   29.20   31.40   1
  11 -15  -2   38.00   32.00   1
 -11  15   2   56.00   32.30   1
  11 -15   2   57.30   32.90   1
 -11 -15   2   45.30   31.70   1
  11  15  -2   28.80   31.60   1
  11  15   3   31.00   23.40   1
 -11 -15  -3   21.50   23.30   1
  11 -15  -3    8.20   23.70   1
 -11  15   3   23.30   24.70   1
 -11 -15   3   -0.00   23.50   1
  11  15   4   25.60   23.40   1
 -11 -15  -4    8.30   23.40   1
  11 -15  -4   47.80   23.80   1
 -11  15   4   33.30   23.90   1
  11  15   5   10.70   16.20   1
 -11 -15  -5    8.90   16.20   1
  11 -15  -5    6.50   16.40   1
 -11  15   5   11.40   16.40   1
  11  15   6   24.60   29.80   1
 -11 -15  -6   32.70   29.80   1
  11 -15  -6   44.10   30.00   1
 -11  15   6   38.80   29.90   1
  11  15   7   20.40   22.20   1
 -11 -15  -7   11.70   22.20   1
  11 -15  -7   43.80   22.40   1
 -11  15   7   10.60   22.30   1
  11  15   8   20.40   26.60   1
 -11 -15  -8   30.80   26.60   1
  11 -15  -8   39.60   26.70   1
 -11  15   8   19.40   26.60   1
  11  15   9   11.20   17.40   1
 -11 -15  -9    2.60   17.40   1
  11 -15  -9    9.30   17.40   1
 -11  15   9   38.10   17.70   1
  11  16   0   39.40   17.40   1
 -11 -16   0    0.50   17.10   1
  11 -16   0   10.20   18.00   1
 -11  16   0   -0.00   17.90   1
  11  16   1   21.90   18.30   1
 -11 -16  -1   -0.00   18.30   1
  11 -16  -1   14.50   19.00   1
 -11  16   1    8.80   18.90   1
 -11  16  -1   12.70   19.50   1
  11 -16   1    6.80   19.40   1
 -11 -16   1   18.50   18.30   1
  11  16  -1    9.50   18.30   1
  11  16   2   74.70   30.10   1
 -11 -16  -2   16.40   29.50   1
  11 -16  -2   22.60   30.10   1
 -11  16   2   86.80   30.80   1
 -11 -16   2   40.90   29.90   1
  11  16   3   29.80   24.90   1
 -11 -16  -3   19.60   24.80   1
  11 -16  -3    9.50   25.70   1
 -11  16   3   19.30   25.50   1
  11  16   4   76.80   41.10   1
 -11 -16  -4   59.60   41.00   1
  11 -16  -4   56.60   41.30   1
 -11  16   4   31.50   41.20   1
  11  16   5   14.80   25.20   1
 -11 -16  -5   56.50   25.40   1
  11 -16  -5   20.30   25.40   1
 -11  16   5   17.10   25.40   1
  11  16   6   33.00   33.20   1
 -11 -16  -6   60.60   33.30   1
  11 -16  -6   41.60   33.40   1
 -11  16   6   29.30   33.30   1
  11  16   7   12.80   14.60   1
 -11 -16  -7   10.30   14.70   1
  11 -16  -7    0.00   14.80   1
 -11  16   7   -0.00   14.80   1
  11  16   8   10.70   18.10   1
 -11 -16  -8   41.70   18.30   1
  11 -16  -8    6.00   18.10   1
 -11  16   8    4.20   18.10   1
  11  17   0   -0.00   10.90   1
 -11 -17   0    5.80   10.90   1
  11 -17   0   18.50   12.20   1
 -11  17   0    0.00   12.60   1
  11  17   1   36.30   33.10   1
 -11 -17  -1   25.40   33.00   1
  11 -17  -1   74.20   33.90   1
 -11  17   1   53.80   33.70   1
  11 -17   1   55.20   34.50   1
 -11 -17   1   42.90   33.30   1
  11  17  -1   47.70   33.70   1
  11  17   2    0.70   11.30   1
 -11 -17  -2    1.70   11.40   1
  11 -17  -2   -0.00   12.60   1
 -11  17   2   39.90   13.10   1
 -11 -17   2    4.50   11.30   1
  11  17   3   32.90   24.70   1
 -11 -17  -3   16.90   24.40   1
  11 -17  -3   18.00   25.20   1
 -11  17   3   33.20   25.50   1
  11  17   4    9.30   14.80   1
 -11 -17  -4    8.70   14.80   1
  11 -17  -4   -0.00   15.40   1
 -11  17   4   -0.00   16.80   1
  11  17   5   15.10   20.90   1
 -11 -17  -5   15.60   20.90   1
  11 -17  -5   15.50   21.10   1
 -11  17   5   23.20   21.40   1
  11  17   6    6.40   14.80   1
 -11 -17  -6    4.40   14.80   1
  11 -17  -6   83.30   15.80   1
 -11  17   6    2.50   15.00   1
  11  17   7   16.10   14.80   1
 -11 -17  -7    3.70   14.80   1
  11 -17  -7    4.50   15.10   1
 -11  17   7    3.90   15.00   1
  11  17   8   -0.00    6.90   1
 -11 -17  -8    3.10    6.90   1
  11 -17  -8    2.50    7.20   1
 -11  17   8    1.40    7.30   1
  11  18   0   16.00   21.50   1
 -11 -18   0   36.20   21.70   1
  11 -18   0   -0.20   22.00   1
 -11  18   0   -0.00   22.30   1
  11  18   1   18.90   22.30   1
 -11 -18  -1   15.80   22.20   1
  11 -18  -1   19.10   22.70   1
 -11  18   1   12.30   22.90   1
  11 -18   1   28.60   23.50   1
 -11 -18   1   18.10   22.50   1
  11  18   2   22.40   24.40   1
 -11 -18  -2   13.00   24.30   1
  11 -18  -2   48.10   25.10   1
 -11  18   2   26.70   25.00   1
  11  18   3    2.10   15.20   1
 -11 -18  -3    4.20   15.10   1
  11 -18  -3   12.80   16.10   1
 -11  18   3   70.00   17.40   1
  11  18   4  121.40   48.60   1
 -11 -18  -4  130.30   48.50   1
  11 -18  -4   47.80   48.50   1
 -11  18   4   34.40   48.40   1
  11  18   5   14.00   26.20   1
 -11 -18  -5  109.00   26.80   1
  11 -18  -5   56.10   26.80   1
 -11  18   5   -0.00   26.70   1
  11  18   6   27.00   23.80   1
 -11 -18  -6   16.10   23.70   1
  11 -18  -6   10.30   23.80   1
 -11  18   6   38.50   24.00   1
  11  18   7   16.60   15.20   1
 -11 -18  -7    3.30   15.10   1
  11 -18  -7   13.00   15.40   1
 -11  18   7    2.80   15.30   1
 -11 -19   0    2.30    7.60   1
  11 -19   0   -0.00    9.20   1
  11  19   1    5.80   19.80   1
 -11 -19  -1   28.20   20.00   1
  11 -19  -1   14.80   20.50   1
 -11  19   1   21.70   21.00   1
  11  19   2   16.50   13.70   1
 -11 -19  -2   -0.00   13.60   1
  11 -19  -2   13.50   14.50   1
 -11  19   2   -0.10   14.40   1
  11  19   3   32.00   19.60   1
 -11 -19  -3   -0.00   19.40   1
  11 -19  -3   37.10   20.60   1
 -11  19   3   15.20   20.10   1
  11  19   4   -0.00   14.20   1
 -11 -19  -4    7.30   13.90   1
  11 -19  -4    1.80   14.90   1
 -11  19   4   41.30   15.70   1
  11  19   5    9.10   10.80   1
 -11 -19  -5    1.00   10.70   1
  11 -19  -5   -0.00   11.60   1
 -11  19   5   24.60   13.90   1
 -11 -20   0    1.30    6.30   1
  11 -20   0   -0.00    8.10   1
 -11 -20  -1    3.50   10.50   1
  11 -20  -1    9.00   11.90   1
 -11  20   1   -0.00   11.90   1
  11  20   2   -0.00    9.60   1
 -11 -20  -2    7.00    9.60   1
  11 -20  -2   -0.00   10.50   1
  11  20   3   41.70   25.10   1
 -11 -20  -3   13.00   24.70   1
  11 -20  -3   40.10   25.60   1
  12   0   0  574.00  146.70   1
 -12   0   0  522.70  146.20   1
  12   0   1  236.60   92.60   1
 -12   0  -1  252.90   92.60   1
  12   0  -1  312.40   92.90   1
 -12   0   1  272.40   92.80   1
  12   0   2 2989.60  510.90   1
 -12   0  -2 2666.50  509.70   1
  12   0  -2 2748.50  510.80   1
 -12   0   2 3077.40  512.70   1
  12   0   3  256.60   77.70   1
 -12   0  -3  242.30   77.60   1
  12   0  -3  166.30   77.40   1
 -12   0   3  159.70   77.40   1
  12   0   4 1873.30  368.00   1
 -12   0  -4 2594.10  372.10   1
  12   0  -4 1987.80  369.10   1
 -12   0   4 1637.30  367.40   1
  12   0   5  966.10  234.50   1
 -12   0  -5 1704.10  241.40   1
  12   0  -5 1036.20  234.20   1
 -12   0   5 1037.40  234.10   1
  12   0   6  181.40   64.20   1
 -12   0  -6  132.70   64.00   1
  12   0  -6  123.30   63.40   1
 -12   0   6  134.20   63.30   1
  12   0   7 1201.50  222.60   1
 -12   0  -7 1016.10  221.00   1
  12   0  -7  899.60  217.90   1
 -12   0   7  942.30  217.90   1
  12   0   8  475.30  136.60   1
 -12   0  -8  478.50  137.10   1
  12   0  -8  611.10  136.20   1
 -12   0   8  418.50  134.70   1
  12   0   9  111.80   51.60   1
 -12   0  -9   89.10   51.50   1
  12   0  -9  107.20   50.70   1
 -12   0   9   70.10   50.30   1
  12   0 -10   83.50   42.80   1
 -12   0  10   49.20   42.60   1
  12   0 -11  298.10   67.40   1
 -12   0  11  109.90   64.20   1
  12   0 -12  216.90   68.80   1
 -12   0  12  122.30   66.50   1
  12   0 -13    0.00    3.20   1
 -12   0  13   -0.00    3.50   1
  12   1   0   20.50   26.70   1
 -12  -1   0   18.90   26.70   1
  12  -1   0   34.60   26.80   1
 -12   1   0   32.80   26.70   1
  12   1   1  108.80   54.20   1
 -12  -1  -1   96.30   54.20   1
  12  -1  -1   97.20   54.20   1
 -12   1   1  114.30   54.30   1
 -12   1  -1   87.80   54.20   1
  12  -1   1  161.00   54.40   1
 -12  -1   1   95.10   54.20   1
  12   1  -1   82.90   54.10   1
  12   1   2  120.30   61.70   1
 -12  -1  -2  106.30   61.70   1
  12  -1  -2  151.30   61.70   1
 -12   1   2  165.30   61.80   1
 -12   1  -2  110.70   61.70   1
  12  -1   2  120.00   61.70   1
 -12  -1   2  128.80   61.70   1
  12   1  -2  137.00   61.70   1
  12   1   3  121.20   35.30   1
 -12  -1  -3   98.80   35.20   1
  12  -1  -3   55.00   35.00   1
 -12   1   3   38.50   35.00   1
 -12   1  -3   43.80   35.10   1
  12  -1   3   29.10   35.00   1
 -12  -1   3   28.50   34.90   1
  12   1  -3   23.90   34.90   1
  12   1   4  126.00   56.60   1
 -12  -1  -4  142.60   56.70   1
  12  -1  -4   84.20   56.40   1
 -12   1   4  103.50   56.50   1
 -12   1  -4   35.60   56.60   1
  12  -1   4   71.30   56.70   1
 -12  -1   4  202.50   56.70   1
  12   1  -4  183.90   56.70   1
  12   1   5   14.80   20.10   1
 -12  -1  -5    8.10   20.00   1
  12  -1  -5   20.20   19.40   1
 -12   1   5   27.70   19.40   1
 -12   1  -5   17.60   20.20   1
  12  -1   5   26.50   20.70   1
 -12  -1   5    4.30   19.40   1
  12   1  -5    4.60   19.40   1
  12   1   6  100.40   40.50   1
 -12  -1  -6    6.50   39.90   1
  12  -1  -6   63.30   39.50   1
 -12   1   6   48.80   39.50   1
 -12   1  -6  150.70   40.80   1
  12  -1   6   31.30   40.10   1
 -12  -1   6   58.60   39.50   1
  12   1  -6   56.10   39.50   1
  12   1   7  245.80   78.60   1
 -12  -1  -7  321.50   79.20   1
  12  -1  -7  222.70   77.70   1
 -12   1   7  180.80   77.50   1
 -12   1  -7  127.20   77.80   1
  12  -1   7  156.60   77.90   1
 -12  -1   7  168.00   77.50   1
  12   1  -7  278.20   78.20   1
  12   1   8   24.90   20.80   1
 -12  -1  -8   19.20   20.70   1
  12  -1  -8   20.40   20.00   1
 -12   1   8    6.90   19.90   1
 -12   1  -8   32.40   21.40   1
  12  -1   8   79.10   21.70   1
 -12  -1   8    1.30   20.00   1
  12   1  -8   17.70   20.40   1
  12   1   9    6.70   15.70   1
 -12  -1  -9    8.20   15.90   1
  12  -1  -9   10.70   14.90   1
 -12   1   9   -0.00   14.50   1
  12  -1   9    8.00   16.30   1
 -12  -1   9   10.70   15.20   1
  12   1  -9   33.60   15.60   1
  12   1  10   33.40   25.20   1
  12  -1 -10   24.60   24.40   1
 -12   1  10   50.00   24.40   1
 -12  -1  10    3.80   23.90   1
  12   1 -10   26.60   24.10   1
  12  -1 -11    9.60   26.90   1
 -12   1  11   14.50   26.80   1
 -12  -1  11   70.10   27.30   1
  12   1 -11   35.60   26.90   1
  12  -1 -12   23.90   20.60   1
 -12   1  12    6.00   20.40   1
 -12  -1  12   11.90   20.50   1
  12   1 -12   23.10   20.60   1
  12  -1 -13   21.80   15.20   1
 -12   1  13   17.40   15.10   1
 -12  -1  13   -0.00   14.90   1
  12   1 -13   -0.00   15.00   1
  12   2   0   66.40   45.70   1
 -12  -2   0   67.20   45.70   1
  12  -2   0   85.20   45.80   1
 -12   2   0   77.50   45.80   1
  12   2   1  268.50  103.70   1
 -12  -2  -1  299.90  103.70   1
  12  -2  -1  305.70  103.80   1
 -12   2   1  290.50  103.60   1
 -12   2  -1  382.90  103.90   1
  12  -2   1  354.90  103.70   1
 -12  -2   1  317.50  103.70   1
  12   2  -1  325.00  103.60   1
  12   2   2   45.70   43.20   1
 -12  -2  -2   89.30   43.30   1
  12  -2  -2   49.60   43.30   1
 -12   2   2   64.20   43.30   1
 -12   2  -2   73.60   43.30   1
  12  -2   2   84.20   43.40   1
 -12  -2   2   68.50   43.30   1
  12   2  -2   73.00   43.30   1
  12   2   3  183.30   70.00   1
 -12  -2  -3  185.20   70.00   1
  12  -2  -3  223.50   70.10   1
 -12   2   3  146.60   69.90   1
 -12   2  -3  280.30   70.50   1
  12  -2   3  217.00   70.20   1
 -12  -2   3  119.10   69.80   1
  12   2  -3  114.00   69.80   1
  12   2   4   51.30   50.20   1
 -12  -2  -4   82.10   50.30   1
  12  -2  -4   99.70   50.30   1
 -12   2   4   73.30   50.30   1
 -12   2  -4   61.70   51.00   1
  12  -2   4   54.40   50.60   1
 -12  -2   4  261.40   51.00   1
  12   2  -4  274.70   51.00   1
  12   2   5   44.10   49.90   1
 -12  -2  -5   96.20   50.20   1
  12  -2  -5  102.20   49.90   1
 -12   2   5   86.50   49.90   1
 -12  -2   5   89.30   49.90   1
  12   2  -5  105.10   49.90   1
  12   2   6   12.90   26.00   1
 -12  -2  -6   11.60   26.60   1
  12  -2  -6   29.00   25.50   1
 -12   2   6   59.70   25.50   1
 -12   2  -6   30.30   26.00   1
  12  -2   6   26.90   26.10   1
 -12  -2   6    9.70   25.40   1
  12   2  -6   11.60   25.40   1
  12   2   7   70.90   54.40   1
 -12  -2  -7  125.30   54.70   1
  12  -2  -7   86.30   53.90   1
 -12   2   7  103.30   53.90   1
 -12   2  -7   61.10   54.20   1
  12  -2   7  114.30   54.60   1
 -12  -2   7  123.80   54.10   1
  12   2  -7  139.70   54.30   1
  12   2   8  113.10   49.50   1
 -12  -2  -8   90.80   49.30   1
  12  -2  -8   64.30   48.70   1
 -12   2   8  106.00   48.90   1
 -12   2  -8   88.40   50.10   1
  12  -2   8   81.20   49.70   1
 -12  -2   8   54.50   49.00   1
  12   2  -8  128.10   49.50   1
  12   2   9   88.80   36.40   1
 -12  -2  -9   73.20   36.40   1
  12  -2  -9   47.30   35.50   1
 -12   2   9   74.50   35.60   1
 -12  -2   9   14.80   35.50   1
  12   2  -9   29.00   35.60   1
  12   2  10    6.80   17.40   1
 -12  -2 -10   -0.00   17.60   1
  12  -2 -10   -0.00   16.80   1
 -12   2  10    2.10   16.40   1
 -12  -2  10   57.80   17.00   1
  12   2 -10    5.20   16.50   1
  12  -2 -11   40.90   35.00   1
 -12   2  11   23.50   34.90   1
 -12  -2  11   59.20   35.10   1
  12   2 -11   74.10   35.50   1
  12  -2 -12   21.40   21.50   1
 -12   2  12    6.00   21.40   1
 -12  -2  12   16.80   21.40   1
  12   2 -12   31.70   21.80   1
  12  -2 -13   44.70   24.90   1
 -12   2  13   30.10   24.70   1
 -12  -2  13    7.20   24.50   1
  12   3   0 1897.00  387.90   1
 -12  -3   0 2380.30  390.00   1
  12  -3   0 2145.10  389.20   1
 -12   3   0 1913.90  388.10   1
  12   3   1  228.20   78.50   1
 -12  -3  -1  218.80   78.50   1
  12  -3  -1  169.40   78.30   1
 -12   3   1  193.70   78.40   1
 -12   3  -1  174.60   78.40   1
  12  -3   1  182.00   78.40   1
 -12  -3   1  220.30   78.40   1
  12   3  -1  201.30   78.40   1
  12   3   2   65.10   32.50   1
 -12  -3  -2    8.20   32.40   1
  12  -3  -2   60.00   32.60   1
 -12   3   2  209.50   33.50   1
 -12   3  -2   12.50   32.50   1
  12  -3   2   10.00   32.50   1
 -12  -3   2   34.70   32.40   1
  12   3  -2  239.10   33.30   1
  12   3   3  436.70   98.40   1
 -12  -3  -3  209.00   97.70   1
  12  -3  -3  315.10   98.00   1
 -12   3   3  401.80   98.40   1
 -12   3  -3  221.20   98.00   1
  12  -3   3  455.80   99.00   1
 -12  -3   3  269.70   97.80   1
  12   3  -3  288.50   97.90   1
  12   3   4  179.80   39.60   1
 -12  -3  -4  102.70   39.20   1
  12  -3  -4   19.70   39.00   1
 -12   3   4   21.70   39.00   1
 -12   3  -4   54.90   39.60   1
  12  -3   4   16.80   39.50   1
 -12  -3   4   94.00   39.10   1
  12   3  -4  105.40   39.10   1
  12   3   5   82.90   44.20   1
 -12  -3  -5   75.00   44.20   1
  12  -3  -5   57.30   44.10   1
 -12   3   5   85.10   44.10   1
 -12   3  -5   53.80   44.70   1
  12  -3   5  115.30   44.90   1
 -12  -3   5   51.20   44.10   1
  12   3  -5   69.60   44.10   1
  12   3   6  342.90   86.80   1
 -12  -3  -6  115.70   86.00   1
  12  -3  -6  268.10   86.10   1
 -12   3   6  326.30   86.40   1
 -12   3  -6  275.30   87.00   1
  12  -3   6  188.70   86.40   1
 -12  -3   6  232.00   86.20   1
  12   3  -6  295.50   86.50   1
  12   3   7  365.50  102.70   1
 -12  -3  -7  266.80  101.90   1
  12  -3  -7  426.70  101.90   1
 -12   3   7  227.50  101.20   1
 -12   3  -7  322.80  103.70   1
  12  -3   7  264.20  102.40   1
 -12  -3   7  345.40  102.10   1
  12   3  -7  591.80  105.00   1
  12   3   8  106.20   51.30   1
 -12  -3  -8  153.50   51.50   1
  12  -3  -8   89.80   50.50   1
 -12   3   8  119.80   50.60   1
 -12   3  -8   83.40   52.10   1
  12  -3   8   93.50   51.90   1
 -12  -3   8   40.60   50.60   1
  12   3  -8   77.90   50.70   1
  12   3   9   36.00   42.80   1
 -12  -3  -9   67.40   42.90   1
  12  -3  -9   79.50   42.50   1
 -12   3   9   72.20   42.40   1
 -12  -3   9   40.20   42.50   1
  12   3  -9   82.90   42.80   1
  12   3  10   32.30   35.70   1
 -12  -3 -10   54.80   36.20   1
  12  -3 -10   32.20   35.40   1
 -12   3  10   39.00   35.30   1
 -12  -3  10   78.80   35.90   1
  12   3 -10   81.60   36.00   1
  12   3  11   24.50   30.70   1
  12  -3 -11   44.70   30.40   1
 -12   3  11   32.30   30.10   1
 -12  -3  11   29.40   30.10   1
  12   3 -11   30.60   30.20   1
  12  -3 -12    8.90   13.80   1
 -12   3  12   -0.00   13.80   1
 -12  -3  12    9.30   13.60   1
  12   3 -12    7.10   14.00   1
  12  -3 -13   57.30   31.40   1
 -12   3  13  107.80   32.40   1
 -12  -3  13   -0.00   31.20   1
  12   4   0    7.40   12.70   1
 -12  -4   0    9.20   12.70   1
  12  -4   0    2.00   12.90   1
 -12   4   0   -0.00   12.90   1
  12   4   1  110.20   47.00   1
 -12  -4  -1   71.30   46.90   1
  12  -4  -1   97.00   47.00   1
 -12   4   1   31.20   46.90   1
 -12   4  -1   66.70   46.90   1
  12  -4   1   79.80   47.00   1
 -12  -4   1  102.00   46.90   1
  12   4  -1   95.70   46.90   1
  12   4   2    8.30   19.70   1
 -12  -4  -2    6.40   19.80   1
  12  -4  -2    5.00   19.70   1
 -12   4   2    6.60   19.80   1
 -12   4  -2   49.50   20.50   1
  12  -4   2   25.00   20.20   1
 -12  -4   2   25.00   19.80   1
  12   4  -2   27.30   19.80   1
  12   4   3   36.90   26.60   1
 -12  -4  -3   14.10   26.60   1
  12  -4  -3   14.70   26.60   1
 -12   4   3   19.20   26.60   1
 -12   4  -3   77.80   28.00   1
  12  -4   3   36.70   27.30   1
 -12  -4   3   31.00   26.60   1
  12   4  -3   38.30   26.60   1
  12   4   4   69.70   38.10   1
 -12  -4  -4   54.20   38.00   1
  12  -4  -4   52.10   38.00   1
 -12   4   4   55.70   38.00   1
 -12   4  -4   96.70   38.90   1
  12  -4   4  119.10   39.00   1
 -12  -4   4   31.30   38.00   1
  12   4  -4   41.10   38.00   1
  12   4   5   25.90   27.60   1
 -12  -4  -5   20.20   27.60   1
  12  -4  -5   37.60   27.60   1
 -12   4   5   30.50   27.60   1
 -12   4  -5   15.30   28.10   1
  12  -4   5   87.40   28.70   1
 -12  -4   5   19.20   27.60   1
  12   4  -5   28.50   27.60   1
  12   4   6   18.90   30.10   1
 -12  -4  -6   23.10   30.20   1
  12  -4  -6   40.80   30.00   1
 -12   4   6   36.60   30.00   1
 -12   4  -6    7.00   30.40   1
  12  -4   6   34.80   30.60   1
 -12  -4   6   32.30   30.10   1
  12   4  -6   48.50   30.40   1
  12   4   7  210.20   71.30   1
 -12  -4  -7  227.60   71.70   1
  12  -4  -7  173.00   70.60   1
 -12   4   7  201.70   70.70   1
 -12   4  -7   91.00   71.20   1
  12  -4   7  122.60   71.40   1
 -12  -4   7  106.00   70.70   1
  12   4  -7  187.70   71.20   1
  12   4   8   28.10   26.20   1
 -12  -4  -8   24.30   26.10   1
  12  -4  -8   27.30   25.40   1
 -12   4   8   16.70   25.40   1
  12  -4   8   12.70   26.40   1
 -12  -4   8   20.70   25.50   1
  12   4  -8   39.50   25.80   1
  12   4   9   29.60   29.90   1
 -12  -4  -9   50.80   30.10   1
  12  -4  -9   32.90   29.40   1
 -12   4   9   33.00   29.40   1
 -12  -4   9   25.60   29.60   1
  12   4  -9   21.80   29.60   1
  12   4  10   -0.00   14.30   1
 -12  -4 -10    8.70   14.80   1
  12  -4 -10    8.30   13.60   1
 -12   4  10    3.00   13.50   1
 -12  -4  10    7.30   13.80   1
  12   4 -10   16.00   14.00   1
  12   4  11   -0.00   14.40   1
 -12  -4 -11   20.50   15.20   1
  12  -4 -11   15.00   13.90   1
 -12   4  11    4.80   13.50   1
 -12  -4  11    4.50   13.60   1
  12   4 -11    3.90   13.90   1
  12  -4 -12    5.80   17.10   1
 -12   4  12    6.60   17.00   1
 -12  -4  12   26.80   17.80   1
  12  -4 -13   -0.00    3.60   1
  12   5   0  184.20   68.90   1
 -12  -5   0  170.90   68.90   1
  12  -5   0  144.70   68.90   1
 -12   5   0  130.20   68.90   1
  12   5   1  325.10  106.30   1
 -12  -5  -1  291.50  106.10   1
  12  -5  -1  325.70  106.30   1
 -12   5   1  344.20  106.30   1
 -12   5  -1  380.50  106.50   1
  12  -5   1  300.30  106.20   1
 -12  -5   1  324.80  106.20   1
  12   5  -1  372.10  106.40   1
  12   5   2  400.60  116.70   1
 -12  -5  -2  379.50  116.60   1
  12  -5  -2  427.60  116.70   1
 -12   5   2  345.90  116.40   1
 -12   5  -2  245.60  116.30   1
  12  -5   2  474.20  117.20   1
 -12  -5   2  410.00  116.60   1
  12   5  -2  661.20  117.80   1
  12   5   3  176.20   76.00   1
 -12  -5  -3  147.80   75.90   1
  12  -5  -3  186.00   76.10   1
 -12   5   3  166.30   76.10   1
 -12   5  -3  158.90   76.40   1
  12  -5   3  219.00   76.90   1
 -12  -5   3  214.50   76.00   1
  12   5  -3  299.40   76.40   1
  12   5   4  342.30   88.20   1
 -12  -5  -4  245.00   88.00   1
  12  -5  -4  287.10   88.20   1
 -12   5   4  285.40   88.30   1
 -12   5  -4  280.40   88.80   1
  12  -5   4  223.90   88.50   1
 -12  -5   4  176.40   87.80   1
  12   5  -4  220.40   87.90   1
  12   5   5   44.00   30.90   1
 -12  -5  -5   67.70   31.00   1
  12  -5  -5   27.10   30.80   1
 -12   5   5   33.50   30.80   1
 -12   5  -5   37.80   31.30   1
  12  -5   5   15.20   31.30   1
 -12  -5   5   23.50   30.80   1
  12   5  -5   33.90   30.90   1
  12   5   6  139.90   74.70   1
 -12  -5  -6  191.90   74.80   1
  12  -5  -6  210.20   74.80   1
 -12   5   6  218.00   74.80   1
 -12   5  -6  272.60   77.00   1
  12  -5   6  238.10   76.10   1
 -12  -5   6  125.90   74.80   1
  12   5  -6  184.60   75.30   1
  12   5   7 1827.70  285.80   1
 -12  -5  -7  999.60  280.30   1
  12  -5  -7 1499.60  282.40   1
 -12   5   7 1614.60  283.30   1
 -12   5  -7 1402.00  319.80   1
  12  -5   7 1550.60  311.50   1
 -12  -5   7 1137.00  283.30   1
  12   5  -7 2008.20  296.00   1
  12   5   8   79.20   54.80   1
 -12  -5  -8  106.70   54.80   1
  12  -5  -8   86.40   54.20   1
 -12   5   8  193.50   54.60   1
 -12  -5   8   67.60   54.30   1
  12   5  -8  137.00   54.80   1
  12   5   9   30.00   47.80   1
 -12  -5  -9   91.10   48.10   1
  12  -5  -9  172.30   48.00   1
 -12   5   9   74.60   47.60   1
 -12  -5   9   67.70   47.80   1
  12   5  -9   70.50   47.90   1
  12   5  10   48.70   44.30   1
 -12  -5 -10   82.20   44.70   1
  12  -5 -10  127.40   44.40   1
 -12   5  10   71.80   44.00   1
 -12  -5  10   38.50   44.10   1
  12   5 -10   65.90   44.60   1
  12   5  11   75.50   36.50   1
 -12  -5 -11   88.70   37.50   1
  12  -5 -11   99.20   35.80   1
 -12   5  11   26.50   35.20   1
 -12  -5  11   52.70   36.00   1
  12   5  12   23.60   23.30   1
 -12   5  12   16.60   22.40   1
  12  -5 -13   78.80   48.20   1
  12   6   0   50.80   38.10   1
 -12  -6   0   55.70   38.10   1
  12  -6   0   51.00   38.20   1
 -12   6   0   47.20   38.20   1
  12   6   1   49.00   37.30   1
 -12  -6  -1   29.80   37.30   1
  12  -6  -1   49.70   37.40   1
 -12   6   1   52.60   37.40   1
 -12   6  -1   55.30   37.70   1
  12  -6   1   78.70   37.70   1
 -12  -6   1   45.30   37.30   1
  12   6  -1   76.60   37.40   1
  12   6   2   37.60   23.50   1
 -12  -6  -2   22.00   23.50   1
  12  -6  -2   24.00   23.60   1
 -12   6   2   23.90   23.60   1
 -12   6  -2   17.00   24.70   1
  12  -6   2    4.80   24.30   1
 -12  -6   2    7.70   23.50   1
  12   6  -2   14.80   23.50   1
  12   6   3   10.00   19.60   1
 -12  -6  -3   13.60   19.60   1
  12  -6  -3   10.80   19.60   1
 -12   6   3   -0.00   19.60   1
 -12   6  -3   81.40   21.30   1
  12  -6   3   65.70   21.10   1
 -12  -6   3   17.10   19.60   1
  12   6  -3   22.50   19.70   1
  12   6   4   18.70   21.00   1
 -12  -6  -4   28.40   21.10   1
  12  -6  -4   12.70   21.00   1
 -12   6   4   11.80   21.00   1
 -12   6  -4   12.60   21.80   1
  12  -6   4   10.50   22.10   1
 -12  -6   4    9.00   21.00   1
  12   6  -4   22.40   21.10   1
  12   6   5   13.90   20.20   1
  12  -6  -5   32.50   20.20   1
 -12   6   5   18.50   20.10   1
 -12   6  -5   11.50   21.10   1
  12  -6   5    4.90   20.90   1
 -12  -6   5    0.20   20.20   1
  12   6  -5    0.00   20.50   1
  12   6   6    4.10    9.40   1
 -12  -6  -6    7.30    9.40   1
  12  -6  -6   -0.00    9.20   1
 -12   6   6    3.50    9.30   1
 -12   6  -6   -0.00   11.80   1
  12  -6   6    2.30   12.00   1
 -12  -6   6   -0.00    9.90   1
  12   6  -6    4.20   10.10   1
  12   6   7  115.00   54.70   1
 -12  -6  -7  177.50   55.10   1
  12  -6  -7   90.60   54.50   1
 -12   6   7  124.00   54.60   1
  12  -6   7  122.50   57.00   1
 -12  -6   7   54.90   54.50   1
  12   6  -7  121.30   55.00   1
  12   6   8   74.80   51.50   1
 -12  -6  -8  137.60   52.30   1
  12  -6  -8   62.90   51.10   1
 -12   6   8  129.60   51.30   1
 -12  -6   8   92.80   51.50   1
  12   6  -8  164.00   52.50   1
  12   6   9   89.70   28.20   1
 -12  -6  -9   25.80   27.40   1
  12  -6  -9   26.50   26.80   1
 -12   6   9   27.30   26.80   1
 -12  -6   9   10.40   26.90   1
  12   6  -9   30.10   27.10   1
  12   6  10    9.10   16.10   1
 -12  -6 -10    5.10   15.80   1
  12  -6 -10   35.20   15.40   1
 -12   6  10   -0.00   15.20   1
 -12  -6  10    5.70   15.50   1
  12   6 -10    0.70   15.80   1
  12   6  11    1.90   16.50   1
 -12  -6 -11   -0.00   16.70   1
  12  -6 -11   19.50   16.00   1
 -12   6  11    8.70   15.90   1
 -12  -6  11    3.60   16.20   1
  12   6  12   19.60   18.50   1
  12  -6 -12   25.70   17.90   1
 -12   6  12    5.40   17.40   1
  12  -6 -13   19.80   23.80   1
  12   7   0 1138.80  229.90   1
 -12  -7   0  984.80  229.40   1
  12  -7   0 1059.20  229.80   1
 -12   7   0 1004.90  229.40   1
  12   7   1    4.50   20.60   1
 -12  -7  -1    7.70   20.60   1
  12  -7  -1    4.00   20.70   1
 -12   7   1    7.60   20.70   1
 -12   7  -1    9.30   21.10   1
  12  -7   1   18.30   21.30   1
 -12  -7   1   62.40   20.90   1
  12   7  -1   49.10   20.80   1
  12   7   2  241.10   85.70   1
 -12  -7  -2  227.30   85.60   1
  12  -7  -2  198.80   85.60   1
 -12   7   2  261.60   85.70   1
 -12   7  -2  203.70   86.10   1
  12  -7   2  278.20   86.60   1
 -12  -7   2  271.90   85.70   1
  12   7  -2  197.40   85.50   1
  12   7   3   25.90   21.10   1
 -12  -7  -3   13.30   21.00   1
  12  -7  -3   11.40   21.10   1
 -12   7   3   24.90   21.10   1
 -12   7  -3   -0.00   22.00   1
  12  -7   3   11.50   22.20   1
 -12  -7   3   11.10   21.10   1
  12   7  -3   15.20   21.10   1
  12   7   4   50.70   46.50   1
 -12  -7  -4  133.90   46.70   1
  12  -7  -4  176.90   47.10   1
 -12   7   4   57.60   46.50   1
 -12   7  -4   54.30   46.90   1
  12  -7   4   57.90   46.90   1
 -12  -7   4   65.70   46.60   1
  12   7  -4  133.00   47.00   1
  12   7   5   32.20   22.20   1
 -12  -7  -5   13.20   22.10   1
  12  -7  -5   36.30   22.20   1
 -12   7   5   10.60   22.10   1
 -12   7  -5    2.80   23.00   1
  12  -7   5    9.20   22.90   1
 -12  -7   5   -0.00   22.50   1
  12   7  -5   22.40   22.60   1
  12   7   6  177.60   62.90   1
 -12  -7  -6   72.50   62.60   1
  12  -7  -6  149.00   62.80   1
 -12   7   6  232.90   63.20   1
 -12   7  -6  235.60   67.90   1
  12  -7   6  148.50   64.50   1
 -12  -7   6  114.20   62.90   1
  12   7  -6  258.00   64.20   1
  12   7   7    7.10   16.40   1
 -12  -7  -7   17.90   16.50   1
  12  -7  -7    1.10   16.30   1
 -12   7   7    5.00   16.30   1
 -12  -7   7   23.20   16.60   1
  12   7  -7   22.80   16.70   1
  12   7   8  170.70   69.40   1
 -12  -7  -8  128.10   69.30   1
  12  -7  -8  139.20   69.00   1
 -12   7   8  172.30   69.10   1
 -12  -7   8  202.30   70.40   1
  12   7  -8  201.30   71.00   1
  12   7   9   17.10   13.40   1
 -12  -7  -9    5.90   12.80   1
  12  -7  -9   -0.00   11.80   1
 -12   7   9    8.00   11.80   1
 -12  -7   9    7.70   12.10   1
  12   7  -9    2.10   12.20   1
  12   7  10  133.70   54.70   1
 -12  -7 -10  100.30   54.30   1
  12  -7 -10   93.70   53.80   1
 -12   7  10   95.40   53.80   1
 -12  -7  10  105.20   55.70   1
  12   7  11   17.00   26.00   1
 -12  -7 -11   25.20   26.00   1
  12  -7 -11   28.20   25.50   1
 -12   7  11   20.80   25.50   1
  12   7  12   -0.00   10.80   1
 -12  -7 -12    6.40   11.00   1
  12  -7 -12    8.40    9.70   1
 -12   7  12   -0.00    9.40   1
  12   8   0  241.60   93.10   1
 -12  -8   0  250.40   93.10   1
  12  -8   0  564.40   94.60   1
 -12   8   0  226.40   93.20   1
  12   8   1  552.70  158.70   1
 -12  -8  -1  618.50  158.80   1
  12  -8  -1  718.60  159.30   1
 -12   8   1  629.10  159.10   1
 -12   8  -1  779.80  161.10   1
  12  -8   1  699.40  160.10   1
 -12  -8   1  483.30  158.40   1
  12   8  -1  811.40  159.70   1
  12   8   2  629.30  144.20   1
 -12  -8  -2  463.00  143.60   1
  12  -8  -2  600.20  144.20   1
 -12   8   2  614.50  144.50   1
 -12   8  -2  369.20  144.00   1
  12  -8   2  447.00  144.40   1
 -12  -8   2  558.50  144.00   1
  12   8  -2  672.30  144.50   1
  12   8   3  469.30  128.20   1
 -12  -8  -3  487.50  128.40   1
  12  -8  -3  831.00  129.80   1
 -12   8   3  347.20  127.70   1
 -12   8  -3  493.60  129.30   1
  12  -8   3  570.20  130.00   1
 -12  -8   3  321.80  127.80   1
  12   8  -3  588.90  129.30   1
  12   8   4  455.00  124.70   1
 -12  -8  -4  348.90  124.30   1
  12  -8  -4  383.20  124.20   1
 -12   8   4  426.70  124.30   1
 -12   8  -4  621.30  128.00   1
  12  -8   4  518.40  126.50   1
 -12  -8   4  383.70  124.70   1
  12   8  -4  610.60  127.00   1
  12   8   5  511.30  138.30   1
 -12  -8  -5  484.50  138.10   1
  12  -8  -5  448.30  138.20   1
 -12   8   5  582.10  139.20   1
 -12   8  -5  532.90  143.80   1
  12  -8   5  580.30  142.90   1
 -12  -8   5  410.70  138.60   1
  12   8  -5  660.50  141.00   1
  12   8   6   35.60   23.70   1
 -12  -8  -6   30.20   23.60   1
  12  -8  -6   16.90   23.50   1
 -12   8   6    7.20   23.50   1
  12  -8   6   55.90   25.70   1
 -12  -8   6   13.20   23.70   1
  12   8  -6   25.40   23.80   1
  12   8   7  570.90   70.60   1
 -12  -8  -7  167.70   67.40   1
  12  -8  -7   94.40   67.20   1
 -12   8   7  170.20   67.50   1
 -12  -8   7  269.80   69.50   1
  12   8  -7  285.30   70.50   1
  12   8   8   88.10   51.10   1
 -12  -8  -8  169.50   51.70   1
  12  -8  -8   76.40   51.00   1
 -12   8   8   86.70   51.00   1
 -12  -8   8   92.50   51.60   1
  12   8  -8   95.50   51.90   1
  12   8   9  356.80  114.50   1
 -12  -8  -9  680.10  119.30   1
  12  -8  -9  407.60  114.20   1
 -12   8   9  318.90  113.80   1
 -12  -8   9  274.10  117.80   1
  12   8  10   22.80   24.00   1
 -12  -8 -10   -0.00   23.80   1
  12  -8 -10   15.10   23.30   1
 -12   8  10   29.90   23.30   1
  12   8  11  207.80   48.50   1
 -12  -8 -11   63.90   46.10   1
  12  -8 -11  185.20   46.50   1
 -12   8  11   51.20   45.60   1
  12   8  12   66.90   34.10   1
 -12  -8 -12   97.50   35.80   1
  12  -8 -12   31.40   33.10   1
 -12   8  12   38.30   33.10   1
  12   9   0   -0.00   19.40   1
 -12  -9   0   40.20   19.50   1
  12  -9   0   10.80   20.20   1
 -12   9   0    8.30   20.10   1
  12   9   1   10.70   14.70   1
 -12  -9  -1   10.60   14.70   1
  12  -9  -1   -0.00   14.90   1
 -12   9   1   -0.00   15.00   1
 -12   9  -1    0.00   16.30   1
  12  -9   1   11.70   16.80   1
 -12  -9   1   14.00   14.70   1
  12   9  -1    3.80   14.70   1
  12   9   2   12.80   18.80   1
 -12  -9  -2    9.50   18.80   1
  12  -9  -2   18.10   19.00   1
 -12   9   2   17.30   19.00   1
 -12   9  -2   38.00   20.30   1
  12  -9   2   48.20   20.10   1
 -12  -9   2    6.00   18.90   1
  12   9  -2   11.70   19.00   1
  12   9   3   16.90   21.80   1
 -12  -9  -3   12.50   21.80   1
  12  -9  -3   17.10   21.90   1
 -12   9   3   18.70   21.90   1
 -12   9  -3   10.80   22.60   1
  12  -9   3   19.30   22.70   1
 -12  -9   3   20.30   22.00   1
  12   9  -3   32.30   22.30   1
  12   9   4  104.80   39.40   1
 -12  -9  -4   88.80   39.30   1
  12  -9  -4   70.20   39.20   1
 -12   9   4   59.50   39.20   1
 -12   9  -4   34.70   39.70   1
  12  -9   4   58.00   39.90   1
 -12  -9   4   10.20   39.30   1
  12   9  -4   14.30   39.30   1
  12   9   5   22.90   24.20   1
 -12  -9  -5   17.50   24.20   1
  12  -9  -5   15.80   24.20   1
 -12   9   5   23.10   24.20   1
 -12   9  -5   31.10   25.60   1
  12  -9   5   26.90   25.60   1
 -12  -9   5   17.20   24.40   1
  12   9  -5   41.20   24.60   1
  12   9   6   31.50   27.50   1
 -12  -9  -6   17.70   27.50   1
  12  -9  -6   26.50   27.50   1
 -12   9   6   17.20   27.50   1
 -12  -9   6   85.00   28.20   1
  12   9  -6   50.10   27.90   1
  12   9   7   30.90   30.40   1
 -12  -9  -7   24.10   30.40   1
  12  -9  -7   38.70   30.40   1
 -12   9   7   35.30   30.40   1
 -12  -9   7   38.10   30.60   1
  12   9  -7   44.20   30.80   1
  12   9   8   19.50   19.10   1
 -12  -9  -8   17.40   19.10   1
  12  -9  -8   21.20   19.00   1
 -12   9   8    5.40   19.00   1
 -12  -9   8    4.90   19.20   1
  12   9  -8    0.60   19.40   1
  12   9   9   15.20   17.10   1
 -12  -9  -9   17.10   17.10   1
  12  -9  -9    5.10   16.60   1
 -12   9   9   11.80   16.60   1
  12   9  10   14.90   21.50   1
 -12  -9 -10    5.10   21.00   1
  12  -9 -10   23.70   20.60   1
 -12   9  10   11.50   20.50   1
  12   9  11   67.00   15.30   1
 -12  -9 -11   -0.00   13.50   1
  12  -9 -11    4.30   12.80   1
 -12   9  11    4.50   12.80   1
  12   9  12    6.70   11.40   1
 -12  -9 -12   -0.20   11.30   1
  12  -9 -12    4.30   10.50   1
  12  10   0   16.10   26.50   1
 -12 -10   0   50.40   26.60   1
  12 -10   0    3.50   27.00   1
 -12  10   0   13.60   27.80   1
  12  10   1   39.30   33.20   1
 -12 -10  -1   19.70   33.10   1
  12 -10  -1   77.40   33.50   1
 -12  10   1   22.20   33.50   1
 -12  10  -1  105.70   34.50   1
  12 -10   1  180.40   35.20   1
 -12 -10   1   31.60   33.10   1
  12  10  -1   70.60   33.30   1
  12  10   2  381.50  120.90   1
 -12 -10  -2  452.10  121.10   1
  12 -10  -2  466.40  121.20   1
 -12  10   2  358.40  120.90   1
 -12  10  -2  322.60  121.40   1
  12 -10   2  411.30  122.10   1
 -12 -10   2  376.80  121.20   1
  12  10  -2  649.60  123.40   1
  12  10   3   86.30   51.00   1
 -12 -10  -3   84.20   51.00   1
  12 -10  -3  272.90   51.90   1
 -12  10   3   52.40   51.00   1
  12 -10   3   79.70   51.50   1
 -12 -10   3  107.10   51.40   1
  12  10  -3  159.40   51.80   1
  12  10   4  257.90   75.90   1
 -12 -10  -4  205.80   75.70   1
  12 -10  -4  225.80   75.70   1
 -12  10   4  212.90   75.70   1
 -12  10  -4  258.80   78.60   1
  12 -10   4  227.20   77.30   1
 -12 -10   4   84.50   75.40   1
  12  10  -4  306.10   77.20   1
  12  10   5  713.80   91.40   1
 -12 -10  -5  203.30   86.90   1
  12 -10  -5  230.10   86.90   1
 -12  10   5  205.90   86.80   1
  12 -10   5  508.50  102.60   1
 -12 -10   5  330.30   88.50   1
  12  10  -5  197.90   87.30   1
  12  10   6  133.50   60.80   1
 -12 -10  -6  114.10   60.70   1
  12 -10  -6  122.10   60.80   1
 -12  10   6  121.50   60.80   1
 -12 -10   6  142.00   61.50   1
  12  10  -6  123.60   61.50   1
  12  10   7   89.70   43.10   1
 -12 -10  -7   95.10   43.10   1
  12 -10  -7   43.20   43.00   1
 -12  10   7   51.80   43.00   1
 -12 -10   7   86.80   43.90   1
  12  10  -7   74.80   44.00   1
  12  10   8   44.30   34.70   1
 -12 -10  -8   35.60   34.70   1
  12 -10  -8   98.00   34.90   1
 -12  10   8   33.60   34.60   1
 -12 -10   8   23.50   34.90   1
  12  10   9    8.30   16.90   1
 -12 -10  -9   45.50   17.40   1
  12 -10  -9    4.60   16.70   1
 -12  10   9    9.50   16.70   1
  12  10  10   37.00   28.80   1
 -12 -10 -10   33.30   29.00   1
  12 -10 -10   16.80   28.30   1
 -12  10  10   50.90   28.50   1
  12  10  11    5.60   24.00   1
 -12 -10 -11   21.80   23.90   1
  12 -10 -11   21.30   23.40   1
 -12  10  11   21.20   23.40   1
  12  11   0   60.40   28.00   1
 -12 -11   0   14.20   27.90   1
  12 -11   0   23.60   29.00   1
 -12  11   0   21.30   28.90   1
  12  11   1   14.80   24.60   1
 -12 -11  -1   31.60   24.60   1
  12 -11  -1   23.80   25.20   1
 -12  11   1    5.30   25.10   1
 -12  11  -1   51.00   25.80   1
  12 -11   1   18.40   25.60   1
 -12 -11   1   23.90   24.70   1
  12  11  -1   21.20   24.70   1
  12  11   2   82.40   43.80   1
 -12 -11  -2   80.50   43.70   1
  12 -11  -2   45.80   43.80   1
 -12  11   2   92.70   44.00   1
 -12  11  -2   51.50   44.30   1
  12 -11   2   35.00   44.10   1
 -12 -11   2   44.20   43.80   1
  12  11  -2  111.10   44.30   1
  12  11   3   11.40   16.10   1
 -12 -11  -3    9.70   16.10   1
  12 -11  -3   -0.10   16.30   1
 -12  11   3   23.80   16.30   1
 -12  11  -3    8.60   17.30   1
  12 -11   3    6.30   17.20   1
 -12 -11   3    4.70   16.40   1
  12  11  -3    6.00   16.60   1
  12  11   4   25.60   20.60   1
 -12 -11  -4   14.20   20.60   1
  12 -11  -4    5.30   20.70   1
 -12  11   4   -0.00   20.70   1
 -12  11  -4   36.20   22.30   1
  12 -11   4   23.80   22.10   1
 -12 -11   4   23.60   20.80   1
  12  11  -4   14.20   20.80   1
  12  11   5    8.50   17.90   1
 -12 -11  -5    7.30   17.90   1
  12 -11  -5   16.90   18.00   1
 -12  11   5    4.90   18.00   1
 -12 -11   5   32.40   18.30   1
  12  11  -5   18.50   18.30   1
  12  11   6    6.10   19.60   1
 -12 -11  -6   15.60   19.60   1
  12 -11  -6   34.40   19.80   1
 -12  11   6   11.90   19.60   1
 -12 -11   6   19.90   19.90   1
  12  11  -6    5.40   19.80   1
  12  11   7   36.70   24.20   1
 -12 -11  -7   -0.10   24.10   1
  12 -11  -7   33.90   24.20   1
 -12  11   7  158.90   25.50   1
 -12 -11   7    3.00   24.40   1
  12  11   8   53.70   34.10   1
 -12 -11  -8   38.60   34.00   1
  12 -11  -8   35.30   34.00   1
 -12  11   8   41.00   34.00   1
  12  11   9   24.00   30.50   1
 -12 -11  -9   47.30   30.70   1
  12 -11  -9   37.40   30.50   1
 -12  11   9   31.90   30.50   1
  12  11  10   34.00   17.80   1
 -12 -11 -10   20.90   17.90   1
  12 -11 -10   10.40   17.20   1
 -12  11  10    5.00   17.20   1
  12  11  11   72.70   18.30   1
 -12 -11 -11    3.80   16.70   1
  12 -11 -11    6.80   15.90   1
 -12  11  11    9.10   15.90   1
  12  12   0  314.20   87.00   1
 -12 -12   0  201.40   86.30   1
  12 -12   0  255.40   87.20   1
 -12  12   0  207.10   87.10   1
  12  12   1  467.90  136.30   1
 -12 -12  -1  390.50  135.90   1
  12 -12  -1  427.20  136.70   1
 -12  12   1  907.40  141.70   1
 -12  12  -1  719.60  140.30   1
  12 -12   1  563.90  138.60   1
 -12 -12   1  486.50  137.00   1
  12  12  -1  810.20  140.70   1
  12  12   2   41.30   33.80   1
 -12 -12  -2   47.30   33.90   1
  12 -12  -2   42.70   34.10   1
 -12  12   2   65.40   34.50   1
 -12  12  -2   19.30   34.30   1
  12 -12   2   27.90   34.30   1
 -12 -12   2   26.30   34.00   1
  12  12  -2   56.70   34.20   1
  12  12   3  184.20   91.80   1
 -12 -12  -3  347.90   92.40   1
  12 -12  -3  297.70   92.20   1
 -12  12   3  323.50   92.40   1
 -12  12  -3  347.80   96.50   1
  12 -12   3  278.00   94.00   1
 -12 -12   3  213.50   92.40   1
  12  12  -3  389.50   94.40   1
  12  12   4   42.40   35.10   1
 -12 -12  -4   38.90   35.10   1
  12 -12  -4   44.20   35.20   1
 -12  12   4   41.00   35.10   1
 -12  12  -4   21.90   35.70   1
  12 -12   4   63.80   36.60   1
 -12 -12   4   61.90   35.40   1
  12  12  -4   61.40   35.40   1
  12  12   5  336.70  101.60   1
 -12 -12  -5  336.00  101.60   1
  12 -12  -5  336.20  101.40   1
 -12  12   5  239.70  101.10   1
 -12 -12   5  315.70  103.90   1
  12  12  -5  328.60  105.40   1
  12  12   6   21.90   22.30   1
 -12 -12  -6   15.20   22.30   1
  12 -12  -6   12.80   22.40   1
 -12  12   6   19.10   22.40   1
 -12 -12   6   66.70   23.80   1
  12  12  -6   11.00   22.60   1
  12  12   7  116.70   62.30   1
 -12 -12  -7  149.40   62.40   1
  12 -12  -7  126.20   62.40   1
 -12  12   7  131.00   62.50   1
  12  12   8    0.00    4.80   1
 -12 -12  -8   -0.00    4.80   1
  12 -12  -8    2.00    4.70   1
 -12  12   8   -0.00    4.80   1
  12  12   9  162.00   75.90   1
 -12 -12  -9  166.90   75.90   1
  12 -12  -9  198.10   76.00   1
 -12  12   9  254.00   76.60   1
  12  12  10   17.00   10.70   1
 -12 -12 -10   -0.00   11.10   1
  12 -12 -10    1.80   10.40   1
 -12  12  10   -0.00   10.50   1
  12  13   0 4967.80  599.20   1
 -12 -13   0 2818.30  567.70   1
  12 -13   0 2603.40  568.90   1
 -12  13   0 4284.10  597.30   1
  12  13   1  189.70   65.60   1
 -12 -13  -1  156.20   65.40   1
  12 -13  -1  123.90   66.20   1
 -12  13   1  119.10   66.00   1
 -12  13  -1  167.90   66.30   1
  12 -13   1  122.90   65.90   1
 -12 -13   1  102.60   65.50   1
  12  13  -1  142.20   65.90   1
  12  13   2  347.70   56.20   1
 -12 -13  -2  179.70   55.10   1
  12 -13  -2  118.90   55.30   1
 -12  13   2   46.90   55.00   1
 -12  13  -2   67.60   55.30   1
  12 -13   2  125.40   55.70   1
 -12 -13   2   49.40   54.80   1
  12  13  -2  179.30   55.90   1
  12  13   3  397.90   98.70   1
 -12 -13  -3  333.80   98.30   1
  12 -13  -3  347.50   98.60   1
 -12  13   3  291.50   98.30   1
 -12  13  -3  195.20  100.00   1
  12 -13   3  271.50  100.90   1
 -12 -13   3  191.30   98.30   1
  12  13  -3  226.30   98.70   1
  12  13   4   96.80   28.80   1
 -12 -13  -4   31.40   28.60   1
  12 -13  -4   23.70   28.70   1
 -12  13   4   13.40   28.60   1
  12 -13   4   20.80   29.60   1
 -12 -13   4   28.50   28.70   1
  12  13  -4   10.30   28.70   1
  12  13   5   85.10   43.90   1
 -12 -13  -5   45.60   43.80   1
  12 -13  -5  110.60   44.20   1
 -12  13   5   81.20   44.00   1
 -12 -13   5   52.60   44.20   1
  12  13  -5   56.50   44.50   1
  12  13   6  588.00  141.50   1
 -12 -13  -6  540.70  141.50   1
  12 -13  -6  719.00  142.40   1
 -12  13   6  545.40  140.70   1
 -12 -13   6  181.40  141.60   1
  12  13   7  262.60   84.10   1
 -12 -13  -7  198.80   83.50   1
  12 -13  -7  215.80   83.80   1
 -12  13   7  213.40   83.60   1
  12  13   8  528.10  111.00   1
 -12 -13  -8  252.80  108.60   1
  12 -13  -8  594.40  113.00   1
 -12  13   8  381.00  110.10   1
  12  13   9   97.90   35.70   1
 -12 -13  -9   30.80   35.30   1
  12 -13  -9   52.70   35.40   1
 -12  13   9   35.10   35.40   1
  12  13  10   76.40   30.20   1
 -12 -13 -10   18.10   29.90   1
  12 -13 -10   18.10   29.80   1
 -12  13  10   68.40   30.10   1
  12  14   0   29.70   23.00   1
 -12 -14   0   10.50   22.70   1
  12 -14   0   17.30   23.60   1
 -12  14   0   24.50   23.60   1
  12  14   1   24.40   19.50   1
 -12 -14  -1    7.70   19.40   1
  12 -14  -1    9.20   20.40   1
 -12  14   1   27.90   21.10   1
 -12  14  -1   -0.00   20.40   1
  12 -14   1    6.90   20.30   1
 -12 -14   1    0.40   19.60   1
  12  14  -1   43.20   19.90   1
  12  14   2   17.30   21.80   1
 -12 -14  -2   27.00   21.80   1
  12 -14  -2   -0.00   22.30   1
 -12  14   2   65.90   24.00   1
 -12  14  -2   -0.00   23.00   1
  12 -14   2   19.70   22.70   1
 -12 -14   2   10.80   21.90   1
  12  14  -2   13.80   21.90   1
  12  14   3   38.10   25.90   1
 -12 -14  -3   33.20   25.90   1
  12 -14  -3   17.40   26.10   1
 -12  14   3   12.90   26.30   1
 -12  14  -3   10.00   27.00   1
  12 -14   3   21.20   27.00   1
 -12 -14   3   13.90   26.00   1
  12  14  -3   14.10   26.00   1
  12  14   4    7.10   11.40   1
 -12 -14  -4    4.50   11.30   1
  12 -14  -4   10.80   11.70   1
 -12  14   4   -0.00   11.60   1
 -12 -14   4   -0.00   11.70   1
  12  14  -4    1.70   11.80   1
  12  14   5   16.80   16.40   1
 -12 -14  -5    1.90   16.40   1
  12 -14  -5   14.50   16.70   1
 -12  14   5    9.80   16.60   1
 -12 -14   5   25.40   17.30   1
  12  14   6   26.90   30.20   1
 -12 -14  -6   35.80   30.20   1
  12 -14  -6   43.20   30.40   1
 -12  14   6   31.70   30.30   1
  12  14   7    1.20    9.00   1
 -12 -14  -7    4.80    9.00   1
  12 -14  -7   -0.00    9.20   1
 -12  14   7    5.10    9.10   1
  12  14   8    0.50    8.50   1
 -12 -14  -8    4.20    8.50   1
  12 -14  -8    4.20    8.60   1
 -12  14   8    1.40    8.60   1
  12  14   9    9.70   18.90   1
 -12 -14  -9   23.80   18.90   1
  12 -14  -9    7.50   18.80   1
 -12  14   9   14.30   18.90   1
  12  15   0   27.70   29.00   1
 -12 -15   0   29.10   29.00   1
  12 -15   0   36.70   29.60   1
  12  15   1   41.70   17.60   1
 -12 -15  -1    6.10   17.00   1
  12 -15  -1   14.70   18.00   1
 -12  15   1   61.10   19.20   1
 -12  15  -1    6.00   18.10   1
  12 -15   1   12.10   18.00   1
 -12 -15   1   -0.00   17.10   1
  12  15  -1    8.20   17.20   1
  12  15   2   91.60   38.30   1
 -12 -15  -2   75.70   38.10   1
  12 -15  -2   76.70   39.20   1
 -12  15   2   46.30   38.80   1
 -12  15  -2  162.60   43.00   1
  12 -15   2   39.80   38.70   1
 -12 -15   2   26.00   38.10   1
  12  15  -2   28.20   38.10   1
  12  15   3    9.40   13.70   1
 -12 -15  -3    2.50   13.60   1
  12 -15  -3   -0.00   14.50   1
 -12  15   3   -0.00   14.70   1
  12 -15   3   10.40   15.90   1
 -12 -15   3    6.20   13.90   1
  12  15  -3   26.90   14.30   1
  12  15   4    9.50   18.60   1
 -12 -15  -4   20.10   18.60   1
  12 -15  -4   15.00   18.90   1
 -12  15   4   10.10   19.00   1
 -12 -15   4    2.60   18.90   1
  12  15   5   19.60   14.50   1
 -12 -15  -5    2.20   14.40   1
  12 -15  -5    0.70   14.60   1
 -12  15   5    6.90   14.60   1
  12  15   6   60.90   46.80   1
 -12 -15  -6  104.60   47.00   1
  12 -15  -6   73.30   47.00   1
 -12  15   6   86.40   47.00   1
  12  15   7    8.70   17.00   1
 -12 -15  -7   15.40   17.00   1
  12 -15  -7    5.50   17.00   1
 -12  15   7   11.00   17.00   1
  12  15   8   39.40   24.40   1
 -12 -15  -8   17.60   24.30   1
  12 -15  -8   16.50   24.40   1
 -12  15   8   18.50   24.30   1
  12  15   9    0.00   16.20   1
 -12 -15  -9   11.80   16.20   1
  12 -15  -9   32.00   16.50   1
 -12  15   9    8.90   16.30   1
  12  16   0    9.60   19.40   1
 -12 -16   0   19.30   19.40   1
  12 -16   0   26.60   20.10   1
 -12  16   0   -0.00   19.80   1
  12  16   1   91.00   47.50   1
 -12 -16  -1   73.90   47.20   1
  12 -16  -1   65.90   47.60   1
 -12  16   1  149.50   48.50   1
 -12  16  -1   44.20   47.50   1
  12 -16   1   70.40   47.70   1
 -12 -16   1   68.70   47.20   1
  12  16  -1  108.10   47.70   1
  12  16   2   85.80   48.70   1
 -12 -16  -2   77.40   48.60   1
  12 -16  -2  120.50   49.50   1
 -12  16   2  103.40   49.60   1
 -12  16  -2  100.30   51.10   1
  12 -16   2   66.30   49.70   1
 -12 -16   2   66.90   48.80   1
  12  16  -2   73.60   49.10   1
  12  16   3   10.90   14.40   1
 -12 -16  -3    7.90   14.30   1
  12 -16  -3    4.40   14.90   1
 -12 -16   3    4.70   14.60   1
  12  16  -3    2.10   14.80   1
  12  16   4   51.80   40.20   1
 -12 -16  -4   67.90   40.30   1
  12 -16  -4  109.40   40.80   1
 -12  16   4   96.00   40.90   1
 -12 -16   4   17.20   40.40   1
  12  16   5   91.50   47.60   1
 -12 -16  -5   62.30   47.50   1
  12 -16  -5  154.00   48.10   1
 -12  16   5   66.80   47.60   1
  12  16   6    2.10   11.60   1
 -12 -16  -6    3.60   11.60   1
  12 -16  -6   -0.00   11.90   1
 -12  16   6   23.50   12.00   1
  12  16   7   16.80   19.00   1
 -12 -16  -7    6.70   19.00   1
  12 -16  -7   13.20   19.10   1
 -12  16   7   21.60   19.20   1
  12  16   8   -0.00    9.90   1
 -12 -16  -8   10.20   10.00   1
  12 -16  -8   -0.00   10.10   1
 -12  16   8    4.80   10.20   1
  12  17   0  163.50   68.00   1
 -12 -17   0  148.10   67.60   1
  12 -17   0  124.40   67.70   1
 -12  17   0  168.20   68.60   1
  12  17   1    9.70   13.60   1
 -12 -17  -1   -0.00   13.60   1
  12 -17  -1   -0.00   14.60   1
 -12  17   1   40.70   14.90   1
 -12  17  -1    9.30   15.10   1
  12 -17   1   -0.00   14.90   1
 -12 -17   1    7.50   13.70   1
  12  17  -1    3.60   13.60   1
  12  17   2   25.00   22.20   1
 -12 -17  -2   12.60   21.90   1
  12 -17  -2   12.40   22.70   1
 -12  17   2   81.70   23.90   1
  12 -17   2   18.30   22.90   1
 -12 -17   2   10.90   21.90   1
  12  17  -2   21.90   22.20   1
  12  17   3   25.20   26.10   1
 -12 -17  -3   28.00   26.00   1
  12 -17  -3   27.30   27.10   1
 -12  17   3   44.00   27.00   1
 -12 -17   3   10.10   26.20   1
  12  17   4   16.30   28.30   1
 -12 -17  -4   72.10   28.50   1
  12 -17  -4   14.20   28.70   1
 -12  17   4   36.30   28.90   1
  12  17   5    5.00   11.80   1
 -12 -17  -5    3.70   11.90   1
  12 -17  -5    7.10   12.20   1
 -12  17   5    9.50   12.60   1
  12  17   6   55.70   38.10   1
 -12 -17  -6  144.40   38.70   1
  12 -17  -6   59.20   38.30   1
 -12  17   6   24.90   38.10   1
  12  17   7    6.10   17.00   1
 -12 -17  -7   16.30   17.00   1
  12 -17  -7   21.50   17.30   1
 -12  17   7    6.10   17.20   1
  12  18   0    3.60   14.40   1
 -12 -18   0    9.50   14.40   1
  12 -18   0   11.20   15.30   1
 -12  18   0   10.20   15.50   1
  12  18   1  268.50   78.80   1
 -12 -18  -1  125.70   76.30   1
  12 -18  -1  256.20   78.50   1
 -12  18   1  227.90   78.40   1
 -12  18  -1  166.10   80.30   1
  12 -18   1  213.30   80.50   1
 -12 -18   1  198.50   78.40   1
  12  18  -1  320.80   85.90   1
  12  18   2   67.40   43.00   1
 -12 -18  -2   64.80   43.00   1
  12 -18  -2   58.90   43.30   1
 -12  18   2   58.10   43.40   1
 -12 -18   2   72.10   43.80   1
  12  18   3  239.40   62.20   1
 -12 -18  -3  461.40   66.20   1
  12 -18  -3   71.50   60.40   1
 -12  18   3   99.40   60.80   1
  12  18   4  100.10   41.40   1
 -12 -18  -4   65.70   41.10   1
  12 -18  -4   14.40   41.20   1
 -12  18   4  207.20   44.30   1
  12  18   5  101.80   55.90   1
 -12 -18  -5   87.00   55.80   1
  12 -18  -5  127.70   56.20   1
 -12  18   5  213.80   57.30   1
  12  18   6   17.90   13.20   1
 -12 -18  -6   -0.00   13.10   1
  12 -18  -6    5.60   13.40   1
 -12  18   6    5.30   13.40   1
  12  19   0   -0.40   14.30   1
 -12 -19   0   86.40   16.90   1
  12 -19   0    9.50   15.30   1
 -12  19   0   -0.00   15.50   1
  12  19   1    4.90   10.80   1
 -12 -19  -1    5.10   10.80   1
  12 -19  -1   -0.00   11.70   1
 -12  19   1   -0.00   11.80   1
  12 -19   1    2.60   12.40   1
 -12 -19   1    4.80   10.90   1
  12  19   2   23.50   15.70   1
 -12 -19  -2   -0.00   15.50   1
  12 -19  -2   -0.00   16.30   1
 -12  19   2   13.70   16.40   1
  12  19   3   -0.00   13.40   1
 -12 -19  -3    5.60   13.10   1
  12 -19  -3   14.40   14.40   1
 -12  19   3   20.10   15.00   1
  12  19   4   13.90   15.80   1
 -12 -19  -4    6.30   15.60   1
  12 -19  -4   17.80   17.20   1
  12  20   0   -0.00   13.30   1
 -12 -20   0   14.00   13.30   1
  12 -20   0   -0.00   14.60   1
  12  20   1   19.80   23.10   1
 -12 -20  -1   21.20   23.10   1
  12 -20  -1   -0.00   23.40   1
  12 -20   1   28.50   24.30   1
 -12 -20   1   33.30   23.80   1
  12  20   2    8.10   15.90   1
 -12 -20  -2    9.10   15.90   1
  12 -20  -2   11.50   16.80   1
  13   0   0   -2.00   16.50   1
 -13   0   0   21.50   16.50   1
  13   0   1  600.30  156.40   1
 -13   0  -1  539.60  156.10   1
  13   0  -1  641.70  156.90   1
 -13   0   1  696.30  157.00   1
  13   0   2   40.40   36.30   1
 -13   0  -2   53.50   36.30   1
  13   0  -2   46.70   36.20   1
 -13   0   2   47.10   36.20   1
  13   0   3 9337.70 1505.30   1
 -13   0  -3 9455.90 1502.40   1
  13   0  -3 8977.80 1501.40   1
 -13   0   3 9861.20 1504.20   1
  13   0   4 1125.80  248.30   1
 -13   0  -4 1230.40  248.50   1
  13   0  -4 1120.30  248.10   1
 -13   0   4 1161.60  247.90   1
  13   0   5 1480.60  270.40   1
 -13   0  -5 1445.20  270.30   1
  13   0  -5 1116.20  267.50   1
 -13   0   5 1283.80  268.10   1
  13   0   6  171.80   72.70   1
 -13   0  -6  239.00   73.00   1
  13   0  -6  143.80   71.90   1
 -13   0   6  185.30   72.00   1
  13   0   7 1439.30  288.20   1
 -13   0  -7 1226.00  285.70   1
  13   0  -7 1462.10  283.80   1
 -13   0   7 1355.10  283.20   1
  13   0   8  141.20   65.10   1
 -13   0  -8  107.10   64.90   1
  13   0  -8  158.00   64.60   1
 -13   0   8  137.80   64.50   1
  13   0   9  208.10   72.70   1
 -13   0  -9  144.70   72.30   1
  13   0  -9  228.40   72.00   1
 -13   0   9  136.60   71.20   1
  13   0  10  218.40   91.60   1
 -13   0 -10  372.90  102.80   1
  13   0 -10  273.00   89.90   1
 -13   0  10  219.00   89.10   1
  13   0 -11  869.30  173.60   1
 -13   0  11  556.80  166.90   1
  13   0 -12    8.10   15.50   1
 -13   0  12    8.30   15.40   1
  13   0 -13   70.00   43.00   1
 -13   0  13   57.80   42.70   1
  13   1   0   -0.00    9.70   1
 -13  -1   0    8.40    9.70   1
  13  -1   0    5.50    9.80   1
 -13   1   0   -0.00    9.70   1
  13   1   1   43.60   30.80   1
 -13  -1  -1   37.90   30.80   1
  13  -1  -1   52.00   30.80   1
 -13   1   1   43.00   30.80   1
 -13   1  -1    8.60   30.70   1
  13  -1   1   31.20   30.80   1
 -13  -1   1   35.80   30.80   1
  13   1  -1   33.10   30.80   1
  13   1   2  814.40  121.20   1
 -13  -1  -2  497.20  119.80   1
  13  -1  -2  974.30  122.80   1
 -13   1   2  935.70  123.00   1
 -13   1  -2 1031.60  123.70   1
  13  -1   2 1115.50  124.10   1
 -13  -1   2  274.10  119.10   1
  13   1  -2  258.60  119.00   1
  13   1   3  323.40  102.60   1
 -13  -1  -3  224.50  102.30   1
  13  -1  -3  311.40  102.50   1
 -13   1   3  334.00  102.60   1
 -13   1  -3  260.70  102.40   1
  13  -1   3  357.40  102.70   1
 -13  -1   3  377.20  102.70   1
  13   1  -3  378.00  102.60   1
  13   1   4  111.80   64.90   1
 -13  -1  -4  183.30   65.10   1
  13  -1  -4  173.40   65.00   1
 -13   1   4  177.50   65.00   1
 -13   1  -4  148.90   65.20   1
  13  -1   4  202.70   65.30   1
 -13  -1   4  130.50   64.90   1
  13   1  -4   97.90   64.80   1
  13   1   5  102.90   48.50   1
 -13  -1  -5   91.70   48.50   1
  13  -1  -5   86.40   48.20   1
 -13   1   5   77.20   48.10   1
 -13   1  -5  148.00   49.70   1
  13  -1   5  123.00   49.20   1
 -13  -1   5   78.50   48.20   1
  13   1  -5   57.90   48.10   1
  13   1   6  862.40  173.00   1
 -13  -1  -6 1116.00  176.60   1
  13  -1  -6  566.30  170.50   1
 -13   1   6  724.50  171.10   1
 -13   1  -6 1123.90  177.20   1
  13  -1   6  793.70  173.20   1
 -13  -1   6  649.40  170.60   1
  13   1  -6  585.90  170.50   1
  13   1   7   28.50   23.10   1
 -13  -1  -7   40.60   23.20   1
  13  -1  -7   10.40   22.00   1
 -13   1   7   20.10   22.10   1
 -13   1  -7    9.30   23.00   1
  13  -1   7   10.90   23.00   1
 -13  -1   7   16.30   22.10   1
  13   1  -7   21.90   22.10   1
  13   1   8   53.10   46.00   1
 -13  -1  -8  152.10   46.80   1
  13  -1  -8  138.70   45.80   1
 -13   1   8   50.10   45.40   1
 -13   1  -8   69.60   46.10   1
  13  -1   8   59.60   46.00   1
 -13  -1   8   94.80   45.60   1
  13   1  -8   52.80   45.50   1
  13   1   9   19.30   16.60   1
 -13  -1  -9    6.00   16.70   1
  13  -1  -9    8.60   15.80   1
 -13   1   9    8.00   15.70   1
 -13   1  -9    3.00   16.90   1
  13  -1   9   19.00   17.20   1
 -13  -1   9   11.30   16.00   1
  13   1  -9   -0.00   16.50   1
  13   1  10   54.50   33.40   1
 -13  -1 -10   63.50   33.90   1
  13  -1 -10   59.20   32.90   1
 -13   1  10   36.80   32.40   1
  13  -1  10  156.30   39.40   1
 -13  -1  10   14.70   32.60   1
  13   1 -10   30.30   32.60   1
  13   1  11    9.60   14.70   1
  13  -1 -11    0.50   13.80   1
 -13   1  11    1.40   13.40   1
 -13  -1  11    2.20   13.30   1
  13   1 -11   18.50   13.50   1
  13  -1 -12   43.60   33.70   1
 -13   1  12   18.80   33.50   1
 -13  -1  12   69.80   34.10   1
  13   1 -12   97.30   34.80   1
  13  -1 -13    6.40   10.20   1
 -13  -1  13    0.90   10.30   1
  13   1 -13    2.50   10.30   1
  13   2   0    8.10   19.40   1
 -13  -2   0   18.80   19.50   1
  13  -2   0   15.30   19.50   1
 -13   2   0   13.50   19.50   1
  13   2   1  243.60   93.50   1
 -13  -2  -1  279.10   93.60   1
  13  -2  -1  274.70   93.60   1
 -13   2   1  243.00   93.40   1
 -13   2  -1  247.30   93.40   1
  13  -2   1  286.60   93.50   1
 -13  -2   1  294.70   93.50   1
  13   2  -1  266.20   93.40   1
  13   2   2    9.70   20.30   1
 -13  -2  -2   12.20   20.30   1
  13  -2  -2   15.20   20.30   1
 -13   2   2   10.50   20.30   1
 -13   2  -2   36.10   20.60   1
  13  -2   2   45.20   20.60   1
 -13  -2   2   11.10   20.30   1
  13   2  -2    8.30   20.30   1
  13   2   3  531.10  157.30   1
 -13  -2  -3  679.70  157.80   1
  13  -2  -3  519.40  157.30   1
 -13   2   3  548.20  157.30   1
 -13   2  -3  627.80  157.60   1
  13  -2   3  706.20  158.00   1
 -13  -2   3  677.40  157.70   1
  13   2  -3  712.60  158.00   1
  13   2   4   89.30   40.50   1
 -13  -2  -4   76.90   40.40   1
  13  -2  -4   37.30   40.30   1
 -13   2   4   48.10   40.30   1
 -13   2  -4   32.50   40.60   1
  13  -2   4   66.30   40.70   1
 -13  -2   4   60.20   40.30   1
  13   2  -4   77.40   40.40   1
  13   2   5  241.20   77.20   1
 -13  -2  -5  246.30   77.20   1
  13  -2  -5  234.60   77.00   1
 -13   2   5  223.90   77.00   1
 -13   2  -5  113.90   77.20   1
  13  -2   5  334.70   78.70   1
 -13  -2   5  150.60   76.80   1
  13   2  -5  157.00   76.80   1
  13   2   6   38.00   23.60   1
 -13  -2  -6   14.10   23.50   1
  13  -2  -6    9.40   22.80   1
 -13   2   6   33.30   22.90   1
 -13   2  -6   29.10   24.00   1
  13  -2   6   17.10   23.80   1
 -13  -2   6   13.60   22.80   1
  13   2  -6   17.40   22.90   1
  13   2   7  195.60   61.10   1
 -13  -2  -7  163.00   60.90   1
  13  -2  -7  169.10   60.10   1
 -13   2   7  101.30   59.90   1
 -13   2  -7  106.00   60.40   1
  13  -2   7   95.60   60.40   1
 -13  -2   7   95.00   59.90   1
  13   2  -7  151.70   60.20   1
  13   2   8   56.40   25.70   1
 -13  -2  -8   66.30   25.70   1
  13  -2  -8   16.80   24.60   1
 -13   2   8   13.80   24.60   1
 -13   2  -8   17.10   25.40   1
  13  -2   8    6.80   25.20   1
 -13  -2   8   28.20   24.70   1
  13   2  -8   30.00   25.00   1
  13   2   9   50.60   29.10   1
 -13  -2  -9   56.20   29.10   1
  13  -2  -9   15.30   28.40   1
 -13   2   9   18.00   28.40   1
 -13   2  -9  134.00   34.00   1
  13  -2   9  167.20   34.10   1
 -13  -2   9   34.40   28.80   1
  13   2  -9   81.30   29.30   1
  13   2  10   47.00   29.50   1
 -13  -2 -10   46.30   29.70   1
  13  -2 -10   36.00   28.80   1
 -13   2  10   23.70   28.70   1
 -13  -2  10   18.90   28.90   1
  13   2 -10   34.80   28.90   1
  13   2  11   70.60   45.50   1
  13  -2 -11  149.50   45.80   1
 -13   2  11   34.60   44.30   1
 -13  -2  11  106.50   45.00   1
  13   2 -11  139.10   45.70   1
  13  -2 -12   -0.00   18.40   1
 -13   2  12    0.10   18.40   1
 -13  -2  12   20.10   18.40   1
  13   2 -12   34.50   18.80   1
  13  -2 -13   14.60   14.10   1
 -13  -2  13    5.40   13.90   1
  13   2 -13    2.60   14.00   1
  13   3   0   13.30   25.70   1
 -13  -3   0    7.60   25.60   1
  13  -3   0   34.40   25.70   1
 -13   3   0   62.10   25.80   1
  13   3   1  246.80   76.40   1
 -13  -3  -1  251.00   76.50   1
  13  -3  -1  224.80   76.30   1
 -13   3   1  212.70   76.30   1
 -13   3  -1  101.80   76.10   1
  13  -3   1  144.70   76.20   1
 -13  -3   1  238.50   76.30   1
  13   3  -1  212.10   76.20   1
  13   3   2  885.20  214.10   1
 -13  -3  -2  976.20  214.40   1
  13  -3  -2  935.70  215.00   1
 -13   3   2 1154.60  216.80   1
 -13   3  -2 1068.10  214.90   1
  13  -3   2 1029.50  214.60   1
 -13  -3   2  872.70  213.60   1
  13   3  -2  874.70  213.60   1
  13   3   3  111.20   48.30   1
 -13  -3  -3   51.80   48.10   1
  13  -3  -3   77.60   48.20   1
 -13   3   3   79.80   48.20   1
 -13   3  -3  107.90   48.70   1
  13  -3   3  109.40   48.60   1
 -13  -3   3   85.10   48.20   1
  13   3  -3   81.70   48.20   1
  13   3   4   46.70   39.90   1
 -13  -3  -4   78.10   40.00   1
  13  -3  -4   72.50   39.90   1
 -13   3   4   45.80   39.80   1
 -13   3  -4   33.90   40.70   1
  13  -3   4   17.40   40.40   1
 -13  -3   4   57.00   39.90   1
  13   3  -4   62.80   39.90   1
  13   3   5  124.10   58.30   1
 -13  -3  -5  109.70   58.20   1
  13  -3  -5  162.60   58.30   1
 -13   3   5  137.40   58.20   1
 -13   3  -5  214.10   59.50   1
  13  -3   5   81.60   58.70   1
 -13  -3   5   84.40   58.10   1
  13   3  -5  101.40   58.20   1
  13   3   6  282.90  101.80   1
 -13  -3  -6  436.30  102.70   1
  13  -3  -6  440.00  102.40   1
 -13   3   6  245.10  101.60   1
 -13   3  -6  280.60  102.40   1
  13  -3   6  170.10  101.80   1
 -13  -3   6  424.20  102.30   1
  13   3  -6  463.40  102.70   1
  13   3   7  196.80   37.60   1
 -13  -3  -7   79.00   36.80   1
  13  -3  -7   27.20   35.60   1
 -13   3   7   48.70   35.60   1
 -13   3  -7   28.00   36.10   1
  13  -3   7  141.00   37.30   1
 -13  -3   7   37.70   35.60   1
  13   3  -7   58.90   35.80   1
  13   3   8  109.50   65.10   1
 -13  -3  -8  523.10   70.80   1
  13  -3  -8  163.80   64.70   1
 -13   3   8  101.60   64.50   1
 -13   3  -8  132.20   66.00   1
  13  -3   8  120.50   65.50   1
 -13  -3   8  255.00   66.00   1
  13   3  -8  227.00   66.00   1
  13   3   9   14.70   21.80   1
 -13  -3  -9   21.40   21.90   1
  13  -3  -9   19.30   21.00   1
 -13   3   9   20.00   21.00   1
  13  -3   9   59.30   23.50   1
 -13  -3   9    8.50   21.20   1
  13   3  -9    1.10   21.20   1
  13   3  10  212.80   32.80   1
 -13  -3 -10   37.10   28.70   1
  13  -3 -10   85.60   28.50   1
 -13   3  10   13.10   28.00   1
 -13  -3  10   15.50   28.10   1
  13   3 -10   39.30   28.30   1
  13   3  11    0.00   24.80   1
 -13  -3 -11   14.90   24.80   1
  13  -3 -11   36.40   24.40   1
 -13   3  11    8.60   24.00   1
 -13  -3  11   51.70   24.70   1
  13   3 -11   41.70   24.60   1
  13   3  12   62.00   16.80   1
  13  -3 -12   12.60   12.20   1
 -13   3  12    6.40   11.90   1
 -13  -3  12   -0.00   11.60   1
  13   3 -12   -0.00   11.60   1
  13  -3 -13  125.50   35.80   1
 -13  -3  13   28.20   34.20   1
  13   3 -13   31.60   34.50   1
  13   4   0  150.50   65.90   1
 -13  -4   0  139.90   65.80   1
  13  -4   0  162.20   65.90   1
 -13   4   0  127.40   65.80   1
  13   4   1   19.40   19.20   1
 -13  -4  -1    9.60   19.10   1
  13  -4  -1    9.30   19.20   1
 -13   4   1    7.30   19.20   1
 -13   4  -1    4.40   19.30   1
  13  -4   1   18.50   19.30   1
 -13  -4   1   18.10   19.20   1
  13   4  -1   18.10   19.20   1
  13   4   2  214.10   73.60   1
 -13  -4  -2  135.80   73.30   1
  13  -4  -2  161.60   73.30   1
 -13   4   2  171.20   73.30   1
 -13   4  -2  176.40   73.40   1
  13  -4   2  178.60   73.40   1
 -13  -4   2  187.40   73.30   1
  13   4  -2  197.70   73.40   1
  13   4   3  238.20   84.40   1
 -13  -4  -3  167.80   84.20   1
  13  -4  -3  307.00   84.80   1
 -13   4   3  195.40   84.30   1
 -13   4  -3  168.00   84.50   1
  13  -4   3  190.10   84.60   1
 -13  -4   3  332.40   84.70   1
  13   4  -3  407.60   85.10   1
  13   4   4   48.80   35.40   1
 -13  -4  -4   26.20   35.40   1
  13  -4  -4   37.00   35.40   1
 -13   4   4   58.40   35.40   1
 -13   4  -4   19.20   35.90   1
  13  -4   4   50.20   36.20   1
 -13  -4   4   50.80   35.40   1
  13   4  -4   58.00   35.40   1
  13   4   5   27.90   35.60   1
 -13  -4  -5   23.00   35.60   1
  13  -4  -5   55.70   35.60   1
 -13   4   5  181.90   36.20   1
 -13   4  -5   43.50   36.30   1
  13  -4   5   92.70   36.60   1
 -13  -4   5   35.60   35.60   1
  13   4  -5   45.30   35.60   1
  13   4   6  210.00   54.80   1
 -13  -4  -6  185.70   54.70   1
  13  -4  -6  191.70   54.50   1
 -13   4   6  187.60   54.50   1
 -13   4  -6  127.50   54.90   1
  13  -4   6  116.80   54.90   1
 -13  -4   6   22.00   54.10   1
  13   4  -6  148.50   54.50   1
  13   4   7  133.00   60.90   1
 -13  -4  -7  143.10   61.10   1
  13  -4  -7  117.90   60.50   1
 -13   4   7  110.30   60.50   1
 -13   4  -7  152.70   61.70   1
  13  -4   7  108.00   61.10   1
 -13  -4   7  102.10   60.70   1
  13   4  -7  262.50   62.10   1
  13   4   8    8.70   23.80   1
 -13  -4  -8   -0.00   23.60   1
  13  -4  -8   38.00   22.90   1
 -13   4   8   26.20   22.80   1
 -13   4  -8    8.70   24.00   1
  13  -4   8    5.00   24.00   1
 -13  -4   8   -0.00   23.10   1
  13   4  -8   10.30   23.10   1
  13   4   9   16.90   24.00   1
 -13  -4  -9   18.40   23.90   1
  13  -4  -9   64.10   23.30   1
 -13   4   9   11.70   23.10   1
 -13  -4   9    9.40   23.20   1
  13   4  -9    9.50   23.30   1
  13   4  10   16.30   17.90   1
 -13  -4 -10    9.40   17.50   1
  13  -4 -10   14.70   17.10   1
 -13   4  10    3.80   17.00   1
 -13  -4  10   12.80   17.30   1
  13   4 -10   15.30   17.30   1
  13   4  11   33.70   18.40   1
 -13  -4 -11   13.10   18.30   1
  13  -4 -11    9.70   17.40   1
 -13   4  11    3.50   17.30   1
 -13  -4  11   10.20   17.50   1
  13   4 -11   35.00   17.90   1
  13   4  12    0.80    7.20   1
  13  -4 -12    0.10    5.50   1
 -13   4  12   -0.00    4.40   1
 -13  -4  12    0.10    4.50   1
  13   4 -12    1.10    4.90   1
  13  -5   0  851.80  207.80   1
 -13   5   0  982.90  208.50   1
  13   5   1  564.50  111.30   1
 -13  -5  -1  395.00  110.40   1
  13  -5  -1  356.40  110.40   1
 -13   5   1  232.20  110.00   1
 -13   5  -1  353.70  110.40   1
  13  -5   1  324.40  110.30   1
 -13  -5   1  440.50  110.50   1
  13   5  -1  382.30  110.30   1
  13   5   2 3412.00  588.20   1
 -13  -5  -2 3043.00  585.80   1
  13  -5  -2 3246.10  585.40   1
 -13   5   2 3052.70  584.30   1
 -13   5  -2 4950.80  598.30   1
  13  -5   2 4541.50  592.40   1
 -13  -5   2 3071.80  583.20   1
  13   5  -2 3017.20  583.20   1
  13   5   3   44.60   38.20   1
 -13  -5  -3   30.50   38.10   1
  13  -5  -3   59.00   38.20   1
 -13   5   3   36.20   38.20   1
 -13   5  -3  213.50   40.50   1
  13  -5   3  129.90   39.30   1
 -13  -5   3   69.50   38.20   1
  13   5  -3   65.30   38.20   1
  13   5   4 1293.60  209.70   1
 -13  -5  -4  835.90  207.50   1
  13  -5  -4  847.20  208.20   1
 -13   5   4  985.60  209.20   1
 -13   5  -4 1389.00  214.70   1
  13  -5   4 1133.30  211.50   1
 -13  -5   4  739.10  207.20   1
  13   5  -4  845.40  207.60   1
  13   5   5  560.40  146.90   1
 -13  -5  -5  367.80  146.30   1
  13  -5  -5  707.90  147.80   1
 -13   5   5  772.10  148.30   1
 -13   5  -5  580.10  148.40   1
  13  -5   5  627.10  148.80   1
 -13  -5   5  536.40  147.00   1
  13   5  -5  755.60  148.70   1
  13   5   6 3973.10  696.20   1
 -13  -5  -6 3845.40  696.80   1
  13  -5  -6 4027.50  696.90   1
 -13   5   6 4469.30  699.40   1
 -13   5  -6 4227.90  723.10   1
  13  -5   6 3509.90  708.40   1
 -13  -5   6 3626.20  700.60   1
  13   5  -6 5946.90  731.00   1
  13   5   7   16.50   24.10   1
 -13  -5  -7   -0.00   24.20   1
  13  -5  -7   15.80   23.70   1
 -13   5   7   23.20   23.80   1
 -13   5  -7   32.40   25.10   1
  13  -5   7   25.20   24.80   1
 -13  -5   7   18.20   24.10   1
  13   5  -7   66.20   24.70   1
  13   5   8  168.20   79.50   1
 -13  -5  -8  268.40   80.50   1
  13  -5  -8  175.10   79.00   1
 -13   5   8  468.90   80.70   1
  13  -5   8  107.50   80.00   1
 -13  -5   8  157.70   79.30   1
  13   5  -8  309.30   81.00   1
  13   5   9   51.80   33.20   1
 -13  -5  -9   68.60   33.10   1
  13  -5  -9   55.90   32.40   1
 -13   5   9   33.50   32.30   1
 -13  -5   9   20.90   32.40   1
  13   5  -9   25.60   32.50   1
  13   5  10  210.40   51.30   1
 -13  -5 -10  259.90   52.50   1
  13  -5 -10  239.60   50.10   1
 -13   5  10   48.40   48.90   1
 -13  -5  10   91.50   49.50   1
  13   5 -10  127.20   50.30   1
  13   5  11   89.90   17.60   1
 -13  -5 -11   12.70   15.60   1
  13  -5 -11   25.90   14.90   1
 -13   5  11   -0.00   14.70   1
 -13  -5  11   -0.00   14.80   1
  13   5 -11    1.20   14.90   1
  13   5  12  166.40   72.40   1
 -13  -5 -12  223.00   77.90   1
  13  -5 -12  152.50   70.10   1
 -13   5  12  151.30   69.90   1
 -13  -5  12  175.80   73.30   1
  13   6   0   23.30   21.00   1
 -13  -6   0   18.70   20.90   1
  13  -6   0    7.40   21.10   1
 -13   6   0    8.40   21.00   1
  13   6   1   50.00   41.70   1
 -13  -6  -1   36.20   41.70   1
  13  -6  -1   53.10   41.90   1
 -13   6   1   48.50   41.80   1
 -13   6  -1   92.10   42.00   1
  13  -6   1   77.80   41.90   1
 -13  -6   1   90.00   41.80   1
  13   6  -1   89.70   41.80   1
  13   6   2  142.40   60.20   1
 -13  -6  -2  160.30   60.30   1
  13  -6  -2  126.80   60.20   1
 -13   6   2  101.90   60.10   1
 -13   6  -2   53.80   60.30   1
  13  -6   2  111.70   60.50   1
 -13  -6   2  141.90   60.20   1
  13   6  -2  132.40   60.20   1
  13   6   3  398.90  110.70   1
 -13  -6  -3  446.80  111.10   1
  13  -6  -3  391.10  110.50   1
 -13   6   3  410.10  110.50   1
 -13   6  -3  291.90  110.70   1
  13  -6   3  371.40  111.30   1
 -13  -6   3  321.70  110.00   1
  13   6  -3  288.80  110.00   1
  13   6   4   59.60   31.00   1
 -13  -6  -4   76.70   31.00   1
  13  -6  -4   47.50   30.90   1
 -13   6   4   39.80   31.00   1
 -13   6  -4   72.60   31.90   1
  13  -6   4   50.70   31.70   1
 -13  -6   4    5.80   30.80   1
  13   6  -4   14.40   30.90   1
  13   6   5  104.20   39.30   1
 -13  -6  -5   51.40   39.10   1
  13  -6  -5   40.10   39.10   1
 -13   6   5   49.90   39.10   1
 -13   6  -5   46.20   39.60   1
  13  -6   5   70.50   39.80   1
 -13  -6   5   46.70   39.10   1
  13   6  -5   62.50   39.30   1
  13   6   6   13.00   27.50   1
 -13  -6  -6   27.20   27.50   1
  13  -6  -6   39.70   27.50   1
 -13   6   6   48.30   27.60   1
 -13   6  -6    8.00   28.20   1
  13  -6   6   31.70   28.30   1
 -13  -6   6   18.60   27.70   1
  13   6  -6   20.80   28.00   1
  13   6   7  360.40  103.50   1
 -13  -6  -7  511.00  104.30   1
  13  -6  -7  259.00  102.90   1
 -13   6   7  295.70  103.00   1
 -13   6  -7  543.60  117.10   1
  13  -6   7  480.60  111.20   1
 -13  -6   7  251.30  103.50   1
  13   6  -7  323.20  104.20   1
  13   6   8   11.50   16.10   1
 -13  -6  -8   20.10   16.60   1
  13  -6  -8    6.60   15.50   1
 -13   6   8    8.70   15.50   1
 -13  -6   8    7.90   15.70   1
  13   6  -8    8.10   15.80   1
  13   6   9   32.70   25.30   1
 -13  -6  -9    2.50   24.90   1
  13  -6  -9   10.00   24.30   1
 -13   6   9  116.20   24.90   1
 -13  -6   9   12.00   24.50   1
  13   6  -9   21.80   24.60   1
  13   6  10    8.40   15.70   1
 -13  -6 -10   10.80   15.50   1
  13  -6 -10    4.80   14.50   1
 -13   6  10   10.20   14.50   1
 -13  -6  10    4.50   14.80   1
  13   6 -10    9.20   14.80   1
  13   6  11   55.20   49.40   1
 -13  -6 -11   73.40   49.60   1
  13  -6 -11  131.20   49.50   1
 -13   6  11   79.30   49.10   1
 -13  -6  11   72.10   49.80   1
  13   6 -11  117.00   52.20   1
  13   6  12    7.70   12.80   1
 -13  -6 -12   -0.00   13.00   1
  13  -6 -12    9.70   11.90   1
 -13   6  12   -0.00   11.80   1
 -13  -6  12   13.70   12.80   1
  13   7   0    5.80   10.50   1
 -13  -7   0   -0.00   10.40   1
  13  -7   0    8.30   10.70   1
 -13   7   0    3.80   10.70   1
  13   7   1   71.20   39.20   1
 -13  -7  -1   48.40   39.10   1
  13  -7  -1   22.20   39.20   1
 -13   7   1   52.00   39.20   1
 -13   7  -1   53.50   39.60   1
  13  -7   1   46.50   39.60   1
 -13  -7   1   59.20   39.20   1
  13   7  -1   84.40   39.20   1
  13   7   2   40.40   46.10   1
 -13  -7  -2  171.40   46.50   1
  13  -7  -2   54.30   46.20   1
 -13   7   2   38.20   46.20   1
 -13   7  -2  284.90   48.90   1
  13  -7   2  159.60   47.30   1
 -13  -7   2  117.60   46.30   1
  13   7  -2  106.30   46.20   1
  13   7   3   28.70   33.10   1
 -13  -7  -3   43.80   33.10   1
  13  -7  -3   27.60   33.10   1
 -13   7   3   37.40   33.10   1
 -13   7  -3  123.90   34.60   1
  13  -7   3   92.20   34.40   1
 -13  -7   3   35.90   33.10   1
  13   7  -3   50.20   33.10   1
  13   7   4  347.90  118.50   1
 -13  -7  -4  405.20  118.60   1
  13  -7  -4  396.80  118.90   1
 -13   7   4  371.70  118.70   1
 -13   7  -4  595.70  121.20   1
  13  -7   4  473.60  120.20   1
 -13  -7   4  334.80  118.40   1
  13   7  -4  432.90  119.10   1
  13   7   5   33.10   21.90   1
 -13  -7  -5   19.00   21.80   1
  13  -7  -5   14.60   21.80   1
 -13   7   5   10.40   21.80   1
 -13   7  -5   17.20   22.60   1
  13  -7   5   17.80   22.70   1
 -13  -7   5    7.80   22.00   1
  13   7  -5   21.90   22.20   1
  13   7   6   22.30   26.60   1
 -13  -7  -6   13.50   26.50   1
  13  -7  -6   20.70   26.50   1
 -13   7   6   56.40   26.70   1
 -13   7  -6   65.20   28.20   1
  13  -7   6  101.50   28.50   1
 -13  -7   6   -0.00   26.70   1
  13   7  -6   36.40   27.00   1
  13   7   7   21.00   22.60   1
 -13  -7  -7   30.00   22.70   1
  13  -7  -7   24.80   22.50   1
 -13   7   7   11.40   22.50   1
 -13   7  -7   20.20   23.80   1
  13  -7   7   -0.00   24.00   1
 -13  -7   7    7.00   22.60   1
  13   7  -7   21.40   22.80   1
  13   7   8   20.80   23.70   1
 -13  -7  -8   10.10   23.80   1
  13  -7  -8    7.90   23.30   1
 -13   7   8   30.90   23.40   1
 -13  -7   8   29.80   23.60   1
  13   7  -8   31.90   23.70   1
  13   7   9   19.40   25.20   1
 -13  -7  -9   29.50   25.40   1
  13  -7  -9   51.60   24.50   1
 -13   7   9   13.00   24.30   1
 -13  -7   9   17.20   24.50   1
  13   7  -9   12.60   24.50   1
  13   7  10  105.50   51.90   1
 -13  -7 -10  199.00   53.20   1
  13  -7 -10   86.30   51.10   1
 -13   7  10   77.00   51.10   1
 -13  -7  10   97.10   52.10   1
  13   7 -10   93.50   52.50   1
  13   7  11    6.90   15.90   1
 -13  -7 -11   19.00   16.00   1
  13  -7 -11    6.60   15.00   1
 -13   7  11    8.00   15.00   1
 -13  -7  11    7.80   15.50   1
  13   7  12   23.30   33.90   1
 -13  -7 -12  140.50   37.80   1
  13  -7 -12   42.90   33.60   1
  13   8   0   42.80   32.40   1
 -13  -8   0   29.00   32.40   1
  13  -8   0   89.50   32.70   1
 -13   8   0   11.70   32.60   1
  13   8   1  500.00  138.70   1
 -13  -8  -1  569.70  139.00   1
  13  -8  -1  431.30  138.60   1
 -13   8   1  475.60  138.70   1
 -13   8  -1  451.20  139.10   1
  13  -8   1  850.10  141.50   1
 -13  -8   1  439.80  138.60   1
  13   8  -1  623.70  139.30   1
  13   8   2  249.10   89.40   1
 -13  -8  -2  319.30   89.70   1
  13  -8  -2  500.70   90.70   1
 -13   8   2  205.80   89.40   1
 -13   8  -2  213.00   90.00   1
  13  -8   2  225.30   90.20   1
 -13  -8   2  226.70   89.40   1
  13   8  -2  222.60   89.40   1
  13   8   3  923.10  182.90   1
 -13  -8  -3 1042.00  184.40   1
  13  -8  -3  949.60  182.60   1
 -13   8   3  544.20  180.90   1
 -13   8  -3  830.80  184.50   1
  13  -8   3  835.70  184.40   1
 -13  -8   3  651.40  181.40   1
  13   8  -3  892.20  183.20   1
  13   8   4  257.10  104.80   1
 -13  -8  -4  355.10  105.40   1
  13  -8  -4  401.00  105.40   1
 -13   8   4  326.90  104.90   1
 -13   8  -4  267.40  105.40   1
  13  -8   4  372.50  106.10   1
 -13  -8   4  278.10  104.90   1
  13   8  -4  526.90  106.90   1
  13   8   5   55.60   44.20   1
 -13  -8  -5   68.00   44.20   1
  13  -8  -5   61.10   44.30   1
 -13   8   5   61.30   44.30   1
 -13   8  -5  205.00   46.80   1
  13  -8   5  212.80   46.60   1
 -13  -8   5   53.10   44.40   1
  13   8  -5  119.80   45.00   1
  13   8   6  122.70   54.90   1
 -13  -8  -6   85.30   54.70   1
  13  -8  -6   85.80   54.70   1
 -13   8   6  130.50   54.90   1
 -13   8  -6  104.10   56.30   1
  13  -8   6  159.30   57.00   1
 -13  -8   6   81.20   54.90   1
  13   8  -6  149.50   55.50   1
  13   8   7   48.30   41.10   1
 -13  -8  -7  101.90   41.30   1
  13  -8  -7  123.10   41.30   1
 -13   8   7   35.80   41.00   1
  13  -8   7   37.50   42.00   1
 -13  -8   7   49.60   41.20   1
  13   8  -7   73.80   41.40   1
  13   8   8   13.80   22.50   1
 -13  -8  -8  125.80   23.40   1
  13  -8  -8    6.10   22.40   1
 -13   8   8   10.20   22.40   1
 -13  -8   8  104.40   24.00   1
  13   8  -8  103.70   24.40   1
  13   8   9   55.60   38.20   1
 -13  -8  -9   26.80   38.20   1
  13  -8  -9   44.50   37.70   1
 -13   8   9   57.10   37.80   1
 -13  -8   9   70.50   38.40   1
  13   8  -9   72.50   38.70   1
  13   8  10   23.70   26.60   1
 -13  -8 -10   34.60   26.50   1
  13  -8 -10   24.50   25.80   1
 -13   8  10   19.60   25.80   1
 -13  -8  10   39.70   26.60   1
  13   8  11  107.00   31.60   1
 -13  -8 -11   73.90   30.80   1
  13  -8 -11   25.00   29.70   1
 -13   8  11   27.70   29.80   1
  13   8  12   19.00   24.10   1
 -13  -8 -12   34.70   24.10   1
  13  -8 -12   17.20   23.40   1
  13   9   0   39.00   29.90   1
 -13  -9   0   20.70   29.80   1
  13  -9   0   84.60   30.50   1
 -13   9   0   20.40   30.40   1
  13   9   1   25.80   26.60   1
 -13  -9  -1   23.00   26.50   1
  13  -9  -1   21.60   26.60   1
 -13   9   1   24.90   26.70   1
 -13   9  -1   49.40   28.20   1
  13  -9   1   40.20   27.70   1
 -13  -9   1   27.10   26.50   1
  13   9  -1   25.40   26.60   1
  13   9   2   79.50   40.20   1
 -13  -9  -2   35.70   40.10   1
  13  -9  -2  179.70   40.80   1
 -13   9   2   26.50   40.10   1
 -13   9  -2  109.50   41.20   1
  13  -9   2  101.30   41.10   1
 -13  -9   2   58.40   40.10   1
  13   9  -2   60.70   40.10   1
  13   9   3  154.90   39.90   1
 -13  -9  -3  144.50   39.80   1
  13  -9  -3   23.60   39.40   1
 -13   9   3   51.30   39.50   1
 -13   9  -3   81.60   40.40   1
  13  -9   3   61.10   40.20   1
 -13  -9   3   21.50   39.40   1
  13   9  -3   79.60   39.70   1
  13   9   4   48.20   28.70   1
 -13  -9  -4   31.70   28.60   1
  13  -9  -4   17.10   28.60   1
 -13   9   4   28.00   28.60   1
 -13   9  -4   28.80   29.30   1
  13  -9   4   12.10   29.20   1
 -13  -9   4   24.50   28.80   1
  13   9  -4   46.80   29.10   1
  13   9   5   77.30   32.60   1
 -13  -9  -5   54.40   32.40   1
  13  -9  -5   62.10   32.50   1
 -13   9   5   40.70   32.40   1
 -13   9  -5   10.60   33.10   1
  13  -9   5   15.20   33.10   1
 -13  -9   5    4.10   32.50   1
  13   9  -5    4.70   32.50   1
  13   9   6   36.00   33.40   1
 -13  -9  -6   31.30   33.40   1
  13  -9  -6   42.40   33.40   1
 -13   9   6   44.30   33.40   1
 -13   9  -6   67.90   35.40   1
  13  -9   6   66.40   35.00   1
 -13  -9   6   31.70   33.50   1
  13   9  -6   63.90   33.80   1
  13   9   7   14.00   19.50   1
 -13  -9  -7    3.30   19.40   1
  13  -9  -7   10.30   19.40   1
 -13   9   7   12.40   19.40   1
 -13  -9   7   38.20   19.90   1
  13   9  -7   34.80   19.90   1
  13   9   8    3.70   16.30   1
 -13  -9  -8   19.40   16.40   1
  13  -9  -8   17.10   16.30   1
 -13   9   8   10.50   16.20   1
 -13  -9   8   -0.00   16.40   1
  13   9  -8    1.20   16.50   1
  13   9   9   11.50   17.40   1
 -13  -9  -9   12.60   17.60   1
  13  -9  -9    9.10   17.00   1
 -13   9   9   15.80   17.10   1
 -13  -9   9    7.10   17.30   1
  13   9  -9    3.50   17.50   1
  13   9  10   18.20   18.90   1
 -13  -9 -10    0.90   18.80   1
  13  -9 -10    8.20   18.10   1
 -13   9  10   18.80   18.10   1
 -13  -9  10    5.80   18.40   1
  13   9  11    0.00   15.10   1
 -13  -9 -11    2.70   14.80   1
  13  -9 -11   13.10   14.00   1
 -13   9  11    4.00   14.00   1
  13  10   0   12.20   17.30   1
 -13 -10   0    5.80   17.30   1
  13 -10   0   19.60   18.30   1
 -13  10   0   26.20   18.30   1
 -13 -10  -1   37.00   37.90   1
  13 -10  -1   76.40   38.20   1
 -13  10   1   28.40   38.20   1
 -13  10  -1   25.40   38.70   1
  13 -10   1   89.20   39.10   1
 -13 -10   1  129.90   38.20   1
  13  10  -1   41.20   37.90   1
  13  10   2   33.30   31.80   1
 -13 -10  -2   33.10   31.80   1
  13 -10  -2   21.00   31.80   1
 -13  10   2   32.70   31.90   1
 -13  10  -2   75.60   32.80   1
  13 -10   2   15.60   32.40   1
 -13 -10   2   53.00   31.80   1
  13  10  -2   51.60   31.90   1
  13  10   3 2231.40  345.90   1
 -13 -10  -3 1135.50  339.90   1
  13 -10  -3 2179.80  345.90   1
 -13  10   3 2403.20  348.70   1
 -13  10  -3 1811.30  350.80   1
  13 -10   3 2384.60  357.70   1
 -13 -10   3 2000.70  349.00   1
  13  10  -3 2906.00  363.90   1
  13  10   4  340.00   92.90   1
 -13 -10  -4  362.80   93.20   1
  13 -10  -4  304.00   92.70   1
 -13  10   4  189.60   92.30   1
 -13  10  -4  250.00   93.80   1
  13 -10   4  221.20   93.30   1
 -13 -10   4  219.00   92.90   1
  13  10  -4  368.00   94.30   1
  13  10   5  335.90  105.20   1
 -13 -10  -5  303.50  105.10   1
  13 -10  -5  321.70  105.00   1
 -13  10   5  268.70  104.70   1
 -13  10  -5  498.30  115.40   1
  13 -10   5  455.80  111.30   1
 -13 -10   5  320.90  105.80   1
  13  10  -5  582.00  109.80   1
  13  10   6   35.30   33.10   1
 -13 -10  -6   48.50   33.10   1
  13 -10  -6   43.40   33.10   1
 -13  10   6   31.70   33.10   1
  13 -10   6   32.80   34.20   1
 -13 -10   6   25.40   33.20   1
  13  10  -6   72.00   33.60   1
  13  10   7  116.50   61.10   1
 -13 -10  -7  118.10   61.10   1
  13 -10  -7  110.50   61.10   1
 -13  10   7  176.10   61.50   1
 -13 -10   7  179.90   62.60   1
  13  10  -7  118.50   61.90   1
  13  10   8   11.70   21.50   1
 -13 -10  -8   16.00   21.40   1
  13 -10  -8    6.50   21.40   1
 -13  10   8   37.50   21.50   1
 -13 -10   8   22.50   21.70   1
  13  10  -8   14.30   21.70   1
  13  10   9   53.60   32.40   1
 -13 -10  -9   41.80   32.40   1
  13 -10  -9   22.80   32.20   1
 -13  10   9   58.50   32.40   1
 -13 -10   9   22.90   32.70   1
 -13 -10 -10   -0.00   16.20   1
  13 -10 -10    7.90   15.40   1
 -13  10  10   11.20   15.50   1
  13  10  11   56.70   23.80   1
 -13 -10 -11    7.10   22.90   1
  13 -10 -11   17.30   22.50   1
  13  11   0   14.70   27.30   1
 -13 -11   0   68.60   27.50   1
  13 -11   0   -0.00   28.10   1
 -13  11   0   -0.30   28.80   1
  13  11   1   49.10   30.30   1
 -13 -11  -1   50.90   30.30   1
  13 -11  -1   42.20   30.70   1
 -13  11   1   33.60   30.80   1
 -13  11  -1   88.60   31.60   1
  13 -11   1    8.60   30.90   1
 -13 -11   1   10.30   30.20   1
  13  11  -1   36.10   30.30   1
  13  11   2  155.50   64.10   1
 -13 -11  -2  165.20   64.20   1
  13 -11  -2  180.70   64.30   1
 -13  11   2  113.40   64.10   1
 -13  11  -2   95.20   64.50   1
  13 -11   2  155.10   65.00   1
 -13 -11   2   99.40   64.10   1
  13  11  -2  163.90   64.50   1
  13  11   3   23.10   26.10   1
 -13 -11  -3   27.90   26.10   1
  13 -11  -3   22.80   26.20   1
 -13  11   3   32.80   26.30   1
 -13  11  -3   17.10   27.00   1
  13 -11   3   22.80   26.80   1
 -13 -11   3   21.90   26.40   1
  13  11  -3   16.50   26.50   1
  13  11   4   49.80   37.00   1
 -13 -11  -4   70.80   37.00   1
  13 -11  -4   37.50   37.00   1
 -13  11   4   48.40   37.10   1
 -13  11  -4   22.40   37.60   1
  13 -11   4   34.20   37.60   1
 -13 -11   4   46.10   37.20   1
  13  11  -4   53.40   37.20   1
  13  11   5    2.10   12.40   1
 -13 -11  -5    9.90   12.40   1
  13 -11  -5    5.60   12.60   1
 -13  11   5    6.40   12.50   1
 -13  11  -5   -0.00   14.50   1
  13 -11   5   16.20   14.80   1
 -13 -11   5    7.20   12.70   1
  13  11  -5   -0.00   12.70   1
  13  11   6   47.70   37.40   1
 -13 -11  -6   39.10   37.40   1
  13 -11  -6   49.00   37.50   1
 -13  11   6   54.80   37.50   1
 -13 -11   6   83.20   38.00   1
  13  11  -6   54.80   37.70   1
  13  11   7   13.30   20.60   1
 -13 -11  -7   21.60   20.60   1
  13 -11  -7   20.40   20.60   1
 -13  11   7   17.00   20.60   1
 -13 -11   7    5.70   20.70   1
  13  11  -7    8.60   20.80   1
  13  11   8   91.20   23.50   1
 -13 -11  -8    0.00   23.00   1
  13 -11  -8   29.40   23.00   1
 -13  11   8   17.70   23.00   1
 -13 -11   8    2.60   23.20   1
  13  11   9    5.00   11.00   1
 -13 -11  -9    6.00   11.00   1
  13 -11  -9    2.50   10.80   1
 -13  11   9    4.10   10.90   1
  13  11  10   -0.00   20.90   1
 -13 -11 -10   40.70   21.40   1
  13 -11 -10    5.40   20.80   1
 -13  11  10   51.80   21.00   1
  13  12   0  119.70   36.40   1
 -13 -12   0   19.50   36.00   1
  13 -12   0  212.90   39.20   1
 -13  12   0   77.80   37.30   1
  13  12   1  367.90  108.20   1
 -13 -12  -1  334.30  108.00   1
  13 -12  -1  276.90  108.20   1
 -13  12   1  461.30  109.50   1
 -13  12  -1  492.10  111.00   1
  13 -12   1  294.70  108.90   1
 -13 -12   1  278.20  108.00   1
  13  12  -1  399.10  109.00   1
  13  12   2   38.80   34.20   1
 -13 -12  -2   40.80   34.20   1
  13 -12  -2   53.00   34.40   1
 -13  12   2   61.60   34.60   1
 -13  12  -2   35.30   34.80   1
  13 -12   2   23.50   34.70   1
 -13 -12   2   27.80   34.30   1
  13  12  -2   83.60   34.90   1
  13  12   3   10.90   21.30   1
 -13 -12  -3   16.20   21.30   1
  13 -12  -3   13.90   21.50   1
 -13  12   3   22.20   21.50   1
 -13  12  -3   11.00   22.30   1
  13 -12   3   16.00   22.20   1
 -13 -12   3   16.20   21.60   1
  13  12  -3   45.50   22.00   1
  13  12   4    7.20   15.00   1
 -13 -12  -4   11.90   15.00   1
  13 -12  -4   11.40   15.30   1
 -13  12   4   11.60   15.20   1
 -13  12  -4    5.50   16.80   1
  13 -12   4   -0.00   16.70   1
 -13 -12   4   -0.00   15.30   1
  13  12  -4    5.60   15.30   1
  13  12   5  220.80   70.00   1
 -13 -12  -5  181.30   69.80   1
  13 -12  -5  198.00   69.80   1
 -13  12   5  141.30   69.60   1
  13 -12   5   90.20   70.70   1
 -13 -12   5  112.40   69.80   1
  13  12  -5  140.10   70.20   1
  13  12   6   56.60   39.10   1
 -13 -12  -6   70.20   39.20   1
  13 -12  -6   45.50   39.10   1
 -13  12   6   49.00   39.10   1
 -13 -12   6   46.20   39.30   1
  13  12  -6   62.10   39.60   1
  13  12   7   11.40   17.70   1
 -13 -12  -7   14.00   17.80   1
  13 -12  -7    5.40   17.80   1
 -13  12   7    8.10   17.80   1
 -13 -12   7   19.30   18.20   1
  13  12  -7   19.30   18.40   1
  13  12   8   27.70   21.10   1
 -13 -12  -8   11.20   21.00   1
  13 -12  -8   21.50   21.10   1
 -13  12   8   15.50   21.00   1
 -13 -12   8   -0.00   21.20   1
  13  12   9   15.40   27.90   1
 -13 -12  -9   43.30   28.00   1
  13 -12  -9   29.90   28.00   1
 -13  12   9   29.90   28.00   1
  13  12  10    1.90   10.40   1
 -13 -12 -10   13.50   10.90   1
  13 -12 -10    0.00   10.30   1
 -13  12  10    5.60   10.30   1
  13  13   0    3.00   19.20   1
 -13 -13   0   19.30   19.10   1
  13 -13   0   11.20   20.50   1
 -13  13   0   43.50   20.90   1
  13  13   1   97.40   50.40   1
 -13 -13  -1   58.50   50.20   1
  13 -13  -1   56.60   50.80   1
 -13  13   1  153.40   52.00   1
 -13  13  -1  137.50   51.50   1
  13 -13   1  101.80   51.10   1
 -13 -13   1  111.30   50.60   1
  13  13  -1  153.00   51.10   1
  13  13   2  423.20  133.00   1
 -13 -13  -2  421.50  133.10   1
  13 -13  -2  537.90  133.90   1
 -13  13   2  657.60  135.20   1
 -13  13  -2  593.90  137.80   1
  13 -13   2  416.70  134.70   1
 -13 -13   2  390.00  134.10   1
  13  13  -2  656.30  137.50   1
  13  13   3   65.70   39.80   1
 -13 -13  -3   81.50   39.80   1
  13 -13  -3   79.60   39.90   1
 -13  13   3   65.80   39.90   1
 -13  13  -3   72.00   41.00   1
  13 -13   3   61.60   40.50   1
 -13 -13   3   18.90   39.80   1
  13  13  -3   34.20   39.80   1
  13  13   4  231.00   64.90   1
 -13 -13  -4  155.40   64.50   1
  13 -13  -4  141.70   64.60   1
 -13  13   4  118.50   64.50   1
 -13  13  -4  121.10   66.50   1
  13 -13   4  115.90   66.00   1
 -13 -13   4   93.00   64.60   1
  13  13  -4  127.00   65.00   1
  13  13   5  134.10   41.80   1
 -13 -13  -5   77.80   41.60   1
  13 -13  -5   49.40   41.60   1
 -13  13   5   33.80   41.50   1
 -13 -13   5   50.40   41.70   1
  13  13  -5   51.20   41.80   1
  13  13   6  221.10   63.50   1
 -13 -13  -6  112.00   62.80   1
  13 -13  -6  152.70   63.00   1
 -13  13   6  115.00   62.80   1
 -13 -13   6   99.80   63.50   1
  13  13  -6  142.50   65.20   1
  13  13   7   54.80   33.50   1
 -13 -13  -7   36.00   33.40   1
  13 -13  -7   38.70   33.50   1
 -13  13   7   40.40   33.40   1
 -13 -13   7   24.90   33.70   1
  13  13   8  141.20   70.90   1
 -13 -13  -8  157.50   70.90   1
  13 -13  -8  194.60   71.50   1
 -13  13   8  194.20   71.50   1
  13  13   9   12.20   15.70   1
 -13 -13  -9    8.50   15.60   1
  13 -13  -9    3.00   15.60   1
 -13  13   9   13.30   15.60   1
  13  14   0   24.40   24.40   1
 -13 -14   0   17.40   24.10   1
  13 -14   0   16.60   25.10   1
 -13  14   0   45.60   25.60   1
  13  14   1   -0.00   21.80   1
 -13 -14  -1   27.80   21.90   1
  13 -14  -1    4.00   23.30   1
 -13  14   1   66.90   23.70   1
 -13  14  -1   27.30   23.00   1
  13 -14   1    0.00   22.70   1
 -13 -14   1   63.50   22.50   1
  13  14  -1   24.80   22.30   1
  13  14   2    8.90   14.30   1
 -13 -14  -2    3.10   14.20   1
  13 -14  -2   32.20   15.40   1
 -13  14   2   22.60   15.70   1
 -13  14  -2    4.00   15.60   1
  13 -14   2   -0.00   15.20   1
 -13 -14   2   -0.00   14.60   1
  13  14  -2   13.80   14.70   1
  13  14   3  125.10   60.60   1
 -13 -14  -3  117.10   60.60   1
  13 -14  -3  162.20   61.00   1
 -13  14   3  112.20   60.80   1
 -13  14  -3  113.60   62.30   1
  13 -14   3  109.30   61.70   1
 -13 -14   3  118.90   61.00   1
  13  14  -3  126.60   61.20   1
  13  14   4    4.60   16.90   1
 -13 -14  -4   12.50   16.90   1
  13 -14  -4    3.60   17.10   1
 -13  14   4   19.50   17.10   1
  13 -14   4   -0.00   18.40   1
 -13 -14   4   20.90   17.20   1
  13  14  -4   10.50   17.10   1
  13  14   5   88.70   52.70   1
 -13 -14  -5   94.80   52.70   1
  13 -14  -5  113.80   52.90   1
 -13  14   5   84.50   52.70   1
 -13 -14   5  118.90   54.00   1
  13  14  -5  110.60   54.30   1
  13  14   6   45.30   21.60   1
 -13 -14  -6   18.10   21.50   1
  13 -14  -6   21.80   21.60   1
 -13  14   6    0.00   21.50   1
 -13 -14   6    3.10   21.70   1
  13  14   7   24.50   25.60   1
 -13 -14  -7   32.30   25.70   1
  13 -14  -7   12.50   25.60   1
 -13  14   7   29.70   25.70   1
  13  14   8    4.50   10.40   1
 -13 -14  -8    6.10   10.40   1
  13 -14  -8   -0.00   10.60   1
 -13  14   8    2.80   10.50   1
  13  14   9   12.40   18.90   1
 -13 -14  -9   30.10   19.00   1
  13 -14  -9    0.00   18.90   1
 -13  14   9   14.70   18.90   1
  13  15   0   69.30   22.70   1
 -13 -15   0    2.90   21.90   1
  13 -15   0   20.50   22.90   1
 -13  15   0   39.20   23.10   1
  13  15   1   -0.00   18.20   1
 -13 -15  -1   31.20   18.20   1
  13 -15  -1    8.90   19.20   1
 -13  15   1   42.00   19.80   1
 -13  15  -1   37.60   19.50   1
  13 -15   1   -0.00   19.10   1
 -13 -15   1    7.10   18.40   1
  13  15  -1    0.30   18.40   1
  13  15   2  248.60   38.10   1
 -13 -15  -2  135.00   36.90   1
  13 -15  -2   -0.00   36.80   1
 -13  15   2   32.60   37.50   1
 -13  15  -2   12.20   37.00   1
  13 -15   2   15.80   36.90   1
 -13 -15   2   29.00   36.50   1
  13  15  -2   82.60   37.10   1
  13  15   3    3.30   12.80   1
 -13 -15  -3   -0.00   12.80   1
  13 -15  -3    6.90   13.70   1
 -13  15   3   15.80   13.90   1
 -13  15  -3   -0.00   14.50   1
  13 -15   3   -0.00   14.70   1
 -13 -15   3   21.30   13.20   1
  13  15  -3   18.00   13.10   1
  13  15   4   25.70   28.80   1
 -13 -15  -4   35.20   28.80   1
  13 -15  -4   42.80   29.00   1
 -13  15   4   27.70   29.00   1
  13 -15   4   90.00   33.20   1
 -13 -15   4   11.30   28.90   1
  13  15  -4   66.30   30.00   1
  13  15   5   10.80   14.80   1
 -13 -15  -5    2.80   14.80   1
  13 -15  -5   15.30   15.10   1
 -13  15   5    2.90   15.00   1
 -13 -15   5   12.60   15.20   1
  13  15  -5   17.80   15.70   1
  13  15   6   72.70   25.50   1
 -13 -15  -6   15.40   25.20   1
  13 -15  -6   20.30   25.40   1
 -13  15   6   10.30   25.40   1
  13  15   7   32.30   17.40   1
 -13 -15  -7   -0.00   17.20   1
  13 -15  -7   18.30   17.30   1
 -13  15   7    4.50   17.30   1
  13  15   8   49.70   40.30   1
 -13 -15  -8   68.30   40.40   1
  13 -15  -8   66.30   40.50   1
 -13  15   8   50.80   40.30   1
  13  16   0    5.30   16.00   1
 -13 -16   0    4.50   16.00   1
  13 -16   0   49.40   17.40   1
 -13  16   0    2.60   16.80   1
  13  16   1   10.50   24.00   1
 -13 -16  -1   19.20   23.90   1
  13 -16  -1   20.60   24.70   1
 -13  16   1   21.90   24.90   1
 -13  16  -1   20.80   24.50   1
  13 -16   1   -0.00   24.50   1
 -13 -16   1   31.20   24.10   1
  13  16  -1   38.40   24.20   1
  13  16   2    4.80   17.00   1
 -13 -16  -2    8.70   17.00   1
  13 -16  -2    0.00   18.60   1
 -13  16   2   17.10   18.50   1
 -13  16  -2   11.20   18.60   1
  13 -16   2    8.10   18.30   1
 -13 -16   2   11.90   17.10   1
  13  16  -2   55.50   17.90   1
  13  16   3  256.40   88.10   1
 -13 -16  -3  208.00   87.70   1
  13 -16  -3  197.00   88.10   1
 -13  16   3  683.80   94.70   1
  13 -16   3  257.10   93.90   1
 -13 -16   3  248.00   90.10   1
  13  16  -3  355.10   95.20   1
  13  16   4   17.30   20.20   1
 -13 -16  -4   13.20   20.20   1
  13 -16  -4   11.10   20.50   1
 -13  16   4   10.10   20.70   1
 -13 -16   4   22.40   20.60   1
  13  16  -4   16.10   20.70   1
  13  16   5   27.50   24.30   1
 -13 -16  -5   10.10   24.30   1
  13 -16  -5   51.40   24.60   1
 -13  16   5   32.30   24.50   1
 -13 -16   5   16.80   24.70   1
  13  16   6   23.60   25.80   1
 -13 -16  -6   31.10   25.80   1
  13 -16  -6   10.70   26.00   1
 -13  16   6   23.40   25.90   1
  13  16   7   23.50   30.80   1
 -13 -16  -7   30.80   30.80   1
  13 -16  -7   59.60   31.10   1
 -13  16   7   49.20   31.00   1
  13  17   0   26.20   19.10   1
 -13 -17   0    2.10   19.10   1
  13 -17   0   -0.00   19.60   1
 -13  17   0   28.80   19.90   1
  13  17   1    4.40   12.80   1
 -13 -17  -1    2.20   12.40   1
  13 -17  -1   16.20   13.70   1
 -13  17   1    4.60   13.80   1
 -13  17  -1    0.00   13.90   1
  13 -17   1   12.50   13.60   1
 -13 -17   1    5.70   12.40   1
  13  17  -1    6.00   12.50   1
  13  17   2    8.80   21.20   1
 -13 -17  -2   37.30   21.20   1
  13 -17  -2    2.60   21.70   1
 -13  17   2   43.80   22.70   1
 -13  17  -2   12.00   22.40   1
  13 -17   2    7.20   22.20   1
 -13 -17   2   10.80   21.20   1
  13  17  -2   11.40   21.20   1
  13  17   3   32.30   25.60   1
 -13 -17  -3   19.60   25.50   1
  13 -17  -3   12.70   26.10   1
 -13  17   3   31.70   27.40   1
  13 -17   3   13.50   26.50   1
 -13 -17   3   23.40   25.80   1
  13  17  -3   32.30   26.10   1
  13  17   4   51.90   39.70   1
 -13 -17  -4   73.60   39.80   1
  13 -17  -4   36.30   39.90   1
 -13  17   4   78.60   40.40   1
 -13 -17   4   42.30   40.30   1
  13  17   5   17.10   18.20   1
 -13 -17  -5    7.20   18.20   1
  13 -17  -5   15.70   18.40   1
 -13  17   5   13.00   18.50   1
  13  17   6    1.50   11.90   1
 -13 -17  -6    7.70   12.00   1
  13 -17  -6   17.20   12.30   1
 -13  17   6   -0.00   12.30   1
  13  18   0    6.50   14.70   1
 -13 -18   0   12.00   14.60   1
  13 -18   0   -0.00   15.40   1
 -13  18   0    3.20   15.40   1
  13  18   1   16.90   23.40   1
 -13 -18  -1   16.10   23.50   1
  13 -18  -1   18.80   24.10   1
 -13  18   1   16.20   24.00   1
 -13  18  -1   15.10   24.30   1
  13 -18   1   13.30   24.10   1
 -13 -18   1   18.40   23.40   1
  13  18  -1   49.20   23.90   1
  13  18   2   21.90   21.90   1
 -13 -18  -2    9.80   21.60   1
  13 -18  -2   28.00   22.60   1
 -13  18   2   70.20   23.60   1
  13 -18   2   -0.00   22.70   1
 -13 -18   2   23.70   21.80   1
  13  18  -2   14.00   21.80   1
  13  18   3  138.20   61.70   1
 -13 -18  -3  101.70   61.30   1
  13 -18  -3  161.60   62.60   1
 -13  18   3  182.30   62.90   1
 -13 -18   3  135.40   63.80   1
  13  18   4   26.00   26.40   1
 -13 -18  -4   25.50   26.40   1
  13 -18  -4   22.30   27.00   1
 -13  18   4   22.60   27.40   1
  13  18   5   14.00   20.20   1
 -13 -18  -5   13.70   20.20   1
  13 -18  -5   22.00   20.50   1
  13  19   0   19.00   14.80   1
 -13 -19   0   -0.00   14.70   1
  13 -19   0    6.00   15.60   1
  13  19   1    4.00   12.60   1
 -13 -19  -1    8.20   12.70   1
  13 -19  -1   -0.00   13.50   1
  13 -19   1    0.10   14.10   1
 -13 -19   1    9.80   12.70   1
  13  19  -1    3.30   12.70   1
  13  19   2    6.10   13.50   1
 -13 -19  -2   16.70   13.40   1
  13 -19  -2   -0.00   14.20   1
  13 -19   2    6.20   14.80   1
 -13 -19   2    5.00   13.20   1
  13  19  -2   -0.00   13.30   1
  13  19   3    8.40   12.10   1
 -13 -19  -3    5.50   11.70   1
  13 -19  -3    3.10   13.20   1
 -13 -19   3   -0.00   12.20   1
  14   0   0  258.70   85.60   1
 -14   0   0  207.50   85.40   1
  14   0   1   11.70   19.10   1
 -14   0  -1   11.70   19.20   1
  14   0  -1   14.40   19.10   1
 -14   0   1   15.00   19.10   1
  14   0   2   11.30   25.40   1
 -14   0  -2    3.60   25.40   1
  14   0  -2   40.70   25.40   1
 -14   0   2   40.00   25.40   1
  14   0   3   59.70   46.60   1
 -14   0  -3   68.40   46.60   1
  14   0  -3   83.40   46.60   1
 -14   0   3   86.40   46.60   1
  14   0   4   11.40   20.10   1
 -14   0  -4   33.40   20.20   1
  14   0  -4   10.70   20.00   1
 -14   0   4   10.70   19.90   1
  14   0   5 2261.00  368.40   1
 -14   0  -5 2148.00  368.60   1
  14   0  -5 1790.60  364.80   1
 -14   0   5 1678.10  364.60   1
  14   0   6 1113.40  207.40   1
 -14   0  -6 1634.60  215.50   1
  14   0  -6  794.40  203.70   1
 -14   0   6  783.50  203.70   1
  14   0   7  262.30  121.00   1
 -14   0  -7  536.60  123.40   1
  14   0  -7  547.40  121.60   1
 -14   0   7  407.90  120.80   1
  14   0   8  347.20   81.00   1
 -14   0  -8  258.30   79.80   1
  14   0  -8  201.90   78.50   1
 -14   0   8  161.70   78.30   1
 -14   0  -9  326.00   82.60   1
  14   0  -9  277.40   80.10   1
 -14   0   9  158.80   79.20   1
  14   0  10   12.40   17.10   1
 -14   0 -10    9.10   17.30   1
  14   0 -10    9.20   16.60   1
 -14   0  10    8.40   16.20   1
  14   0  11   79.60   50.60   1
  14   0 -11  108.00   49.80   1
 -14   0  11   71.00   49.20   1
  14   0 -12   27.20   23.50   1
 -14   0  12   13.20   23.40   1
  14   1   0   90.90   54.30   1
 -14  -1   0  119.10   54.40   1
  14  -1   0  105.10   54.30   1
 -14   1   0   94.70   54.20   1
  14   1   1   17.40   23.00   1
 -14  -1  -1   19.30   23.00   1
  14  -1  -1   13.50   23.00   1
 -14   1   1   -0.00   23.00   1
 -14   1  -1   17.10   23.10   1
  14  -1   1   31.60   23.10   1
 -14  -1   1   36.80   23.10   1
  14   1  -1   27.80   23.00   1
  14   1   2  191.10   48.10   1
 -14  -1  -2   63.30   47.70   1
  14  -1  -2   95.60   47.80   1
 -14   1   2   74.90   47.70   1
 -14   1  -2   78.50   47.80   1
  14  -1   2   66.50   47.80   1
 -14  -1   2   70.80   47.70   1
  14   1  -2   69.50   47.70   1
  14   1   3   -0.00    6.30   1
 -14  -1  -3   -0.00    6.40   1
  14  -1  -3    3.90    6.10   1
 -14   1   3    0.00    6.10   1
 -14   1  -3   -0.00    6.30   1
  14  -1   3   -0.00    6.40   1
 -14  -1   3    2.90    6.00   1
  14   1  -3   -0.00    6.00   1
  14   1   4   54.30   50.20   1
 -14  -1  -4   71.50   50.20   1
  14  -1  -4   96.80   50.20   1
 -14   1   4  107.20   50.30   1
 -14   1  -4  108.90   50.50   1
  14  -1   4   82.90   50.40   1
 -14  -1   4  100.30   50.30   1
  14   1  -4   97.60   50.30   1
  14   1   5   33.40   34.60   1
 -14  -1  -5   48.50   34.90   1
  14  -1  -5   29.00   34.50   1
 -14   1   5   35.80   34.50   1
 -14   1  -5   47.10   35.20   1
  14  -1   5    7.40   34.70   1
 -14  -1   5   65.20   34.50   1
  14   1  -5   88.00   34.60   1
  14   1   6    3.70   39.90   1
 -14  -1  -6   86.40   40.70   1
  14  -1  -6   48.30   39.70   1
 -14   1   6  111.80   39.90   1
 -14   1  -6   52.10   40.30   1
  14  -1   6   56.10   40.60   1
 -14  -1   6   60.90   39.70   1
  14   1  -6   49.70   39.70   1
  14   1   7   34.10   38.90   1
 -14  -1  -7   38.20   38.80   1
  14  -1  -7   42.30   38.10   1
 -14   1   7   39.90   38.10   1
 -14   1  -7   36.30   38.90   1
  14  -1   7   48.70   39.00   1
 -14  -1   7   73.70   38.20   1
  14   1  -7   81.00   38.30   1
  14   1   8   32.60   25.30   1
 -14  -1  -8  120.90   26.60   1
  14  -1  -8   22.60   24.30   1
 -14   1   8   10.30   24.30   1
 -14   1  -8    8.60   24.80   1
  14  -1   8   11.30   25.00   1
 -14  -1   8   28.80   24.40   1
  14   1  -8   21.40   24.40   1
  14   1   9    6.40   12.70   1
 -14  -1  -9    6.10   12.20   1
  14  -1  -9    3.20   11.20   1
 -14   1   9    5.90   11.10   1
 -14   1  -9    6.80   12.80   1
  14  -1   9    3.30   12.30   1
 -14  -1   9   -0.00   11.20   1
  14   1  -9    7.40   11.50   1
  14   1  10    1.70   17.90   1
 -14  -1 -10   12.80   17.90   1
  14  -1 -10   33.80   17.30   1
 -14   1  10    2.60   16.90   1
 -14   1 -10   14.90   18.30   1
  14  -1  10   -0.00   18.30   1
 -14  -1  10   13.80   17.30   1
  14   1 -10   12.70   17.80   1
  14   1  11    4.00   18.20   1
 -14  -1 -11    2.80   18.10   1
  14  -1 -11   17.60   17.50   1
 -14   1  11   22.30   17.20   1
  14  -1  11   -0.00   18.20   1
 -14  -1  11    2.00   17.20   1
  14   1 -11   10.80   17.30   1
  14   1  12    7.50   18.50   1
  14  -1 -12    5.30   18.10   1
 -14   1  12    4.40   18.20   1
 -14  -1  12    5.90   17.90   1
  14   1 -12   60.20   18.80   1
  14   2   0   47.40   34.60   1
 -14  -2   0   51.00   34.60   1
  14  -2   0   38.80   34.60   1
 -14   2   0   34.60   34.60   1
  14   2   1  182.30   61.90   1
 -14  -2  -1  190.70   61.80   1
  14  -2  -1  182.20   61.80   1
 -14   2   1  176.80   61.70   1
 -14   2  -1  135.80   61.60   1
  14  -2   1  138.30   61.60   1
 -14  -2   1   73.90   61.40   1
  14   2  -1   99.90   61.50   1
  14   2   2   -0.00   16.40   1
 -14  -2  -2   29.90   16.50   1
  14  -2  -2    5.60   16.40   1
 -14   2   2    6.00   16.40   1
 -14   2  -2    5.60   16.50   1
  14  -2   2    7.60   16.50   1
 -14  -2   2   14.40   16.50   1
  14   2  -2   12.60   16.50   1
  14   2   3   36.80   38.80   1
 -14  -2  -3   45.80   38.80   1
  14  -2  -3   83.60   38.90   1
 -14   2   3   81.10   38.90   1
 -14   2  -3   49.40   38.90   1
  14  -2   3   46.90   38.90   1
 -14  -2   3   46.80   38.80   1
  14   2  -3   48.50   38.80   1
  14   2   4   11.10   16.50   1
 -14  -2  -4    2.50   16.40   1
  14  -2  -4   18.00   16.30   1
 -14   2   4   17.30   16.40   1
 -14   2  -4   21.70   17.40   1
  14  -2   4   -0.00   17.10   1
 -14  -2   4    3.50   16.30   1
  14   2  -4    6.30   16.30   1
  14   2   5    1.50   20.30   1
 -14  -2  -5   10.90   20.30   1
  14  -2  -5   30.50   20.20   1
 -14   2   5   11.50   20.20   1
 -14   2  -5   41.30   22.10   1
  14  -2   5   14.00   21.70   1
 -14  -2   5   16.40   20.20   1
  14   2  -5   10.40   20.20   1
  14   2   6  143.90   55.90   1
 -14  -2  -6  143.40   56.00   1
  14  -2  -6   98.70   55.40   1
 -14   2   6  114.50   55.40   1
 -14   2  -6   64.40   55.90   1
  14  -2   6   67.40   56.00   1
 -14  -2   6   96.70   55.40   1
  14   2  -6  111.70   55.40   1
  14   2   7  104.50   59.20   1
 -14  -2  -7  186.30   59.80   1
  14  -2  -7   97.70   58.40   1
 -14   2   7  143.80   58.60   1
 -14   2  -7   32.60   58.60   1
  14  -2   7   60.40   58.80   1
 -14  -2   7  465.50   60.90   1
  14   2  -7  232.40   59.10   1
  14   2   8   74.30   29.20   1
 -14  -2  -8   18.50   28.60   1
  14  -2  -8   21.50   27.80   1
 -14   2   8   25.50   27.80   1
 -14   2  -8   61.40   28.70   1
  14  -2   8   25.80   28.40   1
 -14  -2   8   19.30   27.80   1
  14   2  -8   48.00   28.00   1
  14   2   9   65.70   22.30   1
 -14  -2  -9   75.70   22.20   1
  14  -2  -9   31.50   20.80   1
 -14   2   9    5.50   20.70   1
 -14   2  -9   11.90   22.10   1
  14  -2   9   11.70   21.60   1
 -14  -2   9    5.10   20.90   1
  14   2  -9    0.10   21.20   1
  14   2  10   30.10   14.30   1
 -14  -2 -10   -0.00   13.90   1
  14  -2 -10    0.30   13.00   1
 -14   2  10    2.80   12.90   1
 -14   2 -10    8.00   14.50   1
  14  -2  10   -0.00   14.80   1
 -14  -2  10   21.40   13.70   1
  14   2 -10   13.30   13.80   1
  14   2  11   12.60   16.40   1
 -14  -2 -11   31.10   17.20   1
  14  -2 -11   30.40   15.80   1
 -14   2  11   -0.00   15.30   1
 -14  -2  11    2.00   15.60   1
  14   2 -11   11.10   15.80   1
  14   2  12    7.30   16.20   1
  14  -2 -12    6.40   15.50   1
 -14   2  12    9.10   15.10   1
 -14  -2  12    7.10   14.80   1
  14   2 -12    8.00   14.90   1
  14   3   0  940.80  183.30   1
 -14  -3   0  818.60  182.90   1
  14  -3   0  892.70  182.80   1
 -14   3   0  580.90  181.70   1
  14   3   1   27.50   30.00   1
 -14  -3  -1   16.00   30.00   1
  14  -3  -1   25.40   30.00   1
 -14   3   1   28.70   30.00   1
 -14   3  -1   66.70   30.20   1
  14  -3   1   76.20   30.20   1
 -14  -3   1   42.10   30.00   1
  14   3  -1   22.30   30.00   1
  14   3   2   36.50   36.10   1
 -14  -3  -2   57.40   36.10   1
  14  -3  -2   32.90   36.10   1
 -14   3   2   35.90   36.10   1
 -14   3  -2  188.60   36.70   1
  14  -3   2  252.80   37.10   1
 -14  -3   2   40.90   36.00   1
  14   3  -2   24.10   36.00   1
  14   3   3    8.70   19.40   1
 -14  -3  -3   33.30   19.50   1
  14  -3  -3    9.30   19.40   1
 -14   3   3    2.30   19.40   1
 -14   3  -3   11.50   19.80   1
  14  -3   3   18.60   19.70   1
 -14  -3   3   14.20   19.40   1
  14   3  -3   18.80   19.40   1
  14   3   4   77.20   36.30   1
 -14  -3  -4   10.60   36.10   1
  14  -3  -4  172.50   36.70   1
 -14   3   4   54.20   36.20   1
 -14   3  -4   16.10   36.70   1
  14  -3   4    1.20   36.30   1
 -14  -3   4   55.10   36.10   1
  14   3  -4   55.40   36.10   1
  14   3   5   78.00   50.80   1
 -14  -3  -5   57.60   50.70   1
  14  -3  -5   97.60   50.80   1
 -14   3   5  139.90   50.90   1
 -14   3  -5  110.40   51.50   1
  14  -3   5   68.60   51.40   1
 -14  -3   5   88.80   50.70   1
  14   3  -5  102.30   50.80   1
  14   3   6  611.00  140.40   1
 -14  -3  -6  750.10  141.20   1
  14  -3  -6  473.10  139.60   1
 -14   3   6  463.20  139.50   1
 -14   3  -6  542.60  141.60   1
  14  -3   6  383.80  140.20   1
 -14  -3   6  479.30  139.70   1
  14   3  -6  528.50  139.90   1
  14   3   7   -0.00   20.60   1
 -14  -3  -7   -0.00   21.10   1
  14  -3  -7    9.20   20.20   1
 -14   3   7   10.00   20.20   1
 -14   3  -7   10.70   20.90   1
  14  -3   7   22.30   21.20   1
 -14  -3   7   21.30   20.20   1
  14   3  -7   33.40   20.30   1
  14   3   8   44.30   24.90   1
 -14  -3  -8    9.20   24.40   1
  14  -3  -8   24.70   23.70   1
 -14   3   8    8.10   23.60   1
 -14   3  -8   88.60   25.50   1
  14  -3   8   19.40   24.30   1
 -14  -3   8   30.70   23.80   1
  14   3  -8   10.20   23.90   1
  14   3   9    7.70   26.70   1
 -14  -3  -9   73.00   27.20   1
  14  -3  -9   23.30   26.00   1
 -14   3   9   31.80   26.00   1
 -14   3  -9   24.90   27.30   1
  14  -3   9   39.50   27.20   1
 -14  -3   9    7.40   26.20   1
  14   3  -9   13.70   26.40   1
  14   3  10  158.60   30.10   1
 -14  -3 -10   46.70   27.90   1
  14  -3 -10   45.70   27.30   1
 -14   3  10   28.50   27.20   1
  14  -3  10    3.70   27.90   1
 -14  -3  10    2.60   27.30   1
  14   3 -10   11.40   27.40   1
  14   3  11    3.30    9.90   1
 -14  -3 -11   -0.00    9.90   1
  14  -3 -11    2.90    8.40   1
 -14   3  11   -0.00    8.20   1
 -14  -3  11   -0.00    8.70   1
  14   3 -11    9.00    8.70   1
  14   3  12   38.60   23.50   1
 -14  -3 -12   73.80   25.90   1
  14  -3 -12   35.50   22.40   1
 -14   3  12   25.40   21.90   1
 -14  -3  12    0.00   21.80   1
  14   3 -12   11.60   21.90   1
  14   4   0    5.60   14.70   1
 -14  -4   0   10.30   14.70   1
  14  -4   0    6.70   14.80   1
 -14   4   0    8.00   14.80   1
  14   4   1   13.40   14.40   1
 -14  -4  -1   11.10   14.40   1
  14  -4  -1    0.00   14.50   1
 -14   4   1    1.70   14.50   1
 -14   4  -1    5.60   14.60   1
  14  -4   1   17.40   14.60   1
 -14  -4   1    6.60   14.50   1
  14   4  -1    3.50   14.40   1
  14   4   2   -0.00    3.40   1
 -14  -4  -2   -0.10    3.50   1
  14  -4  -2   -0.00    3.40   1
 -14   4   2   -0.00    3.20   1
 -14   4  -2   -0.00    4.10   1
  14  -4   2   -0.00    4.30   1
 -14  -4   2   -0.00    3.10   1
  14   4  -2    0.80    3.40   1
  14   4   3   65.70   44.50   1
 -14  -4  -3  115.10   44.60   1
  14  -4  -3   64.10   44.50   1
 -14   4   3   52.50   44.40   1
 -14   4  -3   63.80   44.90   1
  14  -4   3   55.30   44.80   1
 -14  -4   3   52.50   44.40   1
  14   4  -3  110.90   44.60   1
  14   4   4   13.00   13.70   1
 -14  -4  -4   -0.00   13.70   1
  14  -4  -4   -0.10   13.60   1
 -14   4   4    1.70   13.60   1
 -14   4  -4   17.90   16.30   1
  14  -4   4    8.80   15.80   1
 -14  -4   4   13.50   13.60   1
  14   4  -4   11.30   13.60   1
  14   4   5   73.40   42.50   1
 -14  -4  -5   78.80   42.50   1
  14  -4  -5   35.60   42.30   1
 -14   4   5   91.90   42.50   1
 -14   4  -5  155.20   44.00   1
  14  -4   5  119.70   43.50   1
 -14  -4   5   52.70   42.40   1
  14   4  -5   61.20   42.40   1
  14   4   6    6.50   18.10   1
 -14  -4  -6    5.70   18.10   1
  14  -4  -6    8.40   18.00   1
 -14   4   6   12.50   18.00   1
 -14   4  -6   15.20   19.10   1
  14  -4   6   28.80   19.40   1
 -14  -4   6   11.70   17.90   1
  14   4  -6   18.90   18.00   1
  14   4   7   58.20   35.70   1
 -14  -4  -7   65.30   35.90   1
  14  -4  -7   54.10   35.40   1
 -14   4   7   40.40   35.30   1
 -14   4  -7   38.70   35.90   1
  14  -4   7   26.50   35.80   1
 -14  -4   7   32.40   35.30   1
  14   4  -7   51.70   35.50   1
  14   4   8   17.50   14.10   1
 -14  -4  -8   -0.10   14.20   1
  14  -4  -8   -0.00   12.10   1
 -14   4   8   14.00   12.10   1
 -14   4  -8   -0.00   13.90   1
  14  -4   8   11.40   13.70   1
 -14  -4   8   -0.00   12.50   1
  14   4  -8    0.30   13.10   1
  14   4   9   94.20   25.50   1
 -14  -4  -9  101.80   25.50   1
  14  -4  -9   27.60   23.80   1
 -14   4   9   13.00   23.70   1
 -14   4  -9   10.70   24.80   1
  14  -4   9   -0.00   25.00   1
 -14  -4   9    5.00   24.00   1
  14   4  -9   18.10   24.10   1
  14   4  10   14.50   15.50   1
 -14  -4 -10    1.30   15.00   1
  14  -4 -10   17.90   14.10   1
 -14   4  10   -0.00   14.00   1
 -14  -4  10    3.90   14.30   1
  14   4 -10   12.10   14.50   1
  14   4  11   22.10   17.30   1
 -14  -4 -11    4.40   16.90   1
  14  -4 -11    8.70   16.30   1
 -14   4  11    2.30   16.20   1
 -14  -4  11   17.00   16.60   1
  14   4 -11   35.10   16.90   1
  14   4  12    2.10    9.90   1
 -14  -4 -12    9.70   10.10   1
  14  -4 -12    2.80    8.40   1
 -14   4  12   -0.00    8.00   1
 -14  -4  12   -0.00    8.60   1
  14   4 -12    5.00    8.50   1
  14   5   0  323.90  116.40   1
 -14  -5   0  799.60  118.70   1
  14  -5   0  441.10  116.90   1
 -14   5   0  322.80  116.50   1
  14   5   1   33.30   14.50   1
 -14  -5  -1    7.30   14.40   1
  14  -5  -1   -0.00   14.60   1
 -14   5   1    2.40   14.40   1
 -14   5  -1   -0.00   14.60   1
  14  -5   1    6.60   14.60   1
 -14  -5   1    7.30   14.40   1
  14   5  -1    3.50   14.40   1
  14   5   2  530.20  147.40   1
 -14  -5  -2  568.50  147.70   1
  14  -5  -2  611.60  147.60   1
 -14   5   2  603.10  147.60   1
 -14   5  -2  499.00  147.10   1
  14  -5   2  501.90  147.10   1
 -14  -5   2  638.00  147.60   1
  14   5  -2  514.60  147.00   1
  14   5   3   70.80   43.10   1
 -14  -5  -3   72.70   43.10   1
  14  -5  -3   64.70   43.10   1
 -14   5   3   80.60   43.20   1
 -14   5  -3   67.40   43.70   1
  14  -5   3   16.60   43.20   1
 -14  -5   3  108.80   43.30   1
  14   5  -3   50.80   43.10   1
  14   5   4  487.30  114.20   1
 -14  -5  -4  377.50  113.70   1
  14  -5  -4  467.40  114.60   1
 -14   5   4  379.30  114.10   1
 -14   5  -4  522.40  115.90   1
  14  -5   4  320.40  114.40   1
 -14  -5   4  247.30  113.30   1
  14   5  -4  614.50  114.90   1
  14   5   5  453.30  118.70   1
 -14  -5  -5  509.60  119.10   1
  14  -5  -5  482.40  119.00   1
 -14   5   5  468.70  118.90   1
 -14   5  -5  531.90  121.00   1
  14  -5   5  469.70  120.30   1
 -14  -5   5  265.60  118.00   1
  14   5  -5  361.10  118.30   1
  14   5   6  628.70  155.70   1
 -14  -5  -6  460.50  155.00   1
  14  -5  -6  702.40  156.10   1
 -14   5   6  775.50  156.40   1
 -14   5  -6  655.90  158.40   1
  14  -5   6  483.10  156.30   1
 -14  -5   6  571.50  156.00   1
  14   5  -6  740.20  157.60   1
  14   5   7  114.00   52.80   1
 -14  -5  -7   95.30   52.80   1
  14  -5  -7   88.10   52.60   1
 -14   5   7   86.20   52.60   1
 -14   5  -7  122.00   53.60   1
  14  -5   7   92.70   53.30   1
 -14  -5   7   77.10   52.70   1
  14   5  -7  166.10   53.50   1
  14   5   8   21.90   40.10   1
 -14  -5  -8   28.70   40.40   1
  14  -5  -8   38.50   39.90   1
 -14   5   8  197.50   40.70   1
 -14   5  -8   89.30   41.70   1
  14  -5   8   59.80   40.90   1
 -14  -5   8   96.10   40.60   1
  14   5  -8  126.80   40.90   1
  14   5   9   96.20   43.50   1
 -14  -5  -9   66.40   43.00   1
  14  -5  -9   77.50   42.60   1
 -14   5   9  148.80   43.00   1
  14  -5   9   75.80   44.30   1
 -14  -5   9   17.30   42.50   1
  14   5  -9   55.40   42.70   1
  14   5  10   31.70   23.90   1
 -14  -5 -10   21.80   23.80   1
  14  -5 -10   37.00   23.20   1
 -14   5  10   15.70   23.00   1
 -14  -5  10    7.90   23.20   1
  14   5 -10   13.50   23.20   1
  14   5  11   19.00   23.90   1
 -14  -5 -11    2.90   23.60   1
  14  -5 -11   31.70   23.40   1
 -14   5  11    9.00   23.30   1
 -14  -5  11   63.40   24.30   1
  14   5 -11  112.80   26.40   1
  14   5  12   34.10   40.90   1
 -14  -5 -12   77.60   42.10   1
  14  -5 -12  106.80   41.20   1
 -14  -5  12   40.50   40.90   1
  14   5 -12   74.40   41.90   1
  14   6   0    4.50   17.30   1
 -14  -6   0   22.60   17.30   1
  14  -6   0    8.00   17.50   1
 -14   6   0    7.00   17.50   1
  14   6   1    9.30   17.30   1
 -14  -6  -1    9.30   17.30   1
  14  -6  -1   21.80   17.50   1
 -14   6   1   25.60   17.50   1
 -14   6  -1   -0.00   17.50   1
  14  -6   1    3.60   17.50   1
 -14  -6   1   11.70   17.30   1
  14   6  -1    7.80   17.30   1
  14   6   2   28.50   34.40   1
 -14  -6  -2   51.10   34.50   1
  14  -6  -2   42.70   34.50   1
 -14   6   2   65.40   34.50   1
 -14   6  -2   49.70   35.00   1
  14  -6   2   42.80   34.90   1
 -14  -6   2   48.70   34.40   1
  14   6  -2   29.60   34.40   1
  14   6   3   22.40   20.60   1
 -14  -6  -3   11.60   20.60   1
  14  -6  -3    5.90   20.60   1
 -14   6   3   18.40   20.60   1
 -14   6  -3   43.00   22.80   1
  14  -6   3   34.20   22.30   1
 -14  -6   3   21.70   20.60   1
  14   6  -3    9.00   20.60   1
  14   6   4    4.50   15.40   1
 -14  -6  -4   10.60   15.50   1
  14  -6  -4    7.30   15.50   1
 -14   6   4   11.20   15.60   1
 -14   6  -4   34.50   17.50   1
  14  -6   4   42.00   17.50   1
 -14  -6   4    4.80   15.40   1
  14   6  -4    6.80   15.50   1
  14   6   5    9.50   21.20   1
 -14  -6  -5   10.00   21.20   1
  14  -6  -5   14.00   21.20   1
 -14   6   5   45.30   21.30   1
 -14   6  -5   23.10   22.30   1
  14  -6   5   13.50   22.40   1
 -14  -6   5   11.40   21.10   1
  14   6  -5   15.60   21.30   1
  14   6   6   11.70   24.00   1
 -14  -6  -6   30.40   24.10   1
  14  -6  -6   15.10   24.00   1
 -14   6   6   14.50   24.00   1
 -14   6  -6   24.10   24.80   1
  14  -6   6   36.00   25.00   1
 -14  -6   6   20.60   24.10   1
  14   6  -6   57.90   24.60   1
  14   6   7   46.70   37.40   1
 -14  -6  -7   48.70   37.40   1
  14  -6  -7   59.90   37.40   1
 -14   6   7   46.60   37.30   1
 -14   6  -7   96.00   38.90   1
  14  -6   7   81.50   38.40   1
 -14  -6   7   25.80   37.50   1
  14   6  -7   53.20   37.80   1
  14   6   8   12.30   21.30   1
 -14  -6  -8   27.80   21.50   1
  14  -6  -8   11.20   20.80   1
 -14   6   8   24.20   20.90   1
 -14   6  -8   15.40   22.30   1
  14  -6   8   -0.00   22.50   1
 -14  -6   8    4.00   21.10   1
  14   6  -8   22.70   21.20   1
  14   6   9  182.30   38.70   1
 -14  -6  -9   65.30   37.40   1
  14  -6  -9   50.40   36.60   1
 -14   6   9   37.50   36.50   1
 -14  -6   9   38.50   36.70   1
  14   6  -9   50.20   36.80   1
  14   6  10   23.50   13.80   1
 -14  -6 -10   -0.00   13.30   1
  14  -6 -10   12.30   12.00   1
 -14   6  10   -0.00   12.00   1
 -14  -6  10    0.00   12.40   1
  14   6 -10    4.50   12.40   1
  14   6  11    5.40   15.10   1
 -14  -6 -11   75.30   16.40   1
  14  -6 -11    1.90   13.80   1
 -14   6  11   11.00   13.90   1
 -14  -6  11    7.10   14.10   1
  14   6 -11   -0.00   14.10   1
  14   6  12    6.00   10.00   1
 -14  -6 -12   -0.00    9.80   1
  14  -6 -12   -0.00    8.60   1
 -14  -6  12    6.00    9.00   1
  14   6 -12    4.00    9.50   1
  14   7   0  318.50   99.40   1
 -14  -7   0  288.00   99.20   1
  14  -7   0  244.60   99.20   1
 -14   7   0  366.10   99.70   1
  14   7   1   28.40   25.80   1
 -14  -7  -1   18.40   25.80   1
  14  -7  -1   38.20   25.90   1
 -14   7   1   14.90   25.90   1
 -14   7  -1   38.70   26.30   1
  14  -7   1   34.30   26.10   1
 -14  -7   1   14.40   25.80   1
  14   7  -1   27.70   25.80   1
  14   7   2   18.90   24.10   1
 -14  -7  -2  104.70   24.40   1
  14  -7  -2   -0.00   24.20   1
 -14   7   2    6.40   24.10   1
 -14   7  -2   11.60   25.10   1
  14  -7   2    9.10   24.50   1
 -14  -7   2   29.90   24.10   1
  14   7  -2   20.50   24.10   1
  14   7   3   27.60   32.40   1
 -14  -7  -3   51.70   32.50   1
  14  -7  -3  165.10   33.10   1
 -14   7   3   34.30   32.50   1
 -14   7  -3   10.20   33.10   1
  14  -7   3   28.70   33.70   1
 -14  -7   3   34.10   32.40   1
  14   7  -3   26.50   32.40   1
  14   7   4   60.40   46.00   1
 -14  -7  -4   48.30   45.90   1
  14  -7  -4   49.90   46.00   1
 -14   7   4   66.90   46.00   1
 -14   7  -4  171.20   47.60   1
  14  -7   4  114.00   46.90   1
 -14  -7   4  132.90   46.20   1
  14   7  -4  130.90   46.20   1
  14   7   5  117.50   32.00   1
 -14  -7  -5   30.10   31.60   1
  14  -7  -5   25.80   31.60   1
 -14   7   5   27.80   31.60   1
 -14   7  -5   40.90   32.30   1
  14  -7   5   31.10   32.30   1
 -14  -7   5   29.80   31.60   1
  14   7  -5   35.20   31.70   1
  14   7   6   43.10   43.80   1
 -14  -7  -6   87.20   43.90   1
  14  -7  -6   48.60   43.80   1
 -14   7   6  112.50   44.00   1
 -14   7  -6   58.40   44.40   1
  14  -7   6   58.70   44.50   1
 -14  -7   6   70.70   44.10   1
  14   7  -6  136.70   44.80   1
  14   7   7   22.00   21.30   1
 -14  -7  -7   34.30   21.40   1
  14  -7  -7    8.70   21.20   1
 -14   7   7   12.40   21.20   1
 -14   7  -7   22.20   22.60   1
  14  -7   7    7.80   22.40   1
 -14  -7   7    8.30   21.50   1
  14   7  -7   19.80   21.70   1
  14   7   8   13.50   21.50   1
 -14  -7  -8   13.20   21.80   1
  14  -7  -8   44.20   21.50   1
 -14   7   8    7.70   21.40   1
  14  -7   8  105.50   26.60   1
 -14  -7   8    7.60   21.60   1
  14   7  -8   12.90   21.60   1
  14   7   9   19.50   18.10   1
 -14  -7  -9   18.30   18.50   1
  14  -7  -9    9.40   17.50   1
 -14   7   9    3.00   17.50   1
 -14  -7   9   20.00   17.80   1
  14   7  -9   24.40   17.90   1
  14   7  10   22.60   21.10   1
 -14  -7 -10    9.70   20.70   1
  14  -7 -10   22.10   20.00   1
 -14   7  10   11.60   20.00   1
 -14  -7  10    6.50   20.20   1
  14   7 -10   13.40   20.20   1
  14   7  11   11.60   14.70   1
 -14  -7 -11   11.00   14.60   1
  14  -7 -11   14.30   13.50   1
 -14   7  11   -0.00   13.50   1
 -14  -7  11    1.30   13.70   1
  14   7 -11    7.20   13.90   1
  14   8   0   14.50   24.40   1
 -14  -8   0   50.10   24.50   1
  14  -8   0   11.60   24.60   1
 -14   8   0   11.20   24.60   1
  14   8   1   27.80   35.80   1
 -14  -8  -1   51.90   35.80   1
  14  -8  -1  139.80   36.30   1
 -14   8   1   90.10   36.10   1
 -14   8  -1   95.70   36.60   1
  14  -8   1  150.20   36.80   1
 -14  -8   1   17.20   35.80   1
  14   8  -1   46.20   35.80   1
  14   8   2   82.90   61.00   1
 -14  -8  -2   97.30   61.10   1
  14  -8  -2  192.70   61.50   1
 -14   8   2  178.10   61.40   1
 -14   8  -2  299.40   63.60   1
  14  -8   2  178.60   62.10   1
 -14  -8   2  149.50   61.20   1
  14   8  -2  127.80   61.10   1
  14   8   3 1147.20  230.50   1
 -14  -8  -3 1171.00  231.30   1
  14  -8  -3 1098.60  229.40   1
 -14   8   3 1152.60  229.50   1
 -14   8  -3 1194.60  233.50   1
  14  -8   3  882.30  230.10   1
 -14  -8   3  881.30  228.30   1
  14   8  -3  986.90  228.90   1
  14   8   4    0.00   14.70   1
 -14  -8  -4   -0.00   14.80   1
  14  -8  -4    5.90   14.80   1
 -14   8   4   16.30   14.80   1
 -14   8  -4   11.50   16.30   1
  14  -8   4   -0.00   16.30   1
 -14  -8   4   10.50   14.80   1
  14   8  -4   19.10   14.90   1
  14   8   5  700.60  166.00   1
 -14  -8  -5  685.90  165.80   1
  14  -8  -5  777.40  167.10   1
 -14   8   5  720.80  167.00   1
 -14   8  -5  498.80  166.60   1
  14  -8   5  444.40  165.80   1
 -14  -8   5  666.00  166.70   1
  14   8  -5 1151.80  173.50   1
  14   8   6   22.50   28.50   1
 -14  -8  -6   20.70   28.50   1
  14  -8  -6   45.20   28.60   1
 -14   8   6   20.40   28.50   1
 -14   8  -6   66.30   30.00   1
  14  -8   6   61.60   29.70   1
 -14  -8   6   27.80   28.80   1
  14   8  -6   51.30   29.20   1
  14   8   7  148.20   38.40   1
 -14  -8  -7  175.80   38.70   1
  14  -8  -7   62.00   37.90   1
 -14   8   7   52.50   37.90   1
 -14   8  -7   -0.00   38.70   1
  14  -8   7   27.80   38.90   1
 -14  -8   7    9.20   37.90   1
  14   8  -7   37.10   38.00   1
  14   8   8    2.40   10.60   1
 -14  -8  -8    2.00   10.60   1
  14  -8  -8   -0.00   10.40   1
 -14   8   8    8.50   10.50   1
 -14  -8   8    3.10   10.70   1
  14   8  -8    8.60   10.80   1
  14   8   9  148.90   70.70   1
 -14  -8  -9  244.70   71.50   1
  14  -8  -9  156.60   70.50   1
 -14   8   9  137.30   70.40   1
 -14  -8   9  236.10   72.90   1
  14   8  -9  238.60   73.90   1
  14   8  10   78.00   21.80   1
 -14  -8 -10   12.30   20.80   1
  14  -8 -10   15.30   20.00   1
 -14   8  10   11.70   20.00   1
 -14  -8  10   11.90   20.20   1
  14   8 -10   10.90   20.30   1
  14   8  11   19.40   42.30   1
 -14  -8 -11   74.90   42.70   1
  14  -8 -11   78.00   42.00   1
 -14   8  11   61.80   41.90   1
 -14  -8  11   61.00   42.70   1
  14   8 -11   69.60   43.70   1
  14   9   0   62.10   28.00   1
 -14  -9   0   16.30   27.90   1
  14  -9   0    9.20   28.10   1
 -14   9   0   37.70   28.50   1
  14   9   1   11.90   19.30   1
 -14  -9  -1    9.10   19.30   1
  14  -9  -1   35.00   19.60   1
 -14   9   1   24.80   19.50   1
 -14   9  -1   -0.00   20.60   1
  14  -9   1    9.30   20.10   1
 -14  -9   1   10.60   19.30   1
  14   9  -1   10.50   19.30   1
  14   9   2   17.90   21.60   1
 -14  -9  -2   22.90   21.60   1
  14  -9  -2    9.50   21.70   1
 -14   9   2   26.30   21.80   1
 -14   9  -2   37.30   23.20   1
  14  -9   2   31.60   23.10   1
 -14  -9   2   12.30   21.50   1
  14   9  -2   10.60   21.60   1
  14   9   3   17.80   22.20   1
 -14  -9  -3   25.10   22.30   1
  14  -9  -3   20.90   22.40   1
 -14   9   3    7.40   22.30   1
 -14   9  -3   50.60   23.70   1
  14  -9   3    2.30   23.40   1
 -14  -9   3   16.90   22.20   1
  14   9  -3   15.40   22.30   1
  14   9   4   12.00   23.70   1
 -14  -9  -4   22.80   23.70   1
  14  -9  -4   33.60   23.80   1
 -14   9   4   21.20   23.80   1
 -14   9  -4   36.00   24.70   1
  14  -9   4   28.50   24.70   1
 -14  -9   4    8.10   23.80   1
  14   9  -4   34.50   24.00   1
  14   9   5    6.00   16.60   1
 -14  -9  -5    7.50   16.60   1
  14  -9  -5   18.20   16.70   1
 -14   9   5    5.30   16.60   1
 -14   9  -5    9.70   17.80   1
  14  -9   5    7.70   17.70   1
 -14  -9   5   12.80   17.00   1
  14   9  -5   26.30   17.50   1
  14   9   6    3.80   20.00   1
 -14  -9  -6   70.40   20.40   1
  14  -9  -6   -0.00   20.00   1
 -14   9   6   11.20   20.00   1
 -14   9  -6    9.70   21.40   1
  14  -9   6   12.40   21.30   1
 -14  -9   6   15.50   20.30   1
  14   9  -6   67.80   20.90   1
  14   9   7    2.80   10.10   1
 -14  -9  -7    8.70   10.10   1
  14  -9  -7    3.90   10.00   1
 -14   9   7   -0.00    9.90   1
  14  -9   7   23.60   12.90   1
 -14  -9   7    2.10   10.20   1
  14   9  -7   -0.00   10.30   1
  14   9   8   17.70   21.80   1
 -14  -9  -8   19.10   21.80   1
  14  -9  -8   21.30   21.80   1
 -14   9   8   -0.00   21.70   1
 -14  -9   8   65.90   22.70   1
  14   9  -8   74.50   23.00   1
  14   9   9    3.50    8.20   1
 -14  -9  -9   10.60    8.80   1
  14  -9  -9    1.90    7.90   1
 -14   9   9   -0.00    8.00   1
 -14  -9   9    2.30    8.40   1
  14   9  -9   -0.00    8.50   1
  14   9  10   21.50   12.20   1
 -14  -9 -10   -0.10   12.80   1
  14  -9 -10    4.20   11.20   1
 -14   9  10    4.60   11.30   1
 -14  -9  10    0.00   11.60   1
  14   9 -10    2.70   11.80   1
  14   9  11    6.80    9.70   1
 -14  -9 -11   -0.00    8.30   1
  14  -9 -11    0.20    6.90   1
 -14  -9  11    6.20    8.10   1
  14  10   0   74.70   41.00   1
 -14 -10   0   59.80   40.90   1
  14 -10   0   44.90   41.30   1
 -14  10   0   27.70   41.40   1
  14  10   1  128.10   33.50   1
 -14 -10  -1   21.50   33.10   1
  14 -10  -1   28.20   33.20   1
 -14  10   1   44.60   33.30   1
 -14  10  -1   52.00   34.60   1
  14 -10   1   26.10   34.20   1
 -14 -10   1   76.90   33.30   1
  14  10  -1   22.20   33.10   1
  14  10   2    6.80   20.60   1
 -14 -10  -2    9.50   20.70   1
  14 -10  -2   46.30   21.00   1
 -14  10   2   44.20   20.90   1
 -14  10  -2   43.40   22.30   1
  14 -10   2   13.90   22.20   1
 -14 -10   2   11.00   20.70   1
  14  10  -2    9.20   20.70   1
  14  10   3  137.20   75.10   1
 -14 -10  -3  179.80   75.30   1
  14 -10  -3  203.40   75.40   1
 -14  10   3  230.00   75.50   1
 -14  10  -3  213.80   76.20   1
  14 -10   3  218.60   76.40   1
 -14 -10   3  173.60   75.40   1
  14  10  -3  225.10   75.70   1
  14  10   4   47.30   24.20   1
 -14 -10  -4   11.50   24.10   1
  14 -10  -4   24.70   24.20   1
 -14  10   4   32.30   24.20   1
 -14  10  -4   20.80   24.80   1
  14 -10   4    6.30   24.80   1
 -14 -10   4    7.00   24.20   1
  14  10  -4   14.10   24.50   1
  14  10   5  500.80  137.70   1
 -14 -10  -5  539.90  138.30   1
  14 -10  -5  477.10  137.30   1
 -14  10   5  558.00  137.70   1
 -14  10  -5  518.90  142.30   1
  14 -10   5  484.50  140.20   1
 -14 -10   5  350.10  137.40   1
  14  10  -5  652.90  141.00   1
  14  10   6  126.40   58.20   1
 -14 -10  -6  124.60   58.20   1
  14 -10  -6  113.30   58.20   1
 -14  10   6  131.70   58.30   1
 -14  10  -6   92.70   59.60   1
  14 -10   6   84.10   59.10   1
 -14 -10   6   81.40   58.20   1
  14  10  -6  139.10   58.80   1
  14  10   7   42.60   27.00   1
 -14 -10  -7   23.90   26.90   1
  14 -10  -7   26.60   26.90   1
 -14  10   7    9.70   26.90   1
  14 -10   7   20.90   28.00   1
 -14 -10   7   28.60   27.10   1
  14  10  -7  101.50   28.30   1
  14  10   8   26.20   33.70   1
 -14 -10  -8   15.10   33.70   1
  14 -10  -8  136.70   34.40   1
 -14  10   8  156.70   34.70   1
 -14 -10   8   55.70   34.20   1
  14  10  -8   58.00   34.40   1
  14  10   9   13.60   26.70   1
 -14 -10  -9   17.30   26.70   1
  14 -10  -9  102.90   27.20   1
 -14  10   9   35.90   26.70   1
 -14 -10   9   16.50   26.80   1
  14  10  -9   17.00   26.90   1
  14  10  10    6.40   14.80   1
 -14 -10 -10    7.70   14.90   1
  14 -10 -10    9.50   14.30   1
 -14  10  10    7.50   14.30   1
 -14 -10  10   -0.00   14.80   1
  14  11   0    6.40   16.40   1
 -14 -11   0    6.80   16.50   1
  14 -11   0   20.40   17.30   1
 -14  11   0   50.00   18.40   1
  14  11   1   26.70   28.90   1
 -14 -11  -1   25.30   28.90   1
  14 -11  -1   23.80   29.20   1
 -14  11   1   51.80   29.40   1
 -14  11  -1   15.80   30.00   1
  14 -11   1   30.70   30.50   1
 -14 -11   1   32.70   28.90   1
  14  11  -1   36.90   28.90   1
  14  11   2    0.50   17.60   1
 -14 -11  -2    7.60   17.60   1
  14 -11  -2   19.40   17.90   1
 -14  11   2   17.50   17.90   1
 -14  11  -2   19.00   19.20   1
  14 -11   2   19.10   19.00   1
 -14 -11   2    3.30   17.70   1
  14  11  -2  110.40   18.70   1
  14  11   3   11.90   19.10   1
 -14 -11  -3   12.20   19.10   1
  14 -11  -3   19.50   19.40   1
 -14  11   3   22.20   19.30   1
 -14  11  -3    9.30   20.20   1
  14 -11   3    2.20   20.30   1
 -14 -11   3    8.40   19.30   1
  14  11  -3   12.50   19.60   1
  14  11   4   16.70   18.50   1
 -14 -11  -4    6.30   18.50   1
  14 -11  -4    6.30   18.60   1
 -14  11   4   61.90   18.90   1
 -14  11  -4    4.40   19.70   1
  14 -11   4   10.60   19.60   1
 -14 -11   4    0.00   18.80   1
  14  11  -4   -0.00   19.00   1
  14  11   5    8.70   10.00   1
 -14 -11  -5    0.00    9.90   1
  14 -11  -5   -0.00   10.00   1
 -14  11   5    7.60   10.10   1
 -14  11  -5    5.70   12.50   1
  14 -11   5   -0.00   12.20   1
 -14 -11   5    2.70   10.30   1
  14  11  -5   -0.00   10.50   1
  14  11   6   11.80   18.10   1
 -14 -11  -6    8.30   18.10   1
  14 -11  -6   21.50   18.30   1
 -14  11   6    4.50   18.10   1
 -14  11  -6   65.30   21.90   1
  14 -11   6   35.10   20.20   1
 -14 -11   6   13.90   18.30   1
  14  11  -6   11.30   18.30   1
  14  11   7   66.90   30.50   1
 -14 -11  -7   25.90   30.30   1
  14 -11  -7   40.10   30.40   1
 -14  11   7   12.60   30.30   1
 -14 -11   7   77.10   31.10   1
  14  11  -7   38.70   30.70   1
  14  11   8  121.90   26.40   1
 -14 -11  -8  139.10   26.60   1
  14 -11  -8    9.50   25.60   1
 -14  11   8   26.00   25.70   1
 -14 -11   8    1.60   25.70   1
  14  11  -8   12.40   25.80   1
  14  11   9   26.70   14.90   1
 -14 -11  -9   17.90   14.80   1
  14 -11  -9   -0.00   14.70   1
 -14  11   9    0.00   14.70   1
 -14 -11   9    7.20   15.10   1
  14  11  -9   -0.00   15.30   1
  14  11  10   22.50   12.60   1
 -14 -11 -10   -0.00   12.90   1
  14 -11 -10    0.40   12.30   1
 -14 -11  10   -0.00   12.90   1
  14  12   0   29.40   30.00   1
 -14 -12   0   29.70   30.00   1
  14 -12   0   49.30   31.10   1
 -14  12   0   80.30   32.30   1
  14  12   1   66.20   41.50   1
 -14 -12  -1   46.20   41.40   1
  14 -12  -1   82.00   42.00   1
 -14  12   1   85.00   42.10   1
 -14  12  -1   39.90   42.20   1
  14 -12   1   33.80   42.00   1
 -14 -12   1   56.40   41.50   1
  14  12  -1   93.70   41.70   1
  14  12   2   20.40   27.70   1
 -14 -12  -2   34.10   27.80   1
  14 -12  -2   21.40   27.90   1
 -14  12   2   56.50   28.10   1
 -14  12  -2   26.90   28.70   1
  14 -12   2   27.50   28.90   1
 -14 -12   2   19.80   27.80   1
  14  12  -2   34.30   28.00   1
  14  12   3  220.00   76.40   1
 -14 -12  -3  185.70   76.20   1
  14 -12  -3  224.10   76.60   1
 -14  12   3  149.60   76.20   1
 -14  12  -3  183.30   77.30   1
  14 -12   3  150.90   76.90   1
 -14 -12   3  165.20   76.60   1
  14  12  -3  299.00   78.20   1
  14  12   4    1.70   12.30   1
 -14 -12  -4    8.90   12.40   1
  14 -12  -4    0.00   12.60   1
 -14  12   4   20.70   12.70   1
 -14  12  -4    8.70   14.30   1
  14 -12   4   -0.10   13.80   1
 -14 -12   4    4.50   12.70   1
  14  12  -4   -0.00   12.70   1
  14  12   5  161.00   65.20   1
 -14 -12  -5  208.10   65.50   1
  14 -12  -5  136.30   65.00   1
 -14  12   5  113.30   65.00   1
 -14  12  -5  163.90   68.40   1
  14 -12   5  169.90   67.50   1
 -14 -12   5   98.20   65.10   1
  14  12  -5  245.90   67.20   1
  14  12   6   18.20   18.40   1
 -14 -12  -6    7.90   18.40   1
  14 -12  -6   12.60   18.50   1
 -14  12   6    3.90   18.50   1
  14 -12   6   13.70   19.90   1
 -14 -12   6   19.00   18.70   1
  14  12  -6   15.70   18.70   1
  14  12   7   37.40   23.10   1
 -14 -12  -7   19.70   23.00   1
  14 -12  -7   18.70   23.10   1
 -14  12   7   26.30   23.10   1
 -14 -12   7    6.00   23.10   1
  14  12  -7    3.10   23.20   1
  14  12   8   19.90   21.10   1
 -14 -12  -8   13.10   21.10   1
  14 -12  -8   20.60   21.10   1
 -14  12   8   14.60   21.00   1
 -14 -12   8   14.80   21.30   1
  14  12  -8   10.60   21.40   1
  14  12   9   57.60   44.70   1
 -14 -12  -9   76.50   44.70   1
  14 -12  -9   60.40   44.60   1
 -14  12   9   95.90   44.90   1
 -14 -12   9   90.30   47.00   1
  14  13   0 1096.50  267.60   1
 -14 -13   0 1271.70  268.50   1
  14 -13   0 1771.60  279.50   1
 -14  13   0 1412.20  274.20   1
  14  13   1   65.00   40.40   1
 -14 -13  -1   82.80   40.40   1
  14 -13  -1   47.20   40.80   1
 -14  13   1   52.70   41.20   1
 -14  13  -1   92.80   41.60   1
  14 -13   1   36.20   40.90   1
 -14 -13   1   41.50   40.30   1
  14  13  -1   53.20   40.50   1
  14  13   2   14.20   23.70   1
 -14 -13  -2   39.30   23.80   1
  14 -13  -2  103.00   24.70   1
 -14  13   2   -0.00   24.30   1
 -14  13  -2   27.60   24.90   1
  14 -13   2   10.60   24.60   1
 -14 -13   2    3.60   23.90   1
  14  13  -2    8.80   24.20   1
  14  13   3   12.60   16.20   1
 -14 -13  -3   12.90   16.20   1
  14 -13  -3    9.00   16.40   1
 -14  13   3    8.50   16.40   1
 -14  13  -3   16.40   17.40   1
  14 -13   3   -0.00   17.50   1
 -14 -13   3    1.20   16.50   1
  14  13  -3   -0.00   16.70   1
  14  13   4   26.20   31.90   1
 -14 -13  -4   43.00   31.90   1
  14 -13  -4  152.90   32.90   1
 -14  13  -4  123.70   35.30   1
  14 -13   4   20.50   32.60   1
 -14 -13   4   23.20   32.00   1
  14  13  -4   35.20   32.20   1
  14  13   5   42.70   31.50   1
 -14 -13  -5   29.20   31.40   1
  14 -13  -5   57.80   31.60   1
 -14  13   5   12.60   31.50   1
 -14  13  -5   30.40   32.50   1
  14 -13   5   42.70   32.80   1
 -14 -13   5   43.10   31.70   1
  14  13  -5   47.30   31.80   1
  14  13   6  722.80  182.00   1
 -14 -13  -6  730.60  182.40   1
  14 -13  -6  734.00  181.50   1
 -14  13   6  684.90  180.70   1
 -14 -13   6 1278.90  210.40   1
  14  13  -6 1378.70  227.90   1
  14  13   7   16.00   28.00   1
 -14 -13  -7   38.80   28.10   1
  14 -13  -7   54.20   28.30   1
 -14  13   7   28.70   28.10   1
 -14 -13   7   18.30   28.20   1
  14  13  -7   42.10   28.80   1
  14  13   8   28.80   30.60   1
 -14 -13  -8   61.10   30.70   1
  14 -13  -8   25.50   30.60   1
 -14  13   8   34.90   30.70   1
 -14 -13   8   21.50   30.90   1
  14  13   9    8.40   19.40   1
 -14 -13  -9   34.70   19.50   1
  14 -13  -9    6.60   19.40   1
  14  14   0   30.20   26.60   1
 -14 -14   0   17.10   26.60   1
  14 -14   0   39.80   27.50   1
 -14  14   0   52.00   27.90   1
  14  14   1    9.60   18.40   1
 -14 -14  -1   44.00   18.60   1
  14 -14  -1   -0.00   19.70   1
 -14  14   1    9.90   20.60   1
 -14  14  -1   18.30   19.90   1
  14 -14   1    9.00   19.80   1
 -14 -14   1   -0.00   18.50   1
  14  14  -1   -0.00   18.80   1
  14  14   2   -0.00    7.10   1
 -14 -14  -2   -0.00    7.10   1
  14 -14  -2    6.50    8.90   1
 -14  14   2    3.00    9.30   1
 -14  14  -2    4.10    9.20   1
  14 -14   2    4.90    9.70   1
 -14 -14   2    6.60    8.10   1
  14  14  -2    5.10    8.50   1
  14  14   3   10.90   22.70   1
 -14 -14  -3   22.50   22.70   1
  14 -14  -3   12.30   22.90   1
 -14  14   3   25.40   23.00   1
 -14  14  -3   20.80   23.80   1
  14 -14   3   13.10   23.50   1
 -14 -14   3   24.80   23.00   1
  14  14  -3   36.70   23.10   1
  14  14   4   12.50   13.90   1
 -14 -14  -4    5.70   13.80   1
  14 -14  -4    7.20   14.00   1
 -14  14   4   -0.00   14.00   1
 -14  14  -4   18.10   16.00   1
  14 -14   4   -0.00   15.60   1
 -14 -14   4    7.00   14.10   1
  14  14  -4    5.10   14.10   1
  14  14   5   18.00   24.40   1
 -14 -14  -5   22.70   24.40   1
  14 -14  -5    3.70   24.60   1
 -14  14   5   31.40   24.60   1
  14 -14   5   12.40   25.50   1
 -14 -14   5   35.20   24.80   1
  14  14  -5   36.60   24.80   1
  14  14   6    1.30    8.80   1
 -14 -14  -6    4.10    8.90   1
  14 -14  -6    8.20    9.20   1
 -14  14   6    2.50    9.10   1
 -14 -14   6   -0.00    9.20   1
  14  14  -6   -0.00    9.30   1
  14  14   7   28.10   17.80   1
 -14 -14  -7    7.20   17.70   1
  14 -14  -7    1.10   17.80   1
 -14  14   7   13.60   17.80   1
 -14 -14   7    9.30   18.10   1
  14  14   8    4.70   15.00   1
 -14 -14  -8    8.90   15.00   1
  14 -14  -8   11.50   15.10   1
 -14  14   8    8.20   15.10   1
  14  15   0   19.40   28.00   1
 -14 -15   0   30.50   27.90   1
  14 -15   0   58.50   29.00   1
 -14  15   0   25.20   29.00   1
  14  15   1   15.10   21.00   1
 -14 -15  -1   15.60   21.00   1
  14 -15  -1   36.60   22.90   1
 -14  15   1   15.50   22.30   1
 -14  15  -1   17.20   22.10   1
  14 -15   1   30.30   22.10   1
 -14 -15   1    8.30   21.20   1
  14  15  -1   22.60   21.50   1
  14  15   2   15.70   22.00   1
 -14 -15  -2   15.70   22.00   1
  14 -15  -2   39.70   22.90   1
 -14  15   2    9.40   23.20   1
 -14  15  -2   16.20   23.00   1
  14 -15   2    9.00   22.70   1
 -14 -15   2   12.40   22.30   1
  14  15  -2   41.00   22.50   1
  14  15   3   -0.00    8.60   1
 -14 -15  -3    0.90    8.60   1
  14 -15  -3    3.20    9.30   1
 -14  15   3    9.20    9.90   1
 -14  15  -3   19.90   12.00   1
  14 -15   3   48.30   12.30   1
 -14 -15   3    2.70    9.10   1
  14  15  -3    0.90    9.00   1
  14  15   4   49.10   25.90   1
 -14 -15  -4   11.60   25.80   1
  14 -15  -4   22.80   26.00   1
 -14  15   4   23.00   25.90   1
 -14  15  -4   -0.00   26.60   1
  14 -15   4   33.30   27.20   1
 -14 -15   4   30.00   26.10   1
  14  15  -4   34.30   26.20   1
  14  15   5    4.60   10.40   1
 -14 -15  -5    1.50   10.40   1
  14 -15  -5    8.90   10.70   1
 -14  15   5    7.00   10.80   1
 -14 -15   5   -0.00   10.80   1
  14  15  -5    2.90   10.80   1
  14  15   6   60.60   34.30   1
 -14 -15  -6   38.50   34.20   1
  14 -15  -6   26.70   34.30   1
 -14  15   6   54.60   34.40   1
 -14 -15   6   28.50   34.50   1
  14  15  -6   56.30   35.60   1
  14  15   7   -0.00    9.30   1
 -14 -15  -7   11.20    9.40   1
  14 -15  -7   -0.00    9.40   1
 -14  15   7   -0.00    9.50   1
 -14 -15   7    2.60    9.80   1
  14  16   0    0.00    9.30   1
 -14 -16   0    2.90    8.70   1
  14 -16   0   -0.00   10.80   1
 -14  16   0    8.50   10.80   1
  14  16   1  143.50   41.00   1
 -14 -16  -1   43.70   40.20   1
  14 -16  -1   38.00   40.70   1
 -14  16   1  179.60   42.90   1
 -14  16  -1   58.90   40.90   1
  14 -16   1   24.60   40.50   1
 -14 -16   1   53.00   40.40   1
  14  16  -1  104.80   41.00   1
  14  16   2    9.00   12.70   1
 -14 -16  -2    2.80   12.70   1
  14 -16  -2    9.60   14.10   1
 -14  16   2   24.10   15.40   1
 -14  16  -2    9.60   14.50   1
  14 -16   2    5.40   13.90   1
 -14 -16   2   -0.00   12.90   1
  14  16  -2    8.60   13.10   1
  14  16   3   21.90   22.50   1
 -14 -16  -3    8.10   22.50   1
  14 -16  -3   49.80   23.30   1
 -14  16   3   35.30   23.20   1
 -14  16  -3   50.30   24.70   1
  14 -16   3   -0.00   23.70   1
 -14 -16   3   13.00   22.60   1
  14  16  -3   39.70   23.00   1
  14  16   4   10.50   15.20   1
 -14 -16  -4    5.80   15.20   1
  14 -16  -4    6.50   15.50   1
 -14  16   4   11.60   15.70   1
  14 -16   4    9.60   17.30   1
 -14 -16   4   13.50   15.60   1
  14  16  -4    5.30   15.40   1
  14  16   5   68.50   41.80   1
 -14 -16  -5   71.90   41.80   1
  14 -16  -5   50.60   41.80   1
 -14  16   5   68.20   41.90   1
 -14 -16   5   41.60   42.00   1
  14  16  -5   49.10   42.40   1
  14  16   6   13.90   18.90   1
 -14 -16  -6    7.20   18.90   1
  14 -16  -6   22.30   19.20   1
 -14  16   6   20.80   19.20   1
 -14 -16   6   13.00   19.30   1
  14  17   0   36.50   25.00   1
 -14 -17   0   14.50   24.70   1
  14 -17   0   40.10   25.60   1
 -14  17   0    7.00   25.30   1
  14  17   1    3.50   13.30   1
 -14 -17  -1    8.50   12.90   1
  14 -17  -1    4.20   14.40   1
 -14  17   1    0.90   14.60   1
 -14  17  -1   11.30   14.00   1
  14 -17   1   10.30   14.00   1
 -14 -17   1    4.60   13.20   1
  14  17  -1    2.40   13.20   1
  14  17   2   65.30   22.00   1
 -14 -17  -2    8.10   21.60   1
  14 -17  -2   -0.00   23.00   1
 -14  17   2   22.90   22.90   1
 -14  17  -2   94.70   25.40   1
  14 -17   2   31.30   22.70   1
 -14 -17   2    9.60   21.70   1
  14  17  -2   13.70   21.70   1
  14  17   3   22.80   19.40   1
 -14 -17  -3   18.40   19.40   1
  14 -17  -3   14.50   20.00   1
 -14  17   3   -0.10   20.70   1
 -14  17  -3    2.40   20.40   1
  14 -17   3    0.00   20.80   1
 -14 -17   3   11.90   19.60   1
  14  17  -3   -0.00   19.50   1
  14  17   4   32.70   25.80   1
 -14 -17  -4   24.40   25.80   1
  14 -17  -4   17.50   26.00   1
 -14  17   4   25.20   26.30   1
 -14 -17   4   18.40   26.00   1
  14  17  -4   17.20   26.10   1
  14  17   5   13.90   11.60   1
 -14 -17  -5   -0.10   11.50   1
  14 -17  -5   -0.00   11.90   1
 -14 -17   5    1.90   12.10   1
  14  18   0   13.70   18.90   1
 -14 -18   0    3.70   18.80   1
  14 -18   0   37.10   19.90   1
 -14  18   0   18.30   19.60   1
  14  18   1   43.30   25.70   1
 -14 -18  -1   11.70   25.30   1
  14 -18  -1   20.30   26.00   1
 -14  18   1   29.10   26.20   1
 -14  18  -1  211.40   34.70   1
  14 -18   1   45.80   26.40   1
 -14 -18   1   15.80   25.30   1
  14  18  -1   30.00   25.50   1
  14  18   2   21.50   23.80   1
 -14 -18  -2   29.10   23.70   1
  14 -18  -2    1.90   24.40   1
 -14  18  -2   19.90   25.10   1
  14 -18   2   39.20   25.10   1
 -14 -18   2   15.70   23.80   1
  14  18  -2   14.00   23.80   1
  14  18   3   64.00   38.40   1
 -14 -18  -3   39.40   38.20   1
  14 -18  -3   51.20   38.90   1
  14 -18   3   66.00   40.20   1
 -14 -18   3   96.60   39.80   1
  14  18  -3  138.20   42.60   1
  14  18   4    0.60   12.40   1
 -14 -18  -4   11.30   12.40   1
  14 -18  -4   13.50   13.50   1
 -14 -18   4    4.40   12.90   1
  14  18  -4   -0.00   12.90   1
  15   0   0   58.60   42.80   1
 -15   0   0   69.40   42.80   1
  15   0   1  179.60   72.00   1
 -15   0  -1  157.20   71.90   1
  15   0  -1  175.90   72.00   1
 -15   0   1  163.70   72.00   1
  15   0   2   69.30   36.80   1
 -15   0  -2   90.80   36.80   1
  15   0  -2   27.30   36.60   1
 -15   0   2   36.60   36.60   1
  15   0   3  316.30  105.00   1
 -15   0  -3  271.90  104.80   1
  15   0  -3  370.20  105.00   1
 -15   0   3  339.80  104.90   1
  15   0   4    5.80   19.10   1
 -15   0  -4  100.40   19.70   1
  15   0  -4    9.80   19.00   1
 -15   0   4   -0.00   19.00   1
  15   0   5 1936.00  333.10   1
 -15   0  -5 2426.10  337.40   1
  15   0  -5 1704.90  332.00   1
 -15   0   5 1315.40  329.80   1
  15   0   6   -0.00   14.30   1
 -15   0  -6    6.40   15.30   1
  15   0  -6   15.20   13.40   1
 -15   0   6   -0.00   13.40   1
  15   0   7  227.30   94.50   1
 -15   0  -7  251.20   94.60   1
  15   0  -7  406.70   94.50   1
 -15   0   7  231.80   93.70   1
  15   0   8   26.60   27.20   1
 -15   0  -8   -0.00   27.20   1
  15   0  -8   23.60   26.40   1
 -15   0   8   31.90   26.40   1
  15   0   9  180.30   37.10   1
 -15   0  -9   40.40   34.80   1
  15   0  -9   40.60   34.30   1
 -15   0   9   35.60   34.20   1
  15   0  10   35.00   19.50   1
 -15   0 -10    4.20   19.20   1
  15   0 -10   24.70   18.50   1
 -15   0  10    2.60   18.30   1
  15   0  11   88.30   50.90   1
 -15   0 -11   47.90   50.30   1
  15   0 -11  163.60   51.20   1
 -15   0  11   81.90   49.90   1
  15   0  12   27.80   19.20   1
  15   0 -12   15.80   17.80   1
 -15   0  12    2.30   17.60   1
  15   1   0   -0.00    2.20   1
 -15  -1   0   -0.30    2.20   1
  15  -1   0   -0.30    2.40   1
 -15   1   0   -0.10    2.30   1
  15   1   1   18.00   22.90   1
 -15  -1  -1   14.50   22.90   1
  15  -1  -1   29.20   23.00   1
 -15   1   1   18.40   22.90   1
 -15   1  -1   13.60   23.00   1
  15  -1   1   10.50   23.00   1
 -15  -1   1   22.10   22.90   1
  15   1  -1   24.20   22.90   1
  15   1   2   -0.10   16.50   1
 -15  -1  -2   -0.00   16.40   1
  15  -1  -2   15.70   16.40   1
 -15   1   2    9.80   16.40   1
 -15   1  -2   22.60   16.60   1
  15  -1   2   -0.00   16.60   1
 -15  -1   2   15.10   16.40   1
  15   1  -2   12.20   16.40   1
  15   1   3   23.40   23.30   1
 -15  -1  -3   17.50   23.30   1
  15  -1  -3   10.80   23.20   1
 -15   1   3    8.20   23.20   1
 -15   1  -3   51.30   23.50   1
  15  -1   3   34.00   23.40   1
 -15  -1   3    8.70   23.20   1
  15   1  -3   30.50   23.30   1
  15   1   4  319.00   58.90   1
 -15  -1  -4  119.40   57.90   1
  15  -1  -4   87.80   57.80   1
 -15   1   4  104.50   57.80   1
 -15   1  -4  123.30   58.00   1
  15  -1   4  107.50   57.90   1
 -15  -1   4  118.40   57.80   1
  15   1  -4  100.90   57.80   1
  15   1   5   36.80   31.10   1
 -15  -1  -5   53.80   31.30   1
  15  -1  -5   43.90   31.00   1
 -15   1   5   26.60   30.90   1
 -15   1  -5   57.70   31.70   1
  15  -1   5   24.90   31.40   1
 -15  -1   5   20.20   30.90   1
  15   1  -5   40.80   31.00   1
  15   1   6   20.80   27.20   1
 -15  -1  -6   27.40   27.20   1
  15  -1  -6   24.20   26.50   1
 -15   1   6   28.10   26.50   1
 -15   1  -6   15.90   28.10   1
  15  -1   6   36.50   27.90   1
 -15  -1   6   30.50   26.50   1
  15   1  -6   19.40   26.50   1
  15   1   7    8.60   28.70   1
 -15  -1  -7    1.00   28.40   1
  15  -1  -7   29.20   27.50   1
 -15   1   7   12.60   27.50   1
 -15   1  -7  107.80   29.50   1
  15  -1   7   24.50   28.60   1
 -15  -1   7   28.40   27.50   1
  15   1  -7   45.20   27.60   1
  15   1   8   22.60   16.50   1
 -15  -1  -8   36.10   16.40   1
  15  -1  -8   18.30   14.40   1
 -15   1   8    5.90   14.40   1
 -15   1  -8   -0.00   15.80   1
  15  -1   8   23.80   16.00   1
 -15  -1   8    1.40   14.30   1
  15   1  -8   -0.00   14.40   1
  15   1   9   -0.00    9.30   1
 -15  -1  -9    8.80    8.80   1
  15  -1  -9   -0.00    6.30   1
 -15   1   9    2.40    6.30   1
 -15   1  -9    3.20    8.20   1
  15  -1   9    4.10    8.50   1
 -15  -1   9   -0.00    6.40   1
  15   1  -9    0.00    6.60   1
  15   1  10    7.80    9.90   1
 -15  -1 -10   -0.00    9.50   1
  15  -1 -10    1.10    8.10   1
 -15   1  10   -0.00    8.00   1
 -15   1 -10   -0.00    9.90   1
  15  -1  10   11.00    9.90   1
 -15  -1  10    1.00    8.20   1
  15   1 -10    7.90    8.90   1
  15   1  11    7.30   12.90   1
 -15  -1 -11   -0.00   13.10   1
  15  -1 -11   12.00   11.90   1
 -15   1  11    0.00   11.50   1
 -15   1 -11   16.10   13.80   1
  15  -1  11   13.50   13.70   1
 -15  -1  11   -0.00   12.00   1
  15   1 -11    6.60   12.70   1
  15   1  12    5.30   12.90   1
 -15  -1 -12   20.50   13.50   1
  15  -1 -12    3.40   12.10   1
 -15   1  12    1.20   11.60   1
 -15  -1  12    7.20   11.70   1
  15   1 -12    0.00   11.70   1
  15   2   0   -0.00    8.30   1
 -15  -2   0    0.70    8.30   1
  15  -2   0    2.80    8.40   1
 -15   2   0    7.30    8.50   1
  15   2   1   30.40   32.50   1
 -15  -2  -1   37.30   32.50   1
  15  -2  -1   43.30   32.50   1
 -15   2   1   42.50   32.50   1
 -15   2  -1   25.40   32.40   1
  15  -2   1   33.40   32.50   1
 -15  -2   1   34.80   32.40   1
  15   2  -1   58.30   32.50   1
  15   2   2   11.50   24.30   1
 -15  -2  -2   52.10   24.40   1
  15  -2  -2   18.10   24.30   1
 -15   2   2   21.50   24.30   1
 -15   2  -2   21.80   24.40   1
  15  -2   2   47.90   24.60   1
 -15  -2   2   16.20   24.30   1
  15   2  -2    8.40   24.30   1
  15   2   3   11.90   25.00   1
 -15  -2  -3    3.60   25.00   1
  15  -2  -3   97.80   25.30   1
 -15   2   3  126.00   25.50   1
 -15   2  -3    8.00   25.00   1
  15  -2   3   23.00   25.00   1
 -15  -2   3   10.80   24.90   1
  15   2  -3   15.00   25.00   1
  15   2   4   77.10   32.80   1
 -15  -2  -4   42.40   32.60   1
  15  -2  -4   39.20   32.50   1
 -15   2   4   26.60   32.50   1
 -15   2  -4   45.20   33.10   1
  15  -2   4   35.20   32.90   1
 -15  -2   4   45.00   32.50   1
  15   2  -4   23.00   32.50   1
  15   2   5  141.60   53.30   1
 -15  -2  -5   96.70   53.10   1
  15  -2  -5  125.90   53.20   1
 -15   2   5  117.00   53.10   1
 -15   2  -5  109.30   53.80   1
  15  -2   5   23.40   53.20   1
 -15  -2   5   76.60   53.00   1
  15   2  -5  104.70   53.10   1
  15   2   6    7.00   16.50   1
 -15  -2  -6   14.80   16.70   1
  15  -2  -6    6.50   15.90   1
 -15   2   6   12.90   15.90   1
 -15   2  -6   10.50   17.30   1
  15  -2   6   11.10   17.40   1
 -15  -2   6    4.30   15.90   1
  15   2  -6   11.80   16.00   1
  15   2   7    1.00   31.80   1
 -15  -2  -7    5.40   32.30   1
  15  -2  -7   15.30   31.40   1
 -15   2   7   31.60   31.50   1
 -15   2  -7   48.90   32.40   1
  15  -2   7   22.20   32.20   1
 -15  -2   7  151.10   32.10   1
  15   2  -7  117.30   31.90   1
  15   2   8    9.60   19.40   1
 -15  -2  -8   -0.00   19.10   1
  15  -2  -8    8.20   18.10   1
 -15   2   8   24.50   18.20   1
 -15   2  -8    4.30   19.20   1
  15  -2   8   14.60   19.20   1
 -15  -2   8   10.70   18.10   1
  15   2  -8    7.50   18.20   1
  15   2   9   55.80   25.90   1
 -15  -2  -9   27.50   25.60   1
  15  -2  -9   14.10   24.70   1
 -15   2   9   16.50   24.70   1
 -15   2  -9   34.10   25.50   1
  15  -2   9   71.80   26.00   1
 -15  -2   9   26.90   24.70   1
  15   2  -9   13.80   24.90   1
  15   2  10   -0.00   18.60   1
 -15  -2 -10   -0.00   18.50   1
  15  -2 -10   22.30   17.80   1
 -15   2  10   18.80   17.70   1
 -15   2 -10    0.10   19.00   1
  15  -2  10   -0.00   19.00   1
 -15  -2  10   -0.00   18.10   1
  15   2 -10    1.20   18.40   1
  15   2  11   19.90   15.70   1
 -15  -2 -11    3.30   15.60   1
  15  -2 -11   12.20   14.60   1
 -15   2  11   -0.00   14.40   1
  15  -2  11   18.70   16.50   1
 -15  -2  11    6.20   14.90   1
  15   2 -11   18.40   15.20   1
  15   2  12    6.90   11.30   1
 -15  -2 -12    5.80   11.40   1
  15  -2 -12    5.00   10.40   1
 -15  -2  12   -0.00    9.70   1
  15   2 -12    3.40   10.00   1
  15   3   0  123.50   29.90   1
 -15  -3   0   62.40   29.60   1
  15  -3   0    8.40   29.50   1
 -15   3   0   -0.00   29.50   1
  15   3   1   19.10   19.90   1
 -15  -3  -1   -0.00   19.80   1
  15  -3  -1    7.40   19.90   1
 -15   3   1   -0.00   19.90   1
 -15   3  -1   23.60   20.00   1
  15  -3   1   20.30   20.00   1
 -15  -3   1   39.40   20.00   1
  15   3  -1   17.50   19.90   1
  15   3   2   62.20   29.70   1
 -15  -3  -2   35.10   29.60   1
  15  -3  -2   59.60   29.80   1
 -15   3   2  101.50   30.00   1
 -15   3  -2   10.70   29.70   1
  15  -3   2   11.90   29.70   1
 -15  -3   2   20.00   29.60   1
  15   3  -2   19.50   29.60   1
  15   3   3   15.00   24.40   1
 -15  -3  -3   62.90   24.60   1
  15  -3  -3   29.70   24.40   1
 -15   3   3   41.20   24.50   1
 -15   3  -3    9.50   24.60   1
  15  -3   3    2.00   24.50   1
 -15  -3   3    9.10   24.40   1
  15   3  -3   15.30   24.40   1
  15   3   4   87.80   54.60   1
 -15  -3  -4  204.70   55.00   1
  15  -3  -4   91.80   54.50   1
 -15   3   4   84.90   54.50   1
 -15   3  -4  147.40   55.20   1
  15  -3   4   93.00   54.90   1
 -15  -3   4  102.50   54.50   1
  15   3  -4   95.00   54.50   1
 -15  -3  -5  118.90   23.00   1
  15  -3  -5    5.40   22.30   1
 -15   3   5   18.30   22.30   1
 -15   3  -5   22.90   24.00   1
  15  -3   5   39.70   23.90   1
 -15  -3   5   11.10   22.30   1
  15   3  -5   11.10   22.30   1
  15   3   6   31.60   21.40   1
 -15  -3  -6   16.60   21.50   1
  15  -3  -6   23.20   21.20   1
 -15   3   6   10.20   21.20   1
 -15   3  -6   37.30   22.70   1
  15  -3   6   95.70   23.30   1
 -15  -3   6    5.40   21.10   1
  15   3  -6   12.30   21.20   1
  15   3   7    2.10   22.40   1
 -15  -3  -7   14.10   22.30   1
  15  -3  -7   14.50   21.70   1
 -15   3   7   17.10   21.70   1
 -15   3  -7   55.70   23.00   1
  15  -3   7   18.50   22.80   1
 -15  -3   7   18.20   21.70   1
  15   3  -7   17.80   21.70   1
  15   3   8  147.60   42.30   1
 -15  -3  -8   73.40   41.60   1
  15  -3  -8   52.60   40.60   1
 -15   3   8   32.90   40.60   1
 -15   3  -8   42.90   41.10   1
  15  -3   8  117.30   42.00   1
 -15  -3   8  100.10   40.90   1
  15   3  -8   77.00   40.90   1
  15   3   9   31.40   15.90   1
 -15  -3  -9   -0.00   15.40   1
  15  -3  -9   10.80   14.10   1
 -15   3   9    6.00   14.00   1
 -15   3  -9    6.90   15.40   1
  15  -3   9   12.40   15.30   1
 -15  -3   9   -0.00   14.20   1
  15   3  -9    5.60   14.80   1
  15   3  10   44.70   39.70   1
 -15  -3 -10   23.90   39.50   1
  15  -3 -10  110.40   39.40   1
 -15   3  10   51.60   39.00   1
 -15   3 -10   41.80   40.10   1
  15  -3  10   88.10   41.20   1
 -15  -3  10   25.70   39.20   1
  15   3 -10  116.10   40.30   1
  15   3  11   19.20   15.10   1
 -15  -3 -11    7.30   14.70   1
  15  -3 -11   11.40   14.10   1
 -15   3  11    3.70   13.90   1
  15  -3  11    9.20   15.40   1
 -15  -3  11    4.70   14.40   1
  15   3 -11    5.00   14.50   1
  15   3  12   12.30   24.40   1
 -15  -3 -12   25.00   25.00   1
  15  -3 -12   43.60   24.20   1
 -15  -3  12   13.10   24.00   1
  15   3 -12   14.80   24.00   1
  15   4   0   35.80   22.20   1
 -15  -4   0   14.20   22.10   1
  15  -4   0   20.40   22.30   1
 -15   4   0    1.10   22.20   1
  15   4   1   10.40   23.20   1
 -15  -4  -1   14.30   23.20   1
  15  -4  -1   31.30   23.30   1
 -15   4   1   42.80   23.40   1
 -15  -4   1   11.20   23.30   1
  15   4  -1   20.70   23.30   1
  15   4   2   12.80   16.50   1
 -15  -4  -2   10.50   16.50   1
  15  -4  -2    6.00   16.50   1
 -15   4   2   11.10   16.50   1
 -15   4  -2   14.10   16.70   1
  15  -4   2   14.40   16.60   1
 -15  -4   2    8.40   16.50   1
  15   4  -2    5.00   16.40   1
  15   4   3   16.50   27.80   1
 -15  -4  -3   -0.00   27.80   1
  15  -4  -3   18.10   27.80   1
 -15   4   3   31.80   27.90   1
 -15   4  -3   57.30   28.50   1
  15  -4   3   35.00   28.20   1
 -15  -4   3   56.00   27.90   1
  15   4  -3   58.50   27.90   1
  15   4   4   29.20   23.70   1
 -15  -4  -4   20.40   23.60   1
  15  -4  -4   24.90   23.70   1
 -15   4   4   22.00   23.60   1
 -15   4  -4   18.30   24.90   1
  15  -4   4    8.10   24.00   1
 -15  -4   4   12.30   23.60   1
  15   4  -4   20.10   23.60   1
  15   4   5   56.10   42.20   1
 -15  -4  -5   75.70   42.20   1
  15  -4  -5   52.20   42.10   1
 -15   4   5   81.80   42.20   1
 -15   4  -5   87.90   43.00   1
  15  -4   5   89.00   43.20   1
 -15  -4   5   50.60   42.10   1
  15   4  -5   59.90   42.10   1
  15   4   6   68.80   20.70   1
 -15  -4  -6   28.40   20.40   1
  15  -4  -6    9.80   20.30   1
 -15   4   6    4.50   20.20   1
 -15   4  -6   12.70   21.40   1
  15  -4   6   48.90   21.80   1
 -15  -4   6    5.80   20.20   1
  15   4  -6   10.70   20.30   1
  15   4   7   39.90   17.80   1
 -15  -4  -7   16.20   18.20   1
  15  -4  -7    1.20   17.40   1
 -15   4   7    8.40   17.40   1
 -15   4  -7   31.60   18.60   1
  15  -4   7   18.60   18.90   1
 -15  -4   7    7.70   17.40   1
  15   4  -7   12.30   17.50   1
  15   4   8    3.80   20.70   1
 -15  -4  -8    7.50   21.50   1
  15  -4  -8    8.10   20.30   1
 -15   4   8    4.00   20.30   1
 -15   4  -8   12.80   21.20   1
  15  -4   8    9.30   21.30   1
 -15  -4   8   48.50   20.60   1
  15   4  -8  115.10   21.90   1
  15   4   9   32.90   13.80   1
 -15  -4  -9    4.40   13.20   1
  15  -4  -9    9.60   11.90   1
 -15   4   9   -0.00   11.80   1
  15  -4   9    0.20   13.80   1
 -15  -4   9    1.10   12.50   1
  15   4  -9   -0.00   12.90   1
  15   4  10   18.80   16.20   1
 -15  -4 -10   -0.00   16.00   1
  15  -4 -10    8.50   14.90   1
 -15   4  10    9.90   14.90   1
  15  -4  10   -0.00   16.50   1
 -15  -4  10    7.20   15.30   1
  15   4 -10    3.30   15.30   1
  15   4  11    0.00   13.50   1
 -15  -4 -11    8.00   13.30   1
  15  -4 -11    6.50   12.10   1
 -15   4  11    4.30   12.10   1
 -15  -4  11   -0.00   12.40   1
  15   4 -11   13.00   12.70   1
  15   5   0  171.90   42.40   1
 -15  -5   0   70.40   42.10   1
  15  -5   0   28.90   42.00   1
 -15   5   0   47.50   42.00   1
  15   5   1   84.70   36.60   1
 -15  -5  -1   49.60   36.50   1
  15  -5  -1   57.30   36.60   1
 -15   5   1   28.50   36.50   1
 -15   5  -1   47.60   36.50   1
  15  -5   1   37.50   36.50   1
 -15  -5   1   56.80   36.40   1
  15   5  -1   37.50   36.40   1
  15   5   2  401.10   57.90   1
 -15  -5  -2  100.70   55.80   1
  15  -5  -2   88.10   55.70   1
 -15   5   2   72.00   55.70   1
 -15   5  -2  113.60   55.90   1
  15  -5   2   65.00   55.70   1
 -15  -5   2  142.40   55.80   1
  15   5  -2  171.60   55.90   1
  15   5   3   16.90   20.50   1
 -15  -5  -3    0.00   20.40   1
  15  -5  -3   17.40   20.50   1
 -15   5   3   14.60   20.40   1
 -15   5  -3   19.20   21.40   1
  15  -5   3   -0.00   21.20   1
 -15  -5   3   17.20   20.40   1
  15   5  -3   28.90   20.50   1
  15   5   4 1265.10  268.40   1
 -15  -5  -4 1424.40  269.00   1
  15  -5  -4 1403.30  271.00   1
 -15   5   4 1497.20  271.70   1
 -15   5  -4 1797.10  277.80   1
  15  -5   4 1326.80  271.00   1
 -15  -5   4 1186.50  267.80   1
  15   5  -4 1051.80  267.00   1
  15   5   5   33.50   34.70   1
 -15  -5  -5   35.50   34.70   1
  15  -5  -5   49.20   34.70   1
 -15   5   5   38.40   34.70   1
 -15   5  -5  113.60   36.20   1
  15  -5   5   60.40   35.70   1
 -15  -5   5   30.40   34.60   1
  15   5  -5   66.70   34.70   1
  15   5   6  198.60   59.90   1
 -15  -5  -6   74.30   59.40   1
  15  -5  -6  120.10   59.50   1
 -15   5   6   88.20   59.40   1
 -15   5  -6  129.20   60.30   1
  15  -5   6  144.90   60.40   1
 -15  -5   6  186.90   59.80   1
  15   5  -6  216.90   60.10   1
  15   5   7   21.80   15.60   1
 -15  -5  -7    1.50   15.60   1
  15  -5  -7   12.80   15.40   1
 -15   5   7    7.30   15.40   1
 -15   5  -7    9.40   16.30   1
  15  -5   7   -0.00   16.40   1
 -15  -5   7    2.40   15.40   1
  15   5  -7    9.30   15.60   1
  15   5   8   18.50   32.50   1
 -15  -5  -8    9.00   32.50   1
  15  -5  -8   58.40   32.30   1
 -15   5  -8   20.40   33.00   1
  15  -5   8   21.60   32.80   1
 -15  -5   8   46.90   32.50   1
  15   5  -8   92.50   33.20   1
  15   5   9   43.40   18.80   1
 -15  -5  -9   15.30   18.00   1
  15  -5  -9    1.30   16.80   1
 -15   5   9   20.70   16.80   1
 -15   5  -9   21.30   18.90   1
  15  -5   9   21.40   18.60   1
 -15  -5   9    2.00   17.20   1
  15   5  -9   -0.00   17.30   1
  15   5  10   23.00   30.80   1
 -15  -5 -10   64.40   31.10   1
  15  -5 -10   44.80   30.20   1
 -15   5  10   38.80   30.20   1
  15  -5  10   14.90   31.10   1
 -15  -5  10   14.80   30.20   1
  15   5 -10   23.40   30.30   1
  15   5  11   28.00   16.30   1
 -15  -5 -11   32.40   16.00   1
  15  -5 -11   13.20   14.80   1
 -15   5  11    0.40   14.70   1
 -15  -5  11    6.50   15.10   1
  15   5 -11    4.50   15.10   1
  15   6   0   14.80   17.50   1
 -15  -6   0    5.50   17.40   1
  15  -6   0    8.90   17.70   1
 -15   6   0   17.30   17.60   1
  15   6   1    8.10   18.90   1
 -15  -6  -1   33.00   19.00   1
  15  -6  -1    9.20   19.00   1
 -15   6   1    8.30   19.00   1
 -15   6  -1   10.70   19.00   1
  15  -6   1   13.80   19.10   1
 -15  -6   1    9.90   18.90   1
  15   6  -1   10.70   18.90   1
  15   6   2    1.50    8.70   1
 -15  -6  -2   -0.00    8.70   1
  15  -6  -2    7.40    8.90   1
 -15   6   2   -0.00    8.90   1
 -15   6  -2   -0.00   10.40   1
  15  -6   2   -0.00   10.00   1
 -15  -6   2   -0.00    8.80   1
  15   6  -2    9.70    8.80   1
  15   6   3   16.80   17.60   1
 -15  -6  -3   -0.00   17.50   1
  15  -6  -3    8.10   17.60   1
 -15   6   3   11.80   17.50   1
 -15   6  -3   -0.00   19.20   1
  15  -6   3   -0.00   18.10   1
 -15  -6   3   25.30   17.50   1
  15   6  -3   10.10   17.50   1
  15   6   4   38.30   34.00   1
 -15  -6  -4   67.80   34.10   1
  15  -6  -4   44.10   34.00   1
 -15   6   4   41.90   34.00   1
 -15   6  -4   21.40   34.90   1
  15  -6   4   37.80   35.00   1
 -15  -6   4   42.40   34.00   1
  15   6  -4   28.20   33.90   1
  15   6   5   83.20   46.40   1
 -15  -6  -5   52.50   46.30   1
  15  -6  -5   64.10   46.30   1
 -15   6   5   66.70   46.30   1
 -15   6  -5   96.00   47.40   1
  15  -6   5   72.60   47.00   1
 -15  -6   5   79.50   46.30   1
  15   6  -5  151.50   46.70   1
  15   6   6    6.40   10.90   1
 -15  -6  -6   14.40   11.00   1
  15  -6  -6    2.10   10.80   1
 -15   6   6   -0.00   10.80   1
 -15   6  -6   -0.00   12.50   1
  15  -6   6    9.30   12.70   1
 -15  -6   6    3.70   10.80   1
  15   6  -6   -0.00   11.00   1
  15   6   7   21.10   20.80   1
 -15  -6  -7   23.70   20.80   1
  15  -6  -7    5.10   20.60   1
 -15   6   7   30.70   20.70   1
 -15   6  -7    9.10   21.60   1
  15  -6   7   -0.00   21.50   1
 -15  -6   7    8.80   20.80   1
  15   6  -7   15.50   21.20   1
  15   6   8    8.00   14.50   1
 -15  -6  -8   -0.00   14.70   1
  15  -6  -8    9.20   14.10   1
 -15   6   8    5.80   14.00   1
 -15   6  -8   13.10   15.90   1
  15  -6   8   -0.00   15.50   1
 -15  -6   8    8.00   14.60   1
  15   6  -8   11.10   14.80   1
  15   6   9   -0.00   25.30   1
 -15  -6  -9   58.90   26.40   1
  15  -6  -9   13.50   25.00   1
 -15   6   9   22.00   25.00   1
 -15   6  -9   20.40   26.20   1
  15  -6   9   20.50   26.20   1
 -15  -6   9   66.00   25.80   1
  15   6  -9  113.50   26.80   1
  15   6  10   -0.20   17.50   1
 -15  -6 -10    2.20   17.10   1
  15  -6 -10   25.90   16.20   1
 -15   6  10    3.90   16.00   1
 -15  -6  10    6.10   16.30   1
  15   6 -10    5.20   16.30   1
  15   6  11   -0.00   12.70   1
 -15  -6 -11    0.00   12.60   1
  15  -6 -11    8.40   11.20   1
 -15   6  11   -0.00   11.20   1
 -15  -6  11   -0.00   11.60   1
  15   6 -11   16.30   11.80   1
  15   7   0    0.00   10.70   1
 -15  -7   0    2.00   10.80   1
  15  -7   0   13.00   11.10   1
 -15   7   0    6.90   11.00   1
  15   7   1   30.80   26.80   1
 -15  -7  -1   21.10   26.80   1
  15  -7  -1    2.30   26.90   1
 -15   7   1    4.30   26.80   1
 -15   7  -1   11.40   27.00   1
  15  -7   1   17.30   26.90   1
 -15  -7   1   60.90   26.90   1
  15   7  -1   67.40   26.90   1
  15   7   2   63.20   31.60   1
 -15  -7  -2   25.30   31.40   1
  15  -7  -2   61.00   31.60   1
 -15   7   2   11.70   31.40   1
 -15   7  -2   36.50   32.20   1
  15  -7   2   19.60   32.00   1
 -15  -7   2   22.60   31.40   1
  15   7  -2   84.80   31.60   1
  15   7   3   38.30   34.70   1
 -15  -7  -3   46.70   34.70   1
  15  -7  -3   31.00   34.70   1
 -15   7   3   36.60   34.70   1
 -15   7  -3  107.70   36.50   1
  15  -7   3  120.50   36.30   1
 -15  -7   3   39.10   34.60   1
  15   7  -3   49.10   34.70   1
  15   7   4   43.60   21.10   1
 -15  -7  -4    5.80   20.90   1
  15  -7  -4   10.50   21.00   1
 -15   7   4   42.60   21.10   1
 -15   7  -4   66.60   22.90   1
  15  -7   4   56.70   22.60   1
 -15  -7   4    4.10   20.90   1
  15   7  -4    1.30   21.00   1
  15   7   5   -0.00   16.50   1
 -15  -7  -5   10.50   16.50   1
  15  -7  -5    6.90   16.40   1
 -15   7   5   -0.00   16.50   1
 -15   7  -5   11.00   17.70   1
  15  -7   5   12.10   17.90   1
 -15  -7   5   18.40   16.40   1
  15   7  -5   24.90   16.50   1
  15   7   6   64.10   25.30   1
 -15  -7  -6   25.90   25.20   1
  15  -7  -6   21.20   25.10   1
 -15   7   6   17.10   25.10   1
 -15   7  -6   11.50   25.60   1
  15  -7   6   30.80   26.00   1
 -15  -7   6    9.90   25.10   1
  15   7  -6   20.80   25.30   1
  15   7   7   13.60   18.10   1
 -15  -7  -7   15.70   18.10   1
  15  -7  -7    8.70   18.00   1
 -15   7   7    9.00   18.10   1
 -15   7  -7   -0.00   19.50   1
  15  -7   7    0.00   19.10   1
 -15  -7   7   10.40   18.40   1
  15   7  -7   40.20   19.00   1
  15   7   8   17.40   21.40   1
 -15  -7  -8   21.40   21.50   1
  15  -7  -8   12.30   21.20   1
 -15   7   8    8.60   21.20   1
 -15   7  -8   55.10   23.70   1
  15  -7   8   20.80   22.60   1
 -15  -7   8   27.50   21.70   1
  15   7  -8   33.60   21.70   1
  15   7   9   45.20   22.40   1
 -15  -7  -9   10.80   22.20   1
  15  -7  -9    2.20   21.70   1
 -15   7   9   24.00   21.80   1
  15  -7   9   -0.00   22.80   1
 -15  -7   9   32.30   22.10   1
  15   7  -9   54.60   22.50   1
  15   7  10   60.40   25.00   1
 -15  -7 -10   12.00   24.20   1
  15  -7 -10   14.30   23.40   1
 -15   7  10   19.10   23.40   1
 -15  -7  10   29.70   23.80   1
  15   7 -10   24.60   23.80   1
  15   7  11    9.70   12.30   1
 -15  -7 -11   -0.00   11.90   1
  15  -7 -11   -0.00   10.30   1
 -15  -7  11   -0.00   10.90   1
  15   7 -11   27.00   11.40   1
  15   8   0   -0.00   22.10   1
 -15  -8   0   24.50   22.20   1
  15  -8   0   46.80   22.40   1
 -15   8   0   19.30   22.30   1
  15   8   1  454.30  118.00   1
 -15  -8  -1  426.90  117.80   1
  15  -8  -1  456.30  118.20   1
 -15   8   1  223.50  117.20   1
 -15   8  -1  762.50  120.40   1
  15  -8   1  929.70  121.50   1
 -15  -8   1  452.00  117.90   1
  15   8  -1  372.50  117.60   1
  15   8   2   35.40   26.40   1
 -15  -8  -2   93.00   26.70   1
  15  -8  -2   32.40   26.40   1
 -15   8   2   12.40   26.40   1
 -15   8  -2   23.20   27.60   1
  15  -8   2   13.40   26.80   1
 -15  -8   2   12.90   26.30   1
  15   8  -2   14.80   26.30   1
  15   8   3   69.70   40.80   1
 -15  -8  -3   69.20   40.80   1
  15  -8  -3   73.30   40.90   1
 -15   8   3   69.50   40.90   1
 -15   8  -3   53.80   41.50   1
  15  -8   3   27.10   41.40   1
 -15  -8   3   34.70   40.70   1
  15   8  -3   67.50   40.80   1
  15   8   4   22.50   28.80   1
 -15  -8  -4   23.00   28.80   1
  15  -8  -4   25.90   28.90   1
 -15   8   4   23.40   28.90   1
  15  -8   4  131.60   30.80   1
 -15  -8   4   31.60   28.80   1
  15   8  -4   49.30   28.90   1
  15   8   5   20.40   24.10   1
 -15  -8  -5   22.10   24.10   1
  15  -8  -5   13.80   24.10   1
 -15   8   5   18.90   24.10   1
 -15   8  -5   30.20   25.00   1
  15  -8   5   11.90   25.10   1
 -15  -8   5   27.80   24.10   1
  15   8  -5   25.10   24.20   1
  15   8   6   20.20   23.90   1
 -15  -8  -6   18.00   23.80   1
  15  -8  -6   23.50   23.90   1
 -15   8   6   20.10   23.90   1
 -15   8  -6   12.40   24.60   1
  15  -8   6   25.70   24.70   1
 -15  -8   6   13.30   24.00   1
  15   8  -6   44.30   24.50   1
  15   8   7   39.10   26.50   1
  15  -8  -7   22.40   26.40   1
 -15   8   7   36.80   26.50   1
 -15   8  -7   27.30   27.50   1
  15  -8   7   19.10   27.20   1
 -15  -8   7   10.70   26.60   1
  15   8  -7    9.60   26.70   1
  15   8   8   19.70   17.60   1
  15  -8  -8    8.10   17.50   1
 -15   8   8   15.10   17.50   1
 -15   8  -8    4.60   18.90   1
  15  -8   8   11.90   19.10   1
 -15  -8   8    4.80   17.70   1
  15   8  -8    6.60   17.80   1
  15   8   9   29.90   17.50   1
 -15  -8  -9   56.10   18.10   1
  15  -8  -9   -0.00   17.10   1
 -15   8   9    6.60   17.10   1
 -15  -8   9   12.40   17.40   1
  15   8  -9   18.80   17.50   1
  15   8  10    0.40   17.90   1
 -15  -8 -10   16.30   18.80   1
  15  -8 -10   -0.00   17.40   1
 -15   8  10   19.80   17.50   1
 -15  -8  10  115.60   21.00   1
  15   8 -10  193.60   27.60   1
  15   8  11   53.00   33.70   1
 -15  -8 -11   21.80   33.30   1
  15  -8 -11   52.90   32.90   1
 -15  -8  11   25.80   33.00   1
  15   8 -11   32.70   33.20   1
  15   9   0   24.70   17.60   1
 -15  -9   0    4.90   17.50   1
  15  -9   0    3.70   17.90   1
 -15   9   0    7.70   17.90   1
  15   9   1    5.10   14.20   1
 -15  -9  -1   18.80   14.20   1
  15  -9  -1    7.50   14.30   1
 -15   9   1    4.30   14.30   1
 -15   9  -1   31.70   15.40   1
  15  -9   1   12.60   15.20   1
 -15  -9   1   -0.00   14.20   1
  15   9  -1   -0.00   14.20   1
  15   9   2   25.80   27.00   1
 -15  -9  -2   44.10   27.00   1
  15  -9  -2   31.40   27.10   1
 -15   9   2   14.20   27.10   1
 -15   9  -2   12.30   28.90   1
  15  -9   2   -0.00   28.20   1
 -15  -9   2   30.70   27.00   1
  15   9  -2   18.10   27.00   1
  15   9   3   54.70   21.00   1
 -15  -9  -3   14.00   20.80   1
  15  -9  -3    9.20   20.90   1
 -15   9   3    5.90   20.90   1
 -15   9  -3   12.20   22.30   1
  15  -9   3   21.40   22.20   1
 -15  -9   3   12.90   20.80   1
  15   9  -3   12.80   20.80   1
  15   9   4   46.50   38.30   1
 -15  -9  -4   61.80   38.30   1
  15  -9  -4   49.40   38.30   1
 -15   9   4   62.10   38.30   1
 -15   9  -4   53.60   39.00   1
  15  -9   4   52.40   39.00   1
 -15  -9   4   42.80   38.20   1
  15   9  -4   52.70   38.30   1
  15   9   5   -0.40    7.70   1
 -15  -9  -5    4.70    7.70   1
  15  -9  -5   -0.00    7.80   1
 -15   9   5   -0.00    7.70   1
 -15   9  -5   -0.00    9.60   1
  15  -9   5   -0.00    9.90   1
 -15  -9   5    5.30    8.00   1
  15   9  -5    6.80    8.80   1
  15   9   6   14.20   19.00   1
 -15  -9  -6    4.70   19.00   1
  15  -9  -6   11.30   19.00   1
 -15   9   6   54.90   19.30   1
 -15   9  -6    6.70   19.90   1
  15  -9   6    4.40   20.10   1
 -15  -9   6   -0.00   19.20   1
  15   9  -6    7.60   19.50   1
  15   9   7    3.30   10.30   1
 -15  -9  -7    1.00   10.30   1
  15  -9  -7    3.80   10.10   1
 -15   9   7    3.40   10.20   1
 -15   9  -7    8.10   12.60   1
  15  -9   7   -0.00   12.50   1
 -15  -9   7    0.70   10.60   1
  15   9  -7   11.70   10.80   1
  15   9   8    5.20   15.70   1
 -15  -9  -8   47.40   16.00   1
  15  -9  -8   -0.00   15.70   1
 -15   9   8    5.40   15.70   1
  15  -9   8   34.20   18.10   1
 -15  -9   8    8.20   15.90   1
  15   9  -8    5.50   15.90   1
  15   9   9   11.30   12.20   1
 -15  -9  -9   11.60   12.50   1
  15  -9  -9    6.20   12.00   1
 -15   9   9   -0.00   12.00   1
 -15  -9   9    6.40   12.50   1
  15   9  -9    0.00   12.50   1
  15   9  10   29.20   19.90   1
 -15  -9 -10    0.90   19.80   1
  15  -9 -10   20.30   19.40   1
 -15   9  10   15.60   19.40   1
 -15  -9  10    5.60   19.50   1
  15   9 -10    4.40   19.60   1
  15  10   0   18.40   19.50   1
 -15 -10   0    6.70   19.50   1
  15 -10   0   31.10   20.20   1
 -15  10   0    7.00   20.40   1
  15  10   1  125.80   48.60   1
 -15 -10  -1   86.00   48.40   1
  15 -10  -1   76.00   48.50   1
 -15  10   1   84.50   48.50   1
 -15  10  -1  259.70   50.80   1
  15 -10   1    0.90   48.50   1
 -15 -10   1  190.90   48.90   1
  15  10  -1   67.20   48.30   1
  15  10   2    4.50   17.00   1
 -15 -10  -2    8.10   17.00   1
  15 -10  -2    6.90   17.30   1
 -15  10   2   15.00   17.20   1
 -15  10  -2   54.60   19.10   1
  15 -10   2   -0.00   18.90   1
 -15 -10   2   13.90   17.10   1
  15  10  -2   13.60   17.10   1
  15  10   3   87.40   30.20   1
 -15 -10  -3   26.20   30.00   1
  15 -10  -3   19.10   30.10   1
 -15  10   3   17.30   30.00   1
 -15  10  -3    9.30   30.80   1
  15 -10   3  109.50   31.70   1
 -15 -10   3   80.80   30.20   1
  15  10  -3   12.20   29.90   1
  15  10   4   29.60   24.40   1
 -15 -10  -4   24.40   24.40   1
  15 -10  -4   19.20   24.40   1
 -15  10   4   30.70   24.50   1
 -15  10  -4   50.50   25.50   1
  15 -10   4   37.40   25.40   1
 -15 -10   4   -0.00   24.30   1
  15  10  -4   30.80   24.60   1
  15  10   5  155.00   65.80   1
 -15 -10  -5  156.30   65.90   1
  15 -10  -5  150.40   65.80   1
 -15  10   5  181.30   65.90   1
 -15  10  -5  127.80   66.40   1
  15 -10   5  111.00   66.20   1
 -15 -10   5  100.10   65.80   1
  15  10  -5  164.60   66.50   1
  15  10   6    7.70   13.40   1
 -15 -10  -6    3.00   13.40   1
  15 -10  -6    5.00   13.40   1
 -15  10   6    6.20   13.50   1
 -15  10  -6   17.70   15.40   1
  15 -10   6   15.00   15.10   1
 -15 -10   6    3.70   14.00   1
  15  10  -6   11.60   13.90   1
  15  10   7   40.90   26.20   1
 -15 -10  -7   10.70   26.10   1
  15 -10  -7   53.30   26.30   1
 -15  10   7   14.70   26.10   1
 -15  10  -7   46.00   28.10   1
  15 -10   7   45.00   27.90   1
 -15 -10   7   16.80   26.30   1
  15  10  -7   38.40   26.50   1
  15  10   8   12.90   22.10   1
 -15 -10  -8   35.80   22.30   1
  15 -10  -8    7.50   22.10   1
 -15  10   8    8.80   22.10   1
 -15 -10   8   61.90   22.90   1
  15  10  -8   84.90   23.70   1
  15  10   9   10.10   27.20   1
 -15 -10  -9   21.90   27.20   1
  15 -10  -9   61.60   27.40   1
 -15  10   9   54.30   27.40   1
 -15 -10   9   15.20   27.30   1
  15  10  -9   15.80   27.40   1
  15  10  10    2.60    8.20   1
 -15 -10 -10    1.90    8.80   1
  15 -10 -10    1.30    7.70   1
 -15 -10  10    0.40    8.20   1
  15  10 -10    6.50    8.60   1
  15  11   0    9.50   18.30   1
 -15 -11   0   14.30   18.30   1
  15 -11   0   21.70   19.20   1
 -15  11   0    8.30   19.10   1
  15  11   1   16.40   16.20   1
 -15 -11  -1   16.10   16.20   1
  15 -11  -1    8.00   16.60   1
 -15  11   1    6.30   16.60   1
 -15  11  -1   20.50   19.20   1
  15 -11   1   18.90   18.60   1
 -15 -11   1    7.40   16.20   1
  15  11  -1   -0.00   16.20   1
  15  11   2    7.60   20.20   1
 -15 -11  -2   26.30   20.20   1
  15 -11  -2   12.10   20.40   1
 -15  11   2   27.50   20.40   1
 -15  11  -2  124.40   23.50   1
  15 -11   2   16.60   21.40   1
 -15 -11   2    8.30   20.10   1
  15  11  -2    7.30   20.20   1
  15  11   3   -0.00   13.10   1
 -15 -11  -3   10.00   13.10   1
  15 -11  -3    9.70   13.40   1
 -15  11   3    8.00   13.30   1
 -15  11  -3    6.40   14.60   1
  15 -11   3   -0.00   14.90   1
 -15 -11   3    6.60   13.10   1
  15  11  -3    4.90   13.30   1
  15  11   4    2.40   11.40   1
 -15 -11  -4   11.50   11.50   1
  15 -11  -4    3.60   11.70   1
 -15  11   4    3.10   11.60   1
 -15  11  -4   -0.00   13.20   1
  15 -11   4    9.40   13.10   1
 -15 -11   4    1.90   11.70   1
  15  11  -4    3.40   12.30   1
  15  11   5    5.90   14.90   1
 -15 -11  -5   10.10   14.90   1
  15 -11  -5    6.30   14.90   1
 -15  11   5    8.90   15.00   1
 -15  11  -5   15.30   16.30   1
  15 -11   5   15.00   16.60   1
 -15 -11   5    1.10   15.30   1
  15  11  -5   11.80   15.50   1
  15  11   6    7.20   12.50   1
 -15 -11  -6    8.10   12.50   1
  15 -11  -6   -0.00   12.60   1
 -15  11   6    6.00   12.50   1
 -15  11  -6   23.60   14.90   1
  15 -11   6   19.70   14.60   1
 -15 -11   6    1.70   12.70   1
  15  11  -6   -0.00   12.90   1
  15  11   7    4.50   11.80   1
 -15 -11  -7    9.70   11.90   1
  15 -11  -7    1.20   11.90   1
 -15  11   7    5.60   11.90   1
  15 -11   7    7.30   13.90   1
 -15 -11   7    7.00   12.10   1
  15  11  -7   -0.00   12.10   1
  15  11   8    3.20   14.60   1
 -15 -11  -8    8.60   14.60   1
  15 -11  -8   -0.00   14.50   1
 -15  11   8    5.10   14.50   1
 -15 -11   8  120.60   18.70   1
  15  11  -8   57.60   16.20   1
  15  11   9    0.80   12.50   1
 -15 -11  -9   15.40   12.60   1
  15 -11  -9   10.20   12.40   1
 -15  11   9    1.00   12.40   1
 -15 -11   9    3.30   12.60   1
  15  11  -9    1.70   12.70   1
  15  12   0   14.50   20.40   1
 -15 -12   0   19.40   20.40   1
  15 -12   0    8.30   21.00   1
 -15  12   0    0.20   21.80   1
  15  12   1   29.30   27.20   1
 -15 -12  -1   22.30   27.10   1
  15 -12  -1   24.10   27.60   1
 -15  12   1   27.70   27.90   1
 -15  12  -1   15.50   28.10   1
  15 -12   1   24.60   28.60   1
 -15 -12   1   47.90   27.30   1
  15  12  -1   17.30   27.20   1
 -15 -12  -2   41.90   17.00   1
  15 -12  -2   13.80   17.10   1
 -15  12   2    3.80   17.00   1
 -15  12  -2   -0.00   18.50   1
  15 -12   2   46.00   18.60   1
 -15 -12   2   -0.00   16.80   1
  15  12  -2   -0.00   17.00   1
  15  12   3   34.10   35.40   1
 -15 -12  -3   52.00   35.40   1
  15 -12  -3   27.10   35.50   1
 -15  12   3   47.20   35.50   1
 -15  12  -3   57.30   36.20   1
  15 -12   3   94.00   36.80   1
 -15 -12   3   53.20   35.60   1
  15  12  -3   72.40   35.90   1
  15  12   4   20.00   16.70   1
 -15 -12  -4    7.90   16.70   1
  15 -12  -4   11.50   16.90   1
 -15  12   4    4.60   16.80   1
 -15  12  -4   -0.00   18.00   1
  15 -12   4   14.80   17.70   1
 -15 -12   4    5.50   17.00   1
  15  12  -4   -0.00   17.40   1
  15  12   5    3.70   14.20   1
 -15 -12  -5    0.20   14.20   1
  15 -12  -5   11.80   14.30   1
 -15  12   5    4.80   14.40   1
 -15  12  -5   -0.00   15.90   1
  15 -12   5    3.60   15.60   1
 -15 -12   5   12.60   14.60   1
  15  12  -5   42.30   15.00   1
  15  12   6    7.30   16.80   1
 -15 -12  -6    9.60   16.90   1
  15 -12  -6   18.10   17.00   1
 -15  12   6   -0.00   16.90   1
 -15  12  -6   14.40   18.50   1
  15 -12   6    0.50   18.50   1
 -15 -12   6   21.40   17.10   1
  15  12  -6   15.90   17.20   1
  15  12   7   30.50   24.80   1
 -15 -12  -7   15.60   24.70   1
  15 -12  -7   14.90   24.80   1
 -15  12   7   28.60   24.80   1
  15 -12   7   25.30   25.90   1
 -15 -12   7   23.40   25.00   1
  15  12  -7   30.80   25.20   1
  15  12   8   11.10   11.20   1
 -15 -12  -8    0.00   11.10   1
  15 -12  -8    8.90   11.10   1
 -15  12   8   -0.00   11.10   1
 -15 -12   8    3.60   11.40   1
  15  12  -8    4.20   11.40   1
  15  12   9    3.00   13.10   1
 -15 -12  -9   15.80   13.00   1
  15 -12  -9    3.70   13.00   1
 -15 -12   9    0.00   13.20   1
  15  12  -9    5.90   13.40   1
  15  13   0   15.40   23.10   1
 -15 -13   0   22.60   23.10   1
  15 -13   0   23.70   24.40   1
  15  13   1   12.30   14.60   1
 -15 -13  -1    3.70   14.60   1
  15 -13  -1   21.30   15.90   1
 -15  13   1   -0.00   15.80   1
 -15  13  -1   51.60   17.40   1
  15 -13   1   15.30   16.40   1
 -15 -13   1    4.30   14.60   1
  15  13  -1    6.00   14.70   1
  15  13   2   65.80   29.80   1
 -15 -13  -2   26.50   29.70   1
  15 -13  -2   39.00   29.90   1
 -15  13   2   27.10   30.00   1
 -15  13  -2   42.20   30.60   1
  15 -13   2   48.40   30.90   1
 -15 -13   2   21.20   29.70   1
  15  13  -2   18.80   29.80   1
  15  13   3   11.60   16.60   1
 -15 -13  -3    6.10   16.60   1
  15 -13  -3    6.80   16.80   1
 -15  13   3   24.90   16.90   1
 -15  13  -3    6.50   17.70   1
  15 -13   3   48.70   18.30   1
 -15 -13   3    2.10   16.80   1
  15  13  -3   -0.00   17.30   1
  15  13   4   21.80   29.40   1
 -15 -13  -4   31.80   29.40   1
  15 -13  -4   72.20   29.80   1
 -15  13   4   40.00   29.70   1
 -15  13  -4   28.30   30.30   1
  15 -13   4   44.20   30.50   1
 -15 -13   4   21.40   29.70   1
  15  13  -4   22.50   29.70   1
  15  13   5   10.30   18.60   1
 -15 -13  -5   13.70   18.60   1
  15 -13  -5    5.60   18.80   1
 -15  13   5    6.70   18.70   1
 -15  13  -5   21.50   20.60   1
  15 -13   5   13.20   20.00   1
 -15 -13   5   16.00   18.80   1
  15  13  -5   40.80   19.30   1
  15  13   6   56.10   37.20   1
 -15 -13  -6   30.70   37.10   1
  15 -13  -6   76.20   37.40   1
 -15  13   6   50.20   37.20   1
  15 -13   6   51.50   38.60   1
 -15 -13   6   45.10   37.40   1
  15  13  -6   69.80   37.70   1
  15  13   7   13.00   23.90   1
 -15 -13  -7   28.20   24.00   1
  15 -13  -7   30.00   24.10   1
 -15  13   7    7.60   23.90   1
 -15 -13   7   53.70   24.70   1
  15  13  -7   49.40   24.80   1
  15  13   8   57.70   32.40   1
 -15 -13  -8   33.20   32.20   1
  15 -13  -8   25.20   32.20   1
 -15 -13   8   38.50   32.60   1
  15  13  -8   47.50   33.10   1
  15  14   0   -0.00   16.30   1
 -15 -14   0   17.30   16.20   1
  15 -14   0   13.80   18.10   1
 -15  14   0   12.70   18.00   1
  15  14   1   13.90   17.30   1
 -15 -14  -1   13.70   17.30   1
  15 -14  -1   -0.00   17.80   1
 -15  14   1   37.50   19.40   1
 -15  14  -1   31.10   18.90   1
  15 -14   1    8.20   18.50   1
 -15 -14   1   -0.00   17.30   1
  15  14  -1   18.40   17.50   1
  15  14   2   -0.00    8.10   1
 -15 -14  -2    7.20    8.20   1
  15 -14  -2   -0.00    9.30   1
 -15  14   2    8.00    9.60   1
 -15  14  -2   -0.00   10.70   1
  15 -14   2   -0.00   10.80   1
 -15 -14   2   -0.00    8.60   1
  15  14  -2    0.20    9.30   1
  15  14   3    9.00   13.20   1
 -15 -14  -3    1.00   13.20   1
  15 -14  -3    6.20   13.50   1
 -15  14   3    3.90   13.60   1
 -15  14  -3   19.70   14.60   1
  15 -14   3    9.70   14.50   1
 -15 -14   3    5.60   13.80   1
  15  14  -3   15.00   14.00   1
  15  14   4    7.10   11.90   1
 -15 -14  -4   -0.00   11.90   1
  15 -14  -4   -0.00   12.10   1
 -15  14   4   10.80   12.20   1
 -15  14  -4    3.30   14.20   1
  15 -14   4   14.30   13.60   1
 -15 -14   4    9.50   12.20   1
  15  14  -4    6.20   12.50   1
  15  14   5   11.70   23.40   1
 -15 -14  -5   23.40   23.50   1
  15 -14  -5   41.10   23.80   1
 -15  14   5   20.30   23.60   1
 -15  14  -5    8.50   24.80   1
  15 -14   5   13.30   24.90   1
 -15 -14   5   20.30   23.60   1
  15  14  -5   23.70   23.70   1
  15  14   6    5.70   14.00   1
 -15 -14  -6    7.50   14.00   1
  15 -14  -6   -0.00   14.20   1
 -15  14   6   10.10   14.20   1
  15 -14   6   -0.00   15.80   1
 -15 -14   6   19.40   14.50   1
  15  14  -6    7.80   14.50   1
  15  14   7    6.10   12.00   1
 -15 -14  -7    6.80   12.10   1
  15 -14  -7   -0.00   12.20   1
 -15  14   7    7.80   12.20   1
 -15 -14   7   -0.00   12.30   1
  15  14  -7   10.30   12.50   1
  15  15   0    5.20   19.50   1
 -15 -15   0   11.80   19.40   1
  15 -15   0   94.60   21.90   1
 -15  15   0  109.30   22.80   1
  15  15   1    6.80   12.00   1
 -15 -15  -1    2.80   11.90   1
  15 -15  -1    5.60   13.90   1
 -15  15   1   14.20   14.40   1
 -15  15  -1   -0.00   13.50   1
  15 -15   1   -0.00   13.70   1
 -15 -15   1    5.00   12.00   1
  15  15  -1   10.60   12.50   1
  15  15   2   -0.00    9.30   1
 -15 -15  -2    6.20    9.30   1
  15 -15  -2    7.50   10.90   1
 -15  15   2    2.40   10.70   1
 -15  15  -2    9.70   11.50   1
  15 -15   2    4.10   11.20   1
 -15 -15   2   -0.00   10.00   1
  15  15  -2   -0.00   10.40   1
  15  15   3    3.70   12.20   1
 -15 -15  -3    5.80   12.20   1
  15 -15  -3   -0.00   12.50   1
 -15  15   3    1.90   12.90   1
 -15  15  -3   -0.00   13.90   1
  15 -15   3    5.10   13.60   1
 -15 -15   3   16.40   12.90   1
  15  15  -3   13.00   12.70   1
  15  15   4   12.00   29.60   1
 -15 -15  -4  110.50   30.10   1
  15 -15  -4   34.90   29.80   1
 -15  15   4   50.80   29.90   1
 -15  15  -4   16.60   30.60   1
  15 -15   4   44.60   31.00   1
 -15 -15   4   27.00   29.90   1
  15  15  -4   51.30   30.10   1
  15  15   5    2.80   20.40   1
 -15 -15  -5   29.90   20.50   1
  15 -15  -5   22.50   20.80   1
 -15  15   5   11.00   20.60   1
  15 -15   5   16.00   21.90   1
 -15 -15   5   18.70   20.80   1
  15  15  -5   19.30   20.70   1
  15  15   6    1.30    8.80   1
 -15 -15  -6    4.80    8.80   1
  15 -15  -6    5.20    9.10   1
 -15 -15   6   -0.00    9.20   1
  15  15  -6    1.00    9.30   1
  15  16   0    3.30   12.30   1
 -15 -16   0    6.70   12.10   1
  15 -16   0   -0.00   13.90   1
 -15  16   0    7.00   14.10   1
  15  16   1   31.20   23.50   1
 -15 -16  -1   13.40   23.30   1
  15 -16  -1   48.30   25.20   1
 -15  16   1  155.70   27.20   1
 -15  16  -1   15.00   24.30   1
  15 -16   1   30.90   24.50   1
 -15 -16   1    9.40   23.50   1
  15  16  -1   11.30   23.70   1
  15  16   2    4.20   11.20   1
 -15 -16  -2    8.80   11.30   1
  15 -16  -2    0.00   12.10   1
 -15  16   2   15.00   14.00   1
 -15  16  -2   -0.00   13.00   1
  15 -16   2   -0.00   12.60   1
 -15 -16   2    1.00   11.90   1
  15  16  -2    0.40   11.90   1
  15  16   3   14.80   21.50   1
 -15 -16  -3   18.90   21.50   1
  15 -16  -3   63.80   22.20   1
 -15  16   3   12.50   22.20   1
 -15  16  -3   12.30   22.60   1
  15 -16   3    6.10   22.50   1
 -15 -16   3   11.00   21.60   1
  15  16  -3   12.10   21.70   1
  15  16   4   14.60   18.80   1
 -15 -16  -4    8.60   18.80   1
  15 -16  -4   13.60   19.00   1
 -15  16   4    6.50   19.00   1
 -15  16  -4   -0.00   20.00   1
  15 -16   4   11.50   20.30   1
 -15 -16   4   19.00   19.10   1
  15  16  -4   42.60   19.50   1
  15  16   5   27.50   28.10   1
 -15 -16  -5   35.20   28.10   1
  15 -16  -5   20.90   28.20   1
  15 -16   5   10.60   29.10   1
 -15 -16   5   53.20   28.80   1
  15  16  -5   22.30   28.30   1
  15  17   0    5.60   12.30   1
 -15 -17   0    3.20   11.80   1
  15 -17   0   19.90   13.80   1
 -15  17   0   -0.00   13.70   1
  15  17   1   10.20   12.00   1
 -15 -17  -1    4.10   11.90   1
  15 -17  -1   -0.00   13.30   1
 -15  17   1    0.00   14.30   1
 -15  17  -1    3.90   13.40   1
  15 -17   1    3.60   13.30   1
 -15 -17   1    2.90   12.30   1
  15  17  -1    4.10   12.50   1
  15  17   2   28.20   17.60   1
 -15 -17  -2    7.20   17.50   1
  15 -17  -2    7.90   18.60   1
 -15  17   2   15.20   19.50   1
 -15  17  -2    7.90   18.50   1
  15 -17   2   20.40   18.50   1
 -15 -17   2    5.10   17.70   1
  15  17  -2   -0.00   17.70   1
  15  17   3    8.60   18.70   1
 -15 -17  -3   23.10   18.80   1
  15 -17  -3   23.00   19.50   1
 -15  17  -3    2.80   19.90   1
  15 -17   3   18.00   20.20   1
 -15 -17   3    7.20   18.90   1
  15  17  -3    8.30   19.00   1
  15  17   4   -0.00   11.40   1
 -15 -17  -4    5.50   11.30   1
  15 -17  -4    2.10   11.70   1
 -15  17  -4   -0.00   12.90   1
  15 -17   4   -0.00   13.50   1
 -15 -17   4   25.00   12.00   1
  15  17  -4    5.40   11.70   1
  15  18   0   -0.00    4.60   1
 -15 -18   0   -0.00    3.60   1
  15 -18   0   -0.00    7.20   1
  15  18   1   61.40   33.30   1
 -15 -18  -1   26.10   32.80   1
  15 -18  -1   40.00   33.70   1
  15 -18   1   57.90   33.90   1
 -15 -18   1   30.00   33.00   1
  15  18  -1   82.60   33.80   1
  16   0   0 7502.60 1235.80   1
 -16   0   0 7496.80 1229.80   1
  16   0   1  593.20  148.20   1
 -16   0  -1  533.40  147.80   1
  16   0  -1  549.60  148.30   1
 -16   0   1  540.50  148.20   1
  16   0   2 2615.30  416.50   1
 -16   0  -2 1886.70  412.30   1
  16   0  -2 2256.50  414.80   1
 -16   0   2 2309.30  415.90   1
  16   0   3  125.50   52.90   1
 -16   0  -3   80.10   52.70   1
  16   0  -3   93.00   52.60   1
 -16   0   3   94.30   52.70   1
  16   0   4  429.30  114.50   1
 -16   0  -4  314.40  114.00   1
  16   0  -4  369.30  114.20   1
 -16   0   4  391.50  114.30   1
  16   0   5   67.50   33.30   1
 -16   0  -5   99.30   33.60   1
  16   0  -5   28.00   33.00   1
 -16   0   5   27.50   33.00   1
  16   0   6  144.70   63.00   1
 -16   0  -6   42.70   62.50   1
  16   0  -6  180.20   62.70   1
 -16   0   6  283.30   63.30   1
  16   0   7   18.20   26.70   1
 -16   0  -7   14.10   26.30   1
  16   0  -7   15.30   25.10   1
 -16   0   7   34.90   25.20   1
  16   0   8  227.90   92.10   1
 -16   0  -8  196.40   91.80   1
  16   0  -8  277.40   91.40   1
 -16   0   8  280.70   91.30   1
  16   0   9   42.30   35.30   1
 -16   0  -9  107.80   36.00   1
  16   0  -9   56.20   34.60   1
 -16   0   9   29.50   34.50   1
  16   0  10   11.50   31.10   1
 -16   0 -10   25.10   31.00   1
  16   0 -10   41.70   30.70   1
 -16   0  10   37.00   30.60   1
  16   0  11    4.90   14.90   1
 -16   0 -11    6.20   15.10   1
  16   0 -11   12.20   14.10   1
 -16   0  11    4.80   13.60   1
  16   1   0   17.80   23.20   1
 -16  -1   0   19.40   23.20   1
  16  -1   0   20.40   23.30   1
 -16   1   0   19.80   23.20   1
  16   1   1  434.60  110.90   1
 -16  -1  -1  436.70  110.80   1
  16  -1  -1  407.70  111.00   1
 -16   1   1  364.70  110.80   1
 -16   1  -1  273.80  110.10   1
  16  -1   1  351.70  110.40   1
 -16  -1   1  331.10  110.50   1
  16   1  -1  326.40  110.40   1
  16   1   2  118.60   52.30   1
 -16  -1  -2   64.20   52.10   1
  16  -1  -2   92.50   52.20   1
 -16   1   2   97.20   52.20   1
 -16   1  -2   89.80   52.20   1
  16  -1   2  103.90   52.30   1
 -16  -1   2   95.30   52.20   1
  16   1  -2  105.40   52.20   1
  16   1   3  111.80   55.80   1
 -16  -1  -3  124.20   55.80   1
  16  -1  -3  122.40   55.70   1
 -16   1   3  110.90   55.70   1
 -16   1  -3  100.50   55.70   1
  16  -1   3  114.20   55.80   1
 -16  -1   3   91.70   55.60   1
  16   1  -3   86.70   55.60   1
  16   1   4    2.30   15.00   1
 -16  -1  -4   13.90   15.10   1
  16  -1  -4    4.00   14.80   1
 -16   1   4    9.90   14.90   1
 -16   1  -4    7.10   15.10   1
  16  -1   4    7.00   15.00   1
 -16  -1   4    7.90   14.80   1
  16   1  -4   11.70   14.90   1
  16   1   5   -0.00   18.80   1
 -16  -1  -5    0.00   18.80   1
  16  -1  -5   25.50   18.70   1
 -16   1   5   22.80   18.70   1
 -16   1  -5   71.80   20.10   1
  16  -1   5   -0.00   19.30   1
 -16  -1   5    4.80   18.70   1
  16   1  -5   10.70   18.70   1
  16   1   6   12.70   15.70   1
 -16  -1  -6    6.80   16.00   1
  16  -1  -6    5.90   14.80   1
 -16   1   6   13.40   14.80   1
 -16   1  -6   -0.00   16.70   1
  16  -1   6    9.40   15.70   1
 -16  -1   6    9.90   14.80   1
  16   1  -6    2.30   14.80   1
  16   1   7   18.90   35.50   1
 -16  -1  -7   46.90   36.30   1
  16  -1  -7   36.80   35.10   1
 -16   1   7   46.50   35.20   1
 -16   1  -7   48.10   36.10   1
  16  -1   7   46.50   36.00   1
 -16  -1   7   54.40   35.20   1
  16   1  -7   49.10   35.20   1
  16   1   8    6.20   15.70   1
 -16  -1  -8   -0.00   15.40   1
  16  -1  -8   -0.00   14.40   1
 -16   1   8    9.80   14.30   1
 -16   1  -8   10.20   15.70   1
  16  -1   8   16.20   16.20   1
 -16  -1   8    9.90   14.40   1
  16   1  -8    9.60   14.40   1
  16   1   9   37.40   24.80   1
 -16  -1  -9   36.40   24.50   1
  16  -1  -9   13.10   23.60   1
 -16   1   9   19.70   23.60   1
 -16   1  -9   15.20   24.20   1
  16  -1   9   -0.00   24.50   1
 -16  -1   9   29.10   23.60   1
  16   1  -9   18.80   23.60   1
  16   1  10    4.10   16.30   1
 -16  -1 -10    0.00   16.10   1
  16  -1 -10    6.30   15.20   1
 -16   1  10   17.50   15.30   1
 -16   1 -10    0.70   16.30   1
  16  -1  10   -0.00   16.20   1
 -16  -1  10    8.70   15.20   1
  16   1 -10    6.20   15.50   1
  16   1  11   -0.00   13.00   1
 -16  -1 -11    2.20   12.60   1
  16  -1 -11    6.10   11.70   1
 -16   1  11    7.40   11.50   1
 -16   1 -11   14.80   13.40   1
  16  -1  11   -0.00   12.90   1
 -16  -1  11    2.10   11.70   1
  16   1 -11   -0.00   12.40   1
  16   2   0  299.30  111.00   1
 -16  -2   0  380.30  111.30   1
  16  -2   0  405.50  111.30   1
 -16   2   0  349.30  111.00   1
  16   2   1   26.60   27.50   1
 -16  -2  -1   31.50   27.60   1
  16  -2  -1   48.10   27.70   1
 -16   2   1   30.80   27.60   1
 -16   2  -1   24.40   27.60   1
  16  -2   1   47.10   27.70   1
 -16  -2   1   18.70   27.50   1
  16   2  -1   13.20   27.50   1
  16   2   2  205.70   71.20   1
 -16  -2  -2  134.10   70.90   1
  16  -2  -2  213.00   71.30   1
 -16   2   2  259.00   71.50   1
 -16   2  -2  136.50   71.00   1
  16  -2   2  161.50   71.00   1
 -16  -2   2  150.80   71.00   1
  16   2  -2  154.70   70.90   1
  16   2   3   18.40   18.80   1
 -16  -2  -3   13.90   18.80   1
  16  -2  -3    7.40   18.70   1
 -16   2   3   11.50   18.70   1
 -16   2  -3    6.80   18.80   1
  16  -2   3   20.40   18.80   1
 -16  -2   3   14.70   18.70   1
  16   2  -3   10.60   18.70   1
  16   2   4   27.30   32.30   1
 -16  -2  -4   55.00   32.30   1
  16  -2  -4   32.90   32.20   1
 -16   2   4   18.50   32.20   1
 -16   2  -4  148.90   33.10   1
  16  -2   4   26.00   32.30   1
 -16  -2   4   38.10   32.20   1
  16   2  -4   45.20   32.20   1
  16   2   5   74.10   40.40   1
 -16  -2  -5   49.20   40.40   1
  16  -2  -5   65.70   40.40   1
 -16   2   5   88.90   40.40   1
 -16   2  -5   34.70   40.70   1
  16  -2   5   88.50   41.00   1
 -16  -2   5   42.50   40.30   1
  16   2  -5   47.10   40.30   1
  16   2   6   22.00   19.10   1
 -16  -2  -6   28.00   19.40   1
  16  -2  -6    3.30   18.80   1
 -16   2   6   19.50   18.80   1
 -16   2  -6   27.20   21.00   1
  16  -2   6   28.80   21.10   1
 -16  -2   6    9.50   18.80   1
  16   2  -6    7.50   18.90   1
  16   2   7   77.90   25.60   1
 -16  -2  -7   50.50   25.30   1
  16  -2  -7   10.30   24.50   1
 -16   2   7   21.50   24.50   1
 -16   2  -7   37.60   25.90   1
  16  -2   7   82.40   26.20   1
 -16  -2   7   15.70   24.50   1
  16   2  -7   18.50   24.50   1
  16   2   8   56.00   37.10   1
 -16  -2  -8   43.90   36.80   1
  16  -2  -8   42.90   35.90   1
 -16   2   8   22.60   35.90   1
 -16   2  -8   64.70   36.80   1
  16  -2   8   36.40   36.50   1
 -16  -2   8   84.40   36.10   1
  16   2  -8   81.50   36.10   1
  16   2   9   22.10   19.50   1
 -16  -2  -9   16.40   19.10   1
  16  -2  -9    7.40   17.90   1
 -16   2   9    6.40   17.90   1
 -16   2  -9    7.70   18.70   1
  16  -2   9   -0.00   18.80   1
 -16  -2   9   17.00   18.00   1
  16   2  -9   22.30   18.10   1
 -16  -2 -10    6.80   14.10   1
  16  -2 -10    2.40   12.80   1
 -16   2  10    7.50   12.70   1
 -16   2 -10   15.50   14.70   1
  16  -2  10    3.40   13.80   1
 -16  -2  10    6.50   12.80   1
  16   2 -10    3.90   13.30   1
  16   2  11   14.80   16.30   1
 -16  -2 -11    0.20   16.00   1
  16  -2 -11   16.30   15.30   1
 -16   2  11    5.30   15.20   1
 -16   2 -11   16.60   16.70   1
  16  -2  11    5.00   16.60   1
 -16  -2  11    7.70   15.70   1
  16   2 -11    0.00   16.00   1
  16   3   0  370.80  102.70   1
 -16  -3   0  287.80  102.30   1
  16  -3   0  315.70  102.30   1
 -16   3   0  282.40  102.20   1
  16   3   1  290.20  112.50   1
 -16  -3  -1  337.20  112.80   1
  16  -3  -1  365.40  112.70   1
 -16   3   1  331.80  112.60   1
 -16   3  -1  402.60  112.80   1
  16  -3   1  487.10  113.20   1
 -16  -3   1  387.60  112.80   1
  16   3  -1  358.70  112.70   1
  16   3   2   71.30   48.00   1
 -16  -3  -2   67.50   48.00   1
  16  -3  -2   76.30   48.10   1
 -16   3   2   94.80   48.20   1
 -16   3  -2   52.20   48.10   1
  16  -3   2   47.90   48.10   1
 -16  -3   2  277.00   48.90   1
  16   3  -2  140.10   48.20   1
  16   3   3  115.00   43.80   1
 -16  -3  -3   36.20   43.60   1
  16  -3  -3   67.10   43.70   1
 -16   3   3   60.10   43.70   1
 -16   3  -3   71.80   43.80   1
  16  -3   3   57.90   43.70   1
 -16  -3   3   72.70   43.60   1
  16   3  -3   77.90   43.70   1
  16   3   4   53.00   32.20   1
 -16  -3  -4   33.20   32.10   1
  16  -3  -4   47.30   32.10   1
 -16   3   4   40.10   32.10   1
 -16   3  -4   36.70   32.70   1
  16  -3   4   33.40   32.50   1
 -16  -3   4   30.20   32.00   1
  16   3  -4   28.90   32.00   1
  16   3   5   17.90   23.00   1
 -16  -3  -5   23.60   23.00   1
  16  -3  -5   25.30   23.00   1
 -16   3   5   16.00   23.00   1
 -16   3  -5   20.20   24.50   1
  16  -3   5   16.10   23.60   1
 -16  -3   5   16.60   23.00   1
  16   3  -5   16.90   23.00   1
  16   3   6    2.80   11.30   1
 -16  -3  -6   12.10   11.40   1
  16  -3  -6   -0.00   11.10   1
 -16   3   6    3.10   11.00   1
 -16   3  -6   -0.00   13.00   1
  16  -3   6    5.40   13.10   1
 -16  -3   6    6.70   11.00   1
  16   3  -6    4.10   11.10   1
  16   3   7   31.10   17.00   1
 -16  -3  -7   75.00   17.80   1
  16  -3  -7    5.50   16.50   1
 -16   3   7    8.20   16.50   1
 -16   3  -7    7.10   17.80   1
  16  -3   7  117.90   19.70   1
 -16  -3   7    3.40   16.50   1
  16   3  -7    0.50   16.50   1
  16   3   8    3.60   25.50   1
 -16  -3  -8   18.70   26.20   1
  16  -3  -8   17.50   25.10   1
 -16   3   8   20.90   25.10   1
 -16   3  -8    6.60   25.70   1
  16  -3   8    0.00   25.90   1
 -16  -3   8   37.90   25.10   1
  16   3  -8   40.90   25.20   1
  16   3   9    1.60   19.80   1
 -16  -3  -9    9.90   19.60   1
  16  -3  -9   12.20   18.60   1
 -16   3   9   15.40   18.60   1
 -16   3  -9    3.40   19.70   1
  16  -3   9   10.70   19.70   1
 -16  -3   9   12.30   18.70   1
  16   3  -9   15.30   18.90   1
  16   3  10   17.40   23.10   1
 -16  -3 -10   13.50   23.00   1
  16  -3 -10   19.60   22.20   1
 -16   3  10   90.60   22.70   1
 -16   3 -10    8.40   23.40   1
  16  -3  10    3.70   23.00   1
 -16  -3  10   -0.00   22.40   1
  16   3 -10   -0.00   22.70   1
  16   3  11   -0.00   23.50   1
 -16  -3 -11   10.80   23.30   1
  16  -3 -11   27.40   22.80   1
 -16   3  11   16.10   22.70   1
 -16   3 -11   42.00   25.00   1
  16  -3  11   13.80   23.70   1
 -16  -3  11   15.80   23.20   1
  16   3 -11   30.00   23.30   1
  16   4   0  274.30   90.80   1
 -16  -4   0  318.10   91.00   1
  16  -4   0  260.30   90.80   1
 -16   4   0  198.90   90.60   1
  16   4   1   51.50   42.20   1
 -16  -4  -1   71.20   42.30   1
  16  -4  -1   67.00   42.30   1
 -16   4   1   60.10   42.20   1
 -16   4  -1   73.30   42.30   1
  16  -4   1   92.90   42.40   1
 -16  -4   1   50.30   42.20   1
  16   4  -1   59.40   42.20   1
  16   4   2   19.20   28.60   1
 -16  -4  -2   13.20   28.60   1
  16  -4  -2   17.30   28.60   1
 -16   4   2   11.70   28.60   1
 -16   4  -2   40.00   28.70   1
  16  -4   2   51.50   28.80   1
 -16  -4   2   81.30   28.80   1
  16   4  -2   49.80   28.60   1
  16   4   3   36.90   29.30   1
 -16  -4  -3   12.00   29.20   1
  16  -4  -3   31.80   29.20   1
 -16   4   3   42.50   29.30   1
 -16   4  -3   17.40   29.50   1
  16  -4   3   16.30   29.40   1
 -16  -4   3   44.30   29.20   1
  16   4  -3   38.20   29.20   1
  16   4   4   94.80   36.20   1
 -16  -4  -4   29.50   36.00   1
  16  -4  -4   36.10   35.90   1
 -16   4   4   35.70   36.00   1
 -16   4  -4   23.50   36.40   1
  16  -4   4   62.70   36.60   1
 -16  -4   4   58.60   36.00   1
  16   4  -4   57.40   36.00   1
  16   4   5   13.20   21.30   1
 -16  -4  -5   25.00   21.40   1
  16  -4  -5   16.70   21.20   1
 -16   4   5   17.10   21.20   1
 -16   4  -5   27.60   23.00   1
  16  -4   5   36.90   23.50   1
 -16  -4   5   10.70   21.20   1
  16   4  -5   14.70   21.20   1
  16   4   6   32.00   27.10   1
 -16  -4  -6   22.80   27.00   1
  16  -4  -6   98.70   27.40   1
 -16   4   6   32.60   27.00   1
 -16   4  -6  170.50   30.10   1
  16  -4   6   52.70   28.20   1
 -16  -4   6   13.20   26.90   1
  16   4  -6    6.50   26.90   1
  16   4   7    5.70   17.20   1
 -16  -4  -7    6.10   17.50   1
  16  -4  -7   16.60   17.00   1
 -16   4   7   10.70   17.00   1
 -16   4  -7   -0.00   18.20   1
  16  -4   7   17.20   18.60   1
 -16  -4   7    7.90   17.00   1
  16   4  -7   11.20   17.10   1
  16   4   8   33.30   17.30   1
 -16  -4  -8   12.30   17.20   1
  16  -4  -8   12.20   16.50   1
 -16   4   8   11.00   16.50   1
 -16   4  -8   -0.00   17.30   1
  16  -4   8    5.80   17.60   1
 -16  -4   8    9.70   16.50   1
  16   4  -8   -0.00   16.60   1
  16   4   9    6.30   13.00   1
 -16  -4  -9   15.30   12.30   1
  16  -4  -9    1.70   10.60   1
 -16   4   9    9.40   10.60   1
 -16   4  -9    0.20   12.20   1
  16  -4   9   -0.00   12.00   1
 -16  -4   9   -0.00   10.80   1
  16   4  -9    0.20   11.70   1
  16   4  10   11.60   18.50   1
 -16  -4 -10   -0.00   18.60   1
  16  -4 -10   11.30   17.30   1
 -16   4  10    1.30   17.30   1
 -16   4 -10   19.70   19.10   1
  16  -4  10   80.20   21.20   1
 -16  -4  10   15.10   17.90   1
  16   4 -10  126.00   20.90   1
  16   4  11    4.90   18.90   1
 -16  -4 -11   -0.00   18.70   1
  16  -4 -11   11.40   17.90   1
  16  -4  11   35.70   20.40   1
 -16  -4  11   10.20   18.20   1
  16   4 -11   18.60   18.30   1
  16   5   0  142.40   68.00   1
 -16  -5   0  127.60   68.00   1
  16  -5   0  235.20   68.50   1
 -16   5   0  153.20   68.10   1
  16   5   1 2670.90  461.10   1
 -16  -5  -1 2458.50  460.80   1
  16  -5  -1 2754.50  459.40   1
 -16   5   1 2036.80  455.60   1
 -16   5  -1 2508.00  458.30   1
  16  -5   1 2573.00  459.80   1
 -16  -5   1 2804.00  460.00   1
  16   5  -1 2506.80  458.20   1
  16   5   2  716.50  179.30   1
 -16  -5  -2  810.30  180.30   1
  16  -5  -2  814.50  179.50   1
 -16   5   2  826.90  179.60   1
 -16   5  -2  733.80  179.00   1
  16  -5   2  760.10  179.20   1
 -16  -5   2  744.30  178.70   1
  16   5  -2  594.90  178.20   1
  16   5   3 1054.40  239.60   1
 -16  -5  -3 1055.80  238.90   1
  16  -5  -3 1114.20  240.80   1
 -16   5   3 1050.40  240.10   1
 -16   5  -3 1345.80  241.10   1
  16  -5   3 1282.00  239.90   1
 -16  -5   3  957.30  237.90   1
  16   5  -3 1077.90  238.40   1
  16   5   4   18.60   21.70   1
 -16  -5  -4   14.40   21.70   1
  16  -5  -4   14.30   21.60   1
 -16   5   4    3.10   21.60   1
 -16   5  -4    0.00   23.00   1
  16  -5   4   17.60   22.30   1
 -16  -5   4   28.30   21.60   1
  16   5  -4   24.20   21.60   1
  16   5   5   64.90   34.90   1
 -16  -5  -5   51.50   34.80   1
  16  -5  -5   55.30   34.80   1
 -16   5   5    9.20   34.60   1
 -16   5  -5   34.00   35.50   1
  16  -5   5   37.30   35.60   1
 -16  -5   5   68.20   34.80   1
  16   5  -5   52.90   34.70   1
  16   5   6   35.20   26.80   1
 -16  -5  -6   14.60   26.80   1
  16  -5  -6   24.30   26.70   1
 -16   5   6   24.10   26.80   1
 -16   5  -6    7.80   27.60   1
  16  -5   6   45.20   27.90   1
 -16  -5   6   28.60   26.70   1
  16   5  -6   30.50   26.70   1
  16   5   7   76.60   51.60   1
 -16  -5  -7  123.60   51.90   1
  16  -5  -7  147.40   51.90   1
 -16   5   7   64.80   51.60   1
 -16   5  -7  132.20   52.70   1
  16  -5   7  172.00   53.30   1
 -16  -5   7   72.50   51.60   1
  16   5  -7  105.00   51.80   1
  16   5   8   22.00   22.90   1
 -16  -5  -8   11.60   23.00   1
  16  -5  -8   23.60   22.50   1
 -16   5   8   19.50   22.50   1
 -16   5  -8   25.30   23.40   1
  16  -5   8   44.70   23.70   1
 -16  -5   8    6.50   22.60   1
  16   5  -8   16.90   22.80   1
  16   5   9   36.10   47.50   1
 -16  -5  -9  137.50   48.70   1
  16  -5  -9  141.00   47.70   1
 -16   5   9   54.30   47.20   1
 -16   5  -9   82.30   48.70   1
  16  -5   9  100.80   48.70   1
 -16  -5   9   97.40   47.80   1
  16   5  -9  197.50   49.70   1
  16   5  10    8.10   18.30   1
 -16  -5 -10   -0.00   18.20   1
  16  -5 -10   26.10   17.10   1
 -16   5  10   -0.10   17.10   1
 -16   5 -10   76.30   22.80   1
  16  -5  10  118.70   24.70   1
 -16  -5  10    6.10   17.50   1
  16   5 -10    1.60   17.60   1
  16   5  11  111.50   30.20   1
 -16  -5 -11   68.70   29.40   1
  16  -5 -11   16.60   28.00   1
 -16  -5  11   24.10   28.20   1
  16   5 -11   42.10   28.50   1
  16   6   0  298.00   91.80   1
 -16  -6   0  209.00   91.50   1
  16  -6   0  240.90   91.80   1
 -16   6   0  370.90   92.40   1
  16   6   1   28.60   26.60   1
 -16  -6  -1   55.70   26.70   1
  16  -6  -1   23.70   26.70   1
 -16   6   1   20.00   26.60   1
 -16   6  -1   21.20   26.60   1
  16  -6   1   23.90   26.70   1
 -16  -6   1   17.10   26.50   1
  16   6  -1   21.00   26.60   1
  16   6   2   78.60   45.20   1
 -16  -6  -2   83.80   45.20   1
  16  -6  -2   74.50   45.10   1
 -16   6   2   65.60   45.10   1
 -16   6  -2   85.00   45.40   1
  16  -6   2   60.40   45.20   1
 -16  -6   2   63.10   45.10   1
  16   6  -2   67.60   45.10   1
  16   6   3   16.40   22.10   1
 -16  -6  -3   24.40   22.10   1
  16  -6  -3   25.40   22.10   1
 -16   6   3   20.40   22.10   1
 -16   6  -3   14.90   22.80   1
  16  -6   3    7.70   22.90   1
 -16  -6   3   12.80   22.00   1
  16   6  -3   12.60   22.00   1
  16   6   4   54.60   38.70   1
 -16  -6  -4   49.30   38.70   1
  16  -6  -4   46.70   38.70   1
 -16   6   4   52.70   38.80   1
 -16   6  -4   49.10   39.90   1
  16  -6   4   48.70   39.80   1
 -16  -6   4   53.00   38.70   1
  16   6  -4   63.00   38.70   1
  16   6   5   28.50   28.40   1
 -16  -6  -5   44.20   28.50   1
  16  -6  -5   20.20   28.40   1
 -16   6   5   21.90   28.40   1
 -16   6  -5   36.40   29.50   1
  16  -6   5   33.10   29.50   1
 -16  -6   5   24.90   28.30   1
  16   6  -5   40.70   28.50   1
  16   6   6   11.80   13.30   1
 -16  -6  -6    1.70   13.30   1
  16  -6  -6    5.10   13.20   1
 -16   6   6    7.90   13.20   1
 -16   6  -6    2.60   14.70   1
  16  -6   6    4.40   14.80   1
 -16  -6   6    4.20   13.10   1
  16   6  -6    8.30   13.20   1
  16   6   7   25.10   25.00   1
 -16  -6  -7   15.20   25.00   1
  16  -6  -7   33.10   25.00   1
 -16   6   7   29.50   25.00   1
 -16   6  -7   19.40   25.60   1
  16  -6   7   58.40   26.20   1
 -16  -6   7   11.50   25.00   1
  16   6  -7   16.40   25.10   1
  16   6   8   50.80   33.70   1
 -16  -6  -8   60.80   33.90   1
  16  -6  -8   33.50   33.50   1
 -16   6   8   44.60   33.50   1
 -16   6  -8   17.50   34.10   1
  16  -6   8   73.90   34.80   1
 -16  -6   8   28.00   33.70   1
  16   6  -8   38.20   33.90   1
  16   6   9    0.00   16.80   1
 -16  -6  -9    7.60   16.80   1
  16  -6  -9    7.90   16.10   1
 -16   6   9   23.00   16.20   1
 -16   6  -9   -0.00   17.90   1
  16  -6   9    0.30   17.90   1
 -16  -6   9    4.30   16.60   1
  16   6  -9    3.80   16.70   1
  16   6  10   28.20   20.50   1
 -16  -6 -10   22.80   19.80   1
  16  -6 -10    9.30   18.80   1
 -16   6  10    9.00   18.80   1
  16  -6  10   10.10   20.10   1
 -16  -6  10   14.90   19.20   1
  16   6 -10   30.50   19.50   1
  16   7   0    1.90   18.30   1
 -16  -7   0   26.90   18.30   1
  16  -7   0   10.00   18.50   1
 -16   7   0    7.00   18.50   1
  16   7   1  164.80   71.40   1
 -16  -7  -1  149.00   71.40   1
  16  -7  -1  185.60   71.60   1
 -16   7   1  168.40   71.50   1
 -16   7  -1  135.50   71.40   1
  16  -7   1  190.70   71.60   1
 -16  -7   1  225.90   71.60   1
  16   7  -1  147.60   71.40   1
  16   7   2   19.00   21.50   1
 -16  -7  -2    9.70   21.50   1
  16  -7  -2   19.30   21.60   1
 -16   7   2    5.90   21.50   1
 -16   7  -2   28.20   22.60   1
  16  -7   2   25.70   22.30   1
 -16  -7   2   14.10   21.50   1
  16   7  -2   28.80   21.50   1
  16   7   3   11.50   19.20   1
 -16  -7  -3   10.60   19.20   1
  16  -7  -3   13.80   19.30   1
 -16   7   3    7.70   19.30   1
 -16   7  -3   40.50   21.30   1
  16  -7   3   10.10   19.90   1
 -16  -7   3   12.10   19.10   1
  16   7  -3   19.30   19.20   1
  16   7   4   18.30   20.30   1
 -16  -7  -4    9.10   20.30   1
  16  -7  -4   10.10   20.40   1
 -16   7   4   23.00   20.40   1
 -16   7  -4    8.70   21.60   1
  16  -7   4    0.30   21.80   1
 -16  -7   4   16.70   20.30   1
  16   7  -4   16.30   20.40   1
  16   7   5   22.60   26.30   1
 -16  -7  -5   12.00   26.20   1
  16  -7  -5   12.10   26.20   1
 -16   7   5   28.50   26.30   1
 -16   7  -5   15.90   27.20   1
  16  -7   5   24.20   27.20   1
 -16  -7   5   28.60   26.20   1
  16   7  -5   73.30   26.50   1
  16   7   6   16.90   21.10   1
 -16  -7  -6   27.50   21.10   1
  16  -7  -6   14.70   21.00   1
 -16   7   6   15.40   21.10   1
 -16   7  -6   12.80   21.90   1
  16  -7   6   14.20   22.10   1
 -16  -7   6   11.30   21.00   1
  16   7  -6   14.10   21.10   1
  16   7   7   79.00   38.30   1
 -16  -7  -7   41.20   38.10   1
  16  -7  -7   52.20   38.10   1
 -16   7   7   33.00   38.10   1
 -16   7  -7   41.90   38.70   1
  16  -7   7   30.10   38.70   1
 -16  -7   7   91.40   38.60   1
  16   7  -7  123.40   39.20   1
  16   7   8   14.80   17.80   1
 -16  -7  -8   13.20   17.80   1
  16  -7  -8    8.30   17.70   1
 -16   7   8   12.50   17.70   1
 -16   7  -8    9.20   19.00   1
  16  -7   8    6.40   18.80   1
 -16  -7   8    7.80   18.10   1
  16   7  -8   14.50   18.40   1
  16   7   9   27.30   22.40   1
 -16  -7  -9   17.00   22.80   1
  16  -7  -9   16.20   22.10   1
 -16   7   9   17.40   22.10   1
 -16   7  -9   -0.00   23.20   1
  16  -7   9   -0.00   23.40   1
 -16  -7   9   10.30   22.40   1
  16   7  -9   47.20   22.80   1
  16   7  10   -0.00   19.50   1
 -16  -7 -10   37.30   20.70   1
  16  -7 -10   15.70   19.20   1
 -16   7  10   13.40   19.20   1
  16  -7  10    6.80   20.50   1
 -16  -7  10    8.10   19.40   1
  16   7 -10   25.50   19.70   1
  16   8   0  175.50   60.40   1
 -16  -8   0   83.80   60.10   1
  16  -8   0  145.10   60.40   1
 -16   8   0  139.60   60.40   1
  16   8   1  358.00   80.80   1
 -16  -8  -1  248.20   80.20   1
  16  -8  -1  117.50   79.90   1
 -16   8   1  141.60   80.00   1
 -16   8  -1  284.40   80.70   1
  16  -8   1  235.40   80.40   1
 -16  -8   1  211.80   80.10   1
  16   8  -1  298.10   80.50   1
  16   8   2   53.50   41.10   1
 -16  -8  -2   50.60   41.10   1
  16  -8  -2   95.80   41.40   1
 -16   8   2   59.70   41.20   1
 -16   8  -2   16.50   41.40   1
  16  -8   2   55.50   41.70   1
 -16  -8   2   65.50   41.20   1
  16   8  -2   75.60   41.20   1
  16   8   3   -0.10   22.20   1
 -16  -8  -3    9.30   22.20   1
  16  -8  -3   24.60   22.30   1
 -16   8   3    5.10   22.20   1
 -16   8  -3   37.10   24.20   1
  16  -8   3   17.40   23.90   1
 -16  -8   3   25.10   22.20   1
  16   8  -3   73.70   22.50   1
  16   8   4   95.30   54.10   1
 -16  -8  -4  102.10   54.10   1
  16  -8  -4  100.10   54.10   1
 -16   8   4   78.00   54.00   1
 -16   8  -4  354.60   58.40   1
  16  -8   4  226.20   56.10   1
 -16  -8   4   98.40   54.00   1
  16   8  -4   95.20   54.00   1
  16   8   5    4.30   15.20   1
 -16  -8  -5    8.10   15.20   1
  16  -8  -5   10.60   15.30   1
 -16   8   5    9.00   15.30   1
 -16   8  -5   -0.00   17.00   1
  16  -8   5    0.80   16.70   1
 -16  -8   5   11.10   15.20   1
  16   8  -5    9.40   15.20   1
  16   8   6   85.00   25.00   1
 -16  -8  -6   -0.00   24.50   1
  16  -8  -6   32.70   24.60   1
 -16   8   6   45.40   24.70   1
 -16   8  -6   41.90   25.50   1
  16  -8   6   -0.00   25.30   1
 -16  -8   6    8.70   24.50   1
  16   8  -6   15.50   24.70   1
  16   8   7   69.20   35.60   1
 -16  -8  -7   36.80   35.40   1
  16  -8  -7   50.50   35.40   1
 -16   8   7   17.90   35.30   1
 -16   8  -7   36.60   36.10   1
  16  -8   7  104.60   37.00   1
 -16  -8   7   80.60   35.90   1
  16   8  -7  120.20   36.80   1
  16   8   8    6.90   17.10   1
 -16  -8  -8   16.60   17.10   1
  16  -8  -8    5.50   17.00   1
 -16   8   8   11.10   17.00   1
 -16   8  -8   12.10   18.60   1
  16  -8   8   16.50   18.50   1
 -16  -8   8    7.60   17.40   1
  16   8  -8   21.80   17.50   1
  16   8   9   18.80   14.10   1
 -16  -8  -9   13.50   14.40   1
  16  -8  -9    8.00   13.80   1
 -16   8   9    2.20   13.80   1
  16  -8   9   -0.00   15.60   1
 -16  -8   9    2.50   14.10   1
  16   8  -9    2.40   14.20   1
  16   8  10   22.10   21.00   1
 -16  -8 -10   41.80   21.20   1
  16  -8 -10   12.30   20.30   1
 -16  -8  10   12.40   20.50   1
  16   8 -10    9.70   20.50   1
  16   9   0    9.30   14.10   1
 -16  -9   0    5.70   14.00   1
  16  -9   0    5.40   14.30   1
 -16   9   0    7.50   14.50   1
  16   9   1   22.30   26.10   1
 -16  -9  -1   15.30   26.00   1
  16  -9  -1   12.10   26.20   1
 -16   9   1   29.00   26.20   1
 -16   9  -1   30.20   26.90   1
  16  -9   1   58.70   26.90   1
 -16  -9   1   21.20   26.10   1
  16   9  -1   50.40   26.20   1
  16   9   2   68.30   29.80   1
 -16  -9  -2   28.70   29.70   1
  16  -9  -2   28.70   29.80   1
 -16   9   2   26.20   29.80   1
 -16   9  -2   47.80   31.00   1
  16  -9   2   21.40   30.20   1
 -16  -9   2   25.30   29.60   1
  16   9  -2   25.60   29.60   1
  16   9   3   27.90   25.60   1
 -16  -9  -3   23.40   25.60   1
  16  -9  -3   25.40   25.80   1
 -16   9   3   13.90   25.70   1
 -16   9  -3   29.60   26.80   1
  16  -9   3   19.30   26.80   1
 -16  -9   3   16.90   25.60   1
  16   9  -3   38.30   25.70   1
  16   9   4    9.10   13.90   1
 -16  -9  -4   -0.00   13.80   1
  16  -9  -4   10.20   14.00   1
 -16   9   4    7.80   14.00   1
 -16   9  -4   22.00   15.90   1
  16  -9   4    9.20   15.60   1
 -16  -9   4    6.30   13.80   1
  16   9  -4    6.90   13.90   1
  16   9   5   38.20   23.20   1
 -16  -9  -5    8.60   23.10   1
  16  -9  -5   14.10   23.10   1
 -16   9   5   27.60   23.20   1
 -16   9  -5   93.80   25.00   1
  16  -9   5   53.00   24.70   1
 -16  -9   5   10.50   23.10   1
  16   9  -5   16.90   23.20   1
  16   9   6   -0.00   10.30   1
 -16  -9  -6    4.20   10.30   1
  16  -9  -6    6.40   10.40   1
 -16   9   6    5.60   10.40   1
 -16   9  -6    2.20   12.00   1
  16  -9   6    6.00   12.10   1
 -16  -9   6    3.90   10.60   1
  16   9  -6   -0.00   11.30   1
  16   9   7   80.60   20.70   1
 -16  -9  -7    8.30   20.10   1
  16  -9  -7    9.10   20.10   1
 -16   9   7   10.10   20.10   1
 -16   9  -7   10.70   21.30   1
  16  -9   7    9.60   21.20   1
 -16  -9   7   14.30   20.50   1
  16   9  -7    8.30   20.60   1
  16   9   8    0.00   11.60   1
 -16  -9  -8    4.70   11.60   1
  16  -9  -8    4.60   11.50   1
 -16   9   8   -0.00   11.50   1
 -16   9  -8    5.10   13.80   1
  16  -9   8   -0.10   13.60   1
 -16  -9   8   15.50   12.00   1
  16   9  -8   16.40   12.10   1
  16   9   9    9.90   20.70   1
 -16  -9  -9   10.80   20.70   1
  16  -9  -9   10.00   20.60   1
 -16   9   9   50.10   20.90   1
  16  -9   9   11.50   21.90   1
 -16  -9   9   11.00   20.90   1
  16   9  -9   16.30   20.90   1
  16   9  10    7.20   13.60   1
 -16  -9 -10   12.10   14.00   1
  16  -9 -10    6.60   12.90   1
 -16  -9  10    1.50   13.40   1
  16   9 -10    4.80   13.40   1
  16  10   0 1141.10  243.80   1
 -16 -10   0 1001.40  243.10   1
  16 -10   0 1160.60  244.40   1
 -16  10   0 1242.40  244.80   1
  16  10   1  263.20   60.90   1
 -16 -10  -1   88.80   60.10   1
  16 -10  -1  125.40   60.30   1
 -16  10   1  122.70   60.30   1
 -16  10  -1   53.60   60.40   1
  16 -10   1  113.40   60.60   1
 -16 -10   1  194.90   60.60   1
  16  10  -1  156.00   60.30   1
  16  10   2  402.80  110.90   1
 -16 -10  -2  436.70  111.00   1
  16 -10  -2  289.80  110.50   1
 -16  10   2  256.70  110.30   1
 -16  10  -2  685.50  116.40   1
  16 -10   2  539.00  113.60   1
 -16 -10   2  316.50  110.40   1
  16  10  -2  410.80  111.00   1
  16  10   3   41.40   34.50   1
 -16 -10  -3   50.40   34.60   1
  16 -10  -3   48.80   34.70   1
 -16  10   3   27.50   34.60   1
  16 -10   3   83.80   35.80   1
 -16 -10   3   37.20   34.50   1
  16  10  -3   46.10   34.60   1
  16  10   4  102.80   56.30   1
 -16 -10  -4  125.80   56.50   1
  16 -10  -4  117.20   56.40   1
 -16  10   4  142.70   56.50   1
 -16  10  -4  129.80   57.30   1
  16 -10   4  164.50   57.70   1
 -16 -10   4   69.60   56.20   1
  16  10  -4  115.60   56.50   1
  16  10   5    4.30   11.90   1
 -16 -10  -5   -0.00   12.00   1
  16 -10  -5    5.80   12.10   1
 -16  10   5   -0.00   12.00   1
 -16  10  -5   -0.00   13.20   1
  16 -10   5   -0.00   13.50   1
 -16 -10   5   18.80   12.20   1
  16  10  -5   10.30   12.70   1
  16  10   6   15.70   17.30   1
 -16 -10  -6    8.60   17.30   1
  16 -10  -6    8.60   17.30   1
 -16  10   6   12.30   17.30   1
 -16  10  -6    8.70   18.40   1
  16 -10   6   14.00   18.40   1
 -16 -10   6    3.70   17.60   1
  16  10  -6   13.10   18.00   1
  16  10   7    4.90   14.90   1
 -16 -10  -7   10.70   14.90   1
  16 -10  -7   13.00   14.90   1
 -16  10   7    6.90   14.90   1
 -16  10  -7    0.40   16.40   1
  16 -10   7   -0.00   16.30   1
 -16 -10   7    0.00   15.20   1
  16  10  -7   16.10   15.40   1
  16  10   8   27.10   16.30   1
 -16 -10  -8    6.60   16.20   1
  16 -10  -8   -0.00   16.10   1
 -16  10   8   23.50   16.20   1
 -16  10  -8    7.90   17.30   1
  16 -10   8    1.10   17.70   1
 -16 -10   8   -0.00   16.30   1
  16  10  -8    7.70   16.40   1
  16  10   9    8.20   21.70   1
 -16 -10  -9   23.70   21.70   1
  16 -10  -9    8.40   21.60   1
 -16 -10   9   37.00   22.10   1
  16  10  -9   41.40   22.30   1
  16  11   0    4.10   11.80   1
 -16 -11   0    3.60   11.80   1
  16 -11   0   16.50   12.80   1
 -16  11   0   -0.00   13.60   1
  16  11   1   42.80   34.30   1
 -16 -11  -1   33.40   34.20   1
  16 -11  -1   47.90   34.40   1
 -16  11   1   51.40   34.40   1
 -16  11  -1   55.10   35.70   1
  16 -11   1   22.60   34.60   1
 -16 -11   1   51.80   34.30   1
  16  11  -1   40.80   34.20   1
  16  11   2    8.30   17.80   1
 -16 -11  -2    6.40   17.80   1
  16 -11  -2   11.90   18.00   1
 -16  11   2   10.40   18.00   1
 -16  11  -2   -0.00   19.30   1
  16 -11   2    6.90   19.90   1
 -16 -11   2   34.70   18.00   1
  16  11  -2    7.50   17.90   1
  16  11   3   16.80   24.50   1
 -16 -11  -3   55.40   24.70   1
  16 -11  -3    7.70   24.70   1
 -16  11   3   17.20   24.70   1
 -16  11  -3   18.20   25.60   1
  16 -11   3   15.90   25.50   1
 -16 -11   3   24.20   24.50   1
  16  11  -3   17.50   24.60   1
  16  11   4   10.40   13.30   1
 -16 -11  -4   10.00   13.30   1
  16 -11  -4   13.20   13.60   1
 -16  11   4    1.20   13.40   1
 -16  11  -4   -0.00   14.80   1
  16 -11   4    1.90   15.00   1
 -16 -11   4   -0.00   13.30   1
  16  11  -4    5.00   13.60   1
  16  11   5    5.60   17.60   1
 -16 -11  -5   12.90   17.70   1
  16 -11  -5   29.00   17.80   1
 -16  11   5    9.90   17.70   1
 -16  11  -5   13.50   18.70   1
  16 -11   5    5.30   18.70   1
 -16 -11   5   -0.00   18.00   1
  16  11  -5   13.30   18.40   1
  16  11   6   20.50   23.60   1
 -16 -11  -6   27.70   23.70   1
  16 -11  -6   26.20   23.80   1
 -16  11   6   20.40   23.70   1
 -16  11  -6   21.20   24.80   1
  16 -11   6   14.30   24.50   1
 -16 -11   6    9.50   24.00   1
  16  11  -6    7.20   23.90   1
  16  11   7    6.90   15.10   1
 -16 -11  -7    3.40   15.10   1
  16 -11  -7   28.70   15.30   1
 -16  11   7   11.10   15.20   1
 -16  11  -7    7.70   16.90   1
  16 -11   7    3.40   16.90   1
 -16 -11   7    1.40   15.40   1
  16  11  -7   -0.00   15.50   1
  16  11   8    4.90   10.30   1
 -16 -11  -8    4.20   10.30   1
  16 -11  -8    1.50   10.20   1
 -16  11   8   -0.00   10.10   1
  16 -11   8    0.50   12.40   1
 -16 -11   8   11.10   10.50   1
  16  11  -8    4.30   10.50   1
  16  11   9   22.00   21.50   1
 -16 -11  -9   11.50   21.50   1
  16 -11  -9    6.00   21.40   1
 -16 -11   9   43.20   22.20   1
  16  11  -9   51.10   22.50   1
  16  12   0   94.10   39.20   1
 -16 -12   0   49.20   39.10   1
  16 -12   0   41.50   39.60   1
 -16  12   0   12.10   39.50   1
  16  12   1   28.70   29.00   1
 -16 -12  -1   27.80   29.00   1
  16 -12  -1   40.70   29.30   1
 -16  12   1   26.90   29.50   1
 -16  12  -1   53.40   30.70   1
  16 -12   1   89.80   30.70   1
 -16 -12   1   23.50   29.00   1
  16  12  -1   30.30   29.00   1
  16  12   2   48.30   30.90   1
 -16 -12  -2   33.10   30.90   1
  16 -12  -2   38.50   31.00   1
 -16  12   2   46.20   31.10   1
 -16  12  -2   66.50   32.40   1
  16 -12   2   55.90   31.90   1
 -16 -12   2   21.40   30.80   1
  16  12  -2   28.00   30.90   1
  16  12   3    9.90   19.60   1
 -16 -12  -3    6.30   19.60   1
  16 -12  -3   38.50   20.00   1
 -16  12   3   42.10   20.00   1
 -16  12  -3    0.70   20.80   1
  16 -12   3   35.30   21.20   1
 -16 -12   3   -0.00   19.70   1
  16  12  -3   28.00   19.90   1
  16  12   4    3.90   13.60   1
 -16 -12  -4    0.00   13.60   1
  16 -12  -4    9.30   13.90   1
 -16  12   4   17.40   13.90   1
 -16  12  -4    8.20   15.00   1
  16 -12   4   -0.00   15.20   1
 -16 -12   4    5.50   13.80   1
  16  12  -4   23.80   14.70   1
  16  12   5   18.40   20.10   1
 -16 -12  -5   17.70   20.10   1
  16 -12  -5   15.00   20.20   1
 -16  12   5    6.90   20.20   1
 -16  12  -5   11.30   21.10   1
  16 -12   5   -0.00   21.00   1
 -16 -12   5   12.70   20.40   1
  16  12  -5   26.90   20.70   1
  16  12   6    5.40   20.80   1
 -16 -12  -6   50.70   21.10   1
  16 -12  -6   28.40   21.00   1
 -16  12   6    9.30   20.90   1
 -16  12  -6   -0.10   22.10   1
  16 -12   6    6.60   22.00   1
 -16 -12   6    8.50   21.10   1
  16  12  -6   21.30   21.30   1
  16  12   7   26.70   26.20   1
 -16 -12  -7   34.40   26.20   1
  16 -12  -7   28.10   26.20   1
 -16  12   7   11.40   26.20   1
 -16  12  -7   81.30   30.80   1
  16 -12   7   34.60   27.60   1
 -16 -12   7   13.20   26.20   1
  16  12  -7   44.80   26.60   1
  16  12   8   55.50   30.90   1
 -16 -12  -8   26.80   30.70   1
  16 -12  -8   45.80   30.90   1
 -16 -12   8   10.20   30.80   1
  16  12  -8   67.60   31.80   1
  16  13   0  322.10   93.70   1
 -16 -13   0  294.90   93.40   1
  16 -13   0  163.20   93.20   1
 -16  13   0  628.00   99.20   1
  16  13   1   55.30   42.10   1
 -16 -13  -1   63.80   42.10   1
  16 -13  -1  217.50   43.70   1
 -16  13   1   53.20   42.50   1
 -16  13  -1   51.30   42.90   1
  16 -13   1   84.60   43.30   1
 -16 -13   1   52.20   42.10   1
  16  13  -1   64.10   42.20   1
  16  13   2   80.80   51.20   1
 -16 -13  -2   96.70   51.30   1
  16 -13  -2  123.80   51.60   1
 -16  13   2  100.20   51.40   1
 -16  13  -2  101.50   52.20   1
  16 -13   2   62.70   51.80   1
 -16 -13   2   66.70   51.20   1
  16  13  -2  335.70   54.40   1
  16  13   3   54.20   24.40   1
 -16 -13  -3   22.10   24.30   1
  16 -13  -3   32.30   24.50   1
 -16  13   3    3.50   24.40   1
 -16  13  -3   32.30   25.40   1
  16 -13   3    8.50   25.30   1
 -16 -13   3    2.00   24.40   1
  16  13  -3   31.60   24.80   1
  16  13   4   61.70   44.60   1
 -16 -13  -4   70.50   44.60   1
  16 -13  -4  174.80   45.50   1
 -16  13   4  102.90   44.90   1
 -16  13  -4   46.50   45.10   1
  16 -13   4   44.80   45.10   1
 -16 -13   4   49.70   44.80   1
  16  13  -4   63.70   45.10   1
  16  13   5   28.30   29.00   1
 -16 -13  -5   31.00   29.00   1
  16 -13  -5   28.40   29.10   1
 -16  13   5   58.50   29.30   1
 -16  13  -5   46.20   30.30   1
  16 -13   5   31.80   29.80   1
 -16 -13   5   23.00   29.30   1
  16  13  -5   13.70   29.20   1
  16  13   6   19.90   26.80   1
 -16 -13  -6   31.50   26.90   1
  16 -13  -6   51.60   27.10   1
 -16  13   6   16.20   26.80   1
 -16  13  -6   39.50   28.70   1
  16 -13   6   92.70   30.30   1
 -16 -13   6   12.60   26.90   1
  16  13  -6   39.70   27.30   1
  16  13   7   26.70   37.00   1
 -16 -13  -7   85.10   37.40   1
  16 -13  -7  137.30   38.30   1
  16 -13   7   51.50   38.80   1
 -16 -13   7   44.60   37.40   1
  16  13  -7   70.80   37.90   1
  16  14   0    8.20   15.20   1
 -16 -14   0    8.80   15.20   1
  16 -14   0   -0.00   17.40   1
 -16  14   0   14.80   17.60   1
  16  14   1    6.10   14.30   1
 -16 -14  -1    9.50   14.30   1
  16 -14  -1    6.70   15.30   1
 -16  14   1   -0.00   15.50   1
 -16  14  -1   18.50   16.70   1
  16 -14   1    4.80   15.60   1
 -16 -14   1   12.20   14.40   1
  16  14  -1    2.80   14.40   1
  16  14   2    7.50   19.50   1
 -16 -14  -2   11.90   19.50   1
  16 -14  -2   11.40   19.80   1
 -16  14   2   14.20   20.10   1
 -16  14  -2   -0.00   20.90   1
  16 -14   2   33.90   20.90   1
 -16 -14   2   50.80   19.90   1
  16  14  -2    3.80   19.80   1
  16  14   3   -0.00    7.70   1
 -16 -14  -3    4.40    7.70   1
  16 -14  -3    0.70    8.20   1
 -16  14   3   -0.00    8.20   1
 -16  14  -3   -0.00   10.60   1
  16 -14   3   -0.00   10.60   1
 -16 -14   3    6.40    8.40   1
  16  14  -3   -0.00    9.30   1
  16  14   4    9.70   17.00   1
 -16 -14  -4    4.20   16.90   1
  16 -14  -4   29.40   17.30   1
 -16  14   4   17.10   17.20   1
 -16  14  -4   -0.00   18.10   1
  16 -14   4   19.90   18.20   1
 -16 -14   4    6.60   17.50   1
  16  14  -4    9.40   17.50   1
  16  14   5   12.00   14.40   1
 -16 -14  -5   11.00   14.40   1
  16 -14  -5    1.10   14.50   1
 -16  14   5    8.20   14.60   1
 -16  14  -5    0.00   16.00   1
  16 -14   5    8.50   15.90   1
 -16 -14   5    0.60   14.60   1
  16  14  -5    7.50   14.80   1
  16  14   6   42.90   26.30   1
 -16 -14  -6   21.90   26.20   1
  16 -14  -6   24.30   26.20   1
 -16  14  -6   14.10   27.10   1
  16 -14   6   44.10   28.10   1
 -16 -14   6   14.90   26.30   1
  16  14  -6   20.50   26.40   1
  16  15   0   58.50   31.00   1
 -16 -15   0   27.40   30.80   1
  16 -15   0   49.20   32.10   1
 -16  15   0    5.10   31.50   1
  16  15   1   18.30   23.30   1
 -16 -15  -1   48.00   23.40   1
  16 -15  -1   10.20   23.70   1
 -16  15   1    7.10   24.80   1
 -16  15  -1   14.50   24.40   1
  16 -15   1   25.70   24.60   1
 -16 -15   1   12.10   23.30   1
  16  15  -1   14.80   23.40   1
  16  15   2  106.10   45.50   1
 -16 -15  -2   54.00   45.20   1
  16 -15  -2   92.70   45.80   1
 -16  15   2  157.20   46.60   1
 -16  15  -2   59.00   46.00   1
  16 -15   2   46.90   45.90   1
 -16 -15   2   57.00   45.40   1
  16  15  -2   90.10   45.90   1
  16  15   3  135.00   33.50   1
 -16 -15  -3   28.50   32.80   1
  16 -15  -3   27.60   33.00   1
 -16  15   3   89.10   33.40   1
 -16  15  -3   54.10   33.80   1
  16 -15   3   25.70   33.40   1
 -16 -15   3   14.80   33.00   1
  16  15  -3   45.60   33.40   1
  16  15   4   38.10   15.50   1
 -16 -15  -4    5.20   15.40   1
  16 -15  -4   -0.00   15.60   1
 -16  15   4    1.70   15.60   1
 -16  15  -4    3.60   16.80   1
  16 -15   4    6.30   16.60   1
 -16 -15   4   -0.00   15.70   1
  16  15  -4    7.90   15.90   1
  16  15   5   77.90   36.40   1
 -16 -15  -5   27.80   36.20   1
  16 -15  -5  143.10   37.20   1
 -16  15  -5  125.20   41.70   1
  16 -15   5   42.70   37.40   1
 -16 -15   5   35.00   36.40   1
  16  15  -5   47.50   36.60   1
  16  16   0    3.30   20.00   1
 -16 -16   0   33.00   20.10   1
  16 -16   0   -0.00   21.00   1
 -16  16   0   24.70   21.80   1
  16  16   1   15.20   20.50   1
 -16 -16  -1   19.10   20.50   1
  16 -16  -1   12.60   22.00   1
 -16  16   1   16.90   22.40   1
 -16  16  -1   21.60   22.00   1
  16 -16   1    4.20   21.80   1
 -16 -16   1   15.90   20.60   1
  16  16  -1    7.90   20.80   1
  16  16   2    7.00   19.50   1
 -16 -16  -2   17.80   19.50   1
  16 -16  -2   -0.00   20.40   1
 -16  16   2    6.50   20.30   1
 -16  16  -2   23.20   20.90   1
  16 -16   2   11.10   20.90   1
 -16 -16   2   47.70   20.20   1
  16  16  -2   11.50   20.00   1
  16  16   3    3.40   17.10   1
 -16 -16  -3   23.60   17.10   1
  16 -16  -3   16.60   17.50   1
 -16  16  -3   -0.00   18.30   1
  16 -16   3    5.00   18.10   1
 -16 -16   3    7.00   17.50   1
  16  16  -3    6.70   17.50   1
  16  16   4   20.60   21.10   1
 -16 -16  -4    7.50   21.00   1
  16 -16  -4   26.00   21.40   1
 -16  16  -4   34.30   22.90   1
  16 -16   4   17.00   22.40   1
 -16 -16   4   12.30   21.30   1
  16  16  -4   32.10   21.60   1
  16  17   0    4.00   12.20   1
 -16 -17   0    5.80   11.90   1
  16 -17   0    2.70   13.90   1
  16  17   1    5.90   13.30   1
 -16 -17  -1    7.30   13.30   1
  16 -17  -1    0.00   15.50   1
 -16  17  -1   59.50   16.30   1
  16 -17   1    5.90   14.80   1
 -16 -17   1   -0.00   13.40   1
  16  17  -1    7.30   14.00   1
  16  17   2   -0.00   11.00   1
 -16 -17  -2   12.00   11.00   1
  16 -17  -2    0.00   11.90   1
 -16  17  -2    8.70   12.50   1
  16 -17   2   -0.00   12.80   1
 -16 -17   2   -0.00   11.70   1
  16  17  -2    3.00   11.50   1
  17   0   0  106.20   52.20   1
 -17   0   0   81.90   52.10   1
  17   0   1  211.00   57.30   1
 -17   0  -1   66.70   56.70   1
  17   0  -1  158.00   57.10   1
 -17   0   1  106.90   56.90   1
  17   0   2   18.70   19.60   1
 -17   0  -2   10.20   19.50   1
  17   0  -2   23.50   19.50   1
 -17   0   2    4.80   19.40   1
  17   0   3   79.70   45.30   1
 -17   0  -3   61.50   45.30   1
  17   0  -3   81.60   45.30   1
 -17   0   3   66.00   45.30   1
  17   0   4    7.60   17.20   1
 -17   0  -4   11.50   17.20   1
  17   0  -4   11.90   17.10   1
 -17   0   4    9.90   17.10   1
  17   0   5   30.20   35.60   1
 -17   0  -5   46.00   35.60   1
  17   0  -5   51.90   35.50   1
 -17   0   5   48.70   35.50   1
  17   0   6  501.30  110.30   1
 -17   0  -6  310.00  109.30   1
  17   0  -6  286.30  108.70   1
 -17   0   6  382.50  109.30   1
  17   0   7   17.00   17.50   1
 -17   0  -7   69.40   19.60   1
  17   0  -7    5.20   16.50   1
 -17   0   7    8.40   16.50   1
  17   0   8   21.90   21.10   1
 -17   0  -8   14.60   21.00   1
  17   0  -8   11.10   19.70   1
 -17   0   8   15.50   19.70   1
  17   0   9   87.40   24.90   1
 -17   0  -9   -0.00   24.10   1
  17   0  -9   14.20   23.10   1
 -17   0   9   21.50   23.10   1
  17   0  10  134.70   49.40   1
 -17   0 -10  149.10   49.70   1
  17   0 -10  112.50   48.00   1
 -17   0  10   54.50   47.60   1
  17   0  11    4.70   12.80   1
 -17   0 -11   -0.00   12.60   1
  17   0 -11    6.30   11.40   1
 -17   0  11    3.90   11.20   1
  17   1   0   -0.10    4.60   1
 -17  -1   0   -0.10    4.50   1
  17  -1   0    1.90    4.60   1
 -17   1   0   -0.10    4.60   1
  17   1   1   83.90   30.50   1
 -17  -1  -1   52.50   30.30   1
  17  -1  -1   42.40   30.30   1
 -17   1   1   36.50   30.30   1
 -17   1  -1   38.70   30.30   1
  17  -1   1   19.70   30.20   1
 -17  -1   1   19.20   30.20   1
  17   1  -1   11.70   30.20   1
  17   1   2    9.60    9.50   1
 -17  -1  -2   -0.00    9.50   1
  17  -1  -2   -0.00    9.50   1
 -17   1   2   -0.20    9.50   1
 -17   1  -2    8.00    9.80   1
  17  -1   2    5.00    9.80   1
 -17  -1   2   -0.00    9.40   1
  17   1  -2    4.50    9.50   1
  17   1   3   14.70   26.70   1
 -17  -1  -3   -0.00   26.70   1
  17  -1  -3   13.50   26.60   1
 -17   1   3   10.80   26.70   1
 -17   1  -3   87.60   27.10   1
  17  -1   3   82.70   27.10   1
 -17  -1   3   37.40   26.70   1
  17   1  -3   35.40   26.70   1
  17   1   4   49.80   17.50   1
 -17  -1  -4   30.90   17.30   1
  17  -1  -4    4.40   17.20   1
 -17   1   4    0.60   17.20   1
 -17   1  -4   13.40   17.40   1
  17  -1   4   12.90   17.40   1
 -17  -1   4    6.10   17.10   1
  17   1  -4   -0.00   17.10   1
  17   1   5   15.40   15.00   1
 -17  -1  -5    7.70   15.00   1
  17  -1  -5   -0.00   14.80   1
 -17   1   5    9.60   14.80   1
 -17   1  -5   30.30   15.70   1
  17  -1   5   18.00   15.50   1
 -17  -1   5    6.40   14.80   1
  17   1  -5    3.50   14.80   1
  17   1   6   14.80   18.50   1
 -17  -1  -6   15.00   18.90   1
  17  -1  -6    7.30   18.10   1
 -17   1   6    8.50   18.10   1
 -17   1  -6   18.20   19.10   1
  17  -1   6    0.00   18.90   1
 -17  -1   6   13.50   18.10   1
  17   1  -6   17.80   18.10   1
  17   1   7    8.30   15.60   1
 -17  -1  -7   17.60   15.80   1
  17  -1  -7    3.10   14.40   1
 -17   1   7    6.50   14.40   1
 -17   1  -7    7.30   16.00   1
  17  -1   7   13.00   16.70   1
 -17  -1   7   11.10   14.40   1
  17   1  -7    6.30   14.40   1
  17   1   8   -0.00   18.60   1
 -17  -1  -8    0.70   18.40   1
  17  -1  -8    2.40   17.00   1
 -17   1   8   16.20   17.00   1
 -17   1  -8   11.30   18.40   1
  17  -1   8   10.80   18.40   1
 -17  -1   8   14.70   17.00   1
  17   1  -8   11.40   17.00   1
  17   1   9   22.90   19.80   1
 -17  -1  -9   54.00   20.40   1
  17  -1  -9    2.90   18.40   1
 -17   1   9    5.10   18.40   1
 -17   1  -9   37.00   19.80   1
  17  -1   9   11.70   19.60   1
 -17  -1   9    8.80   18.40   1
  17   1  -9   28.50   18.50   1
  17   1  10   -0.00   15.10   1
 -17  -1 -10   -0.00   14.90   1
  17  -1 -10    7.60   13.50   1
 -17   1  10    8.10   13.40   1
 -17   1 -10   25.80   14.60   1
  17  -1  10   14.90   15.10   1
 -17  -1  10    3.60   13.40   1
  17   1 -10    3.00   13.50   1
  17   1  11    6.60   10.70   1
 -17  -1 -11    4.80   10.40   1
  17  -1 -11    3.50    8.90   1
 -17   1  11    0.00    8.80   1
 -17   1 -11    5.50   10.70   1
  17  -1  11   -0.00   10.40   1
 -17  -1  11    2.20    8.90   1
  17   1 -11    5.20    9.30   1
  17   2   0   -0.00   13.10   1
 -17  -2   0   -0.00   13.10   1
  17  -2   0   13.90   13.20   1
 -17   2   0   11.10   13.10   1
  17   2   1   18.70   28.20   1
 -17  -2  -1   28.30   28.20   1
  17  -2  -1   20.00   28.20   1
 -17   2   1   22.10   28.20   1
 -17   2  -1   11.70   28.10   1
  17  -2   1   10.50   28.20   1
 -17  -2   1   85.20   28.40   1
  17   2  -1   80.90   28.40   1
  17   2   2   55.60   36.20   1
 -17  -2  -2   29.90   36.20   1
  17  -2  -2   69.20   36.30   1
 -17   2   2  104.70   36.50   1
 -17   2  -2   17.80   36.20   1
  17  -2   2   39.30   36.20   1
 -17  -2   2   52.20   36.20   1
  17   2  -2   51.90   36.20   1
  17   2   3    7.80   17.90   1
 -17  -2  -3    4.00   17.80   1
  17  -2  -3   14.10   17.80   1
 -17   2   3    3.30   17.80   1
 -17   2  -3    3.00   17.90   1
  17  -2   3    2.00   17.90   1
 -17  -2   3   25.60   17.80   1
  17   2  -3   27.20   17.80   1
  17   2   4  227.00   86.10   1
 -17  -2  -4  293.20   86.40   1
  17  -2  -4  215.20   86.00   1
 -17   2   4  203.10   86.00   1
 -17   2  -4  192.40   86.00   1
  17  -2   4  198.30   86.00   1
 -17  -2   4  283.80   86.20   1
  17   2  -4  274.60   86.20   1
  17   2   5   10.20   18.90   1
 -17  -2  -5   12.40   18.90   1
  17  -2  -5   12.70   18.80   1
 -17   2   5   22.00   18.80   1
 -17   2  -5   19.70   19.90   1
  17  -2   5   12.80   19.50   1
 -17  -2   5   13.30   18.70   1
  17   2  -5    5.80   18.70   1
  17   2   6   35.40   29.50   1
 -17  -2  -6   19.10   29.50   1
  17  -2  -6   12.80   29.30   1
 -17   2   6   23.80   29.30   1
 -17   2  -6   53.10   30.80   1
  17  -2   6   33.80   30.00   1
 -17  -2   6   76.40   29.50   1
  17   2  -6   52.30   29.40   1
  17   2   7   12.50   12.50   1
 -17  -2  -7   -0.00   12.80   1
  17  -2  -7   -0.00   11.30   1
 -17   2   7    3.10   11.20   1
 -17   2  -7    9.10   13.10   1
  17  -2   7    6.20   13.10   1
 -17  -2   7    5.30   11.30   1
  17   2  -7    7.10   11.30   1
  17   2   8   31.10   24.70   1
 -17  -2  -8   41.70   25.60   1
  17  -2  -8   12.20   23.90   1
 -17   2   8   10.50   23.90   1
 -17   2  -8   20.30   25.20   1
  17  -2   8   21.80   25.10   1
 -17  -2   8   19.50   23.90   1
  17   2  -8   93.40   24.40   1
  17   2   9   11.90   14.80   1
 -17  -2  -9    2.20   14.20   1
  17  -2  -9    5.40   13.00   1
 -17   2   9    5.30   13.00   1
 -17   2  -9   23.80   14.90   1
  17  -2   9   17.50   14.80   1
 -17  -2   9   -0.00   13.10   1
  17   2  -9   10.60   13.20   1
  17   2  10   54.90   25.80   1
 -17  -2 -10   86.70   26.40   1
  17  -2 -10   29.20   24.50   1
 -17   2  10   19.40   24.40   1
  17  -2  10   52.20   25.60   1
 -17  -2  10   11.80   24.40   1
  17   2 -10   10.00   24.50   1
  17   3   0    4.50   19.10   1
 -17  -3   0   14.80   19.20   1
  17  -3   0   19.60   19.30   1
 -17   3   0   17.30   19.30   1
  17   3   1  186.20   87.90   1
 -17  -3  -1  249.10   88.20   1
  17  -3  -1  646.30   91.00   1
 -17   3   1  445.60   89.20   1
 -17   3  -1  190.30   87.80   1
  17  -3   1  232.70   88.00   1
 -17  -3   1  211.70   87.90   1
  17   3  -1  277.40   88.20   1
  17   3   2   31.80   38.90   1
 -17  -3  -2   52.50   39.00   1
  17  -3  -2   41.40   39.00   1
 -17   3   2   38.40   39.00   1
 -17   3  -2  153.40   39.50   1
  17  -3   2  162.70   39.60   1
 -17  -3   2   49.50   38.90   1
  17   3  -2   56.30   39.00   1
  17   3   3  228.80   74.80   1
 -17  -3  -3  221.80   74.70   1
  17  -3  -3  123.50   74.40   1
 -17   3   3  128.80   74.40   1
 -17   3  -3  337.30   75.50   1
  17  -3   3  167.30   74.50   1
 -17  -3   3  184.10   74.50   1
  17   3  -3  212.60   74.60   1
  17   3   4    8.50   19.00   1
 -17  -3  -4   -0.00   18.90   1
  17  -3  -4   21.00   18.90   1
 -17   3   4   29.30   19.00   1
 -17   3  -4   15.80   19.60   1
  17  -3   4   -0.00   19.30   1
 -17  -3   4   17.60   18.90   1
  17   3  -4    9.40   18.90   1
  17   3   5   64.50   37.30   1
 -17  -3  -5   41.90   37.20   1
  17  -3  -5   42.20   37.10   1
 -17   3   5   33.90   37.10   1
 -17   3  -5  155.60   38.50   1
  17  -3   5  109.40   38.10   1
 -17  -3   5   46.20   37.20   1
  17   3  -5   48.80   37.10   1
  17   3   6    4.50   18.30   1
 -17  -3  -6   22.00   18.40   1
  17  -3  -6    3.20   18.20   1
 -17   3   6    0.00   18.20   1
 -17   3  -6    2.50   19.90   1
  17  -3   6   10.50   20.10   1
 -17  -3   6   19.80   18.20   1
  17   3  -6   32.60   18.30   1
  17   3   7   61.60   32.00   1
 -17  -3  -7   78.60   32.30   1
  17  -3  -7   29.60   31.60   1
 -17   3   7   64.20   31.80   1
 -17   3  -7   46.90   32.70   1
  17  -3   7   14.30   32.50   1
 -17  -3   7   19.90   31.60   1
  17   3  -7   31.30   31.70   1
  17   3   8    7.80   22.00   1
 -17  -3  -8   24.10   22.30   1
  17  -3  -8   14.10   21.40   1
 -17   3   8   16.90   21.40   1
 -17   3  -8   32.90   22.80   1
  17  -3   8   -0.00   22.40   1
 -17  -3   8    8.00   21.40   1
  17   3  -8   36.10   21.50   1
  17   3   9  116.00   52.50   1
 -17  -3  -9  105.80   52.30   1
  17  -3  -9   84.20   51.50   1
 -17   3   9  107.60   51.60   1
 -17   3  -9   61.60   51.90   1
  17  -3   9  145.10   53.00   1
 -17  -3   9   70.60   51.50   1
  17   3  -9  111.50   51.80   1
  17   3  10    7.10   13.90   1
 -17  -3 -10   10.20   13.90   1
  17  -3 -10    6.90   12.00   1
 -17   3  10    0.80   12.00   1
 -17   3 -10   48.70   14.50   1
  17  -3  10    3.90   13.40   1
 -17  -3  10    3.10   12.10   1
  17   3 -10    2.50   12.60   1
  17   4   0   -0.00   21.80   1
 -17  -4   0   -0.00   21.80   1
  17  -4   0   68.20   22.20   1
 -17   4   0   42.90   22.00   1
  17   4   1    9.10   20.60   1
 -17  -4  -1   14.90   20.60   1
  17  -4  -1   15.10   20.70   1
 -17   4   1   35.00   20.70   1
 -17   4  -1   14.50   20.70   1
  17  -4   1   16.60   20.80   1
 -17  -4   1   18.10   20.60   1
  17   4  -1    5.40   20.60   1
  17   4   2   11.70   19.20   1
 -17  -4  -2   25.30   19.30   1
  17  -4  -2   32.80   19.30   1
 -17   4   2   25.60   19.30   1
 -17   4  -2   15.70   19.30   1
  17  -4   2   12.80   19.30   1
 -17  -4   2   -0.00   19.10   1
  17   4  -2    1.40   19.10   1
  17   4   3    6.60   14.00   1
 -17  -4  -3   16.90   14.00   1
  17  -4  -3    2.60   14.10   1
 -17   4   3   -0.00   14.00   1
 -17   4  -3   -0.00   14.30   1
  17  -4   3    3.50   14.20   1
 -17  -4   3    9.40   13.90   1
  17   4  -3   10.20   13.90   1
  17   4   4   19.60   16.30   1
 -17  -4  -4   30.20   16.30   1
  17  -4  -4    8.50   16.10   1
 -17   4   4    4.10   16.10   1
 -17   4  -4   -0.00   17.30   1
  17  -4   4   -0.00   17.10   1
 -17  -4   4   -0.00   16.10   1
  17   4  -4   10.10   16.10   1
  17   4   5    0.00   16.10   1
 -17  -4  -5    6.80   16.10   1
  17  -4  -5    6.90   16.00   1
 -17   4   5   19.00   16.10   1
 -17   4  -5    7.80   18.20   1
  17  -4   5    9.40   17.10   1
 -17  -4   5   11.20   16.00   1
  17   4  -5    9.40   16.00   1
  17   4   6   22.70   17.60   1
 -17  -4  -6   27.30   17.60   1
  17  -4  -6    1.60   17.30   1
 -17   4   6    6.70   17.40   1
 -17   4  -6    3.00   18.70   1
  17  -4   6    6.60   18.60   1
 -17  -4   6   10.60   17.40   1
  17   4  -6   13.40   17.40   1
  17   4   7   -0.00   10.00   1
 -17  -4  -7    4.90   10.20   1
  17  -4  -7    6.00    9.70   1
 -17   4   7    4.90    9.70   1
 -17   4  -7   -0.00   12.00   1
  17  -4   7   10.10   11.90   1
 -17  -4   7    1.60    9.70   1
  17   4  -7   -0.00    9.90   1
  17   4   8   23.80   17.30   1
 -17  -4  -8   48.70   17.90   1
  17  -4  -8   12.90   16.70   1
 -17   4   8   11.40   16.70   1
 -17   4  -8   -0.00   18.10   1
  17  -4   8    4.80   18.00   1
 -17  -4   8    2.20   16.70   1
  17   4  -8    5.50   16.80   1
  17   4   9   -0.00    9.50   1
 -17  -4  -9   11.60   11.50   1
  17  -4  -9    4.90    7.90   1
 -17   4   9    0.30    8.00   1
 -17   4  -9    3.60   10.30   1
  17  -4   9    6.00   10.40   1
 -17  -4   9   -0.00    8.00   1
  17   4  -9   -0.00    8.60   1
  17   4  10   16.80   18.90   1
 -17  -4 -10   10.60   18.70   1
  17  -4 -10   11.40   17.60   1
 -17   4  10    7.90   17.60   1
 -17   4 -10   18.50   18.90   1
  17  -4  10   16.20   19.00   1
 -17  -4  10   19.50   17.90   1
  17   4 -10   -0.00   18.40   1
  17   5   0  140.60   37.90   1
 -17  -5   0  114.00   37.80   1
  17  -5   0    4.30   37.50   1
 -17   5   0   29.90   37.60   1
  17   5   1   71.40   52.60   1
 -17  -5  -1  116.10   52.70   1
  17  -5  -1  196.60   53.10   1
 -17   5   1  281.30   53.60   1
 -17   5  -1   74.90   52.60   1
  17  -5   1   71.70   52.60   1
 -17  -5   1   55.40   52.50   1
  17   5  -1  168.70   52.90   1
  17   5   2    1.40   11.70   1
 -17  -5  -2    6.90   11.70   1
  17  -5  -2    5.00   11.80   1
 -17   5   2    3.10   11.80   1
 -17   5  -2   -0.00   11.90   1
  17  -5   2   -0.00   11.90   1
 -17  -5   2    4.90   11.60   1
  17   5  -2   12.00   11.70   1
  17   5   3   20.30   32.10   1
 -17  -5  -3   44.90   32.10   1
  17  -5  -3   30.60   32.10   1
 -17   5   3   25.40   32.10   1
 -17   5  -3   94.30   32.80   1
  17  -5   3   92.30   32.60   1
 -17  -5   3   33.30   32.00   1
  17   5  -3   34.50   32.00   1
  17   5   4    5.00   13.60   1
 -17  -5  -4    5.90   13.50   1
  17  -5  -4    6.20   13.50   1
 -17   5   4   -0.00   13.60   1
 -17   5  -4   22.60   15.10   1
  17  -5   4   31.90   15.00   1
 -17  -5   4    7.00   13.50   1
  17   5  -4    6.20   13.50   1
  17   5   5  118.70   25.30   1
 -17  -5  -5   15.80   24.60   1
  17  -5  -5   17.70   24.50   1
 -17   5   5   35.50   24.60   1
 -17   5  -5    4.50   25.70   1
  17  -5   5   44.30   26.30   1
 -17  -5   5    8.30   24.40   1
  17   5  -5   16.20   24.50   1
  17   5   6    9.60   17.90   1
 -17  -5  -6   11.10   17.90   1
  17  -5  -6    8.90   17.80   1
 -17   5   6    7.90   17.80   1
 -17   5  -6   22.00   19.40   1
  17  -5   6    7.50   19.40   1
 -17  -5   6   13.90   17.80   1
  17   5  -6   14.80   17.80   1
  17   5   7   87.70   49.70   1
 -17  -5  -7   53.70   49.60   1
  17  -5  -7  104.00   49.70   1
 -17   5   7   95.10   49.60   1
 -17   5  -7   88.10   50.30   1
  17  -5   7   87.30   50.40   1
 -17  -5   7   79.50   49.60   1
  17   5  -7  106.00   49.70   1
  17   5   8   27.50   28.20   1
 -17  -5  -8   89.60   28.90   1
  17  -5  -8   50.30   28.20   1
 -17   5   8   19.90   28.10   1
 -17   5  -8   29.50   28.80   1
  17  -5   8   45.80   29.20   1
 -17  -5   8   18.20   28.10   1
  17   5  -8   18.90   28.20   1
  17   5   9   28.90   28.60   1
 -17  -5  -9    9.60   28.60   1
  17  -5  -9    6.50   28.00   1
 -17   5   9  112.50   28.70   1
 -17   5  -9   49.30   29.20   1
  17  -5   9   12.50   28.70   1
 -17  -5   9   62.10   28.50   1
  17   5  -9  103.10   29.50   1
  17   5  10   15.60   11.80   1
 -17  -5 -10   -0.00   11.00   1
  17  -5 -10   -0.00    8.80   1
 -17   5  10    2.50    8.80   1
 -17   5 -10   15.90   11.70   1
  17  -5  10    3.00   11.10   1
 -17  -5  10    2.90    9.70   1
  17   5 -10    4.10   10.30   1
  17   6   0   26.30   22.00   1
 -17  -6   0   21.70   22.00   1
  17  -6   0    0.80   22.20   1
 -17   6   0   13.90   22.10   1
  17   6   1   22.20   23.50   1
 -17  -6  -1   26.50   23.50   1
  17  -6  -1   25.80   23.60   1
 -17   6   1   13.00   23.50   1
 -17   6  -1   26.00   23.60   1
  17  -6   1   18.60   23.50   1
 -17  -6   1   20.40   23.40   1
  17   6  -1   11.70   23.40   1
  17   6   2    9.50   16.10   1
 -17  -6  -2    6.40   16.10   1
  17  -6  -2   11.30   16.20   1
 -17   6   2    3.80   16.20   1
 -17   6  -2   11.20   16.50   1
  17  -6   2   10.90   16.40   1
 -17  -6   2    8.50   16.10   1
  17   6  -2   14.40   16.10   1
  17   6   3   11.90   12.90   1
 -17  -6  -3   -0.00   12.80   1
  17  -6  -3   -0.00   12.90   1
 -17   6   3    3.80   12.80   1
 -17   6  -3   13.30   14.50   1
  17  -6   3   13.60   14.20   1
 -17  -6   3    7.30   12.80   1
  17   6  -3    7.50   12.70   1
  17   6   4   17.40   22.80   1
 -17  -6  -4   15.70   22.80   1
  17  -6  -4   16.10   22.80   1
 -17   6   4   35.00   22.90   1
 -17   6  -4   85.70   25.10   1
  17  -6   4   31.90   23.70   1
 -17  -6   4   16.10   22.70   1
  17   6  -4   10.50   22.70   1
  17   6   5   30.70   17.40   1
 -17  -6  -5    2.30   17.20   1
  17  -6  -5   -0.00   17.20   1
 -17   6   5   -0.00   17.20   1
 -17   6  -5   14.80   18.50   1
  17  -6   5   -0.00   18.60   1
 -17  -6   5   16.60   17.20   1
  17   6  -5   24.70   17.30   1
  17   6   6    8.20   17.20   1
 -17  -6  -6    9.90   17.20   1
  17  -6  -6    9.90   17.10   1
 -17   6   6    7.00   17.10   1
 -17   6  -6   11.40   18.50   1
  17  -6   6   26.20   18.60   1
 -17  -6   6    8.70   17.00   1
  17   6  -6   16.10   17.10   1
  17   6   7   19.50   16.80   1
 -17  -6  -7    9.30   16.70   1
  17  -6  -7    4.00   16.60   1
 -17   6   7   12.90   16.70   1
 -17   6  -7   -0.00   17.80   1
  17  -6   7    3.80   17.90   1
 -17  -6   7   10.20   16.60   1
  17   6  -7   13.20   16.70   1
  17   6   8   11.90   15.70   1
 -17  -6  -8   31.30   15.90   1
  17  -6  -8   -0.00   15.40   1
 -17   6   8    7.10   15.50   1
 -17   6  -8   19.10   16.70   1
  17  -6   8   15.20   16.80   1
 -17  -6   8    7.40   15.60   1
  17   6  -8    8.60   15.90   1
  17   6   9    0.00    9.90   1
 -17  -6  -9    7.60   10.30   1
  17  -6  -9    1.90    8.90   1
 -17   6   9    4.80    8.90   1
 -17   6  -9   -0.00   11.10   1
  17  -6   9    5.50   10.90   1
 -17  -6   9   -0.00    9.50   1
  17   6  -9   -0.00   10.30   1
  17   6  10    7.90    7.90   1
 -17  -6 -10    4.60    9.80   1
  17  -6 -10   -0.00    5.90   1
 -17   6 -10   -0.00    9.60   1
  17  -6  10   -0.00    9.20   1
 -17  -6  10   -0.00    7.00   1
  17   6 -10   -0.00    7.40   1
  17   7   0    3.10    6.30   1
 -17  -7   0    0.00    6.30   1
  17  -7   0   -0.00    6.60   1
 -17   7   0    0.80    6.60   1
  17   7   1   15.80   34.50   1
 -17  -7  -1   48.70   34.50   1
  17  -7  -1   92.20   35.00   1
 -17   7   1   40.60   34.70   1
 -17   7  -1   27.40   34.60   1
  17  -7   1   53.90   34.70   1
 -17  -7   1   66.10   34.60   1
  17   7  -1   47.20   34.60   1
  17   7   2  142.10   31.90   1
 -17  -7  -2   23.00   31.30   1
  17  -7  -2   92.00   31.60   1
 -17   7   2   67.60   31.50   1
 -17   7  -2   15.70   31.70   1
  17  -7   2   23.20   31.50   1
 -17  -7   2   25.00   31.30   1
  17   7  -2   12.30   31.20   1
  17   7   3  161.50   75.90   1
 -17  -7  -3  242.80   76.50   1
  17  -7  -3  214.70   76.10   1
 -17   7   3  228.40   76.20   1
 -17   7  -3  186.60   76.40   1
  17  -7   3  210.60   76.50   1
 -17  -7   3  150.80   75.80   1
  17   7  -3  167.40   75.80   1
  17   7   4   17.50   20.60   1
 -17  -7  -4   14.00   20.60   1
  17  -7  -4   17.30   20.60   1
 -17   7   4   22.10   20.70   1
 -17   7  -4   11.10   22.20   1
  17  -7   4   17.70   22.40   1
 -17  -7   4    9.60   20.50   1
  17   7  -4   15.40   20.50   1
  17   7   5  170.70   62.30   1
 -17  -7  -5  143.20   62.10   1
  17  -7  -5  138.70   62.20   1
 -17   7   5  301.10   63.70   1
 -17   7  -5  124.50   62.90   1
  17  -7   5  154.10   63.10   1
 -17  -7   5   85.60   61.90   1
  17   7  -5  121.70   62.00   1
  17   7   6   16.70   15.60   1
 -17  -7  -6    4.90   15.50   1
  17  -7  -6   11.40   15.50   1
 -17   7   6   -0.00   15.50   1
 -17   7  -6   31.20   17.10   1
  17  -7   6    0.00   16.80   1
 -17  -7   6    5.40   15.40   1
  17   7  -6   14.00   15.50   1
 -17  -7  -7   45.80   19.70   1
  17  -7  -7    9.60   19.40   1
 -17   7   7   28.30   19.50   1
 -17   7  -7   -0.00   20.20   1
  17  -7   7   14.10   20.50   1
 -17  -7   7    2.90   19.40   1
  17   7  -7    4.70   19.60   1
  17   7   8   -0.00   10.90   1
 -17  -7  -8   13.00   11.10   1
  17  -7  -8    2.80   10.70   1
 -17   7   8    4.70   10.70   1
 -17   7  -8    0.90   12.50   1
  17  -7   8   11.90   12.50   1
 -17  -7   8    1.90   11.00   1
  17   7  -8    0.00   11.70   1
  17   7   9   32.90   28.60   1
 -17  -7  -9   94.00   29.40   1
  17  -7  -9   20.80   28.40   1
 -17   7   9   24.30   28.50   1
 -17   7  -9   23.00   29.50   1
  17  -7   9   41.60   30.00   1
 -17  -7   9   18.30   28.80   1
  17   7  -9   64.80   29.50   1
  17   7  10   10.90   16.00   1
 -17  -7 -10   10.40   16.50   1
  17  -7 -10    7.40   15.10   1
 -17   7 -10   24.80   17.40   1
  17  -7  10    3.80   16.80   1
 -17  -7  10    4.40   15.50   1
  17   7 -10    9.10   15.70   1
  17   8   0   22.50   26.00   1
 -17  -8   0   45.20   26.10   1
  17  -8   0   20.30   26.20   1
 -17   8   0   10.20   26.10   1
  17   8   1   28.10   26.40   1
  17  -8  -1   17.90   26.50   1
 -17   8   1   44.90   26.60   1
 -17   8  -1   -0.00   26.60   1
  17  -8   1   12.80   26.50   1
 -17  -8   1   57.90   26.50   1
  17   8  -1   13.00   26.30   1
  17   8   2  169.40   60.90   1
 -17  -8  -2  274.70   61.60   1
  17  -8  -2   98.90   60.60   1
 -17   8   2   77.70   60.50   1
 -17   8  -2  283.40   62.40   1
  17  -8   2  158.70   61.20   1
 -17  -8   2  202.30   60.90   1
  17   8  -2   85.90   60.50   1
  17   8   3  123.40   54.20   1
 -17  -8  -3   94.50   54.10   1
  17  -8  -3  101.50   54.10   1
 -17   8   3   91.70   54.00   1
 -17   8  -3  158.60   55.50   1
  17  -8   3   67.90   54.40   1
 -17  -8   3   93.50   54.00   1
  17   8  -3  108.00   54.00   1
  17   8   4  675.90  150.10   1
 -17  -8  -4  558.50  149.00   1
  17  -8  -4  550.80  148.60   1
 -17   8   4  587.60  148.50   1
 -17   8  -4  665.30  151.20   1
  17  -8   4  552.70  149.90   1
 -17  -8   4  436.00  147.20   1
  17   8  -4  607.20  148.40   1
  17   8   5   32.10   27.30   1
 -17  -8  -5   21.30   27.20   1
  17  -8  -5   22.30   27.30   1
 -17   8   5   23.00   27.30   1
 -17   8  -5   12.70   28.20   1
  17  -8   5   12.10   28.10   1
 -17  -8   5   23.10   27.20   1
  17   8  -5   60.80   27.40   1
  17   8   6   19.20   33.20   1
 -17  -8  -6   24.70   33.20   1
  17  -8  -6   33.90   33.20   1
 -17   8   6   97.40   33.70   1
 -17   8  -6   62.70   34.20   1
  17  -8   6  141.30   35.50   1
 -17  -8   6   40.80   33.20   1
  17   8  -6   67.60   33.50   1
  17   8   7   14.20   20.70   1
 -17  -8  -7   40.20   20.70   1
  17  -8  -7    9.70   20.40   1
 -17   8   7    6.20   20.50   1
 -17   8  -7    1.70   21.30   1
  17  -8   7   12.50   21.50   1
 -17  -8   7   19.80   20.60   1
  17   8  -7   29.20   21.00   1
  17   8   8   92.20   31.80   1
 -17  -8  -8   21.20   31.40   1
  17  -8  -8   34.20   31.30   1
 -17   8   8   22.30   31.30   1
 -17   8  -8   42.20   32.40   1
  17  -8   8   38.00   32.20   1
 -17  -8   8   47.80   31.80   1
  17   8  -8   57.00   32.20   1
  17   8   9   24.50   32.20   1
 -17  -8  -9   51.30   32.40   1
  17  -8  -9   47.80   32.20   1
 -17   8   9   35.90   32.10   1
 -17   8  -9   36.20   33.40   1
  17  -8   9   29.50   33.20   1
 -17  -8   9   24.90   32.40   1
  17   8  -9   47.40   32.60   1
  17   9   0    3.60   10.70   1
 -17  -9   0    6.00   10.70   1
  17  -9   0   -0.00   11.00   1
 -17   9   0    4.50   11.10   1
  17   9   1    4.80   19.20   1
 -17  -9  -1    8.20   19.20   1
  17  -9  -1   10.10   19.40   1
 -17   9   1   16.60   19.50   1
 -17   9  -1   20.80   20.10   1
  17  -9   1    0.00   19.70   1
 -17  -9   1   25.40   19.30   1
  17   9  -1   21.00   19.30   1
  17   9   2   -0.00   11.70   1
 -17  -9  -2   -0.00   11.70   1
  17  -9  -2   13.30   12.10   1
 -17   9   2   -0.00   11.90   1
 -17   9  -2    8.70   13.30   1
  17  -9   2   25.10   13.20   1
 -17  -9   2    9.00   11.70   1
  17   9  -2    4.10   11.70   1
  17   9   3    8.20   21.90   1
 -17  -9  -3   25.00   22.00   1
  17  -9  -3   52.40   22.20   1
 -17   9   3    3.70   22.00   1
 -17   9  -3   20.10   23.50   1
  17  -9   3    0.00   23.50   1
 -17  -9   3   18.80   21.90   1
  17   9  -3   15.70   21.90   1
  17   9   4   14.40   15.50   1
 -17  -9  -4    2.50   15.50   1
  17  -9  -4    3.70   15.60   1
 -17   9   4    1.00   15.60   1
 -17   9  -4   33.70   17.70   1
  17  -9   4   12.80   17.10   1
 -17  -9   4   15.40   15.50   1
  17   9  -4    7.80   15.50   1
  17   9   5   -0.00    9.60   1
 -17  -9  -5    7.90    9.60   1
  17  -9  -5    1.90    9.70   1
 -17   9   5    6.00    9.80   1
 -17   9  -5   -0.00   11.80   1
  17  -9   5    5.60   11.80   1
 -17  -9   5    2.10    9.60   1
  17   9  -5    1.40    9.70   1
  17   9   6    7.40   12.70   1
 -17  -9  -6    3.00   12.70   1
  17  -9  -6   -0.00   12.80   1
 -17   9   6    7.40   12.90   1
 -17   9  -6   -0.00   14.10   1
  17  -9   6    6.40   14.40   1
 -17  -9   6   10.30   12.80   1
  17   9  -6   10.60   13.20   1
  17   9   7    5.90   10.50   1
 -17  -9  -7    6.20   10.40   1
  17  -9  -7    6.20   10.30   1
 -17   9   7    0.00   10.30   1
 -17   9  -7    0.70   11.90   1
  17  -9   7    6.80   12.10   1
 -17  -9   7   -0.00   10.70   1
  17   9  -7   -0.00   11.40   1
  17   9   8    7.40    9.90   1
 -17  -9  -8    4.50    9.90   1
  17  -9  -8    2.50    9.70   1
 -17   9   8    2.70    9.70   1
 -17   9  -8   -0.00   12.20   1
  17  -9   8    1.00   11.60   1
 -17  -9   8    0.90   10.30   1
  17   9  -8    0.50   10.50   1
  17   9   9   -0.00   15.50   1
 -17  -9  -9   13.60   15.50   1
  17  -9  -9   20.00   15.40   1
 -17   9  -9   22.30   17.50   1
  17  -9   9   10.10   17.60   1
 -17  -9   9   -0.00   15.60   1
  17   9  -9   -0.00   15.80   1
  17  10   0   28.10   19.00   1
 -17 -10   0    0.60   18.90   1
  17 -10   0    6.00   19.20   1
 -17  10   0   30.50   19.40   1
  17  10   1   -0.00   13.00   1
 -17 -10  -1   12.20   13.00   1
  17 -10  -1    3.00   13.20   1
 -17  10   1   -0.00   13.20   1
 -17  10  -1   32.60   14.70   1
  17 -10   1    6.20   14.20   1
 -17 -10   1    9.20   13.10   1
  17  10  -1    6.10   13.00   1
  17  10   2    9.40   19.30   1
 -17 -10  -2   -0.00   19.30   1
  17 -10  -2   42.90   19.80   1
 -17  10   2   39.80   19.60   1
 -17  10  -2    9.50   21.30   1
  17 -10   2   10.50   20.30   1
 -17 -10   2   10.30   19.30   1
  17  10  -2   15.60   19.30   1
  17  10   3   27.60   20.10   1
 -17 -10  -3   23.40   20.10   1
  17 -10  -3   10.00   20.20   1
 -17  10   3    0.00   20.20   1
 -17  10  -3    0.00   21.50   1
  17 -10   3    8.90   21.50   1
 -17 -10   3   12.40   20.00   1
  17  10  -3   13.70   20.00   1
  17  10   4   88.80   46.80   1
 -17 -10  -4   95.10   46.90   1
  17 -10  -4   69.20   46.70   1
 -17  10   4   62.60   46.70   1
 -17  10  -4   80.10   47.60   1
  17 -10   4   88.50   47.60   1
 -17 -10   4   77.00   46.70   1
  17  10  -4   68.70   46.70   1
  17  10   5    7.40   18.80   1
 -17 -10  -5   18.40   18.80   1
  17 -10  -5    9.50   18.80   1
 -17  10   5   28.10   18.90   1
 -17  10  -5   19.50   20.00   1
  17 -10   5   12.60   20.00   1
 -17 -10   5   -0.00   18.70   1
  17  10  -5   24.40   18.90   1
  17  10   6   32.50   30.90   1
 -17 -10  -6   21.60   30.90   1
  17 -10  -6   29.60   31.00   1
 -17  10   6   35.50   31.00   1
 -17  10  -6   53.40   31.80   1
  17 -10   6   36.30   31.60   1
 -17 -10   6   56.20   31.20   1
  17  10  -6   93.40   32.10   1
  17  10   7   13.80   19.10   1
 -17 -10  -7   11.00   19.10   1
  17 -10  -7   16.60   19.10   1
 -17  10   7   13.50   19.10   1
 -17  10  -7    8.80   20.20   1
  17 -10   7   -0.00   20.00   1
 -17 -10   7   16.70   19.40   1
  17  10  -7   11.20   19.60   1
  17  10   8   50.10   30.00   1
 -17 -10  -8   31.90   29.90   1
  17 -10  -8   29.50   29.80   1
 -17  10   8   58.60   30.00   1
 -17  10  -8   -0.00   30.70   1
  17 -10   8   18.50   30.80   1
 -17 -10   8    9.30   30.00   1
  17  10  -8   34.40   30.10   1
  17  11   0    4.70    7.50   1
 -17 -11   0   -0.00    7.50   1
  17 -11   0    0.70    8.40   1
 -17  11   0   -0.00    9.10   1
  17  11   1   17.00   25.20   1
 -17 -11  -1    4.90   25.20   1
  17 -11  -1   64.90   25.60   1
 -17  11   1   81.30   25.80   1
 -17  11  -1   56.30   26.30   1
  17 -11   1   78.60   26.50   1
 -17 -11   1   21.40   25.30   1
  17  11  -1   17.90   25.30   1
  17  11   2   -0.00   11.10   1
 -17 -11  -2   15.40   11.20   1
  17 -11  -2   -0.00   11.60   1
 -17  11   2    7.20   11.60   1
 -17  11  -2   -0.00   14.00   1
  17 -11   2    7.70   14.30   1
 -17 -11   2    5.50   11.20   1
  17  11  -2   -0.00   11.20   1
  17  11   3   20.10   22.70   1
 -17 -11  -3   11.50   22.60   1
  17 -11  -3   16.60   22.90   1
 -17  11   3    9.10   22.80   1
 -17  11  -3   72.90   24.80   1
  17 -11   3   30.30   23.90   1
 -17 -11   3    9.50   22.60   1
  17  11  -3   60.40   22.90   1
  17  11   4    9.50   15.80   1
 -17 -11  -4   16.30   15.80   1
  17 -11  -4    9.20   16.00   1
 -17  11   4   12.70   15.90   1
 -17  11  -4    8.60   17.30   1
  17 -11   4   -0.00   17.40   1
 -17 -11   4    2.80   15.80   1
  17  11  -4    7.20   15.90   1
  17  11   5   29.80   25.80   1
 -17 -11  -5   31.60   25.80   1
  17 -11  -5   18.80   25.80   1
 -17  11   5   22.10   25.80   1
 -17  11  -5   17.50   26.50   1
  17 -11   5   -0.00   26.80   1
 -17 -11   5   18.90   25.80   1
  17  11  -5   33.80   26.20   1
  17  11   6    0.00   10.30   1
 -17 -11  -6   -0.00   10.30   1
  17 -11  -6    7.30   10.50   1
 -17  11   6    9.40   10.40   1
 -17  11  -6    1.20   12.10   1
  17 -11   6   -0.00   12.40   1
 -17 -11   6    8.10   10.90   1
  17  11  -6   -0.00   11.40   1
  17  11   7    5.10   11.80   1
 -17 -11  -7    8.00   11.90   1
  17 -11  -7    2.20   11.80   1
 -17  11   7    3.10   11.90   1
 -17  11  -7   15.30   14.10   1
  17 -11   7    5.40   13.60   1
 -17 -11   7    2.90   12.30   1
  17  11  -7    5.40   12.40   1
  17  11   8   21.50   14.10   1
 -17 -11  -8   13.20   14.00   1
  17 -11  -8   -0.00   13.90   1
 -17  11  -8    0.00   15.60   1
  17 -11   8   11.30   16.00   1
 -17 -11   8   -0.00   14.10   1
  17  11  -8    1.70   14.30   1
  17  12   0    7.40   20.00   1
 -17 -12   0   31.10   20.10   1
  17 -12   0    4.20   20.70   1
 -17  12   0   -0.00   20.90   1
  17  12   1    6.70   12.80   1
 -17 -12  -1    4.80   12.70   1
  17 -12  -1   18.60   13.20   1
 -17  12   1   -0.00   13.40   1
 -17  12  -1    4.10   15.50   1
  17 -12   1   -0.00   13.60   1
 -17 -12   1    4.00   12.70   1
  17  12  -1    6.80   12.70   1
  17  12   2  189.10   57.00   1
 -17 -12  -2   93.00   56.50   1
  17 -12  -2  100.80   56.70   1
 -17  12   2   83.00   56.60   1
 -17  12  -2  109.70   57.60   1
  17 -12   2  123.10   57.80   1
 -17 -12   2  117.00   56.70   1
  17  12  -2  117.90   56.70   1
  17  12   3   13.80   23.40   1
 -17 -12  -3   14.00   23.40   1
  17 -12  -3   21.10   23.60   1
 -17  12   3   14.00   23.60   1
 -17  12  -3   23.50   24.60   1
  17 -12   3   14.30   24.50   1
 -17 -12   3   38.40   23.50   1
  17  12  -3   24.40   23.50   1
  17  12   4  354.80  105.40   1
 -17 -12  -4  318.50  105.20   1
  17 -12  -4  508.50  106.70   1
 -17  12   4  328.50  105.20   1
 -17  12  -4  296.90  106.60   1
  17 -12   4  320.60  106.90   1
 -17 -12   4  210.90  104.70   1
  17  12  -4  591.20  110.20   1
  17  12   5   -0.00    8.90   1
 -17 -12  -5    3.70    8.90   1
  17 -12  -5    4.40    9.00   1
 -17  12   5    1.70    9.10   1
 -17  12  -5   -0.00   10.70   1
  17 -12   5    5.90   10.90   1
 -17 -12   5    4.40    9.30   1
  17  12  -5    2.30   10.10   1
  17  12   6   66.00   35.20   1
 -17 -12  -6   54.10   35.20   1
  17 -12  -6   49.00   35.10   1
 -17  12   6   38.80   35.10   1
 -17  12  -6   14.20   35.60   1
  17 -12   6   16.20   35.50   1
 -17 -12   6   40.00   35.40   1
  17  12  -6   43.80   35.40   1
  17  12   7    6.80   12.00   1
 -17 -12  -7    7.00   11.90   1
  17 -12  -7    7.40   12.00   1
 -17  12  -7   -0.00   14.00   1
  17 -12   7   -0.00   14.00   1
 -17 -12   7   -0.00   12.30   1
  17  12  -7   -0.00   12.40   1
  17  13   0   13.90   15.90   1
 -17 -13   0    5.50   15.90   1
  17 -13   0    8.40   16.90   1
 -17  13   0   -0.20   17.50   1
  17  13   1  346.60  117.20   1
 -17 -13  -1  304.90  116.90   1
  17 -13  -1  415.50  117.90   1
 -17  13   1  582.80  119.60   1
 -17  13  -1  673.10  123.90   1
  17 -13   1  443.50  119.50   1
 -17 -13   1  317.70  117.00   1
  17  13  -1  557.30  119.10   1
  17  13   2  108.70   52.60   1
 -17 -13  -2   96.40   52.60   1
  17 -13  -2  113.60   52.80   1
 -17  13   2  155.50   53.10   1
 -17  13  -2  137.20   54.00   1
  17 -13   2   50.60   52.90   1
 -17 -13   2   77.80   52.50   1
  17  13  -2   79.70   52.60   1
  17  13   3  590.60  149.70   1
 -17 -13  -3  595.30  149.90   1
  17 -13  -3  493.00  149.50   1
 -17  13   3  529.70  149.60   1
 -17  13  -3  632.60  154.50   1
  17 -13   3  851.70  159.30   1
 -17 -13   3  456.00  149.70   1
  17  13  -3  697.70  153.40   1
  17  13   4   13.60   20.00   1
 -17 -13  -4   17.80   20.10   1
  17 -13  -4   13.20   20.30   1
 -17  13   4   36.80   20.40   1
 -17  13  -4    8.80   21.10   1
  17 -13   4   20.90   21.40   1
 -17 -13   4    0.40   20.20   1
  17  13  -4    8.90   20.60   1
  17  13   5  284.50   95.40   1
 -17 -13  -5  336.50   96.00   1
  17 -13  -5  423.00   96.40   1
 -17  13   5  224.50   94.80   1
 -17  13  -5  324.20   99.50   1
  17 -13   5  235.40   96.60   1
 -17 -13   5  184.40   95.20   1
  17  13  -5  380.30   98.70   1
  17  13   6   21.00   21.10   1
 -17 -13  -6   15.50   21.20   1
  17 -13  -6   -0.00   21.10   1
 -17  13  -6   13.80   22.40   1
  17 -13   6   21.40   22.30   1
 -17 -13   6   65.00   22.30   1
  17  13  -6   21.70   21.50   1
  17  14   0   24.90   15.40   1
 -17 -14   0   -0.00   15.30   1
  17 -14   0   -0.00   16.30   1
 -17  14   0   -0.00   18.30   1
  17  14   1    5.60   11.40   1
 -17 -14  -1    6.50   11.40   1
  17 -14  -1    4.60   12.80   1
 -17  14   1   11.40   13.30   1
 -17  14  -1    8.20   14.00   1
  17 -14   1   -0.20   13.90   1
 -17 -14   1   -0.00   11.40   1
  17  14  -1    5.80   11.50   1
  17  14   2   21.80   15.70   1
 -17 -14  -2   10.20   15.60   1
  17 -14  -2   -0.00   15.90   1
 -17  14   2   20.40   16.30   1
 -17  14  -2   -0.00   17.20   1
  17 -14   2   11.60   17.60   1
 -17 -14   2   -0.00   15.70   1
  17  14  -2    6.60   15.70   1
  17  14   3    7.00   16.60   1
 -17 -14  -3   10.90   16.70   1
  17 -14  -3   11.40   16.90   1
 -17  14   3    4.50   16.80   1
 -17  14  -3   20.40   18.10   1
  17 -14   3   19.50   18.50   1
 -17 -14   3   12.60   16.80   1
  17  14  -3   13.80   17.10   1
  17  14   4    5.60   17.60   1
 -17 -14  -4   23.00   17.70   1
  17 -14  -4   11.80   17.90   1
 -17  14   4   20.10   17.90   1
 -17  14  -4    6.30   18.70   1
  17 -14   4    2.20   18.70   1
 -17 -14   4   -0.00   17.90   1
  17  14  -4   13.00   18.40   1
  17  14   5    2.40    7.80   1
 -17 -14  -5    2.20    7.80   1
  17 -14  -5    0.00    8.10   1
 -17  14  -5    8.50   10.30   1
  17 -14   5   -0.00   10.10   1
 -17 -14   5    1.30    8.60   1
  17  14  -5    2.40    8.60   1
  17  15   0    8.30   15.00   1
 -17 -15   0    8.40   15.00   1
  17 -15   0   -0.00   16.90   1
 -17  15   0    9.10   17.00   1
  17  15   1    5.90   15.70   1
 -17 -15  -1    7.90   15.70   1
  17 -15  -1   50.40   17.40   1
 -17  15   1   15.90   17.20   1
 -17  15  -1   20.10   17.90   1
  17 -15   1    7.80   17.00   1
 -17 -15   1   11.90   15.80   1
  17  15  -1    3.30   15.80   1
  17  15   2    0.40    7.00   1
 -17 -15  -2    0.00    7.10   1
  17 -15  -2    5.30    8.20   1
 -17  15   2    4.20    9.10   1
 -17  15  -2   14.20   10.00   1
  17 -15   2   -0.00    9.70   1
 -17 -15   2    2.80    7.20   1
  17  15  -2    0.40    7.60   1
  17  15   3  134.80   50.40   1
 -17 -15  -3   59.60   49.90   1
  17 -15  -3  106.40   50.30   1
 -17  15  -3   57.10   50.70   1
  17 -15   3  182.40   52.70   1
 -17 -15   3   83.20   50.30   1
  17  15  -3  145.40   51.50   1
  17  15   4    6.30   11.10   1
 -17 -15  -4    2.90   11.10   1
  17 -15  -4    3.50   11.40   1
 -17  15  -4    7.90   12.90   1
  17 -15   4   15.60   13.00   1
 -17 -15   4   -0.00   11.70   1
  17  15  -4    2.90   11.90   1
  17  16   0    4.30   11.50   1
 -17 -16   0    1.60   11.50   1
  17 -16   0   -0.00   14.30   1
 -17  16   0   86.30   16.10   1
  17  16   1    8.10   11.70   1
 -17 -16  -1    4.00   11.70   1
  17 -16  -1    1.40   12.50   1
 -17  16  -1   -0.00   13.60   1
  17 -16   1   11.80   13.50   1
 -17 -16   1    0.30   11.70   1
  17  16  -1    9.90   11.90   1
  17  16   2   47.30   34.70   1
 -17 -16  -2   24.70   34.60   1
  17 -16  -2   76.00   35.40   1
 -17  16  -2   73.90   36.20   1
  17 -16   2   45.70   35.70   1
 -17 -16   2   62.90   35.00   1
  17  16  -2   68.60   35.40   1
  18   0   0  353.00  105.10   1
 -18   0   0  296.10  104.60   1
  18   0   1   71.50   30.30   1
 -18   0  -1   52.40   30.20   1
  18   0  -1   17.50   30.10   1
 -18   0   1   14.60   30.10   1
  18   0   2  264.10   92.10   1
 -18   0  -2  305.20   92.30   1
  18   0  -2  239.90   92.10   1
 -18   0   2  232.20   92.10   1
  18   0   3   42.30   41.10   1
 -18   0  -3   30.80   41.00   1
  18   0  -3   91.60   41.20   1
 -18   0   3  123.50   41.40   1
  18   0   4  607.80  162.30   1
 -18   0  -4  650.70  162.40   1
  18   0  -4  659.00  162.30   1
 -18   0   4  614.60  162.00   1
  18   0   5   49.20   38.70   1
 -18   0  -5   56.60   38.70   1
  18   0  -5   49.30   38.50   1
 -18   0   5   56.00   38.60   1
  18   0   6  194.30   70.30   1
 -18   0  -6  184.30   70.40   1
  18   0  -6  155.10   69.90   1
 -18   0   6  138.10   69.80   1
  18   0   7   10.00   19.00   1
 -18   0  -7    4.30   19.50   1
  18   0  -7   13.80   18.40   1
 -18   0   7   12.30   18.40   1
  18   0   8  242.60   68.80   1
 -18   0  -8  218.00   68.40   1
  18   0  -8  110.00   66.60   1
 -18   0   8  179.30   66.90   1
  18   0   9   61.70   41.70   1
 -18   0  -9   81.60   42.00   1
  18   0  -9   61.70   40.90   1
 -18   0   9   51.60   40.80   1
  18   0  10   25.40   26.40   1
 -18   0 -10   24.50   26.30   1
  18   0 -10   38.10   25.20   1
 -18   0  10   13.90   25.10   1
  18   1   0   10.60   14.40   1
 -18  -1   0    8.30   14.30   1
  18  -1   0    5.40   14.40   1
 -18   1   0    4.80   14.30   1
  18   1   1   93.50   46.30   1
 -18  -1  -1   78.80   46.30   1
  18  -1  -1  133.30   46.60   1
 -18   1   1  149.00   46.80   1
 -18   1  -1   53.80   46.20   1
  18  -1   1   52.90   46.20   1
 -18  -1   1   65.70   46.20   1
  18   1  -1   67.20   46.20   1
  18   1   2   25.60   14.70   1
 -18  -1  -2   -0.00   14.60   1
  18  -1  -2    6.90   14.60   1
 -18   1   2   12.00   14.70   1
 -18   1  -2   -0.00   14.70   1
  18  -1   2   -0.00   14.80   1
 -18  -1   2    9.60   14.60   1
  18   1  -2    7.60   14.60   1
  18   1   3   -0.00   23.50   1
 -18  -1  -3    6.40   23.40   1
  18  -1  -3    8.30   23.30   1
 -18   1   3   12.40   23.30   1
 -18   1  -3  180.50   24.90   1
  18  -1   3  173.30   24.80   1
 -18  -1   3   19.60   23.40   1
  18   1  -3   21.30   23.40   1
  18   1   4   57.40   25.30   1
 -18  -1  -4   27.20   25.10   1
  18  -1  -4   95.70   25.40   1
 -18   1   4   68.00   25.20   1
 -18   1  -4    5.80   25.00   1
  18  -1   4   12.30   25.10   1
 -18  -1   4    6.30   24.90   1
  18   1  -4    6.50   24.90   1
  18   1   5    0.10   17.60   1
 -18  -1  -5    9.60   17.50   1
  18  -1  -5    6.50   17.40   1
 -18   1   5    8.00   17.40   1
 -18   1  -5   32.20   18.00   1
  18  -1   5   50.80   18.10   1
 -18  -1   5    7.00   17.40   1
  18   1  -5   11.80   17.40   1
  18   1   6   27.30   18.90   1
 -18  -1  -6   10.50   19.20   1
  18  -1  -6   18.40   18.70   1
 -18   1   6   11.60   18.70   1
 -18   1  -6   24.90   19.90   1
  18  -1   6    6.20   19.50   1
 -18  -1   6    7.90   18.60   1
  18   1  -6    6.80   18.60   1
  18   1   7  207.40   55.50   1
 -18  -1  -7  200.60   55.70   1
  18  -1  -7   84.40   54.40   1
 -18   1   7  126.50   54.50   1
 -18   1  -7  169.90   56.10   1
  18  -1   7   63.30   54.80   1
 -18  -1   7   74.80   54.30   1
  18   1  -7  104.00   54.50   1
  18   1   8   14.30   17.00   1
 -18  -1  -8   11.90   18.50   1
  18  -1  -8   14.50   15.90   1
 -18   1   8   11.10   15.90   1
 -18   1  -8    2.50   17.30   1
  18  -1   8   10.60   17.50   1
 -18  -1   8    9.00   15.80   1
  18   1  -8    2.50   15.80   1
  18   1   9    8.90   21.40   1
 -18  -1  -9   12.40   21.60   1
  18  -1  -9    3.90   20.20   1
 -18   1   9    7.30   20.20   1
 -18   1  -9   35.50   21.90   1
  18  -1   9   23.50   21.50   1
 -18  -1   9   18.80   20.20   1
  18   1  -9   41.60   20.40   1
  18   1  10    4.60   14.20   1
 -18  -1 -10   10.50   14.10   1
  18  -1 -10    3.20   12.40   1
 -18   1  10    4.20   12.30   1
 -18   1 -10   -0.00   13.70   1
  18  -1  10   12.60   14.10   1
 -18  -1  10    6.00   12.30   1
  18   1 -10    7.40   12.40   1
  18   2   0   99.10   70.60   1
 -18  -2   0  202.50   71.10   1
  18  -2   0  248.50   71.20   1
 -18   2   0  228.10   71.10   1
  18   2   1   75.00   30.40   1
 -18  -2  -1   74.10   30.30   1
  18  -2  -1   95.10   30.50   1
 -18   2   1   90.10   30.40   1
 -18   2  -1    4.50   30.00   1
  18  -2   1   36.40   30.10   1
 -18  -2   1   22.10   30.00   1
  18   2  -1    3.90   30.00   1
  18   2   2    4.30   21.30   1
 -18  -2  -2    7.10   21.30   1
  18  -2  -2    9.40   21.30   1
 -18   2   2   16.60   21.30   1
 -18   2  -2   39.90   21.50   1
  18  -2   2   18.50   21.50   1
 -18  -2   2   33.30   21.40   1
  18   2  -2   18.50   21.30   1
  18   2   3    4.30   16.90   1
 -18  -2  -3   -0.20   16.70   1
  18  -2  -3    0.00   16.80   1
 -18   2   3    3.90   16.70   1
 -18   2  -3   60.10   17.20   1
  18  -2   3  111.00   17.80   1
 -18  -2   3   -0.00   16.80   1
  18   2  -3    9.10   16.80   1
  18   2   4   43.00   26.90   1
 -18  -2  -4   23.00   26.90   1
  18  -2  -4   20.00   26.80   1
 -18   2   4   52.10   26.90   1
 -18   2  -4    9.60   26.80   1
  18  -2   4   13.60   26.80   1
 -18  -2   4   28.90   26.80   1
  18   2  -4   26.50   26.70   1
  18   2   5   17.40   17.10   1
 -18  -2  -5   14.70   17.00   1
  18  -2  -5    7.20   16.90   1
 -18   2   5    3.80   16.90   1
 -18   2  -5   19.20   17.80   1
  18  -2   5   13.50   17.40   1
 -18  -2   5   10.00   16.90   1
  18   2  -5    9.00   16.80   1
  18   2   6    9.20   12.40   1
 -18  -2  -6   -0.00   12.50   1
  18  -2  -6   -0.00   12.20   1
 -18   2   6    8.80   12.30   1
  18  -2   6   22.00   13.60   1
 -18  -2   6    4.80   12.20   1
  18   2  -6    6.20   12.30   1
  18   2   7    4.30   13.90   1
 -18  -2  -7   11.70   14.60   1
  18  -2  -7    6.40   13.40   1
 -18   2   7    6.40   13.40   1
 -18   2  -7   -0.00   15.00   1
  18  -2   7   18.20   15.90   1
 -18  -2   7    4.00   13.40   1
  18   2  -7    8.60   13.40   1
  18   2   8   31.60   35.60   1
 -18  -2  -8   82.10   36.30   1
  18  -2  -8   59.10   35.30   1
 -18   2   8   33.20   35.20   1
 -18   2  -8   33.80   36.00   1
  18  -2   8    2.10   35.80   1
 -18  -2   8   61.00   35.30   1
  18   2  -8   45.60   35.20   1
  18   2   9   35.20   26.30   1
 -18  -2  -9   15.30   25.40   1
  18  -2  -9   20.20   24.60   1
 -18   2   9   32.20   24.60   1
 -18   2  -9   32.30   25.90   1
  18  -2   9   -0.00   25.40   1
 -18  -2   9    6.80   24.50   1
  18   2  -9   56.50   24.80   1
  18   2  10    8.50   16.40   1
 -18  -2 -10   14.70   16.90   1
  18  -2 -10   13.10   15.10   1
 -18   2  10    8.70   15.10   1
 -18   2 -10   13.10   16.40   1
  18  -2  10    4.90   16.60   1
 -18  -2  10    1.20   15.00   1
  18   2 -10    9.20   15.10   1
  18   3   0   10.90   22.00   1
 -18  -3   0   -0.00   22.00   1
  18  -3   0   55.70   22.30   1
 -18   3   0   36.90   22.20   1
  18   3   1  103.60   52.40   1
 -18  -3  -1  103.80   52.40   1
  18  -3  -1  130.10   52.50   1
 -18   3   1  133.30   52.50   1
 -18   3  -1  108.50   52.40   1
  18  -3   1   98.60   52.40   1
 -18  -3   1   63.30   52.20   1
  18   3  -1   69.10   52.30   1
  18   3   2   19.90   28.40   1
 -18  -3  -2   18.40   28.30   1
  18  -3  -2   20.60   28.40   1
 -18   3   2   18.40   28.40   1
 -18   3  -2   15.40   28.40   1
  18  -3   2   17.40   28.50   1
 -18  -3   2   85.60   28.60   1
  18   3  -2  113.90   28.80   1
  18   3   3   51.70   39.00   1
 -18  -3  -3   64.60   39.00   1
  18  -3  -3   46.30   39.00   1
 -18   3   3   87.60   39.10   1
 -18   3  -3   40.30   39.00   1
  18  -3   3   52.20   39.00   1
 -18  -3   3   50.90   38.90   1
  18   3  -3   50.90   38.90   1
  18   3   4   26.80   22.10   1
 -18  -3  -4   12.60   21.90   1
  18  -3  -4   19.00   21.90   1
 -18   3   4   12.40   21.90   1
 -18   3  -4   25.30   22.30   1
  18  -3   4   16.00   22.10   1
 -18  -3   4   19.50   21.90   1
  18   3  -4   15.20   21.90   1
  18   3   5   36.60   23.80   1
 -18  -3  -5   45.50   23.80   1
  18  -3  -5   17.80   23.50   1
 -18   3   5    5.70   23.50   1
 -18   3  -5   23.90   24.50   1
  18  -3   5   37.80   24.30   1
 -18  -3   5   17.30   23.50   1
  18   3  -5   16.70   23.50   1
  18   3   6   10.30   20.40   1
 -18  -3  -6   23.90   20.50   1
  18  -3  -6    7.60   20.30   1
 -18   3   6   17.10   20.40   1
 -18   3  -6   41.20   22.60   1
  18  -3   6    4.30   21.40   1
 -18  -3   6   13.80   20.30   1
  18   3  -6   20.10   20.30   1
  18   3   7   51.60   37.20   1
 -18  -3  -7   39.70   37.20   1
  18  -3  -7   54.70   37.00   1
 -18   3   7   71.20   37.10   1
 -18   3  -7   45.60   37.80   1
  18  -3   7   31.80   37.70   1
 -18  -3   7   44.20   37.00   1
  18   3  -7   39.70   37.00   1
  18   3   8    1.70   21.00   1
 -18  -3  -8   -0.00   21.00   1
  18  -3  -8    5.30   20.30   1
 -18   3   8    9.30   20.40   1
 -18   3  -8   37.50   21.80   1
  18  -3   8    7.60   21.40   1
 -18  -3   8   36.80   20.50   1
  18   3  -8   25.90   20.40   1
  18   3   9   44.50   33.30   1
 -18  -3  -9  128.90   34.90   1
  18  -3  -9   36.70   32.60   1
 -18   3   9   35.80   32.50   1
 -18   3  -9  167.80   36.10   1
  18  -3   9   36.40   33.40   1
 -18  -3   9   22.80   32.50   1
  18   3  -9   45.70   32.60   1
  18   3  10   11.20   17.90   1
 -18  -3 -10    8.00   17.70   1
  18  -3 -10    3.20   16.30   1
 -18   3  10   -0.00   16.30   1
 -18   3 -10    5.90   17.40   1
  18  -3  10   10.80   17.40   1
 -18  -3  10   34.20   16.60   1
  18   3 -10   23.10   16.60   1
  18   4   0   68.70   39.10   1
 -18  -4   0   58.80   39.10   1
  18  -4   0   53.90   39.10   1
 -18   4   0   38.50   39.00   1
  18   4   1    5.00   14.40   1
 -18  -4  -1    5.20   14.40   1
  18  -4  -1    7.70   14.50   1
 -18   4   1   -0.00   14.40   1
 -18   4  -1    5.40   14.60   1
  18  -4   1    9.30   14.60   1
 -18  -4   1   19.70   14.50   1
  18   4  -1    7.50   14.40   1
  18   4   2    3.70   25.10   1
 -18  -4  -2   40.30   25.20   1
  18  -4  -2   39.00   25.30   1
 -18   4   2   14.60   25.10   1
 -18   4  -2   14.80   25.20   1
  18  -4   2   21.30   25.30   1
 -18  -4   2   31.00   25.20   1
  18   4  -2   27.00   25.10   1
  18   4   3    0.00    8.90   1
 -18  -4  -3   -0.00    8.70   1
  18  -4  -3    2.00    8.80   1
 -18   4   3    3.20    8.80   1
 -18   4  -3    3.50    9.20   1
  18  -4   3    1.80    9.20   1
 -18  -4   3    5.30    8.80   1
  18   4  -3    4.10    8.70   1
  18   4   4   21.90   21.50   1
 -18  -4  -4    6.90   21.30   1
  18  -4  -4   30.10   21.40   1
 -18   4   4    9.00   21.30   1
 -18   4  -4    6.60   22.10   1
  18  -4   4   18.50   21.80   1
 -18  -4   4   21.50   21.30   1
  18   4  -4   17.00   21.30   1
  18   4   5    8.50   12.50   1
 -18  -4  -5    3.90   12.40   1
  18  -4  -5   -0.00   12.30   1
 -18   4   5   10.20   12.40   1
 -18   4  -5    1.10   14.60   1
  18  -4   5    7.30   13.50   1
 -18  -4   5    6.00   12.30   1
  18   4  -5    5.50   12.30   1
  18   4   6    5.60   18.60   1
 -18  -4  -6    6.10   18.60   1
  18  -4  -6   18.80   18.50   1
 -18   4   6   66.10   18.80   1
 -18   4  -6    3.50   19.90   1
  18  -4   6    0.00   20.30   1
 -18  -4   6    4.80   18.40   1
  18   4  -6    5.80   18.40   1
  18   4   7   11.10   19.10   1
 -18  -4  -7    7.20   19.20   1
  18  -4  -7   10.80   19.00   1
 -18   4   7   14.90   19.00   1
 -18   4  -7   11.80   20.40   1
  18  -4   7   23.90   20.60   1
 -18  -4   7   14.00   19.00   1
  18   4  -7   16.10   19.00   1
  18   4   8   43.40   14.70   1
 -18  -4  -8   -0.00   14.80   1
  18  -4  -8    8.90   13.80   1
 -18   4   8    7.60   13.90   1
 -18   4  -8   -0.00   15.40   1
  18  -4   8    5.30   15.60   1
 -18  -4   8    1.70   13.90   1
  18   4  -8    2.30   13.90   1
  18   4   9   -0.00    7.90   1
 -18  -4  -9   -0.10    9.40   1
  18  -4  -9   -0.00    6.40   1
 -18   4   9    0.10    6.30   1
 -18   4  -9    4.80    9.20   1
  18  -4   9   -0.00    9.20   1
 -18  -4   9   -0.00    6.30   1
  18   4  -9    7.00    6.70   1
  18   4  10   -0.00   17.90   1
 -18  -4 -10   -0.00   17.00   1
  18  -4 -10    8.80   15.90   1
 -18   4 -10   -0.00   17.00   1
  18  -4  10   16.20   17.10   1
 -18  -4  10    8.50   16.00   1
  18   4 -10   23.60   16.60   1
  18   5   0   23.40   19.50   1
 -18  -5   0   12.80   19.50   1
  18  -5   0    8.20   19.60   1
 -18   5   0    7.00   19.60   1
  18   5   1  158.10   64.10   1
 -18  -5  -1  115.80   63.90   1
  18  -5  -1  202.30   64.30   1
 -18   5   1  184.20   64.10   1
 -18   5  -1  196.00   64.30   1
  18  -5   1  244.20   64.60   1
 -18  -5   1   97.40   63.70   1
  18   5  -1   97.40   63.70   1
  18   5   2    3.90    8.50   1
 -18  -5  -2    1.30    8.40   1
  18  -5  -2    4.20    8.60   1
 -18   5   2   -0.10    8.40   1
 -18   5  -2    0.00    8.60   1
  18  -5   2   -0.00    8.60   1
 -18  -5   2    1.40    8.20   1
  18   5  -2    5.90    8.20   1
  18   5   3   61.50   32.60   1
 -18  -5  -3   44.10   32.50   1
  18  -5  -3   42.60   32.60   1
 -18   5   3   74.30   32.70   1
 -18   5  -3   30.40   32.70   1
  18  -5   3   29.10   32.60   1
 -18  -5   3   18.10   32.40   1
  18   5  -3   36.90   32.40   1
  18   5   4   36.50   28.30   1
 -18  -5  -4   20.40   28.30   1
  18  -5  -4   29.30   28.30   1
 -18   5   4   37.50   28.40   1
 -18   5  -4   29.10   29.10   1
  18  -5   4   35.90   29.00   1
 -18  -5   4   35.80   28.30   1
  18   5  -4   18.00   28.20   1
  18   5   5    9.90   23.60   1
 -18  -5  -5   23.60   23.70   1
  18  -5  -5   33.00   23.70   1
 -18   5   5   24.80   23.60   1
 -18   5  -5    0.00   25.20   1
  18  -5   5   -0.00   24.50   1
 -18  -5   5   25.00   23.60   1
  18   5  -5   15.30   23.60   1
  18   5   6   85.60   43.70   1
 -18  -5  -6  211.60   44.70   1
  18  -5  -6   46.60   43.50   1
 -18   5   6   81.90   43.70   1
 -18   5  -6   58.50   44.30   1
  18  -5   6   26.20   44.10   1
 -18  -5   6   61.10   43.50   1
  18   5  -6   63.00   43.50   1
  18   5   7  328.60  102.90   1
 -18  -5  -7  323.10  102.80   1
  18  -5  -7  266.60  102.40   1
 -18   5   7  280.60  102.50   1
 -18   5  -7  354.20  105.10   1
  18  -5   7  262.50  103.60   1
 -18  -5   7  353.50  103.10   1
  18   5  -7  358.50  103.20   1
  18   5   8   20.70   21.70   1
 -18  -5  -8   16.20   21.80   1
  18  -5  -8    7.20   21.50   1
 -18   5   8   10.30   21.50   1
 -18   5  -8   14.40   22.40   1
  18  -5   8   -0.00   22.60   1
 -18  -5   8   24.90   21.60   1
  18   5  -8   45.10   21.80   1
  18   5   9   30.90   21.80   1
 -18  -5  -9   49.90   21.90   1
  18  -5  -9   11.60   21.00   1
 -18   5   9   31.10   21.20   1
 -18   5  -9   -0.00   21.80   1
  18  -5   9   49.20   22.70   1
 -18  -5   9   -0.00   21.10   1
  18   5  -9   18.60   21.30   1
  18   6   0  117.00   49.80   1
 -18  -6   0   67.90   49.70   1
  18  -6   0   87.40   49.90   1
 -18   6   0   81.10   49.80   1
  18   6   1   12.30   16.10   1
 -18  -6  -1    9.40   16.10   1
  18  -6  -1   12.20   16.30   1
 -18   6   1    4.70   16.10   1
 -18   6  -1   12.00   16.40   1
  18  -6   1   16.50   16.40   1
 -18  -6   1    6.70   16.10   1
  18   6  -1    5.20   16.10   1
  18   6   2    5.90   14.50   1
 -18  -6  -2    2.80   14.60   1
  18  -6  -2   -0.00   14.60   1
 -18   6   2   -0.00   14.60   1
 -18   6  -2    3.30   14.80   1
  18  -6   2    5.00   14.80   1
 -18  -6   2   20.50   14.60   1
  18   6  -2   19.50   14.60   1
  18   6   3    3.10   12.80   1
 -18  -6  -3    3.20   12.90   1
  18  -6  -3    3.40   12.80   1
 -18   6   3   -0.00   12.90   1
 -18   6  -3   15.60   14.10   1
  18  -6   3    8.10   13.60   1
 -18  -6   3   11.40   12.80   1
  18   6  -3    8.60   12.80   1
  18   6   4   15.10   18.90   1
 -18  -6  -4    3.90   18.80   1
  18  -6  -4   28.30   19.10   1
 -18   6   4   10.00   18.90   1
 -18   6  -4   21.40   20.30   1
  18  -6   4   -0.00   19.70   1
 -18  -6   4   21.60   18.90   1
  18   6  -4    8.60   18.90   1
  18   6   5    8.40   13.60   1
 -18  -6  -5   13.50   13.60   1
  18  -6  -5    8.70   13.50   1
 -18   6   5   10.60   13.50   1
 -18   6  -5    5.00   15.30   1
  18  -6   5    5.70   16.10   1
 -18  -6   5   -0.00   13.40   1
  18   6  -5    2.80   13.40   1
  18   6   6    1.60   17.10   1
 -18  -6  -6   30.00   17.20   1
  18  -6  -6   -0.00   17.00   1
 -18   6   6    0.00   17.00   1
 -18   6  -6   16.30   18.70   1
  18  -6   6   19.20   18.40   1
 -18  -6   6   16.00   17.00   1
  18   6  -6   19.50   17.00   1
  18   6   7    5.70   12.50   1
 -18  -6  -7   11.10   12.50   1
  18  -6  -7    3.80   12.40   1
 -18   6   7   -0.00   12.40   1
 -18   6  -7    2.90   14.00   1
  18  -6   7   10.10   14.30   1
 -18  -6   7    6.00   12.30   1
  18   6  -7    6.50   12.40   1
  18   6   8   43.90   37.50   1
 -18  -6  -8   60.70   37.60   1
  18  -6  -8   43.80   37.40   1
 -18   6   8   62.40   37.50   1
 -18   6  -8   61.70   38.30   1
  18  -6   8   46.50   38.20   1
 -18  -6   8   39.30   37.40   1
  18   6  -8   57.40   37.60   1
  18   6   9    4.90    8.50   1
 -18  -6  -9    5.70    9.60   1
  18  -6  -9   -0.00    7.70   1
 -18   6   9   -0.00    7.70   1
 -18   6  -9    2.50    9.90   1
  18  -6   9   10.70   10.60   1
 -18  -6   9   -0.00    7.90   1
  18   6  -9   13.00    9.10   1
  18   7   0   22.40   25.50   1
 -18  -7   0   22.60   25.50   1
  18  -7   0   23.10   25.80   1
 -18   7   0   27.80   25.70   1
  18   7   1   22.20   19.00   1
 -18  -7  -1   25.90   18.90   1
  18  -7  -1    3.40   19.00   1
 -18   7   1    3.60   19.00   1
 -18   7  -1    3.80   19.00   1
  18  -7   1    8.50   19.00   1
 -18  -7   1   26.50   18.90   1
  18   7  -1    5.70   18.80   1
  18   7   2   22.50   17.90   1
 -18  -7  -2    5.80   17.90   1
  18  -7  -2   10.70   18.00   1
 -18   7   2    6.30   18.00   1
 -18   7  -2   -0.00   18.30   1
  18  -7   2    2.70   18.10   1
 -18  -7   2   16.60   17.80   1
  18   7  -2   13.90   17.80   1
  18   7   3   82.50   22.90   1
 -18  -7  -3   -0.00   22.30   1
  18  -7  -3    9.20   22.40   1
 -18   7   3    6.60   22.30   1
 -18   7  -3   28.80   23.30   1
  18  -7   3   10.20   23.10   1
 -18  -7   3   20.40   22.30   1
  18   7  -3   31.10   22.30   1
  18   7   4   12.00   11.70   1
 -18  -7  -4    1.60   11.60   1
  18  -7  -4    3.40   11.70   1
 -18   7   4   -0.00   11.80   1
 -18   7  -4   -0.00   14.80   1
  18  -7   4    4.90   13.50   1
 -18  -7   4    0.80   11.50   1
  18   7  -4   11.10   11.60   1
  18   7   5   25.60   24.40   1
 -18  -7  -5   13.60   24.30   1
  18  -7  -5   19.80   24.30   1
 -18   7   5   25.50   24.40   1
 -18   7  -5   10.70   25.40   1
  18  -7   5   16.50   25.40   1
 -18  -7   5   26.40   24.30   1
  18   7  -5   20.70   24.30   1
  18   7   6   13.30   19.40   1
 -18  -7  -6    8.20   19.30   1
  18  -7  -6   -0.00   19.20   1
 -18   7   6    6.50   19.30   1
 -18   7  -6   17.90   20.70   1
  18  -7   6    6.00   20.40   1
 -18  -7   6   31.40   19.30   1
  18   7  -6   33.70   19.40   1
  18   7   7    6.00   19.20   1
 -18  -7  -7   32.90   19.30   1
  18  -7  -7   37.40   19.20   1
 -18   7   7    9.20   19.20   1
 -18   7  -7   36.90   20.50   1
  18  -7   7   -0.00   20.30   1
 -18  -7   7    6.50   19.10   1
  18   7  -7   -0.00   19.10   1
  18   7   8   26.30   23.30   1
 -18  -7  -8   20.30   23.30   1
  18  -7  -8   19.80   23.20   1
 -18   7   8   18.90   23.20   1
 -18   7  -8   23.10   24.00   1
  18  -7   8   13.30   24.10   1
 -18  -7   8   12.00   23.20   1
  18   7  -8   23.60   23.50   1
  18   7   9   10.40   16.70   1
 -18  -7  -9   20.50   16.90   1
  18  -7  -9   11.40   16.50   1
 -18   7  -9   12.50   17.90   1
  18  -7   9   -0.00   17.70   1
 -18  -7   9    4.30   16.80   1
  18   7  -9    0.00   17.30   1
  18   8   0   38.00   36.90   1
 -18  -8   0   51.00   36.90   1
  18  -8   0  144.70   37.60   1
 -18   8   0   34.20   37.00   1
  18   8   1   11.00   36.30   1
 -18  -8  -1   88.20   36.50   1
  18  -8  -1   54.20   36.50   1
 -18   8   1   87.70   36.70   1
 -18   8  -1   42.80   36.40   1
  18  -8   1   44.70   36.40   1
 -18  -8   1   52.90   36.30   1
  18   8  -1   56.80   36.40   1
  18   8   2   92.70   54.40   1
 -18  -8  -2   67.00   54.30   1
  18  -8  -2  150.90   54.70   1
 -18   8   2  131.90   54.60   1
 -18   8  -2  148.60   55.10   1
  18  -8   2   83.30   54.60   1
 -18  -8   2  102.80   54.40   1
  18   8  -2  107.00   54.40   1
  18   8   3   30.90   34.30   1
 -18  -8  -3   70.60   34.60   1
  18  -8  -3   43.60   34.40   1
 -18   8   3   51.50   34.40   1
 -18   8  -3   43.60   35.40   1
  18  -8   3   44.20   35.00   1
 -18  -8   3   41.50   34.40   1
  18   8  -3   33.80   34.30   1
  18   8   4   38.70   32.10   1
 -18  -8  -4   35.80   32.10   1
  18  -8  -4   35.60   32.10   1
 -18   8   4   34.20   32.10   1
 -18   8  -4   16.30   33.00   1
  18  -8   4   16.10   33.10   1
 -18  -8   4   79.90   32.20   1
  18   8  -4   25.70   32.00   1
  18   8   5   21.60   21.70   1
 -18  -8  -5   15.30   21.60   1
  18  -8  -5   12.70   21.70   1
 -18   8   5   19.80   21.70   1
 -18   8  -5   30.20   23.40   1
  18  -8   5   14.80   22.90   1
 -18  -8   5   15.00   21.60   1
  18   8  -5   16.30   21.70   1
  18   8   6   20.70   27.50   1
 -18  -8  -6   52.30   27.60   1
  18  -8  -6   11.80   27.50   1
 -18   8   6   17.50   27.50   1
 -18   8  -6   15.00   28.40   1
  18  -8   6    8.50   28.30   1
 -18  -8   6   35.10   27.50   1
  18   8  -6  139.70   28.70   1
  18   8   7   18.40   25.50   1
 -18  -8  -7   18.50   25.50   1
  18  -8  -7   10.30   25.30   1
 -18   8   7   60.40   25.70   1
 -18   8  -7   23.00   26.20   1
  18  -8   7   19.90   26.30   1
 -18  -8   7   23.60   25.40   1
  18   8  -7   40.00   25.70   1
  18   8   8   23.80   26.90   1
 -18  -8  -8   29.60   26.90   1
  18  -8  -8   40.50   26.90   1
 -18   8   8   26.90   26.80   1
 -18   8  -8   21.60   27.60   1
  18  -8   8   76.40   28.60   1
 -18  -8   8    6.60   26.90   1
  18   8  -8   12.40   27.20   1
  18   9   0   -0.00    4.50   1
 -18  -9   0   -0.00    4.60   1
  18  -9   0   -0.10    5.30   1
 -18   9   0    3.50    5.30   1
  18   9   1   12.50   23.30   1
 -18  -9  -1   63.70   23.50   1
  18  -9  -1   55.80   23.70   1
 -18   9   1   31.80   23.60   1
 -18   9  -1   -0.00   23.60   1
  18  -9   1    6.00   23.50   1
 -18  -9   1    5.10   23.20   1
  18   9  -1   20.40   23.30   1
  18   9   2    3.20   10.20   1
 -18  -9  -2    6.50   10.30   1
  18  -9  -2    5.50   10.70   1
 -18   9   2    2.00   10.60   1
 -18   9  -2    0.00   11.80   1
  18  -9   2    5.30   11.70   1
 -18  -9   2    0.00   10.20   1
  18   9  -2    5.10   10.10   1
  18   9   3    6.70   14.20   1
 -18  -9  -3    3.00   14.10   1
  18  -9  -3    5.70   14.30   1
 -18   9   3    8.60   14.30   1
 -18   9  -3   25.00   17.20   1
  18  -9   3    6.00   15.60   1
 -18  -9   3    6.20   14.10   1
  18   9  -3   11.60   14.10   1
  18   9   4   15.20   20.10   1
 -18  -9  -4   17.00   20.10   1
  18  -9  -4   27.30   20.20   1
 -18   9   4    7.30   20.00   1
 -18   9  -4   -0.00   21.20   1
  18  -9   4   -0.00   21.20   1
 -18  -9   4   11.50   20.00   1
  18   9  -4   19.00   20.00   1
  18   9   5    6.10   17.00   1
 -18  -9  -5    9.80   17.00   1
  18  -9  -5    9.90   17.00   1
 -18   9   5    7.30   17.10   1
 -18   9  -5   10.10   18.60   1
  18  -9   5   12.00   18.40   1
 -18  -9   5   11.30   16.90   1
  18   9  -5   17.30   17.10   1
  18   9   6    8.00    9.70   1
 -18  -9  -6   -0.00    9.70   1
  18  -9  -6    4.10    9.80   1
 -18   9   6    3.40    9.90   1
 -18   9  -6    8.20   11.80   1
  18  -9   6    5.90   12.10   1
 -18  -9   6    0.10    9.60   1
  18   9  -6    3.10    9.90   1
  18   9   7   46.70   21.60   1
 -18  -9  -7   26.60   21.50   1
  18  -9  -7    0.40   21.30   1
 -18   9   7   34.70   21.50   1
 -18   9  -7   -0.00   22.20   1
  18  -9   7   -0.00   22.20   1
 -18  -9   7    9.20   21.40   1
  18   9  -7   10.50   21.70   1
  18   9   8   -0.00    6.80   1
 -18  -9  -8   -0.00    6.60   1
  18  -9  -8    0.70    6.50   1
 -18   9  -8    6.90    9.40   1
  18  -9   8    8.80    9.20   1
 -18  -9   8    2.60    7.40   1
  18   9  -8   -0.00    8.60   1
  18  10   0   37.10   36.50   1
 -18 -10   0   47.90   36.50   1
  18 -10   0   77.40   36.80   1
 -18  10   0   45.10   36.70   1
  18  10   1    4.70    9.20   1
 -18 -10  -1    3.10    9.30   1
  18 -10  -1   -0.00    9.70   1
 -18  10   1    1.50    9.70   1
 -18  10  -1    6.30   11.00   1
  18 -10   1    6.50   10.40   1
 -18 -10   1   -0.00    9.30   1
  18  10  -1    4.40    9.30   1
  18 -10  -2   24.90   25.30   1
 -18  10   2   42.60   25.40   1
 -18  10  -2  115.80   27.30   1
  18 -10   2   45.60   25.90   1
 -18 -10   2   23.60   25.00   1
  18  10  -2    7.70   25.00   1
  18  10   3    8.40   25.60   1
 -18 -10  -3   31.90   25.70   1
  18 -10  -3   41.30   25.80   1
 -18  10   3   36.10   25.80   1
 -18  10  -3   40.80   27.10   1
  18 -10   3   27.90   27.20   1
 -18 -10   3   19.20   25.60   1
  18  10  -3   20.20   25.60   1
  18  10   4   25.80   30.40   1
 -18 -10  -4   44.00   30.50   1
  18 -10  -4   37.60   30.50   1
 -18  10   4   39.10   30.50   1
  18 -10   4   83.70   32.20   1
 -18 -10   4   33.30   30.40   1
  18  10  -4   23.00   30.40   1
  18  10   5   35.90   18.80   1
 -18 -10  -5   11.60   18.70   1
  18 -10  -5   17.10   18.70   1
 -18  10   5    6.10   18.60   1
 -18  10  -5   17.10   20.10   1
  18 -10   5   21.40   20.00   1
 -18 -10   5    5.10   18.60   1
  18  10  -5    8.20   18.70   1
  18  10   6   62.90   42.40   1
 -18 -10  -6   60.30   42.30   1
  18 -10  -6  104.30   42.70   1
 -18  10   6   86.00   42.60   1
 -18  10  -6   33.70   42.70   1
  18 -10   6   20.80   42.80   1
 -18 -10   6   49.80   42.30   1
  18  10  -6  108.90   43.00   1
  18  10   7    6.70   10.40   1
 -18 -10  -7    7.00   10.50   1
  18 -10  -7   -0.00   10.40   1
 -18  10   7    2.60   10.40   1
 -18  10  -7    6.40   12.10   1
  18 -10   7    0.60   12.10   1
 -18 -10   7    3.60   10.70   1
  18  10  -7   -0.00   11.50   1
  18  11   0    4.20   11.80   1
 -18 -11   0    4.70   11.70   1
  18 -11   0   10.50   12.30   1
 -18  11   0   -0.00   12.60   1
  18  11   1   62.10   23.60   1
 -18 -11  -1   20.10   23.30   1
  18 -11  -1   22.90   23.50   1
 -18  11   1    7.50   23.40   1
 -18  11  -1   40.60   24.20   1
  18 -11   1   30.50   24.10   1
 -18 -11   1   18.70   23.30   1
  18  11  -1    6.50   23.30   1
  18  11   2    7.90   18.50   1
 -18 -11  -2   15.20   18.50   1
  18 -11  -2    0.80   18.70   1
 -18  11   2   38.30   18.90   1
 -18  11  -2   28.40   20.90   1
  18 -11   2    8.70   19.80   1
 -18 -11   2   12.20   18.50   1
  18  11  -2   11.40   18.50   1
  18  11   3    5.20   20.20   1
 -18 -11  -3    5.30   20.30   1
  18 -11  -3   32.30   20.50   1
 -18  11   3   10.70   20.50   1
 -18  11  -3   21.90   21.60   1
  18 -11   3   28.70   22.00   1
 -18 -11   3   26.60   20.30   1
  18  11  -3   17.40   20.30   1
  18  11   4   11.00   14.00   1
 -18 -11  -4    6.40   14.00   1
  18 -11  -4    1.90   14.20   1
 -18  11   4    8.20   14.20   1
 -18  11  -4   17.60   16.00   1
  18 -11   4   17.60   15.90   1
 -18 -11   4    4.10   14.00   1
  18  11  -4    6.50   14.10   1
  18  11   5   22.70   22.10   1
 -18 -11  -5    3.30   22.10   1
  18 -11  -5   13.20   22.10   1
 -18  11   5   -0.00   22.10   1
 -18  11  -5   39.40   23.50   1
  18 -11   5   19.10   23.30   1
 -18 -11   5   39.10   22.20   1
  18  11  -5   52.90   22.50   1
  18  11   6    5.80   11.90   1
 -18 -11  -6    5.70   11.90   1
  18 -11  -6   -0.00   12.00   1
 -18  11   6    8.30   12.00   1
 -18  11  -6   18.00   13.50   1
  18 -11   6    5.70   13.60   1
 -18 -11   6    1.50   12.00   1
  18  11  -6    3.70   12.60   1
  18  11   7    3.00   10.90   1
 -18 -11  -7    7.80   11.00   1
  18 -11  -7   -0.00   11.00   1
 -18  11  -7    8.40   13.00   1
  18 -11   7   12.40   12.70   1
 -18 -11   7    6.60   11.60   1
  18  11  -7   -0.00   11.90   1
  18  12   0   70.80   43.20   1
 -18 -12   0   56.40   43.20   1
  18 -12   0   72.90   43.50   1
 -18  12   0   78.40   43.90   1
  18  12   1   45.00   29.80   1
 -18 -12  -1   38.90   29.70   1
  18 -12  -1   32.30   29.80   1
 -18  12   1   31.10   29.90   1
 -18  12  -1   33.20   30.80   1
  18 -12   1   22.90   30.30   1
 -18 -12   1   26.80   29.70   1
  18  12  -1   23.70   29.70   1
  18  12   2   19.80   22.50   1
 -18 -12  -2   22.00   22.50   1
  18 -12  -2   17.00   22.70   1
 -18  12   2   11.20   22.70   1
 -18  12  -2   30.00   24.30   1
  18 -12   2   34.10   24.40   1
 -18 -12   2   18.40   22.50   1
  18  12  -2   14.80   22.50   1
  18  12   3    5.70   14.70   1
 -18 -12  -3    8.20   14.70   1
  18 -12  -3    7.80   15.10   1
 -18  12   3    4.50   15.00   1
 -18  12  -3   31.20   17.10   1
  18 -12   3    4.90   16.20   1
 -18 -12   3    1.10   14.70   1
  18  12  -3   21.30   14.80   1
  18  12   4   10.30   13.60   1
 -18 -12  -4    5.10   13.60   1
  18 -12  -4    6.90   13.90   1
 -18  12   4    6.60   13.80   1
 -18  12  -4   13.30   15.40   1
  18 -12   4   16.40   15.60   1
 -18 -12   4    4.00   13.50   1
  18  12  -4    4.50   13.70   1
  18  12   5   10.40   12.10   1
 -18 -12  -5    4.20   12.00   1
  18 -12  -5    6.40   12.20   1
 -18  12   5   -0.00   12.20   1
 -18  12  -5   -0.00   13.70   1
  18 -12   5   20.70   14.20   1
 -18 -12   5   -0.00   12.10   1
  18  12  -5    9.60   12.70   1
  18  12   6   76.60   32.60   1
 -18 -12  -6   49.90   32.40   1
  18 -12  -6   29.60   32.30   1
 -18  12  -6   12.60   32.80   1
  18 -12   6    9.20   32.80   1
 -18 -12   6   21.00   32.50   1
  18  12  -6   72.90   33.20   1
  18  13   0   12.30   21.60   1
 -18 -13   0   26.40   21.70   1
  18 -13   0   -0.00   22.30   1
 -18  13   0   24.60   22.70   1
  18  13   1   45.40   40.50   1
 -18 -13  -1   49.80   40.40   1
  18 -13  -1   77.90   40.80   1
 -18  13   1   42.90   40.70   1
 -18  13  -1   53.00   42.00   1
  18 -13   1   44.60   41.00   1
 -18 -13   1  102.90   40.70   1
  18  13  -1   64.80   40.50   1
  18  13   2   37.40   32.80   1
 -18 -13  -2   64.10   32.90   1
  18 -13  -2   25.10   32.90   1
 -18  13   2   21.70   32.90   1
 -18  13  -2   28.50   33.70   1
  18 -13   2   51.40   34.20   1
 -18 -13   2   44.80   32.80   1
  18  13  -2   41.40   32.80   1
  18  13   3  101.00   50.70   1
 -18 -13  -3  103.70   50.70   1
  18 -13  -3   78.50   50.70   1
 -18  13   3   75.60   50.70   1
 -18  13  -3   95.40   51.60   1
  18 -13   3  146.60   52.30   1
 -18 -13   3   59.10   50.50   1
  18  13  -3  197.70   51.90   1
  18  13   4   53.80   29.30   1
 -18 -13  -4   19.90   29.20   1
  18 -13  -4   72.80   29.60   1
 -18  13   4   15.00   29.20   1
 -18  13  -4    7.60   30.00   1
  18 -13   4   12.50   30.10   1
 -18 -13   4   28.30   29.20   1
  18  13  -4   40.00   29.50   1
  18  13   5   -0.00   16.60   1
 -18 -13  -5   12.30   16.60   1
  18 -13  -5    6.60   16.80   1
 -18  13  -5   22.20   17.90   1
  18 -13   5   21.40   18.00   1
 -18 -13   5   14.50   16.80   1
  18  13  -5   19.10   17.50   1
  18  14   0    6.90   13.70   1
 -18 -14   0   -0.00   13.70   1
  18 -14   0   19.60   15.10   1
 -18  14   0   76.00   16.80   1
  18  14   1   -0.00    7.90   1
 -18 -14  -1    3.90    7.90   1
  18 -14  -1   -0.00    9.00   1
 -18  14   1    9.80    9.90   1
 -18  14  -1   -0.00   11.20   1
  18 -14   1   11.80   11.70   1
 -18 -14   1   -0.00    7.90   1
  18  14  -1    3.00    8.00   1
  18  14   2   59.60   45.70   1
 -18 -14  -2   82.50   45.80   1
  18 -14  -2   95.00   46.00   1
 -18  14   2   78.10   45.90   1
 -18  14  -2   44.70   46.50   1
  18 -14   2   46.70   46.40   1
 -18 -14   2   70.40   45.70   1
  18  14  -2   93.10   45.90   1
  18  14   3    1.20   10.70   1
 -18 -14  -3    8.20   10.70   1
  18 -14  -3    5.20   11.20   1
 -18  14  -3   23.80   13.50   1
  18 -14   3   -0.10   12.90   1
 -18 -14   3   -0.00   10.70   1
  18  14  -3    4.60   11.00   1
  18  14   4    5.40   14.60   1
 -18 -14  -4    1.70   14.60   1
  18 -14  -4   15.60   15.00   1
 -18  14  -4   -0.00   16.10   1
  18 -14   4   33.80   16.80   1
 -18 -14   4   10.50   14.80   1
  18  14  -4   15.40   15.30   1
  18  15   0   38.90   29.90   1
 -18 -15   0   28.90   29.80   1
  18 -15   0   15.70   30.50   1
 -18  15   0   43.60   31.80   1
  18  15   1   74.10   39.00   1
 -18 -15  -1   39.90   38.90   1
  18 -15  -1  107.10   40.00   1
 -18  15  -1   55.80   39.90   1
  18 -15   1   84.20   40.30   1
 -18 -15   1   34.10   38.80   1
  18  15  -1  242.90   41.30   1
  18  15   2    2.50   14.10   1
 -18 -15  -2    6.20   14.10   1
  18 -15  -2   -0.00   14.40   1
 -18  15  -2    3.60   16.10   1
  18 -15   2   -0.00   15.80   1
 -18 -15   2   16.10   14.20   1
  18  15  -2   14.20   14.30   1
  19   0   0   -0.10    1.40   1
 -19   0   0   -1.50    1.40   1
  19   0   1    4.80   19.80   1
 -19   0  -1    5.50   19.80   1
  19   0  -1   22.70   19.80   1
 -19   0   1   24.60   19.80   1
  19   0   2   27.40   31.80   1
 -19   0  -2   59.60   31.90   1
  19   0  -2   29.60   31.80   1
 -19   0   2   34.50   31.80   1
  19   0   3   12.60   20.60   1
 -19   0  -3   20.60   20.50   1
  19   0  -3   16.00   20.40   1
 -19   0   3   11.10   20.40   1
  19   0   4  104.60   58.70   1
 -19   0  -4  112.60   58.70   1
  19   0  -4  108.00   58.60   1
 -19   0   4  145.50   58.80   1
  19   0   5   29.40   19.10   1
 -19   0  -5   41.60   19.10   1
  19   0  -5    6.80   18.80   1
 -19   0   5   -0.00   18.80   1
  19   0   6  201.10   82.90   1
 -19   0  -6  414.90   84.70   1
  19   0  -6  229.10   83.00   1
 -19   0   6  177.50   82.70   1
  19   0   7   49.80   38.00   1
 -19   0  -7   15.70   37.70   1
  19   0  -7   74.40   37.50   1
 -19   0   7   48.70   37.40   1
  19   0   8   19.00   29.60   1
 -19   0  -8   37.50   30.60   1
  19   0  -8   33.00   28.80   1
 -19   0   8   28.00   28.80   1
  19   0   9    4.00   18.50   1
 -19   0  -9   20.70   18.60   1
  19   0  -9   11.50   17.00   1
 -19   0   9    9.00   17.00   1
  19   1   0    6.70   11.50   1
 -19  -1   0    2.60   11.50   1
  19  -1   0   -0.10   11.60   1
 -19   1   0    7.40   11.50   1
  19   1   1   23.30   21.10   1
 -19  -1  -1   19.00   21.10   1
  19  -1  -1   21.80   21.20   1
 -19   1   1   25.80   21.20   1
 -19   1  -1   -0.00   21.10   1
  19  -1   1   12.00   21.10   1
 -19  -1   1   14.60   21.10   1
  19   1  -1   15.00   21.10   1
  19   1   2    0.00    8.60   1
 -19  -1  -2    0.00    8.60   1
  19  -1  -2   -0.00    8.60   1
 -19   1   2   -0.00    8.60   1
 -19   1  -2   17.20    8.90   1
  19  -1   2    3.90    8.90   1
 -19  -1   2    3.60    8.60   1
  19   1  -2   -0.00    8.60   1
  19   1   3   13.00   23.90   1
 -19  -1  -3    8.90   24.00   1
  19  -1  -3   21.10   23.90   1
 -19   1   3   17.50   23.90   1
 -19   1  -3   17.50   24.00   1
  19  -1   3   32.70   24.10   1
 -19  -1   3   23.60   23.90   1
  19   1  -3   32.40   23.90   1
  19   1   4    1.00   15.00   1
 -19  -1  -4    1.80   14.90   1
  19  -1  -4    1.20   14.70   1
 -19   1   4    0.90   14.70   1
 -19   1  -4    8.70   14.90   1
  19  -1   4    4.60   14.90   1
 -19  -1   4   15.10   14.80   1
  19   1  -4   28.30   14.80   1
  19   1   5   51.40   15.90   1
 -19  -1  -5   24.30   15.70   1
  19  -1  -5   12.30   15.40   1
 -19   1   5    0.00   15.40   1
 -19   1  -5    6.10   15.80   1
  19  -1   5    2.50   15.60   1
 -19  -1   5    4.50   15.40   1
  19   1  -5   -0.00   15.40   1
  19   1   6    4.20   10.00   1
 -19  -1  -6    1.50   10.20   1
  19  -1  -6    3.10    9.60   1
 -19   1   6   -0.00    9.50   1
 -19   1  -6   36.00   11.80   1
  19  -1   6    5.20   10.70   1
 -19  -1   6    1.30    9.60   1
  19   1  -6    3.10    9.60   1
  19   1   7   -0.00    8.80   1
 -19  -1  -7    1.10    9.20   1
  19  -1  -7    5.80    7.30   1
 -19   1   7   -0.00    7.30   1
 -19   1  -7   12.20   11.10   1
  19  -1   7    3.00    8.90   1
 -19  -1   7   -0.00    7.20   1
  19   1  -7    0.40    7.20   1
  19   1   8    4.90   14.60   1
 -19  -1  -8   -0.00   15.70   1
  19  -1  -8   11.60   14.00   1
 -19   1   8    8.80   14.10   1
 -19   1  -8    3.80   15.50   1
  19  -1   8   21.40   17.00   1
 -19  -1   8    4.10   14.00   1
  19   1  -8    5.20   14.00   1
  19   1   9   -0.00   17.10   1
 -19  -1  -9    8.80   16.50   1
  19  -1  -9    7.40   14.50   1
 -19   1   9    9.80   14.50   1
 -19   1  -9   21.20   16.90   1
  19  -1   9   11.50   16.70   1
 -19  -1   9    5.30   14.60   1
  19   1  -9    5.90   14.50   1
  19   2   0  161.90   46.50   1
 -19  -2   0   59.00   45.90   1
  19  -2   0   76.60   46.00   1
 -19   2   0   59.20   45.90   1
  19   2   1   13.10   20.10   1
 -19  -2  -1   -0.00   20.00   1
  19  -2  -1    3.60   20.00   1
 -19   2   1    5.70   20.00   1
 -19   2  -1   -0.00   19.90   1
  19  -2   1    3.40   20.10   1
 -19  -2   1  142.80   21.20   1
  19   2  -1   92.00   20.50   1
  19   2   2   11.00   22.20   1
 -19  -2  -2   14.60   22.20   1
  19  -2  -2   22.10   22.20   1
 -19   2   2   17.20   22.20   1
 -19   2  -2   20.10   22.40   1
  19  -2   2   67.50   22.70   1
 -19  -2   2    9.40   22.20   1
  19   2  -2   13.20   22.20   1
  19   2   3   -0.00   16.80   1
 -19  -2  -3   21.00   16.80   1
  19  -2  -3   18.00   16.80   1
 -19   2   3   21.30   16.80   1
 -19   2  -3   10.50   16.90   1
  19  -2   3    4.30   16.90   1
 -19  -2   3    6.10   16.70   1
  19   2  -3    1.80   16.70   1
  19   2   4   12.80   23.50   1
 -19  -2  -4    6.00   23.40   1
  19  -2  -4   34.20   23.40   1
 -19   2   4   43.80   23.40   1
 -19   2  -4   24.10   23.50   1
  19  -2   4   29.00   23.40   1
 -19  -2   4   11.10   23.30   1
  19   2  -4   13.70   23.20   1
  19   2   5    9.50   15.40   1
 -19  -2  -5   18.60   15.50   1
  19  -2  -5    7.20   15.30   1
 -19   2   5   -0.00   15.30   1
 -19   2  -5    8.30   16.00   1
  19  -2   5    8.60   15.60   1
 -19  -2   5    9.90   15.20   1
  19   2  -5    9.00   15.20   1
  19   2   6   17.80   26.10   1
 -19  -2  -6   39.40   26.20   1
  19  -2  -6    3.00   25.90   1
 -19   2   6   36.10   26.00   1
 -19   2  -6    8.80   26.50   1
  19  -2   6   11.70   26.60   1
 -19  -2   6   45.00   26.10   1
  19   2  -6   35.20   26.00   1
  19   2   7    9.80   15.70   1
 -19  -2  -7   10.90   16.10   1
  19  -2  -7    4.70   15.20   1
 -19   2   7   11.70   15.30   1
 -19   2  -7   23.20   17.90   1
  19  -2   7    8.40   16.80   1
 -19  -2   7   13.60   15.30   1
  19   2  -7    1.40   15.30   1
  19   2   8  103.90   17.10   1
 -19  -2  -8    4.70   15.30   1
  19  -2  -8    6.00   14.60   1
 -19   2   8    7.00   14.60   1
 -19   2  -8    0.70   16.00   1
  19  -2   8    2.40   16.30   1
 -19  -2   8    5.60   14.60   1
  19   2  -8    5.40   14.60   1
  19   2   9   -0.00   17.30   1
 -19  -2  -9   27.50   18.20   1
  19  -2  -9    0.00   15.80   1
 -19   2   9   28.60   15.90   1
 -19   2  -9    4.60   17.30   1
  19  -2   9    5.50   17.60   1
 -19  -2   9    4.70   15.80   1
  19   2  -9   10.60   15.90   1
  19   3   0   -0.30    7.50   1
 -19  -3   0    7.30    7.60   1
  19  -3   0   -0.20    7.70   1
 -19   3   0   -0.00    7.70   1
  19   3   1   29.00   33.20   1
 -19  -3  -1   30.00   33.20   1
  19  -3  -1   28.30   33.20   1
 -19   3   1   24.30   33.20   1
 -19   3  -1   93.50   33.50   1
  19  -3   1   95.20   33.60   1
 -19  -3   1   62.50   33.30   1
  19   3  -1   29.00   33.20   1
  19   3   2   -0.00   16.40   1
 -19  -3  -2   28.60   16.50   1
  19  -3  -2   -0.00   16.50   1
 -19   3   2   -0.00   16.40   1
 -19   3  -2   23.10   16.60   1
  19  -3   2   20.40   16.60   1
 -19  -3   2    9.00   16.40   1
  19   3  -2    5.30   16.40   1
  19   3   3   13.90   28.20   1
 -19  -3  -3   97.40   28.50   1
  19  -3  -3   12.30   28.10   1
 -19   3   3   34.30   28.20   1
 -19   3  -3   46.60   28.30   1
  19  -3   3   55.50   28.40   1
 -19  -3   3   13.10   28.10   1
  19   3  -3   27.10   28.10   1
  19   3   4   26.30   19.30   1
 -19  -3  -4    8.50   19.20   1
  19  -3  -4   26.10   19.30   1
 -19   3   4   11.50   19.20   1
 -19   3  -4   -0.00   19.40   1
  19  -3   4    4.90   19.30   1
 -19  -3   4   13.30   19.10   1
  19   3  -4   14.00   19.20   1
  19   3   5   35.60   32.40   1
 -19  -3  -5   27.40   32.40   1
  19  -3  -5   27.50   32.30   1
 -19   3   5   28.60   32.30   1
 -19   3  -5   28.10   32.90   1
  19  -3   5   21.40   32.60   1
 -19  -3   5   59.60   32.30   1
  19   3  -5   66.00   32.40   1
  19   3   6   19.80   21.00   1
 -19  -3  -6   31.80   21.00   1
  19  -3  -6   14.70   20.90   1
 -19   3   6   18.80   20.90   1
 -19   3  -6   33.30   22.30   1
  19  -3   6    8.30   21.60   1
 -19  -3   6    7.70   20.80   1
  19   3  -6   11.50   20.80   1
  19   3   7   21.10   29.70   1
 -19  -3  -7   37.70   29.80   1
  19  -3  -7   20.10   29.60   1
 -19   3   7   21.80   29.50   1
 -19   3  -7    3.90   30.40   1
  19  -3   7   45.50   31.10   1
 -19  -3   7   63.20   29.70   1
  19   3  -7   52.20   29.70   1
  19   3   8   16.40   17.10   1
 -19  -3  -8   21.70   17.50   1
  19  -3  -8    6.10   16.60   1
 -19   3   8   21.80   16.60   1
 -19   3  -8   13.90   18.20   1
  19  -3   8   14.50   18.50   1
 -19  -3   8    8.40   16.60   1
  19   3  -8   -0.00   16.50   1
  19   3   9   -0.00   24.70   1
 -19  -3  -9   13.20   25.50   1
  19  -3  -9   36.20   24.30   1
 -19   3   9   23.20   24.20   1
 -19   3  -9    3.70   25.10   1
  19  -3   9    1.00   25.20   1
 -19  -3   9   18.30   24.20   1
  19   3  -9   26.20   24.30   1
  19   4   0    0.60    7.40   1
 -19  -4   0    3.70    7.30   1
  19  -4   0   -0.00    7.60   1
 -19   4   0    1.40    7.40   1
  19   4   1   -0.00   11.20   1
 -19  -4  -1    7.20   11.30   1
  19  -4  -1    7.30   11.30   1
 -19   4   1    9.80   11.30   1
 -19   4  -1    9.00   11.50   1
  19  -4   1    5.20   11.50   1
 -19  -4   1   -0.00   11.20   1
  19   4  -1   -0.00   11.20   1
  19   4   2    3.40   14.20   1
 -19  -4  -2   17.80   14.30   1
  19  -4  -2   19.90   14.40   1
 -19   4   2    7.50   14.30   1
 -19   4  -2    2.70   14.40   1
  19  -4   2    2.30   14.40   1
 -19  -4   2    7.70   14.20   1
  19   4  -2   -0.00   14.20   1
  19   4   3   -0.00   16.60   1
 -19  -4  -3    5.00   16.60   1
  19  -4  -3   10.60   16.70   1
 -19   4   3   14.30   16.70   1
 -19   4  -3   10.20   16.80   1
  19  -4   3   17.50   16.80   1
 -19  -4   3    9.30   16.60   1
  19   4  -3   15.90   16.60   1
  19   4   4   44.90   15.10   1
 -19  -4  -4    8.50   14.80   1
  19  -4  -4    7.80   14.70   1
 -19   4   4    4.10   14.70   1
 -19   4  -4   -0.00   15.30   1
  19  -4   4   17.00   15.10   1
 -19  -4   4   -0.00   14.60   1
  19   4  -4    2.50   14.60   1
  19   4   5   -0.00   14.70   1
 -19  -4  -5    6.40   14.70   1
  19  -4  -5    6.20   14.50   1
 -19   4   5    8.90   14.50   1
 -19   4  -5   17.60   15.80   1
  19  -4   5    8.10   15.60   1
 -19  -4   5    8.90   14.40   1
  19   4  -5    8.40   14.50   1
  19   4   6    5.70   17.30   1
 -19  -4  -6   47.80   17.50   1
  19  -4  -6    1.00   17.10   1
 -19   4   6    8.90   17.10   1
 -19   4  -6   32.00   19.70   1
  19  -4   6   19.40   18.70   1
 -19  -4   6    9.90   17.10   1
  19   4  -6    7.40   17.10   1
  19   4   7    9.50   11.80   1
 -19  -4  -7    4.60   11.80   1
  19  -4  -7    5.40   11.50   1
 -19   4   7   11.00   11.70   1
 -19   4  -7   -0.00   13.80   1
  19  -4   7   -0.00   13.80   1
 -19  -4   7    1.10   11.50   1
  19   4  -7    1.00   11.60   1
  19   4   8    6.00   12.50   1
 -19  -4  -8    7.30   12.80   1
  19  -4  -8    9.80   12.10   1
 -19   4   8    9.00   12.20   1
 -19   4  -8   -0.00   14.50   1
  19  -4   8    0.00   13.90   1
 -19  -4   8    2.40   12.10   1
  19   4  -8   -0.00   12.20   1
  19   4   9   10.90   11.80   1
 -19  -4  -9   13.00   11.60   1
  19  -4  -9    1.90   10.30   1
 -19   4   9    5.40   10.30   1
 -19   4  -9   -0.00   12.20   1
  19  -4   9   10.40   13.30   1
 -19  -4   9    1.00   10.30   1
  19   4  -9    3.10   10.40   1
  19   5   0   16.60   17.80   1
 -19  -5   0    4.20   17.80   1
  19  -5   0   15.10   18.00   1
 -19   5   0   10.60   18.00   1
  19   5   1   39.70   33.10   1
 -19  -5  -1    7.00   33.00   1
  19  -5  -1   32.70   33.10   1
 -19   5   1   20.90   33.10   1
 -19   5  -1  140.90   33.80   1
  19  -5   1  170.40   34.10   1
 -19  -5   1   46.50   33.10   1
  19   5  -1   77.00   33.20   1
  19   5   2   19.60   31.50   1
 -19  -5  -2   30.60   31.60   1
  19  -5  -2   48.00   31.60   1
 -19   5   2   26.50   31.50   1
 -19   5  -2   45.40   31.60   1
  19  -5   2   41.00   31.60   1
 -19  -5   2   35.50   31.50   1
  19   5  -2   48.40   31.50   1
  19   5   3   42.50   43.30   1
 -19  -5  -3   57.00   43.40   1
  19  -5  -3   54.50   43.40   1
 -19   5   3   51.90   43.40   1
 -19   5  -3  107.50   43.70   1
  19  -5   3   84.80   43.60   1
 -19  -5   3   81.80   43.40   1
  19   5  -3   92.50   43.50   1
  19   5   4    8.00   13.40   1
 -19  -5  -4    9.10   13.40   1
  19  -5  -4    9.60   13.40   1
 -19   5   4    8.30   13.50   1
 -19  -5   4   -0.00   13.30   1
  19   5  -4    5.60   13.30   1
  19   5   5   33.10   32.00   1
 -19  -5  -5   38.50   32.00   1
  19  -5  -5   42.20   32.00   1
 -19   5   5   60.00   32.10   1
 -19   5  -5   45.90   33.10   1
  19  -5   5    0.00   32.20   1
 -19  -5   5   36.60   31.90   1
  19   5  -5   37.00   31.90   1
  19   5   6  107.80   34.40   1
 -19  -5  -6   68.70   34.10   1
  19  -5  -6   29.70   33.80   1
 -19   5   6   49.30   33.90   1
 -19   5  -6   29.70   34.70   1
  19  -5   6   62.40   35.30   1
 -19  -5   6   27.40   33.70   1
  19   5  -6   33.60   33.80   1
  19   5   7   27.60   31.70   1
 -19  -5  -7   39.90   31.70   1
  19  -5  -7   54.10   31.70   1
 -19   5   7   66.70   31.80   1
 -19   5  -7   -0.00   32.40   1
  19  -5   7   40.80   32.60   1
 -19  -5   7   23.60   31.60   1
  19   5  -7   33.20   31.60   1
  19   5   8   10.00   25.40   1
 -19  -5  -8    7.80   25.50   1
  19  -5  -8   14.30   25.30   1
 -19   5   8   26.00   25.30   1
 -19   5  -8    7.80   26.20   1
  19  -5   8   17.20   26.40   1
 -19  -5   8   64.30   25.60   1
  19   5  -8   54.40   25.60   1
  19   6   0   -0.00   10.40   1
 -19  -6   0    4.00   10.30   1
  19  -6   0    8.20   10.80   1
 -19   6   0    4.30   10.60   1
  19   6   1   24.90   16.90   1
 -19  -6  -1   20.10   16.90   1
  19  -6  -1    4.60   17.00   1
 -19   6   1    7.00   16.90   1
 -19   6  -1    3.20   17.00   1
  19  -6   1    5.70   17.00   1
 -19  -6   1    7.10   16.90   1
  19   6  -1    7.00   16.80   1
  19   6   2   12.70   16.40   1
 -19  -6  -2    0.00   16.40   1
  19  -6  -2   13.50   16.50   1
 -19   6   2   11.80   16.50   1
 -19   6  -2   16.80   16.70   1
  19  -6   2   15.10   16.60   1
 -19  -6   2    2.40   16.30   1
  19   6  -2   15.20   16.40   1
  19   6   3    5.60   10.60   1
 -19  -6  -3    3.70   10.60   1
  19  -6  -3    1.80   10.70   1
 -19   6   3   -0.00   10.80   1
 -19   6  -3   -0.00   11.60   1
  19  -6   3   -0.00   11.20   1
 -19  -6   3    9.70   10.60   1
  19   6  -3    3.20   10.60   1
  19   6   4    4.40   13.70   1
 -19  -6  -4    9.50   13.70   1
  19  -6  -4    7.10   13.70   1
 -19   6   4    5.50   13.70   1
 -19   6  -4   17.00   15.20   1
  19  -6   4   23.70   15.00   1
 -19  -6   4    7.60   13.60   1
  19   6  -4   -0.00   13.70   1
  19   6   5    1.20    8.00   1
 -19  -6  -5   -0.00    8.10   1
  19  -6  -5   -0.00    8.00   1
 -19   6   5    0.50    8.00   1
 -19   6  -5    0.00   12.30   1
  19  -6   5    9.40   10.80   1
 -19  -6   5    0.80    7.90   1
  19   6  -5    8.00    7.90   1
  19   6   6    7.20   16.00   1
 -19  -6  -6    3.20   16.00   1
  19  -6  -6   11.50   16.00   1
 -19   6   6   23.10   16.00   1
 -19   6  -6    8.00   17.50   1
  19  -6   6   13.70   17.60   1
 -19  -6   6    3.80   15.90   1
  19   6  -6    8.30   15.90   1
  19   6   7    0.20   16.80   1
 -19  -6  -7   12.90   16.80   1
  19  -6  -7   13.90   16.70   1
 -19   6   7   11.20   16.60   1
 -19   6  -7   20.40   18.40   1
  19  -6   7   -0.00   18.20   1
 -19  -6   7   12.10   16.60   1
  19   6  -7    7.40   16.60   1
  19   6   8   59.90   17.30   1
 -19  -6  -8   24.60   16.90   1
  19  -6  -8   -0.00   16.60   1
 -19   6   8   -0.00   16.60   1
 -19   6  -8   -0.00   18.20   1
  19  -6   8   17.70   18.30   1
 -19  -6   8    4.80   16.60   1
  19   6  -8   15.10   16.80   1
  19   7   0    6.60   23.10   1
 -19  -7   0   33.00   23.20   1
  19  -7   0   45.60   23.40   1
 -19   7   0   11.90   23.20   1
  19   7   1   14.00   19.20   1
 -19  -7  -1    5.80   19.20   1
  19  -7  -1   35.40   19.50   1
 -19   7   1   31.40   19.50   1
 -19   7  -1    4.10   19.30   1
  19  -7   1   13.70   19.40   1
 -19  -7   1   14.50   19.20   1
  19   7  -1    6.30   19.20   1
  19   7   2   18.30   22.40   1
 -19  -7  -2   17.20   22.40   1
  19  -7  -2    6.20   22.40   1
 -19   7   2   31.90   22.60   1
 -19   7  -2   40.50   22.70   1
  19  -7   2   17.70   22.50   1
 -19  -7   2   12.50   22.30   1
  19   7  -2   19.00   22.30   1
  19   7   3   75.80   22.70   1
 -19  -7  -3   30.00   22.40   1
  19  -7  -3    6.10   22.20   1
 -19   7   3   17.00   22.30   1
 -19   7  -3   42.70   23.30   1
  19  -7   3   39.30   23.00   1
 -19  -7   3    9.70   22.20   1
  19   7  -3    6.40   22.20   1
  19   7   4   45.40   17.50   1
 -19  -7  -4    4.00   17.20   1
  19  -7  -4    6.90   17.30   1
 -19   7   4   47.50   17.50   1
 -19   7  -4   -0.00   18.80   1
  19  -7   4    3.70   17.80   1
 -19  -7   4    1.00   17.10   1
  19   7  -4    3.50   17.10   1
  19   7   5   41.70   27.60   1
 -19  -7  -5   11.20   27.50   1
  19  -7  -5   46.40   27.70   1
 -19   7   5   32.30   27.60   1
 -19   7  -5   23.30   28.70   1
  19  -7   5   36.70   29.10   1
 -19  -7   5   23.20   27.50   1
  19   7  -5   27.70   27.50   1
  19   7   6   -0.00   14.40   1
 -19  -7  -6    9.60   14.40   1
  19  -7  -6   10.50   14.40   1
 -19   7   6   -0.00   14.30   1
 -19   7  -6   46.20   16.90   1
  19  -7   6   -0.00   16.00   1
 -19  -7   6   10.40   14.20   1
  19   7  -6    8.60   14.30   1
  19   7   7   29.70   14.70   1
 -19  -7  -7    5.10   14.50   1
  19  -7  -7   32.60   14.50   1
 -19   7   7   -0.00   14.40   1
 -19   7  -7   -0.00   16.10   1
  19  -7   7   -0.00   15.80   1
 -19  -7   7   -0.00   14.30   1
  19   7  -7    0.00   14.40   1
  19   7   8   12.20   10.20   1
 -19  -7  -8    9.20   10.30   1
  19  -7  -8   -0.00    9.90   1
 -19   7  -8    0.00   12.00   1
  19  -7   8    0.10   12.20   1
 -19  -7   8   -0.00    9.90   1
  19   7  -8    1.90   10.20   1
  19   8   0   -0.00   14.90   1
 -19  -8   0   18.60   15.00   1
  19  -8   0   17.40   15.20   1
 -19   8   0   -0.00   15.10   1
  19   8   1   56.30   21.80   1
 -19  -8  -1    9.00   21.60   1
  19  -8  -1   12.30   21.80   1
 -19   8   1   81.30   22.20   1
 -19   8  -1   10.50   21.80   1
  19  -8   1   25.40   21.80   1
 -19  -8   1    2.00   21.50   1
  19   8  -1    9.50   21.60   1
  19   8   2  144.90   64.70   1
 -19  -8  -2  136.50   64.70   1
  19  -8  -2  119.20   64.70   1
 -19   8   2  110.60   64.60   1
 -19   8  -2  173.10   65.10   1
  19  -8   2  136.70   64.80   1
 -19  -8   2  134.90   64.60   1
  19   8  -2  186.90   64.80   1
  19   8   3    0.00   10.50   1
 -19  -8  -3    2.00   10.50   1
  19  -8  -3   -0.00   10.60   1
 -19   8   3    3.10   10.60   1
 -19   8  -3    4.50   11.80   1
  19  -8   3   11.40   12.20   1
 -19  -8   3    4.90   10.50   1
  19   8  -3   10.10   10.50   1
  19   8   4  159.70   70.20   1
 -19  -8  -4  251.20   71.10   1
  19  -8  -4  223.70   70.80   1
 -19   8   4  183.30   70.30   1
 -19   8  -4  148.10   71.10   1
  19  -8   4   63.90   70.10   1
 -19  -8   4  135.80   69.90   1
  19   8  -4  245.80   70.50   1
  19   8   5   -0.00    8.70   1
 -19  -8  -5   -0.00    8.60   1
  19  -8  -5   -0.00    8.70   1
 -19   8   5    2.80    8.80   1
 -19   8  -5   -0.00   11.10   1
  19  -8   5    7.40   11.30   1
 -19  -8   5    5.90    8.50   1
  19   8  -5    4.20    8.50   1
  19   8   6   28.30   35.10   1
 -19  -8  -6  169.00   36.20   1
  19  -8  -6   28.90   35.10   1
 -19   8   6   32.00   35.20   1
 -19   8  -6   53.90   36.30   1
  19  -8   6   47.40   36.00   1
 -19  -8   6   52.00   35.20   1
  19   8  -6   64.00   35.30   1
  19   8   7   11.90   25.00   1
 -19  -8  -7   11.80   25.00   1
  19  -8  -7   13.80   24.90   1
 -19   8   7   28.40   25.00   1
 -19   8  -7    6.00   25.80   1
  19  -8   7   -0.00   25.90   1
 -19  -8   7   53.10   25.20   1
  19   8  -7   91.10   25.70   1
  19   9   0    2.80    6.90   1
 -19  -9   0    1.70    6.90   1
  19  -9   0   -0.00    7.30   1
 -19   9   0    0.00    7.30   1
  19   9   1    3.60   15.20   1
 -19  -9  -1    7.10   15.20   1
  19  -9  -1    8.40   15.50   1
 -19   9   1   23.50   15.60   1
 -19   9  -1   -0.00   15.60   1
  19  -9   1   11.50   15.50   1
 -19  -9   1   13.40   15.20   1
  19   9  -1    4.20   15.20   1
  19   9   2    6.70   19.30   1
 -19  -9  -2   11.60   19.30   1
  19  -9  -2   13.60   19.50   1
 -19   9   2   12.50   19.40   1
 -19   9  -2   27.50   20.50   1
  19  -9   2   29.80   20.10   1
 -19  -9   2   17.70   19.30   1
  19   9  -2   11.50   19.30   1
  19   9   3   -0.00   11.20   1
 -19  -9  -3   -0.00   11.20   1
  19  -9  -3    5.80   11.50   1
 -19   9   3   34.60   11.60   1
 -19   9  -3    1.20   13.60   1
  19  -9   3    5.00   12.30   1
 -19  -9   3    2.80   11.20   1
  19   9  -3   -0.00   11.20   1
  19   9   4   -0.00    7.40   1
 -19  -9  -4   -0.00    7.50   1
  19  -9  -4   -0.00    7.70   1
 -19   9   4    7.20    7.50   1
 -19   9  -4    5.10   10.50   1
  19  -9   4   -0.00   11.60   1
 -19  -9   4    2.00    7.30   1
  19   9  -4    1.10    7.30   1
  19   9   5   -0.00   10.30   1
 -19  -9  -5    4.70   10.30   1
  19  -9  -5    7.10   10.40   1
 -19   9   5    3.80   10.50   1
 -19   9  -5   52.20   14.00   1
  19  -9   5   40.10   13.40   1
 -19  -9   5   -0.00   10.20   1
  19   9  -5   -0.00   10.20   1
  19   9   6    7.90    9.40   1
 -19  -9  -6    1.60    9.30   1
  19  -9  -6   -0.00    9.40   1
 -19   9   6   -0.00    9.50   1
 -19   9  -6   12.10   11.90   1
  19  -9   6   19.90   12.00   1
 -19  -9   6   -0.00    9.20   1
  19   9  -6    4.40    9.40   1
  19   9   7    4.80   13.40   1
 -19  -9  -7   13.70   13.40   1
  19  -9  -7    4.40   13.30   1
 -19   9  -7   -0.00   14.80   1
  19  -9   7   27.00   15.70   1
 -19  -9   7    4.10   13.20   1
  19   9  -7    3.30   13.50   1
  19  10   0   53.80   28.50   1
 -19 -10   0   79.70   28.60   1
  19 -10   0    8.00   28.40   1
 -19  10   0   -0.00   28.40   1
  19  10   1    4.80    9.80   1
 -19 -10  -1    0.30    9.90   1
  19 -10  -1    9.40   10.20   1
 -19  10  -1   24.90   11.30   1
  19 -10   1    3.10   10.60   1
 -19 -10   1   -0.00    9.90   1
  19  10  -1    0.60    9.80   1
  19  10   2    8.00   27.00   1
 -19 -10  -2   62.40   27.20   1
  19 -10  -2   59.50   27.40   1
 -19  10   2   79.40   27.50   1
 -19  10  -2   11.00   27.50   1
  19 -10   2   12.60   27.70   1
 -19 -10   2   16.60   27.00   1
  19  10  -2   21.30   27.00   1
  19  10   3   15.60   17.20   1
 -19 -10  -3   20.30   17.30   1
  19 -10  -3   -0.00   17.40   1
 -19  10   3   31.10   17.50   1
 -19  10  -3   -0.00   19.90   1
  19 -10   3   -0.00   18.80   1
 -19 -10   3    7.30   17.20   1
  19  10  -3    4.30   17.10   1
  19  10   4   24.80   22.30   1
 -19 -10  -4   14.60   22.30   1
  19 -10  -4   21.90   22.40   1
 -19  10   4   24.80   22.40   1
 -19  10  -4   43.90   23.80   1
  19 -10   4   40.40   23.90   1
 -19 -10   4   11.30   22.20   1
  19  10  -4   11.30   22.20   1
  19  10   5   -0.00   10.10   1
 -19 -10  -5   -0.00   10.10   1
  19 -10  -5   -0.00   10.30   1
 -19  10   5   11.40   10.30   1
 -19  10  -5    0.30   12.50   1
  19 -10   5    8.50   12.40   1
 -19 -10   5    3.20   10.00   1
  19  10  -5    7.00   10.10   1
  19  10   6   14.20   23.20   1
 -19 -10  -6   15.80   23.10   1
  19 -10  -6   26.80   23.30   1
 -19  10   6   13.00   23.20   1
 -19  10  -6   20.70   24.30   1
  19 -10   6   26.80   24.50   1
 -19 -10   6   17.10   23.10   1
  19  10  -6   38.80   23.40   1
  19  11   0    7.70    8.70   1
 -19 -11   0    0.10    8.50   1
  19 -11   0    1.60    9.00   1
 -19  11   0   -0.00    9.30   1
  19  11   1   12.60   15.20   1
 -19 -11  -1    5.60   15.20   1
  19 -11  -1   14.40   15.40   1
 -19  11   1   12.20   15.50   1
 -19  11  -1    8.50   16.80   1
  19 -11   1   15.60   16.10   1
 -19 -11   1   -0.00   15.10   1
  19  11  -1   11.10   15.20   1
  19  11   2   20.50   21.30   1
 -19 -11  -2   15.80   21.30   1
  19 -11  -2   25.10   21.60   1
 -19  11   2   70.20   22.00   1
 -19  11  -2   29.70   23.00   1
  19 -11   2    0.00   21.90   1
 -19 -11   2   12.10   21.30   1
  19  11  -2    6.60   21.20   1
  19  11   3    9.90   15.80   1
 -19 -11  -3   11.40   15.90   1
  19 -11  -3    3.80   16.10   1
 -19  11   3   12.80   16.20   1
 -19  11  -3   -0.00   17.90   1
  19 -11   3    8.40   18.70   1
 -19 -11   3    6.00   15.80   1
  19  11  -3   11.00   15.80   1
  19  11   4   12.20   13.40   1
 -19 -11  -4    0.90   13.30   1
  19 -11  -4   14.80   13.50   1
 -19  11   4   -0.00   13.40   1
 -19  11  -4   -0.00   15.70   1
  19 -11   4   -0.00   15.10   1
 -19 -11   4    8.20   13.30   1
  19  11  -4    5.60   13.30   1
  19  11   5   11.30   20.90   1
 -19 -11  -5   22.30   21.00   1
  19 -11  -5   31.10   21.10   1
 -19  11   5   -0.00   20.90   1
 -19  11  -5    0.00   22.10   1
  19 -11   5   20.00   22.40   1
 -19 -11   5   18.90   20.90   1
  19  11  -5   20.00   21.00   1
  19  11   6    7.10   13.40   1
 -19 -11  -6    9.10   13.30   1
  19 -11  -6   -0.00   13.50   1
 -19  11  -6   11.20   15.30   1
  19 -11   6   13.20   15.40   1
 -19 -11   6    5.40   13.30   1
  19  11  -6    6.60   13.70   1
  19  12   0   21.10   14.60   1
 -19 -12   0   -0.00   14.50   1
  19 -12   0    0.80   15.10   1
 -19  12   0    9.60   15.50   1
  19  12   1    5.10   13.50   1
 -19 -12  -1   21.90   13.60   1
  19 -12  -1    5.80   13.80   1
 -19  12   1    0.00   13.80   1
 -19  12  -1   -0.00   14.50   1
  19 -12   1   -0.00   14.70   1
 -19 -12   1    3.60   13.60   1
  19  12  -1    3.30   13.50   1
  19  12   2   16.30   24.00   1
 -19 -12  -2   20.20   24.10   1
  19 -12  -2   28.50   24.30   1
 -19  12   2   17.80   24.20   1
 -19  12  -2   88.80   27.40   1
  19 -12   2    9.70   25.10   1
 -19 -12   2   25.90   24.10   1
  19  12  -2   18.00   24.10   1
  19  12   3    2.30    7.60   1
 -19 -12  -3    6.40    7.70   1
  19 -12  -3    0.00    8.10   1
 -19  12   3    0.00    8.00   1
 -19  12  -3    1.30   11.20   1
  19 -12   3   -0.00   10.80   1
 -19 -12   3   -0.00    7.60   1
  19  12  -3    1.90    7.60   1
  19  12   4   47.50   29.80   1
 -19 -12  -4   67.30   29.90   1
  19 -12  -4   43.80   29.90   1
 -19  12   4   15.30   29.70   1
 -19  12  -4   17.20   30.70   1
  19 -12   4   71.10   31.20   1
 -19 -12   4   25.80   29.60   1
  19  12  -4   17.90   29.60   1
  19  12   5    2.50    8.00   1
 -19 -12  -5   -0.00    8.10   1
  19 -12  -5    4.60    8.20   1
 -19  12  -5    2.10   10.80   1
  19 -12   5   16.80   11.90   1
 -19 -12   5    1.40    8.00   1
  19  12  -5   -0.00    8.40   1
  19  13   0    6.70   14.50   1
 -19 -13   0   -0.20   14.50   1
  19 -13   0   62.50   16.00   1
 -19  13   0   12.20   15.80   1
  19  13   1   68.50   54.20   1
 -19 -13  -1  135.90   54.50   1
  19 -13  -1  109.80   54.50   1
 -19  13   1  102.00   54.50   1
 -19  13  -1   81.60   55.20   1
  19 -13   1   92.90   54.80   1
 -19 -13   1  102.70   54.30   1
  19  13  -1  160.00   54.70   1
  19  13   2    4.00   14.50   1
 -19 -13  -2    0.30   14.50   1
  19 -13  -2   -0.00   14.80   1
 -19  13   2    2.70   14.80   1
 -19  13  -2    2.50   17.00   1
  19 -13   2    5.70   16.80   1
 -19 -13   2   15.70   14.50   1
  19  13  -2   21.50   14.60   1
  19  13   3   77.80   39.00   1
 -19 -13  -3   82.00   39.10   1
  19 -13  -3   47.80   39.10   1
 -19  13  -3  294.90   46.30   1
  19 -13   3   81.60   40.20   1
 -19 -13   3   27.80   38.80   1
  19  13  -3   56.60   39.00   1
  19  14   0    1.10    8.40   1
 -19 -14   0    3.30    8.50   1
  19 -14   0   -0.00   10.80   1
 -19  14   0    8.00   10.50   1
  19  14   1    7.70   11.00   1
 -19 -14  -1    2.60   11.00   1
  19 -14  -1    6.90   11.80   1
 -19  14  -1   14.00   15.10   1
  19 -14   1   -0.00   13.00   1
 -19 -14   1   -0.00   11.00   1
  19  14  -1    7.10   11.10   1
  20   0   0  838.90  197.40   1
 -20   0   0  815.60  196.50   1
  20   0   1   15.90   25.20   1
 -20   0  -1   26.20   25.20   1
  20   0  -1   27.20   25.20   1
 -20   0   1   21.80   25.30   1
  20   0   2   46.10   25.70   1
 -20   0  -2   13.70   25.50   1
  20   0  -2   23.10   25.50   1
 -20   0   2   18.70   25.50   1
  20   0   3    8.50   13.00   1
 -20   0  -3   13.30   13.10   1
  20   0  -3    5.10   12.80   1
 -20   0   3    0.00   12.70   1
  20   0   4   16.70   22.00   1
 -20   0  -4   12.70   21.80   1
  20   0  -4   15.30   21.70   1
 -20   0   4   24.00   21.80   1
  20   0   5    8.10    7.20   1
 -20   0  -5   -0.00    7.00   1
  20   0  -5   -0.00    6.40   1
 -20   0   5   -0.00    6.40   1
  20   0   6  200.70   82.20   1
 -20   0  -6  277.40   82.80   1
  20   0  -6  206.60   82.10   1
 -20   0   6  194.60   82.00   1
  20   0   7    8.50   22.90   1
 -20   0  -7   35.50   23.20   1
  20   0  -7   14.60   22.20   1
 -20   0   7   19.40   22.10   1
  20   0   8   -0.00   27.10   1
 -20   0  -8   24.60   28.00   1
  20   0  -8   18.60   26.70   1
 -20   0   8   54.80   26.80   1
  20   1   0   28.00   31.00   1
 -20  -1   0   27.20   31.10   1
  20  -1   0   35.70   31.10   1
 -20   1   0   51.70   31.10   1
  20   1   1    5.40   11.50   1
 -20  -1  -1    2.30   11.50   1
  20  -1  -1    3.60   11.60   1
 -20   1   1   -0.10   11.70   1
 -20   1  -1    4.20   11.60   1
  20  -1   1   -0.00   11.60   1
 -20  -1   1    8.10   11.60   1
  20   1  -1   12.10   11.60   1
  20   1   2    7.50   15.20   1
 -20  -1  -2   -0.00   15.20   1
  20  -1  -2    8.60   15.20   1
 -20   1   2   -0.00   15.20   1
 -20   1  -2   14.60   15.40   1
  20  -1   2   42.30   15.60   1
 -20  -1   2    5.60   15.20   1
  20   1  -2    6.80   15.20   1
  20   1   3   20.40   23.80   1
 -20  -1  -3   10.70   23.70   1
  20  -1  -3   19.10   23.70   1
 -20   1   3   27.10   23.70   1
 -20   1  -3   27.50   23.80   1
  20  -1   3   16.70   23.80   1
 -20  -1   3   20.10   23.70   1
  20   1  -3   21.00   23.70   1
  20   1   4   -0.00   13.90   1
 -20  -1  -4   13.50   14.00   1
  20  -1  -4    7.20   13.80   1
 -20   1   4   -0.00   13.80   1
 -20   1  -4   13.30   14.10   1
  20  -1   4   27.40   14.10   1
 -20  -1   4    4.40   13.80   1
  20   1  -4    1.70   13.70   1
  20   1   5   41.40   32.10   1
 -20  -1  -5   46.00   32.10   1
  20  -1  -5   39.60   32.00   1
 -20   1   5   54.20   32.00   1
 -20   1  -5   18.70   32.10   1
  20  -1   5   30.30   32.00   1
 -20  -1   5   35.70   31.90   1
  20   1  -5   30.50   31.90   1
  20   1   6    5.10   12.20   1
 -20  -1  -6    4.50   12.30   1
  20  -1  -6    6.10   11.90   1
 -20   1   6    3.40   11.90   1
 -20   1  -6    6.90   13.10   1
  20  -1   6   -0.00   12.50   1
 -20  -1   6    8.30   12.00   1
  20   1  -6    4.40   12.00   1
  20   1   7    2.30   12.60   1
 -20  -1  -7    7.10   13.40   1
  20  -1  -7   -0.00   12.10   1
 -20   1   7    3.70   12.10   1
 -20   1  -7    1.00   13.60   1
  20  -1   7   13.40   13.50   1
 -20  -1   7    9.30   12.10   1
  20   1  -7    7.80   12.20   1
  20   1   8    2.40   16.00   1
 -20  -1  -8   -0.00   15.80   1
  20  -1  -8   -0.00   15.00   1
 -20   1   8    4.00   14.90   1
 -20   1  -8   31.10   18.40   1
  20  -1   8    6.10   16.80   1
 -20  -1   8   10.70   15.00   1
  20   1  -8   22.50   15.00   1
  20   2   0    0.00   19.40   1
 -20  -2   0   63.50   19.80   1
  20  -2   0   10.70   19.40   1
 -20   2   0    7.80   19.40   1
  20   2   1   74.90   36.40   1
 -20  -2  -1   53.00   36.20   1
  20  -2  -1   51.80   36.20   1
 -20   2   1   57.70   36.20   1
 -20   2  -1  100.80   36.40   1
 -20  -2   1   23.50   36.00   1
  20   2  -1   27.30   36.00   1
  20   2   2   11.00   24.40   1
 -20  -2  -2   15.20   24.40   1
  20  -2  -2   21.80   24.40   1
 -20   2   2   28.10   24.50   1
 -20   2  -2   45.70   24.60   1
  20  -2   2   34.00   24.60   1
 -20  -2   2   17.40   24.40   1
  20   2  -2   16.80   24.40   1
  20   2   3   15.60   20.10   1
 -20  -2  -3   13.60   20.00   1
  20  -2  -3   19.60   20.00   1
 -20   2   3   15.20   20.00   1
 -20   2  -3   16.60   20.20   1
  20  -2   3   11.60   20.10   1
 -20  -2   3   10.50   20.00   1
  20   2  -3   12.20   19.90   1
  20   2   4    7.70   15.10   1
 -20  -2  -4    4.90   15.10   1
  20  -2  -4   -0.00   15.00   1
 -20   2   4   24.10   15.10   1
 -20   2  -4    5.40   15.10   1
  20  -2   4    8.50   15.10   1
 -20  -2   4    4.90   14.90   1
  20   2  -4   10.90   14.90   1
  20   2   5   13.40   15.30   1
 -20  -2  -5    5.90   15.20   1
  20  -2  -5    4.70   14.90   1
 -20   2   5    3.70   15.00   1
 -20   2  -5    2.10   15.40   1
  20  -2   5   26.60   15.30   1
 -20  -2   5    7.20   14.90   1
  20   2  -5    7.40   14.90   1
  20   2   6   20.70   24.90   1
 -20  -2  -6   32.70   25.00   1
  20  -2  -6   24.30   24.90   1
 -20   2   6   41.20   25.00   1
 -20   2  -6   65.60   26.00   1
  20  -2   6   55.90   25.60   1
 -20  -2   6   10.30   24.80   1
  20   2  -6    6.50   24.80   1
  20   2   7   19.30   23.70   1
 -20  -2  -7   19.30   23.80   1
  20  -2  -7   12.30   23.50   1
 -20   2   7   14.20   23.40   1
 -20   2  -7   32.00   25.00   1
  20  -2   7   -0.00   23.90   1
 -20  -2   7   38.20   23.60   1
  20   2  -7   30.70   23.50   1
  20   2   8    3.50   10.30   1
 -20  -2  -8   -0.00   11.00   1
  20  -2  -8    0.20    8.80   1
 -20   2   8    4.90    8.90   1
 -20   2  -8    0.00   11.80   1
  20  -2   8   -0.00   12.30   1
 -20  -2   8    5.10    8.90   1
  20   2  -8    1.10    9.00   1
  20   3   0   12.50   25.40   1
 -20  -3   0   13.10   25.40   1
  20  -3   0   34.40   25.50   1
 -20   3   0   44.20   25.50   1
  20   3   1    8.50   15.60   1
 -20  -3  -1   26.30   15.70   1
  20  -3  -1    5.40   15.60   1
 -20   3   1    9.60   15.60   1
 -20   3  -1    4.90   15.70   1
  20  -3   1    6.70   15.80   1
 -20  -3   1   12.00   15.60   1
  20   3  -1    0.00   15.50   1
  20   3   2  122.80   25.70   1
 -20  -3  -2   20.10   24.70   1
  20  -3  -2  112.10   25.60   1
 -20   3   2   81.40   25.20   1
 -20   3  -2    6.40   24.70   1
  20  -3   2    5.80   24.80   1
 -20  -3   2    6.50   24.70   1
  20   3  -2    9.90   24.70   1
  20   3   3   15.10   20.10   1
 -20  -3  -3    0.00   20.10   1
  20  -3  -3   18.80   20.10   1
 -20   3   3   21.30   20.20   1
 -20   3  -3   14.00   20.20   1
  20  -3   3   32.90   20.40   1
 -20  -3   3   14.70   20.10   1
  20   3  -3   12.70   20.10   1
  20   3   4    5.30   17.50   1
 -20  -3  -4   13.40   17.40   1
  20  -3  -4   23.60   17.50   1
 -20   3   4   23.20   17.50   1
 -20   3  -4   11.00   17.60   1
  20  -3   4   -0.00   17.50   1
 -20  -3   4    8.50   17.30   1
  20   3  -4    5.90   17.30   1
  20   3   5   30.20   35.40   1
 -20  -3  -5  164.90   36.30   1
  20  -3  -5   32.00   35.30   1
 -20   3   5   31.80   35.30   1
 -20   3  -5   46.90   35.80   1
  20  -3   5   91.40   35.90   1
 -20  -3   5   47.10   35.30   1
  20   3  -5   44.40   35.30   1
  20   3   6   52.10   27.10   1
 -20  -3  -6   69.90   27.10   1
  20  -3  -6   14.90   26.70   1
 -20   3   6   17.50   26.70   1
 -20   3  -6   12.20   27.30   1
  20  -3   6   15.40   27.50   1
 -20  -3   6   31.80   26.80   1
  20   3  -6   20.70   26.70   1
  20   3   7   17.00   23.20   1
 -20  -3  -7   25.40   23.30   1
  20  -3  -7   12.80   23.00   1
 -20   3   7   13.50   23.00   1
 -20   3  -7   47.10   25.30   1
  20  -3   7   35.80   24.40   1
 -20  -3   7   22.70   23.10   1
  20   3  -7   24.20   23.10   1
  20   3   8   25.60   24.30   1
 -20  -3  -8    5.90   24.60   1
  20  -3  -8   18.70   23.90   1
 -20   3   8   44.70   24.10   1
 -20   3  -8    0.00   25.00   1
  20  -3   8   19.60   25.10   1
 -20  -3   8   10.40   24.00   1
  20   3  -8   25.90   24.00   1
  20   4   0   -0.00    9.80   1
 -20  -4   0   -0.00    9.80   1
  20  -4   0    5.30   10.10   1
 -20   4   0    9.00    9.90   1
  20   4   1   19.10   13.20   1
 -20  -4  -1    6.70   13.20   1
  20  -4  -1    3.60   13.10   1
 -20   4   1    8.70   13.20   1
 -20   4  -1   -0.00   13.30   1
  20  -4   1   -0.00   13.30   1
 -20  -4   1    5.00   13.10   1
  20   4  -1    2.80   13.10   1
  20   4   2   -0.00   12.80   1
 -20  -4  -2   -0.00   12.90   1
  20  -4  -2    8.60   12.90   1
 -20   4   2    5.70   12.80   1
 -20   4  -2   18.10   13.10   1
  20  -4   2   20.90   13.20   1
 -20  -4   2   -0.00   12.80   1
  20   4  -2    4.20   12.70   1
  20   4   3    3.50    8.60   1
 -20  -4  -3    5.30    8.60   1
  20  -4  -3    1.70    8.70   1
 -20   4   3   -0.00    8.60   1
 -20   4  -3    1.80    8.80   1
  20  -4   3    4.30    8.90   1
 -20  -4   3    1.50    8.40   1
  20   4  -3    1.70    8.50   1
  20   4   4   -0.00   11.40   1
 -20  -4  -4   10.70   11.50   1
  20  -4  -4   -0.00   11.40   1
 -20   4   4    7.20   11.50   1
 -20   4  -4    6.10   12.10   1
  20  -4   4    5.60   11.70   1
 -20  -4   4    5.10   11.30   1
  20   4  -4    3.80   11.30   1
  20   4   5    7.50   17.40   1
 -20  -4  -5    2.30   17.50   1
  20  -4  -5    6.20   17.30   1
 -20   4   5   20.70   17.40   1
 -20   4  -5   31.70   18.70   1
  20  -4   5   25.70   18.30   1
 -20  -4   5   10.70   17.30   1
  20   4  -5    8.80   17.30   1
  20   4   6   15.60   20.50   1
 -20  -4  -6    7.20   20.40   1
  20  -4  -6   20.90   20.30   1
 -20   4   6    5.90   20.30   1
 -20   4  -6   -0.00   21.90   1
  20  -4   6   -0.00   20.70   1
 -20  -4   6   25.40   20.30   1
  20   4  -6   20.70   20.30   1
  20   4   7    5.30   11.30   1
 -20  -4  -7   -0.00   11.30   1
  20  -4  -7    7.40   11.20   1
 -20   4   7   14.00   11.30   1
 -20   4  -7   -0.00   13.10   1
  20  -4   7    5.40   14.40   1
 -20  -4   7   -0.00   11.10   1
  20   4  -7    2.30   11.10   1
  20   4   8   -0.00    5.00   1
 -20  -4  -8   -0.00    6.00   1
  20  -4  -8    0.20    4.50   1
 -20   4   8   -0.00    4.50   1
 -20   4  -8    8.40    9.00   1
  20  -4   8   -0.00    8.60   1
 -20  -4   8   -0.00    4.50   1
  20   4  -8    1.20    4.60   1
  20   5   0   48.90   40.70   1
 -20  -5   0   89.10   40.80   1
  20  -5   0   44.40   40.70   1
 -20   5   0   64.00   40.80   1
  20   5   1   16.10   27.30   1
 -20  -5  -1   22.00   27.40   1
  20  -5  -1   25.00   27.40   1
 -20   5   1   30.30   27.40   1
 -20   5  -1   26.70   27.50   1
  20  -5   1   19.50   27.50   1
 -20  -5   1   47.50   27.50   1
  20   5  -1   35.70   27.40   1
  20   5   2   28.80   21.00   1
 -20  -5  -2   12.70   20.90   1
  20  -5  -2   10.50   20.90   1
 -20   5   2   16.50   20.90   1
 -20   5  -2    8.30   21.00   1
  20  -5   2   10.30   21.00   1
 -20  -5   2   25.00   20.80   1
  20   5  -2   12.00   20.80   1
  20   5   3  133.10   52.40   1
 -20  -5  -3   68.90   52.00   1
  20  -5  -3   86.60   52.10   1
 -20   5   3  138.00   52.50   1
 -20   5  -3   86.00   52.10   1
  20  -5   3   74.60   52.00   1
 -20  -5   3   97.50   52.00   1
  20   5  -3  106.70   52.10   1
  20   5   4   -0.00   13.70   1
 -20  -5  -4    6.70   13.60   1
  20  -5  -4   21.90   13.90   1
 -20   5   4   10.80   13.80   1
 -20   5  -4   -0.00   14.60   1
  20  -5   4    5.60   14.20   1
 -20  -5   4   -0.00   13.50   1
  20   5  -4    9.40   13.60   1
  20   5   5  212.10   70.10   1
 -20  -5  -5  114.00   69.50   1
  20  -5  -5  145.20   69.80   1
 -20   5   5  220.00   70.40   1
 -20   5  -5  130.70   70.00   1
  20  -5   5  217.90   70.70   1
 -20  -5   5  164.50   69.70   1
  20   5  -5  166.60   69.70   1
  20   5   6   16.30   18.00   1
 -20  -5  -6    8.70   17.90   1
  20  -5  -6    5.90   17.70   1
 -20   5   6    9.90   17.80   1
 -20   5  -6   20.00   20.20   1
  20  -5   6   11.00   19.40   1
 -20  -5   6   13.60   17.70   1
  20   5  -6   13.00   17.70   1
  20   5   7    8.40   24.20   1
 -20  -5  -7    6.90   24.20   1
  20  -5  -7   77.70   24.60   1
 -20   5   7   25.40   24.20   1
 -20   5  -7   11.40   25.20   1
  20  -5   7   -0.00   25.40   1
 -20  -5   7   21.40   24.10   1
  20   5  -7   22.00   24.10   1
  20   6   0   19.00   23.10   1
 -20  -6   0   25.40   23.10   1
  20  -6   0   20.50   23.30   1
 -20   6   0   10.60   23.20   1
  20   6   1    0.00   13.30   1
 -20  -6  -1    3.50   13.20   1
  20  -6  -1    1.90   13.40   1
 -20   6   1   -0.00   13.30   1
 -20   6  -1   15.30   13.50   1
  20  -6   1   32.80   13.70   1
 -20  -6   1   12.80   13.20   1
  20   6  -1   -0.00   13.10   1
  20   6   2    7.40   15.20   1
 -20  -6  -2   17.60   15.20   1
  20  -6  -2   27.40   15.40   1
 -20   6   2   20.80   15.40   1
 -20   6  -2    6.00   15.50   1
  20  -6   2   -0.00   15.30   1
 -20  -6   2   -0.00   15.10   1
  20   6  -2   -0.00   15.10   1
  20   6   3    7.30   10.80   1
 -20  -6  -3    6.20   10.90   1
  20  -6  -3    6.80   11.10   1
 -20   6   3   -0.00   11.00   1
 -20   6  -3    6.60   11.50   1
  20  -6   3    2.10   11.10   1
 -20  -6   3    2.10   10.70   1
  20   6  -3    2.70   10.80   1
  20   6   4   10.20   19.50   1
 -20  -6  -4   -0.00   19.40   1
  20  -6  -4    9.20   19.50   1
 -20   6   4   10.30   19.60   1
 -20   6  -4   28.40   20.70   1
  20  -6   4   44.90   20.50   1
 -20  -6   4   23.00   19.50   1
  20   6  -4   21.90   19.50   1
  20   6   5    7.70   17.70   1
 -20  -6  -5    5.00   17.70   1
  20  -6  -5   13.60   17.70   1
 -20   6   5   21.90   17.80   1
 -20   6  -5   19.70   19.70   1
  20  -6   5    9.20   18.20   1
 -20  -6   5   10.50   17.60   1
  20   6  -5   10.00   17.60   1
  20   6   6   14.60   15.60   1
 -20  -6  -6   11.50   15.60   1
  20  -6  -6    6.80   15.50   1
 -20   6   6    8.20   15.50   1
 -20   6  -6    8.70   17.10   1
  20  -6   6   25.20   18.20   1
 -20  -6   6    5.90   15.30   1
  20   6  -6    6.30   15.40   1
  20   6   7   19.50   13.70   1
 -20  -6  -7    4.70   13.50   1
  20  -6  -7    7.10   13.30   1
 -20   6   7    4.40   13.30   1
 -20   6  -7   14.40   15.70   1
  20  -6   7   30.60   15.60   1
 -20  -6   7    0.80   13.30   1
  20   6  -7    4.10   13.30   1
  20   7   0   43.70   34.50   1
 -20  -7   0   65.60   34.60   1
  20  -7   0   28.10   34.60   1
 -20   7   0   34.00   34.60   1
  20   7   1   38.00   12.60   1
 -20  -7  -1   11.20   12.40   1
  20  -7  -1   -0.00   12.70   1
 -20   7   1   -0.00   12.60   1
 -20   7  -1   -0.00   12.60   1
  20  -7   1   -0.00   12.60   1
 -20  -7   1    0.30   12.30   1
  20   7  -1    1.10   12.30   1
  20   7   2   45.30   38.80   1
 -20  -7  -2   51.60   38.80   1
  20  -7  -2   45.20   38.80   1
 -20   7   2   53.90   38.80   1
 -20   7  -2   54.80   38.90   1
  20  -7   2   57.40   38.90   1
 -20  -7   2   43.80   38.70   1
  20   7  -2   87.90   38.90   1
  20   7   3   28.20   19.20   1
 -20  -7  -3    5.90   19.10   1
  20  -7  -3   15.10   19.10   1
 -20   7   3    6.30   19.10   1
 -20   7  -3   19.90   19.80   1
  20  -7   3   16.40   19.50   1
 -20  -7   3    8.00   19.00   1
  20   7  -3   17.90   19.00   1
  20   7   4   26.40   21.30   1
 -20  -7  -4    6.90   21.20   1
  20  -7  -4    5.60   21.30   1
 -20   7   4   28.60   21.40   1
 -20   7  -4    2.40   21.90   1
  20  -7   4   10.30   22.30   1
 -20  -7   4   15.40   21.20   1
  20   7  -4   25.40   21.20   1
  20   7   5   -0.00   12.20   1
 -20  -7  -5   15.40   12.30   1
  20  -7  -5   -0.00   12.20   1
 -20   7   5    7.90   12.40   1
 -20   7  -5   32.90   15.90   1
  20  -7   5    6.40   14.50   1
 -20  -7   5    2.10   12.10   1
  20   7  -5    6.90   12.20   1
  20   7   6   32.50   33.90   1
 -20  -7  -6   37.70   33.90   1
  20  -7  -6   31.00   33.80   1
 -20   7   6   46.20   34.00   1
 -20   7  -6   28.60   34.70   1
  20  -7   6   21.70   34.60   1
 -20  -7   6   60.00   33.90   1
  20   7  -6   50.40   33.90   1
  20   7   7   17.00   17.60   1
 -20  -7  -7   12.30   17.50   1
  20  -7  -7   15.70   17.40   1
 -20   7   7   12.60   17.50   1
 -20   7  -7   27.20   19.40   1
  20  -7   7   -0.00   18.90   1
 -20  -7   7   -0.00   17.30   1
  20   7  -7   15.50   17.40   1
  20   8   0  143.80   80.50   1
 -20  -8   0  304.70   81.40   1
  20  -8   0  231.90   81.10   1
 -20   8   0  304.60   81.70   1
  20   8   1   61.70   38.30   1
 -20  -8  -1   73.30   38.30   1
  20  -8  -1   66.70   38.40   1
 -20   8   1   22.50   38.20   1
 -20   8  -1   96.20   38.60   1
  20  -8   1   36.00   38.20   1
 -20  -8   1   67.30   38.20   1
  20   8  -1   37.10   38.10   1
  20   8   2   80.40   35.70   1
 -20  -8  -2   35.00   35.40   1
  20  -8  -2   58.20   35.60   1
 -20   8   2   16.40   35.40   1
 -20   8  -2   72.10   35.80   1
  20  -8   2   50.30   35.60   1
 -20  -8   2   38.50   35.40   1
  20   8  -2   58.30   35.40   1
  20   8   3    1.30   22.90   1
 -20  -8  -3    8.40   22.90   1
  20  -8  -3    7.40   23.00   1
 -20   8   3    7.20   23.00   1
 -20   8  -3   70.90   24.40   1
  20  -8   3   60.70   24.00   1
 -20  -8   3  175.30   24.50   1
  20   8  -3   89.60   23.40   1
  20   8   4   19.50   26.00   1
 -20  -8  -4   21.40   26.00   1
  20  -8  -4   14.20   26.00   1
 -20   8   4   14.70   26.00   1
 -20   8  -4   43.50   27.50   1
  20  -8   4   -0.00   26.30   1
 -20  -8   4   68.50   26.20   1
  20   8  -4   32.50   25.90   1
  20   8   5   50.60   35.50   1
 -20  -8  -5   37.40   35.40   1
  20  -8  -5   43.10   35.50   1
 -20   8   5   33.30   35.40   1
 -20   8  -5   26.90   36.40   1
  20  -8   5   34.60   36.60   1
 -20  -8   5  132.00   36.00   1
  20   8  -5   39.70   35.30   1
  20   8   6   48.60   42.60   1
 -20  -8  -6   46.20   42.60   1
  20  -8  -6   71.70   42.80   1
 -20   8   6  130.80   43.40   1
 -20   8  -6   36.20   43.40   1
  20  -8   6   49.30   43.40   1
 -20  -8   6   68.50   42.60   1
  20   8  -6   93.10   42.80   1
  20   9   0    1.60   10.50   1
 -20  -9   0    5.60   10.50   1
  20  -9   0    3.40   10.90   1
 -20   9   0    4.60   10.80   1
  20   9   1   10.80   12.80   1
 -20  -9  -1   13.10   12.70   1
  20  -9  -1    1.00   13.00   1
 -20   9   1    0.80   12.90   1
 -20   9  -1    1.90   13.00   1
  20  -9   1    3.50   12.90   1
 -20  -9   1   10.20   12.70   1
  20   9  -1    0.00   12.70   1
  20   9   2    6.60   11.50   1
 -20  -9  -2    1.40   11.60   1
  20  -9  -2    9.20   11.90   1
 -20   9   2   11.20   11.90   1
 -20   9  -2    0.00   12.80   1
  20  -9   2   -0.00   12.20   1
 -20  -9   2    7.50   11.50   1
  20   9  -2   -0.00   11.50   1
  20   9   3    3.80   13.00   1
 -20  -9  -3    8.60   13.00   1
  20  -9  -3    2.00   13.10   1
 -20   9   3    2.80   13.20   1
 -20   9  -3   -0.00   14.10   1
  20  -9   3   -0.00   14.40   1
 -20  -9   3    7.40   12.90   1
  20   9  -3   11.80   13.00   1
  20   9   4   17.30    9.50   1
 -20  -9  -4    2.40    9.30   1
  20  -9  -4   -0.00    9.40   1
 -20   9   4   -0.00    9.60   1
 -20   9  -4   15.00   13.60   1
  20  -9   4   12.00   11.90   1
 -20  -9   4   -0.00    9.20   1
  20   9  -4   -0.00    9.20   1
  20   9   5    1.50    8.00   1
 -20  -9  -5   -0.00    8.00   1
  20  -9  -5   14.60    8.30   1
 -20   9   5   -0.00    8.10   1
 -20   9  -5    6.60   11.00   1
  20  -9   5    1.30   10.70   1
 -20  -9   5    0.00    7.80   1
  20   9  -5    0.00    7.90   1
  20   9   6    4.10    7.60   1
 -20  -9  -6    2.60    7.60   1
  20  -9  -6    1.50    7.70   1
 -20   9  -6   -0.00   10.90   1
  20  -9   6   12.50   10.80   1
 -20  -9   6   -0.00    7.50   1
  20   9  -6   -0.00    7.60   1
  20  10   0   33.30   33.20   1
 -20 -10   0   37.60   33.20   1
  20 -10   0   53.10   33.40   1
 -20  10   0   42.60   33.30   1
  20  10   1   36.50   15.70   1
 -20 -10  -1   10.80   15.50   1
  20 -10  -1    9.90   15.80   1
 -20  10   1    1.80   15.80   1
 -20  10  -1   10.60   16.10   1
  20 -10   1   -0.00   15.90   1
 -20 -10   1   -0.00   15.50   1
  20  10  -1    7.80   15.50   1
  20  10   2   23.90   24.20   1
 -20 -10  -2   14.00   24.10   1
  20 -10  -2   19.90   24.30   1
 -20  10   2   18.40   24.30   1
 -20  10  -2   41.90   25.20   1
  20 -10   2    9.20   24.70   1
 -20 -10   2   12.20   24.10   1
  20  10  -2   44.10   24.20   1
  20  10   3   13.70   14.70   1
 -20 -10  -3   39.20   15.00   1
  20 -10  -3   11.00   15.00   1
 -20  10   3   -0.00   14.80   1
 -20  10  -3   11.30   17.20   1
  20 -10   3   10.90   15.50   1
 -20 -10   3   -0.00   14.60   1
  20  10  -3    0.30   14.60   1
  20  10   4    6.70   13.20   1
 -20 -10  -4    2.90   13.20   1
  20 -10  -4   67.20   14.10   1
 -20  10   4    1.60   13.40   1
 -20  10  -4    2.30   15.40   1
  20 -10   4   -0.00   16.20   1
 -20 -10   4   -0.00   13.20   1
  20  10  -4    4.40   13.20   1
  20  10   5    3.00   15.30   1
 -20 -10  -5   -0.00   15.30   1
  20 -10  -5   -0.00   15.40   1
 -20  10  -5   50.40   18.10   1
  20 -10   5   67.80   18.20   1
 -20 -10   5    6.90   15.20   1
  20  10  -5   20.50   15.30   1
  20  11   0    3.40   12.00   1
 -20 -11   0    5.60   12.10   1
  20 -11   0   13.40   12.50   1
 -20  11   0   -0.00   12.70   1
  20  11   1   10.30   14.80   1
 -20 -11  -1   10.10   14.80   1
  20 -11  -1    0.00   15.10   1
 -20  11   1   -0.00   15.10   1
 -20  11  -1    5.80   15.90   1
  20 -11   1    7.60   15.40   1
 -20 -11   1   10.50   14.80   1
  20  11  -1    8.10   14.80   1
  20  11   2    9.90   15.40   1
 -20 -11  -2   11.40   15.50   1
  20 -11  -2    8.50   15.90   1
 -20  11   2   17.00   15.70   1
 -20  11  -2    1.10   16.40   1
  20 -11   2   -0.00   16.60   1
 -20 -11   2    8.00   15.50   1
  20  11  -2    4.60   15.40   1
  20  11   3   12.90   11.60   1
 -20 -11  -3    3.90   11.50   1
  20 -11  -3   -0.10   11.90   1
 -20  11   3   -0.00   11.90   1
 -20  11  -3   10.80   15.80   1
  20 -11   3   -0.00   13.70   1
 -20 -11   3    2.40   11.40   1
  20  11  -3    5.50   11.50   1
  20  11   4    3.80   15.80   1
 -20 -11  -4   37.80   16.10   1
  20 -11  -4   -0.00   16.00   1
 -20  11  -4   17.60   17.70   1
  20 -11   4   -0.00   17.40   1
 -20 -11   4    7.10   15.70   1
  20  11  -4    7.10   15.70   1
  20  12   0   24.00   19.30   1
 -20 -12   0    5.80   19.30   1
  20 -12   0   19.00   19.70   1
 -20  12   0    9.50   19.80   1
  20  12   1   49.60   32.10   1
 -20 -12  -1   30.00   32.00   1
  20 -12  -1   48.00   32.30   1
 -20  12   1   45.50   32.30   1
 -20  12  -1  124.60   33.80   1
  20 -12   1   42.10   32.70   1
 -20 -12   1   27.20   32.00   1
  20  12  -1   26.80   32.00   1
  20  12   2   19.70   23.50   1
 -20 -12  -2   34.10   23.60   1
  20 -12  -2   28.80   23.70   1
 -20  12   2    9.70   23.70   1
 -20  12  -2   11.40   25.30   1
  20 -12   2    3.40   24.00   1
 -20 -12   2   17.10   23.50   1
  20  12  -2   20.70   23.50   1
  20  12   3   -0.00   14.10   1
 -20 -12  -3   21.80   14.20   1
  20 -12  -3   -0.00   14.50   1
 -20  12  -3   -0.00   16.00   1
  20 -12   3   -0.00   16.80   1
 -20 -12   3   15.10   14.10   1
  20  12  -3    2.00   14.00   1
  21   0   0   -0.10    4.00   1
 -21   0   0   -0.00    3.90   1
  21   0   1  304.40  100.10   1
 -21   0  -1  276.50   99.90   1
  21   0  -1  300.20  100.30   1
 -21   0   1  302.90  100.40   1
  21   0   2   76.90   48.40   1
 -21   0  -2   67.40   48.30   1
  21   0  -2   92.10   48.50   1
 -21   0   2   93.70   48.50   1
  21   0   3  546.50  113.10   1
 -21   0  -3  402.20  111.80   1
  21   0  -3  267.30  111.00   1
 -21   0   3  346.30  111.60   1
  21   0   4   84.60   48.80   1
 -21   0  -4   73.00   48.70   1
  21   0  -4   79.10   48.60   1
 -21   0   4   91.10   48.70   1
  21   0   5  233.90   84.30   1
 -21   0  -5  250.90   84.40   1
  21   0  -5  215.50   84.10   1
 -21   0   5  196.30   84.00   1
  21   0   6   -0.00   16.50   1
 -21   0  -6    5.50   16.70   1
  21   0  -6   16.40   16.40   1
 -21   0   6   12.40   16.40   1
  21   0   7   72.50   42.70   1
 -21   0  -7  105.60   43.20   1
  21   0  -7   39.10   42.30   1
 -21   0   7  101.60   42.60   1
  21   1   0   36.80   25.00   1
 -21  -1   0   17.30   24.90   1
  21  -1   0   23.20   25.00   1
 -21   1   0   16.40   24.90   1
  21   1   1   15.60   16.20   1
 -21  -1  -1   12.30   16.20   1
  21  -1  -1    9.20   16.10   1
 -21   1   1   12.80   16.20   1
 -21   1  -1    4.40   16.10   1
  21  -1   1    8.40   16.20   1
 -21  -1   1    4.50   16.10   1
  21   1  -1    7.50   16.10   1
  21   1   2   26.70   22.20   1
 -21  -1  -2   14.50   22.20   1
  21  -1  -2   24.90   22.20   1
 -21   1   2   22.60   22.20   1
 -21   1  -2    6.50   22.20   1
  21  -1   2   21.50   22.30   1
 -21  -1   2   19.20   22.20   1
  21   1  -2    8.90   22.20   1
  21   1   3   13.80   16.80   1
 -21  -1  -3    7.70   16.70   1
  21  -1  -3    4.90   16.70   1
 -21   1   3    4.50   16.70   1
 -21   1  -3   14.00   16.90   1
  21  -1   3   12.90   16.90   1
 -21  -1   3   14.90   16.70   1
  21   1  -3   10.60   16.70   1
  21   1   4   67.00   35.50   1
 -21  -1  -4   60.40   35.40   1
  21  -1  -4   31.80   35.20   1
 -21   1   4   37.40   35.30   1
 -21   1  -4   49.40   35.40   1
  21  -1   4   45.90   35.40   1
 -21  -1   4   41.40   35.30   1
  21   1  -4   42.50   35.30   1
  21   1   5   10.90   16.10   1
 -21  -1  -5    6.90   16.00   1
  21  -1  -5    7.10   15.90   1
 -21   1   5    7.00   15.90   1
 -21   1  -5   18.30   16.10   1
  21  -1   5    7.90   16.00   1
 -21  -1   5   10.20   15.90   1
  21   1  -5    7.30   15.90   1
  21   1   6   10.10   14.30   1
 -21  -1  -6   -0.00   14.20   1
  21  -1  -6    9.50   13.90   1
 -21   1   6    6.80   14.00   1
 -21   1  -6   14.00   14.80   1
  21  -1   6   11.80   14.30   1
 -21  -1   6    7.30   14.00   1
  21   1  -6    2.90   13.90   1
  21   1   7    2.70   11.70   1
 -21  -1  -7    2.70   12.00   1
  21  -1  -7    3.70   11.10   1
 -21   1   7    4.00   11.10   1
 -21   1  -7   -0.00   12.90   1
  21  -1   7    3.00   12.80   1
 -21  -1   7    8.20   11.20   1
  21   1  -7    3.70   11.20   1
  21   2   0    6.60   20.70   1
 -21  -2   0    9.70   20.70   1
  21  -2   0   26.80   20.80   1
 -21   2   0   21.40   20.80   1
  21   2   1   15.30   18.20   1
 -21  -2  -1   16.50   18.10   1
  21  -2  -1    9.50   18.20   1
 -21   2   1   25.50   18.20   1
 -21   2  -1    4.90   18.10   1
  21  -2   1    3.10   18.10   1
 -21  -2   1   15.90   18.10   1
  21   2  -1    4.40   18.10   1
  21   2   2   10.30   17.50   1
 -21  -2  -2   19.40   17.40   1
  21  -2  -2   12.10   17.40   1
 -21   2   2   12.10   17.50   1
 -21   2  -2   -0.00   17.50   1
  21  -2   2   -0.00   17.50   1
 -21  -2   2    7.50   17.50   1
  21   2  -2   21.20   17.40   1
  21   2   3   68.90   29.80   1
 -21  -2  -3   30.30   29.60   1
  21  -2  -3   42.20   29.60   1
 -21   2   3   42.70   29.60   1
 -21   2  -3   36.00   29.70   1
  21  -2   3   39.90   29.70   1
 -21  -2   3   15.70   29.50   1
  21   2  -3   13.80   29.50   1
  21   2   4    3.10   16.50   1
 -21  -2  -4   11.40   16.50   1
  21  -2  -4    9.60   16.30   1
 -21   2   4   19.00   16.40   1
 -21   2  -4   -0.00   16.60   1
  21  -2   4    3.90   16.50   1
 -21  -2   4    8.40   16.30   1
  21   2  -4   15.10   16.30   1
  21   2   5   36.30   22.10   1
 -21  -2  -5  104.00   22.80   1
  21  -2  -5   -0.00   21.80   1
 -21   2   5    8.30   21.90   1
 -21   2  -5   27.70   22.10   1
  21  -2   5   11.80   22.00   1
 -21  -2   5   13.10   21.80   1
  21   2  -5   21.20   21.90   1
  21   2   6   30.50   14.90   1
 -21  -2  -6   13.50   14.60   1
  21  -2  -6    3.10   14.40   1
 -21   2   6    0.00   14.50   1
 -21   2  -6    2.40   15.60   1
  21  -2   6    2.10   15.00   1
 -21  -2   6    7.40   14.40   1
  21   2  -6    7.90   14.50   1
  21   2   7    0.50   16.10   1
 -21  -2  -7    5.30   16.20   1
  21  -2  -7   12.00   15.90   1
 -21   2   7   -0.00   15.90   1
 -21   2  -7   23.10   17.20   1
  21  -2   7    1.90   17.00   1
 -21  -2   7   21.30   15.90   1
  21   2  -7    9.90   15.90   1
  21   3   0    7.20    9.90   1
 -21  -3   0    5.40    9.90   1
  21  -3   0   -0.20   10.00   1
 -21   3   0   -0.00   10.00   1
  21   3   1   14.30   16.80   1
 -21  -3  -1   22.70   16.80   1
  21  -3  -1    9.10   16.80   1
 -21   3   1    0.00   16.70   1
 -21   3  -1    2.90   16.70   1
  21  -3   1    6.30   16.80   1
 -21  -3   1   11.40   16.70   1
  21   3  -1   15.00   16.70   1
  21   3   2   33.90   30.80   1
 -21  -3  -2   30.40   30.80   1
  21  -3  -2   29.10   30.80   1
 -21   3   2   34.60   30.80   1
 -21   3  -2   24.60   30.80   1
  21  -3   2   28.40   30.80   1
 -21  -3   2   49.90   30.80   1
  21   3  -2   39.00   30.70   1
  21   3   3   44.30   35.90   1
 -21  -3  -3   33.50   35.80   1
  21  -3  -3   33.00   35.90   1
 -21   3   3   57.90   36.00   1
 -21   3  -3   27.80   35.90   1
  21  -3   3   35.30   35.90   1
 -21  -3   3   88.20   36.10   1
  21   3  -3   79.50   36.00   1
  21   3   4   13.90   16.90   1
 -21  -3  -4   -0.00   16.80   1
  21  -3  -4   90.70   17.70   1
 -21   3   4    8.90   16.80   1
 -21   3  -4   16.50   16.90   1
  21  -3   4   17.70   16.90   1
 -21  -3   4    4.60   16.60   1
  21   3  -4   -0.00   16.60   1
  21   3   5  108.90   20.80   1
 -21  -3  -5   21.50   19.80   1
  21  -3  -5    9.20   19.60   1
 -21   3   5   -0.00   19.70   1
 -21   3  -5   11.20   20.10   1
  21  -3   5    7.10   19.90   1
 -21  -3   5   13.60   19.60   1
  21   3  -5   12.20   19.60   1
  21   3   6   34.90   24.50   1
 -21  -3  -6    7.30   24.40   1
  21  -3  -6    9.90   24.30   1
 -21   3   6   16.80   24.30   1
 -21   3  -6   33.50   25.30   1
  21  -3   6   21.10   25.00   1
 -21  -3   6   32.90   24.30   1
  21   3  -6   29.30   24.30   1
  21   3   7    8.80   13.80   1
 -21  -3  -7    9.80   13.70   1
  21  -3  -7   11.40   13.50   1
 -21   3   7    0.00   13.50   1
 -21   3  -7   28.20   16.40   1
  21  -3   7   -0.00   14.30   1
 -21  -3   7    4.70   13.50   1
  21   3  -7    6.60   13.50   1
  21   4   0    0.00   11.30   1
 -21  -4   0   -0.00   11.40   1
  21  -4   0   10.70   11.60   1
 -21   4   0   10.50   11.50   1
  21   4   1    7.40   15.40   1
 -21  -4  -1    4.90   15.40   1
  21  -4  -1    7.60   15.40   1
 -21   4   1   -0.00   15.40   1
 -21   4  -1   10.00   15.50   1
  21  -4   1    9.10   15.50   1
 -21  -4   1   16.80   15.40   1
  21   4  -1   10.80   15.30   1
  21   4   2    8.40   16.70   1
 -21  -4  -2   10.20   16.70   1
  21  -4  -2   16.90   16.70   1
 -21   4   2    9.40   16.70   1
 -21   4  -2    7.70   16.80   1
  21  -4   2    9.40   16.90   1
 -21  -4   2   10.00   16.70   1
  21   4  -2    7.50   16.60   1
  21   4   3    4.10   12.80   1
 -21  -4  -3    0.20   12.70   1
  21  -4  -3    7.60   12.90   1
 -21   4   3    7.00   12.80   1
 -21   4  -3    9.00   13.00   1
  21  -4   3   10.00   13.00   1
 -21  -4   3   11.60   12.70   1
  21   4  -3   -0.00   12.60   1
  21   4   4    0.00   20.60   1
 -21  -4  -4    8.90   20.60   1
  21  -4  -4   51.50   20.80   1
 -21   4   4   10.10   20.50   1
 -21   4  -4   15.30   20.80   1
  21  -4   4   47.20   20.90   1
 -21  -4   4   10.70   20.50   1
  21   4  -4   12.40   20.50   1
  21   4   5   11.90   10.20   1
 -21  -4  -5   -0.00   10.00   1
  21  -4  -5   -0.00    9.90   1
 -21   4   5    0.00    9.80   1
 -21   4  -5    6.70   11.50   1
  21  -4   5    3.10   10.80   1
 -21  -4   5    8.40    9.70   1
  21   4  -5   -0.00    9.70   1
  21   4   6   19.00   14.30   1
 -21  -4  -6   11.00   14.10   1
  21  -4  -6   -0.00   13.90   1
 -21   4   6    5.30   13.80   1
 -21   4  -6   11.50   15.20   1
  21  -4   6   -0.00   15.10   1
 -21  -4   6    5.50   13.70   1
  21   4  -6    8.00   13.80   1
  21   4   7    5.10   20.20   1
 -21  -4  -7  128.60   21.50   1
  21  -4  -7  142.60   21.50   1
 -21   4   7   10.70   20.00   1
 -21   4  -7    9.40   22.10   1
  21  -4   7   22.80   22.10   1
 -21  -4   7   -0.00   20.00   1
  21   4  -7    6.70   20.00   1
  21   5   0   -0.00   20.30   1
 -21  -5   0   -0.00   20.30   1
  21  -5   0   52.70   20.70   1
 -21   5   0   59.70   20.70   1
  21   5   1   11.90   24.50   1
 -21  -5  -1   25.40   24.60   1
  21  -5  -1    5.40   24.50   1
 -21   5   1   14.30   24.60   1
 -21   5  -1   30.20   24.70   1
  21  -5   1   21.60   24.70   1
 -21  -5   1   29.50   24.60   1
  21   5  -1   55.00   24.70   1
  21   5   2  229.90   73.10   1
 -21  -5  -2  145.50   72.40   1
  21  -5  -2  168.00   72.50   1
 -21   5   2  144.50   72.30   1
 -21   5  -2  242.50   72.90   1
  21  -5   2  262.10   73.10   1
 -21  -5   2  158.80   72.20   1
  21   5  -2  138.70   72.20   1
  21   5   3   83.10   48.50   1
 -21  -5  -3   89.60   48.50   1
  21  -5  -3  112.90   48.80   1
 -21   5   3   82.60   48.50   1
 -21   5  -3   73.40   48.40   1
  21  -5   3   82.80   48.50   1
 -21  -5   3   80.30   48.30   1
  21   5  -3   68.10   48.30   1
  21   5   4  207.90   76.60   1
 -21  -5  -4  152.70   76.20   1
  21  -5  -4  273.70   77.50   1
 -21   5   4  204.50   76.80   1
 -21   5  -4  178.80   76.50   1
  21  -5   4  180.30   76.40   1
 -21  -5   4  178.30   76.20   1
  21   5  -4  186.90   76.30   1
  21   5   5    5.60   17.70   1
 -21  -5  -5   -0.00   17.60   1
  21  -5  -5   19.40   17.70   1
 -21   5   5   11.10   17.70   1
 -21   5  -5   28.60   19.10   1
  21  -5   5    3.20   18.50   1
 -21  -5   5   15.90   17.60   1
  21   5  -5   14.00   17.60   1
  21   5   6    8.60   16.30   1
 -21  -5  -6   10.30   16.40   1
  21  -5  -6   -0.00   16.20   1
 -21   5   6    8.70   16.30   1
 -21   5  -6    4.70   18.50   1
  21  -5   6   -0.00   16.80   1
 -21  -5   6   13.20   16.10   1
  21   5  -6   18.90   16.20   1
  21   6   0   43.70   18.60   1
 -21  -6   0    5.90   18.40   1
  21  -6   0    5.40   18.60   1
 -21   6   0   -0.00   18.50   1
  21   6   1   26.30   27.30   1
 -21  -6  -1    7.70   27.30   1
  21  -6  -1   30.20   27.50   1
 -21   6   1   14.10   27.30   1
 -21   6  -1   18.70   27.40   1
  21  -6   1   22.00   27.50   1
 -21  -6   1  165.90   28.50   1
  21   6  -1   63.50   27.50   1
  21   6   2    5.30   12.70   1
 -21  -6  -2    5.60   12.70   1
  21  -6  -2    3.80   12.70   1
 -21   6   2   10.70   12.80   1
 -21   6  -2    6.20   12.90   1
  21  -6   2    7.50   12.90   1
 -21  -6   2    1.10   12.50   1
  21   6  -2    7.10   12.60   1
  21   6   3   24.90   22.00   1
 -21  -6  -3   27.80   22.00   1
  21  -6  -3   34.10   22.10   1
 -21   6   3    9.10   22.00   1
 -21   6  -3   11.00   22.10   1
  21  -6   3   12.00   22.10   1
 -21  -6   3   24.40   21.90   1
  21   6  -3    6.40   21.80   1
  21   6   4    0.70    9.60   1
 -21  -6  -4    2.50    9.60   1
  21  -6  -4    3.20    9.70   1
 -21   6   4    5.50    9.60   1
 -21   6  -4   -0.00   11.10   1
  21  -6   4   -0.00   10.50   1
 -21  -6   4    3.00    9.40   1
  21   6  -4    4.30    9.40   1
  21   6   5   47.30   26.10   1
 -21  -6  -5    8.00   26.00   1
  21  -6  -5   35.50   26.10   1
 -21   6   5   35.90   26.10   1
 -21   6  -5   39.30   27.00   1
  21  -6   5   39.80   26.90   1
 -21  -6   5   18.90   25.90   1
  21   6  -5   15.40   25.90   1
  21   6   6    0.00   11.30   1
 -21  -6  -6   14.50   11.20   1
  21  -6  -6    5.60   11.00   1
 -21   6   6   -0.00   11.00   1
 -21   6  -6   53.30   15.80   1
  21  -6   6   11.90   13.80   1
 -21  -6   6    2.60   10.90   1
  21   6  -6   -0.00   10.90   1
  21   7   0  119.20   34.30   1
 -21  -7   0   32.50   33.80   1
  21  -7   0   50.90   34.00   1
 -21   7   0   16.10   33.80   1
  21   7   1   -0.00   13.40   1
 -21  -7  -1    5.90   13.40   1
  21  -7  -1   13.50   13.70   1
 -21   7   1    6.10   13.60   1
 -21   7  -1    6.80   13.70   1
  21  -7   1   12.20   13.70   1
 -21  -7   1    5.40   13.40   1
  21   7  -1    7.10   13.40   1
  21   7   2   48.90   37.20   1
 -21  -7  -2   33.60   37.20   1
  21  -7  -2   44.10   37.20   1
 -21   7   2   47.70   37.30   1
 -21   7  -2   58.10   37.40   1
  21  -7   2   52.50   37.30   1
 -21  -7   2   48.20   37.20   1
  21   7  -2   66.50   37.30   1
  21   7   3   17.30   20.80   1
 -21  -7  -3    6.10   20.70   1
  21  -7  -3    1.80   20.80   1
 -21   7   3    4.40   20.80   1
 -21   7  -3   10.00   21.20   1
  21  -7   3   11.90   21.00   1
 -21  -7   3   39.60   20.80   1
  21   7  -3   30.00   20.80   1
  21   7   4  103.20   35.70   1
 -21  -7  -4   37.40   35.10   1
  21  -7  -4   62.10   35.30   1
 -21   7   4  137.80   36.20   1
 -21   7  -4   33.20   35.70   1
  21  -7   4   24.80   35.50   1
 -21  -7   4   28.70   35.00   1
  21   7  -4   40.40   35.00   1
  21   7   5   -0.00   10.40   1
 -21  -7  -5   -0.00   10.40   1
  21  -7  -5    6.50   10.60   1
 -21   7   5   -0.00   10.40   1
 -21   7  -5    9.20   13.80   1
  21  -7   5   -0.00   11.30   1
 -21  -7   5    5.70   10.30   1
  21   7  -5    8.40   10.30   1
  21   8   0    8.20   17.00   1
 -21  -8   0   10.50   17.00   1
  21  -8   0   20.20   17.40   1
 -21   8   0    5.90   17.20   1
  21   8   1    2.60   16.20   1
 -21  -8  -1    3.00   16.30   1
  21  -8  -1   17.70   16.70   1
 -21   8   1    0.00   16.40   1
 -21   8  -1   15.50   16.40   1
  21  -8   1   38.80   16.60   1
 -21  -8   1    8.70   16.10   1
  21   8  -1    8.80   16.10   1
  21   8   2   35.20   28.60   1
 -21  -8  -2   13.80   28.60   1
  21  -8  -2   45.50   28.80   1
 -21   8   2   25.90   28.70   1
 -21   8  -2   43.60   28.90   1
  21  -8   2   24.70   28.80   1
 -21  -8   2   29.60   28.60   1
  21   8  -2   30.00   28.60   1
  21   8   3    7.70   21.70   1
 -21  -8  -3    3.80   21.70   1
  21  -8  -3   13.70   21.80   1
 -21   8   3   13.40   21.70   1
 -21   8  -3   11.70   22.60   1
  21  -8   3   17.50   22.20   1
 -21  -8   3   25.90   21.70   1
  21   8  -3   60.60   21.90   1
  21   8   4    3.90   13.90   1
 -21  -8  -4    6.60   13.90   1
  21  -8  -4    9.80   13.90   1
 -21   8   4    5.90   13.90   1
 -21   8  -4   12.90   15.40   1
  21  -8   4   13.20   15.20   1
 -21  -8   4    5.10   13.70   1
  21   8  -4    7.20   13.70   1
  21   8   5   -0.10   14.00   1
 -21  -8  -5   21.20   14.10   1
  21  -8  -5   -0.00   14.10   1
 -21   8   5    3.00   14.20   1
 -21   8  -5   96.50   19.00   1
  21  -8   5   41.90   16.60   1
 -21  -8   5    1.40   13.90   1
  21   8  -5    8.30   13.90   1
  21   9   0    2.30   19.20   1
 -21  -9   0   51.30   19.50   1
  21  -9   0   16.60   19.60   1
 -21   9   0    4.60   19.50   1
  21   9   1   -0.00    9.70   1
 -21  -9  -1   10.40    9.70   1
  21  -9  -1    7.60   10.30   1
 -21   9   1    0.00   10.00   1
 -21   9  -1    1.40   10.20   1
  21  -9   1    4.10   10.00   1
 -21  -9   1    4.10    9.70   1
  21   9  -1   -0.00    9.60   1
  21   9   2   -0.00   14.70   1
 -21  -9  -2   16.40   14.80   1
  21  -9  -2   15.50   15.00   1
 -21   9   2   10.50   14.90   1
 -21   9  -2   -0.00   15.50   1
  21  -9   2    3.70   15.10   1
 -21  -9   2    4.50   14.70   1
  21   9  -2   10.70   14.70   1
  21   9   3    7.60   11.50   1
 -21  -9  -3    4.70   11.50   1
  21  -9  -3    2.80   11.70   1
 -21   9   3    2.50   11.80   1
 -21   9  -3   13.40   13.40   1
  21  -9   3    0.30   12.90   1
 -21  -9   3    4.30   11.50   1
  21   9  -3    3.90   11.50   1
  21   9   4   22.20   20.20   1
 -21  -9  -4   13.70   20.20   1
  21  -9  -4   20.60   20.20   1
 -21   9   4   18.30   20.20   1
 -21   9  -4   10.90   22.10   1
  21  -9   4   -0.00   20.80   1
 -21  -9   4   11.20   20.10   1
  21   9  -4   11.80   20.00   1
  21  10   0    6.60    7.80   1
 -21 -10   0   -0.00    7.70   1
  21 -10   0   -0.00    8.10   1
 -21  10   0   -0.00    8.40   1
  21  10   1   50.40   24.90   1
 -21 -10  -1   27.10   24.80   1
  21 -10  -1  122.30   26.00   1
 -21  10   1   97.10   25.60   1
 -21  10  -1    2.40   24.90   1
  21 -10   1    1.00   24.80   1
 -21 -10   1   11.70   24.70   1
  21  10  -1   13.80   24.70   1
  21  10   2    7.70   17.30   1
 -21 -10  -2   43.20   17.50   1
  21 -10  -2   28.10   17.70   1
 -21  10   2   35.70   17.70   1
 -21  10  -2   10.80   18.30   1
  21 -10   2   -0.00   17.90   1
 -21 -10   2   -0.00   17.20   1
  21  10  -2   -0.00   17.20   1
  21  10   3   34.40   31.70   1
 -21 -10  -3   54.50   31.90   1
  21 -10  -3   96.40   32.30   1
 -21  10   3   15.50   31.70   1
 -21  10  -3   75.20   32.90   1
  21 -10   3   17.80   32.30   1
 -21 -10   3   56.90   31.80   1
  21  10  -3   21.80   31.60   1
  21  11   0    5.60   11.30   1
 -21 -11   0    4.60   11.30   1
  21 -11   0   -0.00   11.80   1
 -21  11   0    5.50   11.70   1
  21  11   1   -0.00    7.00   1
 -21 -11  -1    0.70    6.90   1
  21 -11  -1    1.40    7.60   1
 -21  11   1   -0.00    7.80   1
 -21  11  -1    2.00    8.50   1
  21 -11   1    4.50    7.90   1
 -21 -11   1   -0.00    7.00   1
  21  11  -1    5.70    7.10   1
  22   0   0   18.40   24.70   1
 -22   0   0   25.40   24.70   1
  22   0   1   31.70   32.50   1
 -22   0  -1   45.20   32.60   1
  22   0  -1   40.70   32.60   1
 -22   0   1   34.30   32.60   1
  22   0   2   38.50   28.70   1
 -22   0  -2   35.10   28.70   1
  22   0  -2   21.80   28.60   1
 -22   0   2   26.40   28.70   1
  22   0   3    2.70   18.20   1
 -22   0  -3    8.40   18.10   1
  22   0  -3   15.00   18.00   1
 -22   0   3   17.00   18.00   1
  22   0   4   34.00   30.10   1
 -22   0  -4   32.50   30.00   1
  22   0  -4   26.90   29.90   1
 -22   0   4   36.70   30.00   1
  22   0   5   13.30   19.70   1
 -22   0  -5   14.10   19.60   1
  22   0  -5    9.80   19.50   1
 -22   0   5   17.80   19.50   1
  22   0   6   17.40   18.70   1
 -22   0  -6   18.00   18.60   1
  22   0  -6   12.00   18.40   1
 -22   0   6    7.10   18.30   1
  22   1   0   11.00   12.70   1
 -22  -1   0    8.40   12.60   1
  22  -1   0    3.60   12.60   1
 -22   1   0   -0.00   12.50   1
  22   1   1   -0.00    8.70   1
 -22  -1  -1    3.20    8.70   1
  22  -1  -1    0.20    8.70   1
 -22   1   1    2.70    8.70   1
 -22   1  -1    5.10    8.70   1
  22  -1   1    6.70    8.70   1
 -22  -1   1    1.60    8.60   1
  22   1  -1    0.20    8.70   1
  22   1   2   10.00   18.00   1
 -22  -1  -2   10.20   18.00   1
  22  -1  -2   19.60   18.00   1
 -22   1   2   16.40   18.00   1
 -22   1  -2   -0.00   17.90   1
  22  -1   2   -0.00   18.10   1
 -22  -1   2   13.80   17.90   1
  22   1  -2   21.30   18.00   1
  22   1   3   12.10   15.60   1
 -22  -1  -3    4.00   15.30   1
  22  -1  -3   -0.00   15.30   1
 -22   1   3    6.30   15.30   1
 -22   1  -3    7.30   15.50   1
  22  -1   3   11.10   15.60   1
 -22  -1   3   18.00   15.40   1
  22   1  -3   12.00   15.30   1
  22   1   4    2.00   17.40   1
 -22  -1  -4    7.10   17.40   1
  22  -1  -4    7.30   17.30   1
 -22   1   4    8.10   17.30   1
 -22   1  -4   12.10   17.50   1
  22  -1   4   10.10   17.50   1
 -22  -1   4   17.40   17.30   1
  22   1  -4   17.90   17.30   1
  22   1   5    3.10    5.90   1
 -22  -1  -5   -0.00    6.10   1
  22  -1  -5   -0.00    5.40   1
 -22   1   5   -0.00    5.70   1
 -22   1  -5   -0.00    5.80   1
  22  -1   5   -0.00    6.10   1
 -22  -1   5    0.20    5.30   1
  22   1  -5    2.50    5.40   1
  22   1   6    6.00   15.30   1
 -22  -1  -6   -0.00   15.30   1
  22  -1  -6    9.60   15.10   1
 -22   1   6    7.10   15.10   1
 -22   1  -6   -0.00   15.70   1
  22  -1   6    3.40   15.30   1
 -22  -1   6   13.20   15.10   1
  22   1  -6   14.80   15.10   1
  22   2   0   61.80   23.90   1
 -22  -2   0   21.30   23.60   1
  22  -2   0   10.10   23.50   1
 -22   2   0    9.80   23.50   1
  22   2   1   19.00   24.50   1
 -22  -2  -1   17.80   24.40   1
  22  -2  -1   10.10   24.40   1
 -22   2   1   14.50   24.40   1
 -22   2  -1   38.90   24.50   1
  22  -2   1   34.60   24.50   1
 -22  -2   1   25.80   24.40   1
  22   2  -1   17.20   24.40   1
  22   2   2   22.10   16.30   1
 -22  -2  -2    0.80   16.20   1
  22  -2  -2    0.00   16.20   1
 -22   2   2    8.80   16.30   1
 -22   2  -2    5.50   16.30   1
  22  -2   2   -0.00   16.30   1
 -22  -2   2   19.00   16.20   1
  22   2  -2   20.30   16.30   1
  22   2   3    3.80   20.90   1
 -22  -2  -3   42.10   21.20   1
  22  -2  -3   20.10   20.90   1
 -22   2   3    9.20   20.80   1
 -22   2  -3   -0.00   21.00   1
  22  -2   3   11.40   21.00   1
 -22  -2   3   26.10   20.90   1
  22   2  -3   21.60   20.90   1
  22   2   4    9.40   12.80   1
 -22  -2  -4   -0.00   12.80   1
  22  -2  -4    6.00   12.70   1
 -22   2   4   13.40   12.70   1
 -22   2  -4    7.30   12.90   1
  22  -2   4    3.00   13.00   1
 -22  -2   4    6.20   12.60   1
  22   2  -4   -0.00   12.60   1
  22   2   5   23.40   20.40   1
 -22  -2  -5   11.90   20.40   1
  22  -2  -5   23.10   20.30   1
 -22   2   5    7.10   20.30   1
 -22   2  -5    8.20   20.40   1
  22  -2   5    7.50   20.30   1
 -22  -2   5   15.50   20.20   1
  22   2  -5   18.90   20.20   1
  22   3   0  123.80   59.90   1
 -22  -3   0  157.90   60.20   1
  22  -3   0  104.70   59.70   1
 -22   3   0  113.30   59.70   1
  22   3   1    5.10   11.40   1
 -22  -3  -1   -0.00   11.40   1
  22  -3  -1   -0.00   11.50   1
 -22   3   1    3.10   11.40   1
 -22   3  -1    3.90   11.50   1
  22  -3   1   12.10   11.70   1
 -22  -3   1    8.40   11.40   1
  22   3  -1    5.00   11.40   1
  22   3   2   34.00   26.00   1
 -22  -3  -2   19.70   26.00   1
  22  -3  -2   31.70   26.00   1
 -22   3   2   24.90   26.00   1
 -22   3  -2   21.90   26.00   1
  22  -3   2   21.20   26.10   1
 -22  -3   2   31.10   26.00   1
  22   3  -2   13.40   25.90   1
  22   3   3   15.80   24.20   1
 -22  -3  -3   29.20   24.20   1
  22  -3  -3   14.70   24.20   1
 -22   3   3   14.60   24.20   1
 -22   3  -3   53.80   24.50   1
  22  -3   3   31.40   24.40   1
 -22  -3   3   18.90   24.20   1
  22   3  -3   14.00   24.10   1
  22   3   4   32.50   21.70   1
 -22  -3  -4   17.10   21.40   1
  22  -3  -4   15.50   21.40   1
 -22   3   4   30.40   21.50   1
 -22   3  -4    7.80   21.50   1
  22  -3   4    5.30   21.50   1
 -22  -3   4   15.20   21.30   1
  22   3  -4   15.70   21.30   1
  22   3   5   10.00   15.50   1
 -22  -3  -5   -0.00   15.50   1
  22  -3  -5    2.20   15.30   1
 -22   3   5    9.50   15.40   1
 -22   3  -5   -0.00   15.60   1
  22  -3   5   -0.00   15.40   1
 -22  -3   5   17.90   15.20   1
  22   3  -5   15.70   15.20   1
  22   4   0   16.60   18.70   1
 -22  -4   0   13.10   18.60   1
  22  -4   0    7.30   18.80   1
 -22   4   0   11.20   18.80   1
  22   4   1   16.10   13.60   1
 -22  -4  -1    7.60   13.60   1
  22  -4  -1   10.30   13.60   1
 -22   4   1    4.70   13.60   1
 -22   4  -1   -0.00   13.70   1
  22  -4   1    8.90   13.80   1
 -22  -4   1   -0.00   13.50   1
  22   4  -1    5.40   13.50   1
  22   4   2   -0.00    8.30   1
 -22  -4  -2   -0.00    8.20   1
  22  -4  -2   -0.00    8.30   1
 -22   4   2    8.30    8.40   1
 -22   4  -2    2.80    8.40   1
  22  -4   2    3.50    8.70   1
 -22  -4   2   -0.00    8.10   1
  22   4  -2    3.30    8.00   1
  22   4   3   -0.00    8.80   1
 -22  -4  -3   -0.00    8.60   1
  22  -4  -3   -0.00    8.80   1
 -22   4   3   12.30    8.80   1
 -22   4  -3    1.00    9.00   1
  22  -4   3    1.20    9.10   1
 -22  -4   3   -0.00    8.60   1
  22   4  -3    4.90    8.60   1
  22   4   4    8.50    8.80   1
 -22  -4  -4   -0.00    8.80   1
  22  -4  -4   -0.00    8.60   1
 -22   4   4    7.80    8.70   1
 -22   4  -4    0.00    9.00   1
  22  -4   4    0.80    8.90   1
 -22  -4   4   -0.00    8.50   1
  22   4  -4    2.50    8.50   1
  22   4   5   -0.00    8.80   1
 -22  -4  -5   -0.00    8.60   1
  22  -4  -5    2.30    8.40   1
 -22   4   5   10.30    8.50   1
 -22   4  -5   -0.00    9.80   1
  22  -4   5   -0.00    9.30   1
 -22  -4   5    1.30    8.20   1
  22   4  -5    1.20    8.20   1
  22   5   0   49.50   24.60   1
 -22  -5   0   20.60   24.40   1
  22  -5   0   12.90   24.50   1
 -22   5   0   12.10   24.40   1
  22   5   1   12.20   23.10   1
 -22  -5  -1   20.60   23.10   1
  22  -5  -1   11.70   23.10   1
 -22   5   1    8.30   23.10   1
 -22   5  -1   41.40   23.40   1
  22  -5   1   37.50   23.40   1
 -22  -5   1   20.90   23.10   1
  22   5  -1   22.20   23.10   1
  22   5   2   40.90   39.10   1
 -22  -5  -2   57.30   39.20   1
  22  -5  -2   71.70   39.30   1
 -22   5   2   56.70   39.20   1
 -22   5  -2   86.40   39.50   1
  22  -5   2   99.40   39.60   1
 -22  -5   2   35.10   39.10   1
  22   5  -2   46.50   39.10   1
  22   5   3   90.40   27.30   1
 -22  -5  -3   31.40   26.70   1
  22  -5  -3   31.30   26.80   1
 -22   5   3   73.30   27.10   1
 -22   5  -3   21.40   26.80   1
  22  -5   3   22.30   26.70   1
 -22  -5   3   15.00   26.50   1
  22   5  -3   13.00   26.50   1
  22   5   4    8.80   22.50   1
 -22  -5  -4   -0.00   22.50   1
  22  -5  -4    5.60   22.50   1
 -22   5   4   17.30   22.50   1
 -22   5  -4   27.20   22.80   1
  22  -5   4    5.00   22.60   1
 -22  -5   4   39.30   22.50   1
  22   5  -4   58.20   22.60   1
  22   5   5    4.00   12.80   1
 -22  -5  -5    9.50   12.70   1
  22  -5  -5    3.60   12.60   1
 -22   5   5    6.40   12.60   1
 -22   5  -5   18.10   14.50   1
  22  -5   5   26.40   14.10   1
 -22  -5   5    0.50   12.40   1
  22   5  -5    5.00   12.50   1
  22   6   0    0.00   10.40   1
 -22  -6   0    2.20   10.50   1
  22  -6   0    6.60   10.70   1
 -22   6   0    8.60   10.70   1
  22   6   1   11.00   15.70   1
 -22  -6  -1   11.90   15.70   1
  22  -6  -1   33.50   16.00   1
 -22   6   1    7.10   15.80   1
 -22   6  -1    9.50   15.90   1
  22  -6   1    9.80   16.00   1
 -22  -6   1   -0.00   15.70   1
  22   6  -1   -0.00   15.60   1
  22   6   2    7.30   14.50   1
 -22  -6  -2    8.10   14.50   1
  22  -6  -2    0.00   14.50   1
 -22   6   2    6.10   14.50   1
 -22   6  -2    5.60   14.80   1
  22  -6   2    6.00   14.70   1
 -22  -6   2    9.50   14.40   1
  22   6  -2   12.50   14.40   1
  22   6   3    3.40   10.30   1
 -22  -6  -3    9.70   10.40   1
  22  -6  -3    8.70   10.40   1
 -22   6   3    2.10   10.40   1
 -22   6  -3    7.20   10.60   1
  22  -6   3    3.50   10.50   1
 -22  -6   3   -0.00   10.10   1
  22   6  -3   -0.00   10.10   1
  22   6   4    1.30    5.50   1
 -22  -6  -4    2.40    5.50   1
  22  -6  -4    0.10    5.60   1
 -22   6   4   -0.00    5.90   1
 -22   6  -4    4.00    7.80   1
  22  -6   4    0.40    6.60   1
 -22  -6   4   -0.00    5.20   1
  22   6  -4    0.10    5.20   1
  22   7   0   48.80   37.70   1
 -22  -7   0   47.30   37.70   1
  22  -7   0   60.90   37.90   1
 -22   7   0   47.50   37.80   1
  22   7   1   13.20   15.60   1
 -22  -7  -1    7.70   15.60   1
  22  -7  -1   11.00   15.80   1
 -22   7   1    0.00   15.70   1
 -22   7  -1   10.30   16.00   1
  22  -7   1   -0.00   15.80   1
 -22  -7   1   12.70   15.60   1
  22   7  -1   10.30   15.50   1
  22   7   2   70.20   38.50   1
 -22  -7  -2   70.70   38.50   1
  22  -7  -2   46.40   38.40   1
 -22   7   2   40.70   38.30   1
 -22   7  -2   40.20   38.40   1
  22  -7   2   52.80   38.40   1
 -22  -7   2   60.90   38.30   1
  22   7  -2   46.80   38.30   1
  22   7   3    9.50    9.50   1
 -22  -7  -3    2.00    9.50   1
  22  -7  -3    4.30    9.50   1
 -22   7   3    2.50    9.50   1
 -22   7  -3   -0.00    9.90   1
  22  -7   3    3.10    9.70   1
 -22  -7   3    2.80    9.20   1
  22   7  -3   -0.00    9.10   1
  22   8   0   14.10   27.10   1
 -22  -8   0   76.90   27.50   1
  22  -8   0   16.60   27.30   1
 -22   8   0   28.30   27.30   1
  22   8   1   98.50   63.40   1
 -22  -8  -1  152.10   63.70   1
  22  -8  -1  194.10   64.10   1
 -22   8   1  149.40   63.70   1
 -22   8  -1  159.80   63.80   1
  22  -8   1  138.30   63.70   1
 -22  -8   1  122.90   63.40   1
  22   8  -1  124.80   63.40   1
  22   8   2    9.90   21.80   1
 -22  -8  -2    5.90   21.70   1
  22  -8  -2    2.40   21.80   1
 -22   8   2   27.40   21.90   1
 -22   8  -2   10.60   21.90   1
  22  -8   2    6.70   21.90   1
 -22  -8   2   27.20   21.70   1
  22   8  -2   46.70   21.80   1
  22   9   0    0.50   11.20   1
 -22  -9   0    8.90   11.30   1
  22  -9   0   -0.00   11.60   1
 -22   9   0    9.60   11.60   1
  22   9   1    7.80   10.40   1
 -22  -9  -1   -0.00   10.40   1
  22  -9  -1   11.70   10.80   1
 -22   9   1    6.00   10.70   1
 -22   9  -1   -0.00   10.80   1
  22  -9   1    0.30   10.60   1
 -22  -9   1    3.20   10.20   1
  22   9  -1    2.10   10.30   1
  23   0   0   -0.20    3.90   1
 -23   0   0   -0.00    3.80   1
  23   0   1    5.80   18.20   1
 -23   0  -1   -0.00   18.20   1
  23   0  -1   18.60   18.30   1
 -23   0   1   31.30   18.40   1
  23   0   2    2.30   10.50   1
 -23   0  -2    8.00   10.60   1
  23   0  -2    1.20   10.30   1
 -23   0   2    3.70   10.40   1
  23   0   3  186.70   76.40   1
 -23   0  -3  165.20   76.20   1
  23   0  -3  193.90   76.50   1
 -23   0   3  203.50   76.60   1
  23   0   4  103.40   52.70   1
 -23   0  -4   66.30   52.40   1
  23   0  -4  105.30   52.60   1
 -23   0   4  119.00   52.70   1
  23   1   0    3.40    6.10   1
 -23  -1   0   -0.00    6.00   1
  23  -1   0   -0.00    6.20   1
 -23   1   0   -0.00    6.30   1
  23   1   1   -0.00    5.90   1
 -23  -1  -1   -0.00    5.80   1
  23  -1  -1   -0.00    5.90   1
 -23   1   1   -0.00    5.80   1
 -23   1  -1   -0.00    5.90   1
  23  -1   1   -0.00    5.90   1
 -23  -1   1    0.90    5.80   1
  23   1  -1    5.30    5.80   1
  23   1   2   10.20   16.60   1
 -23  -1  -2    9.40   16.60   1
  23  -1  -2   25.30   16.70   1
 -23   1   2   23.60   16.70   1
 -23   1  -2    3.20   16.50   1
  23  -1   2   16.00   16.80   1
 -23  -1   2   -0.00   16.50   1
  23   1  -2    0.00   16.50   1
  23   1   3    5.90   12.90   1
 -23  -1  -3    7.30   12.80   1
  23  -1  -3    5.30   12.70   1
 -23   1   3    2.30   12.70   1
 -23   1  -3   -0.00   12.80   1
  23  -1   3    7.80   13.00   1
 -23  -1   3    7.00   12.70   1
  23   1  -3    8.50   12.70   1
  23   1   4   -0.00   11.90   1
 -23  -1  -4   16.80   12.00   1
  23  -1  -4    2.30   11.70   1
 -23   1   4    7.20   11.70   1
 -23   1  -4    6.80   12.10   1
  23  -1   4    8.00   12.00   1
 -23  -1   4    2.30   11.60   1
  23   1  -4   -0.00   11.60   1
  23   2   0    5.90   15.80   1
 -23  -2   0   -0.00   15.80   1
  23  -2   0   15.70   15.80   1
 -23   2   0   14.80   15.80   1
  23   2   1   15.10   16.60   1
 -23  -2  -1   10.30   16.50   1
  23  -2  -1   17.90   16.60   1
 -23   2   1    9.50   16.60   1
 -23   2  -1    6.10   16.50   1
  23  -2   1   16.20   16.60   1
 -23  -2   1    4.60   16.40   1
  23   2  -1    3.80   16.40   1
  23   2   2   17.80   12.60   1
 -23  -2  -2    4.20   12.60   1
  23  -2  -2    7.90   12.60   1
 -23   2   2    8.80   12.60   1
 -23   2  -2    6.60   12.70   1
  23  -2   2   -0.00   12.70   1
 -23  -2   2    0.00   12.50   1
  23   2  -2   -0.00   12.50   1
  23   2   3    7.50   12.90   1
 -23  -2  -3   -0.00   13.00   1
  23  -2  -3    6.80   12.90   1
 -23   2   3   -0.00   12.80   1
 -23   2  -3   16.60   13.20   1
  23  -2   3   23.00   13.20   1
 -23  -2   3    3.60   12.80   1
  23   2  -3    0.80   12.70   1
  23   2   4   13.20   24.90   1
 -23  -2  -4   12.80   24.90   1
  23  -2  -4   15.50   24.80   1
 -23   2   4   19.20   24.80   1
 -23   2  -4   20.70   24.90   1
  23  -2   4   14.80   25.00   1
 -23  -2   4   39.80   24.90   1
  23   2  -4   39.90   24.90   1
  23   3   0   -0.00    6.10   1
 -23  -3   0    4.10    6.30   1
  23  -3   0   -0.00    6.20   1
 -23   3   0   -0.00    6.40   1
  23   3   1   -0.00   11.40   1
 -23  -3  -1    6.90   11.40   1
  23  -3  -1    2.10   11.40   1
 -23   3   1    4.00   11.40   1
 -23   3  -1    4.90   11.40   1
  23  -3   1   -0.00   11.60   1
 -23  -3   1    6.90   11.30   1
  23   3  -1    8.70   11.40   1
  23   3   2   37.00   32.50   1
 -23  -3  -2   17.80   32.40   1
  23  -3  -2   24.70   32.50   1
 -23   3   2   44.40   32.60   1
 -23   3  -2   55.20   32.70   1
  23  -3   2   73.20   32.80   1
 -23  -3   2   29.80   32.40   1
  23   3  -2   51.70   32.50   1
  23   3   3   12.80   18.20   1
 -23  -3  -3   11.50   18.30   1
  23  -3  -3   12.70   18.30   1
 -23   3   3   17.10   18.30   1
 -23   3  -3    0.00   18.30   1
  23  -3   3   13.00   18.40   1
 -23  -3   3   10.70   18.20   1
  23   3  -3   15.00   18.20   1
  23   4   0    4.10    9.70   1
 -23  -4   0    2.70    9.80   1
  23  -4   0    4.90    9.90   1
 -23   4   0   -0.00    9.90   1
  23   4   1    6.00   13.80   1
 -23  -4  -1   52.80   14.40   1
  23  -4  -1    5.70   13.90   1
 -23   4   1    6.60   14.00   1
 -23   4  -1    0.30   14.00   1
  23  -4   1   -0.00   14.10   1
 -23  -4   1   -0.00   13.80   1
  23   4  -1    5.80   13.80   1
  23   4   2   15.90   14.40   1
 -23  -4  -2   -0.00   14.30   1
  23  -4  -2   15.20   14.50   1
 -23   4   2   20.50   14.50   1
 -23   4  -2    3.00   14.40   1
  23  -4   2    4.90   14.60   1
 -23  -4   2    0.40   14.20   1
  23   4  -2    4.80   14.20   1
  23   4   3    4.50   12.30   1
 -23  -4  -3   -0.00   12.40   1
  23  -4  -3   -0.00   12.40   1
 -23   4   3   -0.00   12.30   1
 -23   4  -3   42.70   12.90   1
  23  -4   3   14.10   12.70   1
 -23  -4   3    4.30   12.30   1
  23   4  -3   -0.00   12.20   1
  23   5   0    4.00    9.70   1
 -23  -5   0    6.70    9.80   1
  23  -5   0   -0.00   10.20   1
 -23   5   0   -0.00    9.90   1
  23   5   1    9.70   14.50   1
 -23  -5  -1   -0.00   14.50   1
  23  -5  -1   14.60   14.70   1
 -23   5   1    5.90   14.60   1
 -23   5  -1    8.80   14.80   1
  23  -5   1   -0.00   14.80   1
 -23  -5   1   10.20   14.60   1
  23   5  -1    9.60   14.50   1
  23   5   2   71.70   41.00   1
 -23  -5  -2   72.70   41.00   1
  23  -5  -2   90.00   41.10   1
 -23   5   2   66.30   40.90   1
 -23   5  -2   19.10   40.70   1
  23  -5   2   30.00   40.70   1
 -23  -5   2   92.10   41.00   1
  23   5  -2   72.10   40.80   1
  23   6   0    9.60   10.10   1
 -23  -6   0    1.50   10.10   1
  23  -6   0   -0.00   10.30   1
 -23   6   0   -0.00   10.30   1
  23   6   1    4.10   18.30   1
 -23  -6  -1   10.90   18.30   1
  23  -6  -1   12.00   18.50   1
 -23   6   1   16.90   18.40   1
 -23   6  -1   -0.00   18.40   1
  23  -6   1   -0.00   18.50   1
 -23  -6   1   39.50   18.50   1
  23   6  -1   15.30   18.30   1
;
_shelx_hkl_checksum              12508
loop_
_space_group_symop_operation_xyz
'x, y, z'
'-x+1/2, -y, z+1/2'
'x+1/2, -y+1/2, -z+1/2'
'-x, y+1/2, -z'
'-x, -y, -z'
'x-1/2, y, -z-1/2'
'-x-1/2, y-1/2, z-1/2'
'x, -y-1/2, z'
loop_
_atom_site_label
_atom_site_type_symbol
_atom_site_fract_x
_atom_site_fract_y
_atom_site_fract_z
_atom_site_U_iso_or_equiv
_atom_site_adp_type
_atom_site_occupancy
_atom_site_site_symmetry_order
_atom_site_calc_flag
_atom_site_refinement_flags_posn
_atom_site_refinement_flags_occupancy
Si01 Si 0.4231(3) 0.0574(3) -0.3355(5) 0.0222(17) Uiso 1 1 d D .
Si02 Si 0.3088(3) 0.0294(4) -0.1883(6) 0.0274(19) Uiso 1 1 d D .
Si03 Si 0.2797(3) 0.0616(3) 0.0353(6) 0.0246(18) Uiso 1 1 d D .
Si04 Si 0.1226(2) 0.0639(3) 0.0287(6) 0.0219(17) Uiso 1 1 d D .
Si05 Si 0.0725(3) 0.0285(3) -0.1836(5) 0.0188(17) Uiso 1 1 d D .
Si06 Si 0.1875(3) 0.0598(3) -0.3265(6) 0.0216(17) Uiso 1 1 d D .
Si07 Si 0.4228(2) -0.1718(3) -0.3245(5) 0.0211(17) Uiso 1 1 d D .
Si08 Si 0.3085(3) -0.1299(4) -0.1834(6) 0.0265(18) Uiso 1 1 d D .
Si09 Si 0.2746(3) -0.1724(3) 0.0319(5) 0.0231(18) Uiso 1 1 d D .
Si10 Si 0.1198(3) -0.1723(4) 0.0300(6) 0.0266(18) Uiso 1 1 d D .
Si11 Si 0.0692(2) -0.1301(3) -0.1819(5) 0.0210(17) Uiso 1 1 d D .
Si12 Si 0.1871(3) -0.1729(4) -0.3167(6) 0.0294(19) Uiso 1 1 d D .
O01 O 0.3738(5) 0.0543(7) -0.2432(10) 0.050(3) Uiso 1 1 d D .
O02 O 0.3080(5) 0.0598(7) -0.0762(10) 0.047(3) Uiso 1 1 d D .
O03 O 0.2011(3) 0.0574(7) 0.0316(13) 0.048(3) Uiso 1 1 d D .
O04 O 0.0960(6) 0.0617(7) -0.0822(10) 0.058(4) Uiso 1 1 d D .
O05 O 0.1163(5) 0.0555(6) -0.2733(10) 0.043(3) Uiso 1 1 d D .
O06 O 0.2451(5) 0.0559(7) -0.2457(10) 0.057(4) Uiso 1 1 d D .
O07 O 0.3746(5) -0.1572(7) -0.2330(11) 0.053(3) Uiso 1 1 d D .
O08 O 0.3094(5) -0.1550(7) -0.0715(10) 0.046(3) Uiso 1 1 d D .
O09 O 0.1971(4) -0.1546(7) 0.0263(11) 0.042(3) Uiso 1 1 d D .
O10 O 0.0868(7) -0.1647(9) -0.0789(11) 0.080(5) Uiso 1 1 d D .
O11 O 0.1175(5) -0.1580(7) -0.2663(10) 0.051(3) Uiso 1 1 d D .
O12 O 0.2429(5) -0.1529(7) -0.2391(10) 0.056(4) Uiso 1 1 d D .
O13 O 0.3078(7) -0.0508(8) -0.1803(18) 0.082(5) Uiso 1 1 d D .
O14 O 0.0787(6) -0.0510(6) -0.1716(13) 0.058(4) Uiso 1 1 d D .
O15 O 0.4163(5) 0.1279(6) -0.3890(10) 0.045(3) Uiso 1 1 d D .
O16 O 0.4082(6) -0.0023(8) -0.4117(13) 0.064(4) Uiso 1 1 d D .
O17 O 0.4014(5) -0.1319(6) -0.4222(9) 0.047(3) Uiso 1 1 d D .
O18 O 0.1902(5) 0.1304(7) -0.3809(11) 0.045(3) Uiso 1 1 d D .
O19 O 0.1918(5) 0.0026(6) -0.4079(12) 0.056(4) Uiso 1 1 d D .
O20 O 0.1973(6) -0.1295(7) -0.4152(11) 0.057(4) Uiso 1 1 d D .
O21 O -0.0027(5) 0.0495(6) -0.2060(10) 0.040(3) Uiso 1 1 d D .
O22 O -0.0044(4) -0.1523(6) -0.2096(11) 0.047(3) Uiso 1 1 d D .
O23 O 0.4250(8) -0.250000 -0.3529(17) 0.053(5) Uiso 1 2 d DS P
O24 O 0.1908(7) -0.250000 -0.3482(17) 0.050(5) Uiso 1 2 d DS P
O25 O 0.2851(7) -0.250000 0.0579(14) 0.039(4) Uiso 1 2 d DS P
O26 O 0.1101(7) -0.250000 0.0600(15) 0.044(4) Uiso 1 2 d DS P
loop_
_atom_type_symbol
_atom_type_description
_atom_type_scat_dispersion_real
_atom_type_scat_dispersion_imag
_atom_type_scat_source
O O 0.0000 0.0000 'International Tables Vol C Tables 4.2.6.8 and 6.1.1.4'
Si Si 0.0000 0.0000 'International Tables Vol C Tables 4.2.6.8 and 6.1.1.4'
loop_
_geom_angle_atom_site_label_1
_geom_angle_atom_site_label_2
_geom_angle_atom_site_label_3
_geom_angle
_geom_angle_site_symmetry_1
_geom_angle_site_symmetry_3
O01 Si01 O15 109.5(7) . .
O01 Si01 O21 107.9(8) . 6_655
O15 Si01 O21 109.0(7) . 6_655
O01 Si01 O16 110.7(8) . .
O15 Si01 O16 110.8(10) . .
O21 Si01 O16 108.9(7) 6_655 .
O01 Si02 O06 109.6(9) . .
O01 Si02 O13 110.8(9) . .
O06 Si02 O13 110.9(9) . .
O01 Si02 O02 108.8(7) . .
O06 Si02 O02 108.5(8) . .
O13 Si02 O02 108.1(11) . .
O20 Si03 O03 110.5(8) 2 .
O20 Si03 O19 112.6(9) 2 2
O03 Si03 O19 109.2(7) . 2
O20 Si03 O02 108.1(8) 2 .
O03 Si03 O02 108.9(8) . .
O19 Si03 O02 107.5(8) 2 .
O04 Si04 O03 111.0(9) . .
O04 Si04 O17 108.2(8) . 2
O03 Si04 O17 111.3(7) . 2
O04 Si04 O16 108.7(9) . 2
O03 Si04 O16 108.2(8) . 2
O17 Si04 O16 109.5(9) 2 2
O05 Si05 O04 110.1(8) . .
O05 Si05 O21 107.0(7) . .
O04 Si05 O21 109.5(8) . .
O05 Si05 O14 111.8(8) . .
O04 Si05 O14 107.8(9) . .
O21 Si05 O14 110.7(7) . .
O19 Si06 O06 113.4(8) . .
O19 Si06 O18 108.7(10) . .
O06 Si06 O18 109.5(7) . .
O19 Si06 O05 108.5(7) . .
O06 Si06 O05 110.0(8) . .
O18 Si06 O05 106.4(7) . .
O22 Si07 O07 107.1(8) 6_655 .
O22 Si07 O17 111.4(7) 6_655 .
O07 Si07 O17 112.3(8) . .
O22 Si07 O23 106.4(8) 6_655 .
O07 Si07 O23 112.3(9) . .
O17 Si07 O23 107.3(10) . .
O13 Si08 O07 111.2(9) . .
O13 Si08 O12 107.2(9) . .
O07 Si08 O12 113.6(9) . .
O13 Si08 O08 106.9(11) . .
O07 Si08 O08 106.3(8) . .
O12 Si08 O08 111.4(8) . .
O08 Si09 O09 109.7(7) . .
O08 Si09 O25 110.1(9) . .
O09 Si09 O25 110.7(8) . .
O08 Si09 O18 109.2(8) . 2
O09 Si09 O18 110.2(7) . 2
O25 Si09 O18 106.8(9) . 2
O15 Si10 O09 110.2(8) 2 .
O15 Si10 O10 112.5(9) 2 .
O09 Si10 O10 110.6(8) . .
O15 Si10 O26 108.2(9) 2 .
O09 Si10 O26 109.8(8) . .
O10 Si10 O26 105.5(10) . .
O10 Si11 O22 106.8(8) . .
O10 Si11 O11 109.4(9) . .
O22 Si11 O11 107.6(8) . .
O10 Si11 O14 109.2(10) . .
O22 Si11 O14 114.1(7) . .
O11 Si11 O14 109.6(8) . .
O11 Si12 O12 107.3(8) . .
O11 Si12 O20 111.5(8) . .
O12 Si12 O20 108.5(8) . .
O11 Si12 O24 109.6(8) . .
O12 Si12 O24 112.6(9) . .
O20 Si12 O24 107.3(11) . .
Si02 O01 Si01 153.2(10) . .
Si03 O02 Si02 151.5(9) . .
Si03 O03 Si04 172.2(10) . .
Si04 O04 Si05 156.8(11) . .
Si05 O05 Si06 148.5(9) . .
Si02 O06 Si06 159.5(11) . .
Si08 O07 Si07 153.9(11) . .
Si08 O08 Si09 153.0(8) . .
Si10 O09 Si09 153.9(10) . .
Si11 O10 Si10 157.4(13) . .
Si12 O11 Si11 155.3(10) . .
Si08 O12 Si12 167.0(11) . .
Si08 O13 Si02 174.5(18) . .
Si11 O14 Si05 164.4(11) . .
Si10 O15 Si01 148.2(9) 2_554 .
Si04 O16 Si01 165.9(11) 2_554 .
Si04 O17 Si07 148.5(10) 2_554 .
Si06 O18 Si09 144.6(9) . 2_554
Si06 O19 Si03 158.1(10) . 2_554
Si03 O20 Si12 148.6(12) 2_554 .
Si05 O21 Si01 147.4(10) . 6
Si07 O22 Si11 149.6(10) 6 .
Si07 O23 Si07 152.3(16) . 8
Si12 O24 Si12 148.8(16) . 8
Si09 O25 Si09 150.5(13) 8 .
Si10 O26 Si10 147.8(14) 8 .
loop_
_geom_bond_atom_site_label_1
_geom_bond_atom_site_label_2
_geom_bond_distance
_geom_bond_site_symmetry_2
Si01 O01 1.582(11) .
Si01 O15 1.583(13) .
Si01 O21 1.593(11) 6_655
Si01 O16 1.594(15) .
Si02 O01 1.575(11) .
Si02 O06 1.579(10) .
Si02 O13 1.599(16) .
Si02 O02 1.618(15) .
Si03 O20 1.574(13) 2
Si03 O03 1.577(7) .
Si03 O19 1.593(9) 2
Si03 O02 1.596(14) .
Si04 O04 1.577(13) .
Si04 O03 1.578(7) .
Si04 O17 1.580(12) 2
Si04 O16 1.587(14) 2
Si05 O05 1.581(13) .
Si05 O04 1.581(11) .
Si05 O21 1.591(10) .
Si05 O14 1.594(14) .
Si06 O19 1.577(12) .
Si06 O06 1.582(10) .
Si06 O18 1.582(13) .
Si06 O05 1.597(11) .
Si07 O22 1.577(9) 6_655
Si07 O07 1.586(13) .
Si07 O17 1.588(11) .
Si07 O23 1.602(8) .
Si08 O13 1.575(16) .
Si08 O07 1.576(12) .
Si08 O12 1.577(9) .
Si08 O08 1.580(14) .
Si09 O08 1.587(13) .
Si09 O09 1.594(10) .
Si09 O25 1.596(8) .
Si09 O18 1.599(13) 2
Si10 O15 1.574(13) 2
Si10 O09 1.588(10) .
Si10 O10 1.608(14) .
Si10 O26 1.608(9) .
Si11 O10 1.581(12) .
Si11 O22 1.582(9) .
Si11 O11 1.587(10) .
Si11 O14 1.592(14) .
Si12 O11 1.577(9) .
Si12 O12 1.578(10) .
Si12 O20 1.589(11) .
Si12 O24 1.592(9) .

_cod_database_fobs_code 2300641
