#------------------------------------------------------------------------------
#$Date: 2021-04-26 21:28:36 +0300 (Mon, 26 Apr 2021) $
#$Revision: 264551 $
#$URL: file:///home/coder/svn-repositories/cod/cif/2/30/04/2300458.cif $
#------------------------------------------------------------------------------
#
# This file is available in the Crystallography Open Database (COD),
# http://www.crystallography.net/. The original data for this entry
# were provided by IUCr Journals, http://journals.iucr.org/.
#
# The file may be used within the scientific community so long as
# proper attribution is given to the journal article from which the
# data were obtained.
#
data_2300458
loop_
_publ_author_name
'Nogueira, I. C.'
'Cavalcante, L. S.'
'Pereira, P. F. S.'
'de Jesus, M. M.'
'Rivas Mercury, J. M.'
'Batista, N. C.'
'Li, M. Siu'
'Longo, E.'
_publ_section_title
;
 Rietveld refinement, morphology and optical properties of
 (Ba~1{-~<i>x</i>}Sr<i>~x~</i>)MoO~4~ crystals
;
_journal_coeditor_code           aj5215
_journal_issue                   5
_journal_name_full               'Journal of Applied Crystallography'
_journal_page_first              1434
_journal_page_last               1446
_journal_paper_doi               10.1107/S0021889813020335
_journal_volume                  46
_journal_year                    2013
_chemical_compound_source        Scheelite
_chemical_formula_analytical     'Ba0.73 Sr0.27 Mo O4'
_chemical_formula_moiety         'Ba0.73 Sr0.27 O4 Mo1'
_chemical_formula_structural     'Ba0.73 Sr0.27 (MoO4)'
_chemical_formula_sum            'Ba0.73 Mo O4 Sr0.27'
_chemical_formula_weight         283.70
_chemical_melting_point          1761
_chemical_name_common            'Barium strontium molybdate'
_space_group_IT_number           88
_symmetry_cell_setting           tetragonal
_symmetry_space_group_name_Hall  '-I 4ad'
_symmetry_space_group_name_H-M   'I 41/a :2'
_audit_creation_date             2012-10-01T00:01
_audit_creation_method           'from EXP file using GSAS2CIF'
_audit_update_record
' 2012-10-01T00:01  Initial CIF as created by GSAS2CIF'
_cell_angle_alpha                90.0
_cell_angle_beta                 90.0
_cell_angle_gamma                90.0
_cell_formula_units_Z            4
_cell_length_a                   5.54906(5)
_cell_length_b                   5.54906
_cell_length_c                   12.66803(22)
_cell_measurement_temperature    298
_cell_volume                     390.075(8)
_computing_data_collection       Jade
_computing_data_reduction        Jade
_computing_structure_refinement  GSAS
_computing_structure_solution    x
_diffrn_ambient_temperature      298
_diffrn_detector                 scintillation
_diffrn_detector_type            scintillation
_diffrn_measurement_device_type  'Rigaku AFC-7R'
_diffrn_radiation_monochromator  Jade
_diffrn_radiation_polarisn_ratio 0.5
_diffrn_radiation_probe          x-ray
_diffrn_source                   Cu
_diffrn_source_target            Cu
_diffrn_source_type              Copper
_exptl_absorpt_correction_T_max  0.99250
_exptl_absorpt_correction_T_min  0.80477
_exptl_absorpt_process_details
;   GSAS Absorption/surface roughness correction: function number 3
 Surface roughness abs. correction (Suortti)
Terms =     0.10000E-02    0.38859E-01
Correction is refined.
;
_exptl_crystal_density_diffrn    4.934
_exptl_crystal_density_method    'not measured'
_exptl_crystal_F_000             276
_pd_calc_method                  'Rietveld Refinement'
_pd_char_colour                  white
_pd_char_particle_morphology     irregular
_pd_instr_location               ' ?'
_pd_meas_2theta_range_inc        0.02
_pd_meas_2theta_range_max        110.0
_pd_meas_2theta_range_min        10.0
_pd_meas_number_of_points        5001
_pd_meas_scan_method             disp
_pd_phase_name                   'from C:/B75S25_4s precipitado/BaMoO4.cif'
_pd_prep_cool_rate               1
_pd_prep_pressure                100
_pd_prep_temperature             298
_pd_proc_2theta_range_inc        0.02
_pd_proc_2theta_range_max        110.0
_pd_proc_2theta_range_min        10.0
_pd_proc_info_data_reduction     Jade
_pd_proc_info_datetime           2012-10-01T00:01:46
_pd_proc_info_excluded_regions   ' ?'
_pd_proc_ls_background_function
;   GSAS Background function number 1 with 12 terms.
 Shifted Chebyshev function of 1st kind
      1:    133.100     2:   -70.4813     3:    61.0307     4:   -27.0198    
      5:    20.2030     6:   0.206379     7:    5.70022     8:   -7.13785    
      9:    7.08506    10:   -9.53030    11:    10.9561    12:   0.636549    
;
_pd_proc_ls_peak_cutoff          0.00030
_pd_proc_ls_profile_function
;
 CW Profile function number 4 with  17 terms
 Pseudovoigt profile coefficients as parameterized in
 P. Thompson, D.E. Cox & J.B. Hastings (1987). J. Appl. Cryst.,20,79-83.
 Asymmetry correction of L.W. Finger, D.E. Cox & A. P. Jephcoat (1994).
 J. Appl. Cryst.,27,892-900.
 Microstrain broadening by P.W. Stephens,  (1999). J. Appl. Cryst.,32,281-289.
 Peak tails are ignored  where the intensity is below 0.0003 times the peak
   Aniso. broadening axis   0.0   0.0   1.0
;
_pd_proc_number_of_points        5001
_pd_spec_mounting                ' ?'
_refine_ls_goodness_of_fit_all   1.83
_refine_ls_goodness_of_fit_ref   1.36
_refine_ls_matrix_type           full
_refine_ls_number_parameters     24
_refine_ls_number_restraints     0
_refine_ls_R_factor_all          0.0658
_refine_ls_R_factor_gt           0.0555
_refine_ls_R_Fsqd_factor         0.03415
_refine_ls_shift/su_max          0.06
_refine_ls_shift/su_mean         0.01
_refine_ls_wR_factor_gt          0.0898
_reflns_d_resolution_high        0.941
_reflns_d_resolution_low         5.083
_reflns_limit_h_max              5
_reflns_limit_h_min              0
_reflns_limit_k_max              6
_reflns_limit_k_min              0
_reflns_limit_l_max              13
_reflns_limit_l_min              0
_reflns_number_total             246
_cod_data_source_file            aj5215sup2.cif
_cod_data_source_block           BA075_DIP_CP_publ
_cod_depositor_comments
;
The following automatic conversions were performed:

'_geom_bond_publ_flag' value 'N' changed to 'n' according to
/usr/data/users/saulius/crontab/automatic-downloads/rss-feeds/IUCr/lib/dictionaries/cif_core.dic
dictionary named 'cif_core.dic' version 2.4.2 from 2011-04-26 (28
times).

'_geom_angle_publ_flag' value 'N' changed to 'n' according
to
/usr/data/users/saulius/crontab/automatic-downloads/rss-feeds/IUCr/lib/dictionaries/cif_core.dic
dictionary named 'cif_core.dic' version 2.4.2 from 2011-04-26 (81
time).

Automatic conversion script
Id: cif_fix_values 2281 2013-09-26 08:29:07Z andrius 

 Removed the _chemical_name_systematic data item since
 it had an incorrect value 'xx'.

 Antanas Vaitkus,
 2021-04-26
;
_cod_original_cell_volume        390.074(10)
_cod_original_sg_symbol_Hall     -I4ad
_cod_original_sg_symbol_H-M      'I 41/a'
_cod_database_code               2300458
loop_
_symmetry_equiv_pos_site_id
_symmetry_equiv_pos_as_xyz
1 +x,+y,+z
2 -y+3/4,+x+1/4,+z+1/4
3 -x+1/2,-y,+z+1/2
4 +y+3/4,-x+3/4,+z+3/4
-1 -x,-y,-z
-2 +y+1/4,-x+3/4,-z+3/4
-3 +x+1/2,+y,-z+1/2
-4 -y+1/4,+x+1/4,-z+1/4
101 +x+1/2,+y+1/2,+z+1/2
102 -y+1/4,+x+3/4,+z+3/4
103 -x,-y+1/2,+z
104 +y+1/4,-x+1/4,+z+1/4
-101 -x+1/2,-y+1/2,-z+1/2
-102 +y+3/4,-x+1/4,-z+1/4
-103 +x,+y+1/2,-z
-104 -y+3/4,+x+3/4,-z+3/4
loop_
_atom_site_type_symbol
_atom_site_label
_atom_site_fract_x
_atom_site_fract_y
_atom_site_fract_z
_atom_site_occupancy
_atom_site_thermal_displace_type
_atom_site_U_iso_or_equiv
_atom_site_symmetry_multiplicity
Ba Ba1 0.0 0.25 0.625 0.727 Uiso 0.01182 4
Mo Mo1 0.0 0.25 0.125 1.0 Uiso 0.01258 4
O O1 0.23451 0.12889 0.0489 1.0 Uiso 0.01952 16
Sr SR1 0.0 0.25 0.625 0.273 Uiso 0.00985 4
loop_
_atom_type_symbol
_atom_type_number_in_cell
_atom_type_scat_dispersion_real
_atom_type_scat_dispersion_imag
_atom_type_scat_Cromer_Mann_a1
_atom_type_scat_Cromer_Mann_a2
_atom_type_scat_Cromer_Mann_a3
_atom_type_scat_Cromer_Mann_a4
_atom_type_scat_Cromer_Mann_b1
_atom_type_scat_Cromer_Mann_b2
_atom_type_scat_Cromer_Mann_b3
_atom_type_scat_Cromer_Mann_b4
_atom_type_scat_Cromer_Mann_c
_atom_type_scat_source
Ba 2.908 0.000 0.000 20.1807 3.21367 19.1136 0.28331 10.9054 20.0558 0.77363
51.7460 3.02902 International_Tables_Vol_C
Mo 4.0 0.000 0.000 17.8871 1.03649 11.1750 8.48061 6.57891 0.05888 0.0000
0.0000 0.34494 International_Tables_Vol_C
O 16.0 0.000 0.000 3.76936 15.0797 2.53342 6.30430 1.91579 40.3445 1.55094
0.31291 0.22789 International_Tables_Vol_C
Sr 1.092 0.000 0.000 17.5663 1.55640 9.81840 14.0988 5.42200 0.16640 2.66940
132.376 2.50640 International_Tables_Vol_C
loop_
_diffrn_radiation_wavelength
_diffrn_radiation_wavelength_wt
_diffrn_radiation_type
_diffrn_radiation_wavelength_id
1.540500 1.000 'Cu K\a' 1
1.544300 0.500 'Cu K\a' 2
loop_
_geom_angle_atom_site_label_1
_geom_angle_atom_site_label_2
_geom_angle_atom_site_label_3
_geom_angle
_geom_angle_site_symmetry_1
_geom_angle_site_symmetry_3
_geom_angle_publ_flag
Ba1 Ba1 Ba1 82.8670(22) 2_455 2_555 n
Ba1 Ba1 Ba1 124.2002(13) 2_455 4_444 n
Ba1 Ba1 O1 128.20090(10) 2_455 3_555 n
Ba1 Ba1 O1 39.8217(5) 2_455 4_455 n
Ba1 Ba1 O1 103.9342(8) 2_455 -2_555 n
Ba1 Ba1 O1 104.5368(10) 2_455 -3_445 n
Ba1 Ba1 O1 84.8600(7) 2_455 101_455 n
Ba1 Ba1 O1 63.6340(8) 2_455 102_334 n
Ba1 Ba1 O1 163.97510(20) 2_455 -101_444 n
Ba1 Ba1 O1 39.6785 2_455 -104_445 n
Ba1 Ba1 SR4 124.4558(7) 2_455 4_454 n
Ba1 Ba1 Ba1 124.4558(7) 2_555 4_444 n
Ba1 Ba1 Ba1 124.4558(7) 2_555 4_454 n
O1 Ba1 O1 145.93640(10) 3_555 4_455 n
O1 Ba1 O1 97.09850(20) 3_555 -2_555 n
O1 Ba1 O1 79.5003(5) 3_555 -3_445 n
O1 Ba1 SR4 128.20090(10) 3_555 2_455 n
O1 Ba1 SR4 84.8600(7) 3_555 2_555 n
O1 Ba1 SR4 39.6785 3_555 4_444 n
O1 Ba1 SR4 103.9342(8) 3_555 4_454 n
O1 Ba1 O1 138.8376(7) 3_555 101_455 n
O1 Ba1 O1 97.09850(20) 3_555 -104_445 n
O1 Ba1 SR4 39.8217(5) 4_455 2_455 n
O1 Ba1 SR4 63.6340(8) 4_455 2_555 n
O1 Ba1 SR4 163.97510(20) 4_455 4_444 n
O1 Ba1 SR4 104.5368(10) 4_455 4_454 n
O1 Ba1 O1 74.8163(9) 4_455 101_455 n
O1 Ba1 O1 145.93640(10) -2_555 -3_445 n
O1 Ba1 O1 97.09850(20) -2_555 101_455 n
O1 Ba1 O1 79.5003(5) -2_555 102_334 n
O1 Ba1 O1 74.8163(9) -2_555 -101_444 n
O1 Ba1 O1 138.8376(7) -2_555 -104_445 n
O1 Ba1 O1 97.09850(20) 101_455 -104_445 n
O1 Ba1 O1 67.40150(30) -3_445 101_455 n
O1 Ba1 O1 130.4846(7) -3_445 102_334 n
O1 Ba1 O1 72.6332(11) -3_445 -101_444 n
O1 Ba1 O1 74.8163(9) -3_445 -104_445 n
O1 Ba1 SR4 104.5368(10) -101_655 2_555 n
O1 Ba1 SR4 63.6340(8) -101_655 4_444 n
O1 Ba1 SR4 39.8217(5) -101_655 4_454 n
O1 Ba1 SR4 39.6785 -104_656 2_455 n
SR4 Ba1 SR4 82.4414(11) 2_455 2_555 n
SR4 Ba1 SR4 124.4558(7) 2_455 4_444 n
SR4 Ba1 SR4 124.4558(7) 2_455 4_454 n
Ba1 Sr1 Sr1 0.0 2_455 2_455 n
Ba1 Sr1 Sr1 82.8670(22) 2_455 2_555 n
Ba1 Sr1 Sr1 124.2002(13) 2_455 4_444 n
Ba1 Sr1 Ba1 124.2002(13) 2_555 4_444 n
Ba1 Sr1 Ba1 124.2002(13) 2_555 4_454 n
Ba1 Sr1 Sr1 124.2002(13) 4_454 2_555 n
O1 Mo1 O1 107.5946(5) 1_555 -4_555 n
O1 SR4 O1 145.93640(10) 3_555 4_455 n
O1 SR4 O1 97.09850(20) 3_555 -2_555 n
O1 SR4 O1 79.5003(5) 3_555 -3_445 n
O1 SR4 O1 138.8376(7) 3_555 101_455 n
O1 SR4 O1 74.8163(9) 3_555 102_334 n
O1 SR4 O1 67.40150(30) 3_555 -101_444 n
O1 SR4 O1 97.09850(20) 3_555 -104_445 n
O1 SR4 O1 67.40150(30) 4_455 -2_555 n
O1 SR4 O1 130.4846(7) 4_455 -3_445 n
O1 SR4 O1 74.8163(9) 4_455 101_455 n
O1 SR4 O1 72.6332(11) 4_455 102_334 n
O1 SR4 O1 130.4846(7) 4_455 -101_444 n
O1 SR4 O1 79.5003(5) 4_455 -104_445 n
O1 SR4 O1 145.93640(10) -2_555 -3_445 n
O1 SR4 O1 97.09850(20) -2_555 101_455 n
O1 SR4 O1 79.5003(5) -2_555 102_334 n
O1 SR4 O1 74.8163(9) -2_555 -101_444 n
O1 SR4 O1 138.8376(7) -2_555 -104_445 n
O1 SR4 O1 67.40150(30) -3_445 101_455 n
O1 SR4 O1 130.4846(7) -3_445 102_334 n
O1 SR4 O1 72.6332(11) -3_445 -101_444 n
O1 SR4 O1 74.8163(9) -3_445 -104_445 n
O1 SR4 O1 145.93640(10) 101_455 102_334 n
O1 SR4 O1 79.5003(5) 101_455 -101_444 n
O1 SR4 O1 97.09850(20) 101_455 -104_445 n
O1 SR4 O1 130.4846(7) 102_334 -101_444 n
O1 SR4 O1 67.40150(30) 102_334 -104_445 n
O1 SR4 O1 145.93640(10) -101_444 -104_445 n
SR4 SR4 SR4 124.4558(7) 2_555 4_454 n
SR4 SR4 SR4 82.4414(11) 4_444 4_454 n
loop_
_geom_bond_atom_site_label_1
_geom_bond_atom_site_label_2
_geom_bond_distance
_geom_bond_site_symmetry_2
_geom_bond_publ_flag
Ba1 Ba1 4.21046(4) 4_444 n
Ba1 Ba1 4.21046(4) 4_454 n
Ba1 Mo1 3.923780(30) 3_455 n
Ba1 Mo1 3.923780(30) 3_465 n
Ba1 Mo1 3.923780(30) 3_555 n
Ba1 O1 2.742300(20) 3_555 n
Ba1 O1 2.734070(30) 4_455 n
Ba1 O1 2.742300(20) -2_555 n
Ba1 O1 2.734070(30) -3_455 n
Ba1 O1 2.742300(20) 101_455 n
Ba1 O1 2.734070(30) 102_545 n
Mo1 O1 1.753390(10) 1_555 n
Mo1 O1 1.753390(10) -4_555 n
Mo1 O1 1.753390(10) 103_555 n
Mo1 O1 1.753390(10) -102_344 n
O1 Ba1 2.734070(30) 2_554 n
O1 Ba1 2.742300(20) 3_554 n
O1 Mo1 1.753390(10) 1_555 n
O1 SR4 2.734070(30) 2_554 n
O1 SR4 2.742300(20) 3_554 n
SR4 O1 2.742300(20) 3_555 n
SR4 O1 2.734070(30) 4_455 n
SR4 O1 2.742300(20) -2_555 n
SR4 O1 2.734070(30) -3_455 n
SR4 O1 2.742300(20) 101_455 n
SR4 O1 2.734070(30) 102_545 n
SR4 O1 2.734070(30) -101_444 n
SR4 O1 2.742300(20) -104_334 n
loop_
_pd_meas_counts_total
_pd_proc_ls_weight
_pd_proc_intensity_bkg_calc
_pd_calc_intensity_total
342.0 0.002924 351.40143 351.39328
361.0 0.002770 349.93710 349.92905
315.0 0.003175 348.48444 348.47653
333.0 0.003003 347.04340 347.03564
315.0 0.003175 345.61407 345.60638
326.0 0.003067 344.19617 344.18857
277.0 0.00361 342.78970 342.78229
330.0 0.003030 341.39453 341.38715
297.0 0.003367 340.01077 340.00354
321.0 0.003115 338.63812 338.63098
299.0 0.003344 337.27673 337.26968
279.0 0.00358 335.92630 335.91937
318.0 0.003145 334.58694 334.58008
320.0 0.003125 333.25858 333.25183
323.0 0.003096 331.94101 331.93445
345.0 0.002899 330.63431 330.62778
334.0 0.002994 329.33832 329.33194
342.0 0.002924 328.05307 328.04672
318.0 0.003145 326.77835 326.77213
309.0 0.003236 325.51422 325.50806
306.0 0.003268 324.26059 324.25452
315.0 0.003175 323.01724 323.01132
323.0 0.003096 321.78442 321.77856
310.0 0.003226 320.56177 320.55597
298.0 0.003356 319.34940 319.34369
286.0 0.003497 318.14706 318.14148
289.0 0.003460 316.95490 316.94934
318.0 0.003145 315.77277 315.76727
315.0 0.003175 314.60043 314.59512
303.0 0.003300 313.43820 313.43295
314.0 0.003185 312.28568 312.28055
287.0 0.003484 311.14294 311.13785
280.0 0.00357 310.00998 310.00497
304.0 0.003289 308.88660 308.88171
282.0 0.00355 307.77283 307.76794
289.0 0.003460 306.66855 306.66373
311.0 0.003215 305.57373 305.56897
308.0 0.003247 304.48831 304.48373
324.0 0.003086 303.41217 303.40762
295.0 0.003390 302.34534 302.34094
305.0 0.003279 301.28775 301.28336
287.0 0.003484 300.23935 300.23502
287.0 0.003484 299.19998 299.19574
286.0 0.003497 298.16971 298.16553
319.0 0.003135 297.14832 297.14423
282.0 0.00355 296.13589 296.13184
258.0 0.00388 295.13229 295.12827
317.0 0.003155 294.13754 294.13358
304.0 0.003289 293.15146 293.14764
272.0 0.00368 292.17410 292.17035
293.0 0.003413 291.20535 291.20166
316.0 0.003165 290.24518 290.24149
316.0 0.003165 289.29349 289.28992
293.0 0.003413 288.35031 288.34680
308.0 0.003247 287.41553 287.41202
278.0 0.00360 286.48901 286.48553
308.0 0.003247 285.57083 285.56744
263.0 0.00380 284.66080 284.65756
276.0 0.00362 283.75900 283.75583
286.0 0.003497 282.86533 282.86215
283.0 0.00353 281.97974 281.97665
273.0 0.00366 281.10205 281.09903
327.0 0.003058 280.23248 280.22946
263.0 0.00380 279.37064 279.36771
283.0 0.00353 278.51675 278.51385
279.0 0.00358 277.67059 277.66779
291.0 0.003436 276.83218 276.82941
303.0 0.003300 276.00143 275.99878
284.0 0.00352 275.17838 275.17569
273.0 0.00366 274.36282 274.36026
262.0 0.00382 273.55487 273.55237
257.0 0.00389 272.75436 272.75183
293.0 0.003413 271.96127 271.95880
292.0 0.003425 271.17554 271.17316
291.0 0.003436 270.39709 270.39481
250.0 0.00400 269.62601 269.62369
277.0 0.00361 268.86203 268.85971
272.0 0.00368 268.10522 268.10306
268.0 0.00373 267.35553 267.35342
268.0 0.00373 266.61301 266.61087
300.0 0.003333 265.87741 265.87537
263.0 0.00380 265.14880 265.14682
256.0 0.00391 264.42709 264.42511
255.0 0.00392 263.71228 263.71036
239.0 0.00418 263.00424 263.00232
282.0 0.00355 262.30298 262.30115
261.0 0.00383 261.60843 261.60660
283.0 0.00353 260.92056 260.91876
280.0 0.00357 260.23929 260.23758
250.0 0.00400 259.56464 259.56296
266.0 0.00376 258.89642 258.89487
267.0 0.00375 258.23483 258.23318
236.0 0.00424 257.57956 257.57794
247.0 0.00405 256.93069 256.92920
262.0 0.00382 256.28821 256.28662
259.0 0.00386 255.65195 255.65050
259.0 0.00386 255.02194 255.02057
257.0 0.00389 254.39821 254.39680
233.0 0.00429 253.78056 253.77919
258.0 0.00388 253.16901 253.16771
255.0 0.00392 252.56355 252.56224
249.0 0.00402 251.96414 251.96280
240.0 0.00417 251.37065 251.36938
285.0 0.00351 250.78310 250.78192
242.0 0.00413 250.20149 250.20026
278.0 0.00360 249.62563 249.62451
272.0 0.00368 249.05559 249.05455
278.0 0.00360 248.49130 248.49026
243.0 0.00412 247.93277 247.93173
254.0 0.00394 247.37987 247.37880
258.0 0.00388 246.83258 246.83160
278.0 0.00360 246.29089 246.28992
257.0 0.00389 245.75476 245.75375
254.0 0.00394 245.22409 245.22316
216.0 0.00463 244.69890 244.69795
262.0 0.00382 244.17905 244.17818
236.0 0.00424 243.66461 243.66376
244.0 0.00410 243.15547 243.15465
259.0 0.00386 242.65164 242.65088
271.0 0.00369 242.15302 242.15230
250.0 0.00400 241.65967 241.65895
273.0 0.00366 241.17139 241.17068
254.0 0.00394 240.68832 240.68765
244.0 0.00410 240.21034 240.20966
256.0 0.00391 239.73735 239.73666
262.0 0.00382 239.26938 239.26874
256.0 0.00391 238.80635 238.80576
262.0 0.00382 238.34825 238.34769
265.0 0.00377 237.89500 237.89447
256.0 0.00391 237.44670 237.44612
259.0 0.00386 237.00311 237.00259
242.0 0.00413 236.56430 236.56378
218.0 0.00459 236.13025 236.12975
202.0 0.00495 235.70088 235.70044
282.0 0.00355 235.27612 235.27568
251.0 0.00398 234.85603 234.85559
264.0 0.00379 234.44051 234.44006
241.0 0.00415 234.02946 234.02907
214.0 0.00467 233.62300 233.62257
242.0 0.00413 233.22096 233.22058
233.0 0.00429 232.82333 232.82298
261.0 0.00383 232.43018 232.42981
236.0 0.00424 232.04124 232.04092
220.0 0.00455 231.65674 231.65640
243.0 0.00412 231.27646 231.27620
218.0 0.00459 230.90048 230.90013
262.0 0.00382 230.52864 230.52840
248.0 0.00403 230.16107 230.16077
244.0 0.00410 229.79753 229.79729
267.0 0.00375 229.43814 229.43794
237.0 0.00422 229.08286 229.08264
222.0 0.00450 228.73158 228.73132
257.0 0.00389 228.38426 228.38411
219.0 0.00457 228.04095 228.04076
256.0 0.00391 227.70155 227.70142
266.0 0.00376 227.36612 227.36591
237.0 0.00422 227.03442 227.03427
236.0 0.00424 226.70663 226.70654
224.0 0.00446 226.38268 226.38257
255.0 0.00392 226.06248 226.06235
214.0 0.00467 225.74597 225.74586
231.0 0.00433 225.43312 225.43307
233.0 0.00429 225.12404 225.12396
224.0 0.00446 224.81854 224.81842
202.0 0.00495 224.51663 224.51654
249.0 0.00402 224.21826 224.21820
229.0 0.00437 223.92346 223.92343
230.0 0.00435 223.63219 223.63210
225.0 0.00444 223.34435 223.34430
218.0 0.00459 223.05995 223.05994
236.0 0.00424 222.77898 222.77899
231.0 0.00433 222.50142 222.50142
237.0 0.00422 222.22722 222.22716
225.0 0.00444 221.95624 221.95622
239.0 0.00418 221.68858 221.68861
228.0 0.00439 221.42421 221.42421
239.0 0.00418 221.16304 221.16307
248.0 0.00403 220.90511 220.90512
256.0 0.00391 220.65028 220.65030
248.0 0.00403 220.39862 220.39865
239.0 0.00418 220.15009 220.15010
220.0 0.00455 219.90465 219.90463
210.0 0.00476 219.66217 219.66219
248.0 0.00403 219.42274 219.42281
239.0 0.00418 219.18636 219.18640
266.0 0.00376 218.95290 218.95294
236.0 0.00424 218.72235 218.72237
249.0 0.00402 218.49474 218.49475
223.0 0.00448 218.26999 218.27005
247.0 0.00405 218.04808 218.04814
256.0 0.00391 217.82901 217.82909
213.0 0.00469 217.61273 217.61279
231.0 0.00433 217.39922 217.39928
203.0 0.00493 217.18848 217.18851
255.0 0.00392 216.98038 216.98042
226.0 0.00442 216.77501 216.77507
219.0 0.00457 216.57225 216.57231
213.0 0.00469 216.37215 216.37224
235.0 0.00426 216.17465 216.17471
219.0 0.00457 215.97975 215.97980
230.0 0.00435 215.78731 215.78740
218.0 0.00459 215.59750 215.59758
226.0 0.00442 215.41016 215.41023
231.0 0.00433 215.22525 215.22533
237.0 0.00422 215.04283 215.04291
235.0 0.00426 214.86282 214.86290
224.0 0.00446 214.68521 214.68530
233.0 0.00429 214.50999 214.53352
226.0 0.00442 214.33708 214.36090
235.0 0.00426 214.16647 214.19063
240.0 0.00417 213.99821 214.03447
219.0 0.00457 213.83217 213.86890
225.0 0.00444 213.66841 213.70557
231.0 0.00433 213.50688 213.54449
218.0 0.00459 213.34753 213.38560
197.0 0.00508 213.19035 213.22890
232.0 0.00431 213.03534 213.07436
217.0 0.00461 212.88245 212.92191
257.0 0.00389 212.73164 212.77164
240.0 0.00417 212.58292 212.62338
233.0 0.00429 212.43626 212.47728
208.0 0.00481 212.29163 212.33316
218.0 0.00459 212.14903 212.19107
212.0 0.00472 212.00839 212.05098
220.0 0.00455 211.86974 211.91292
237.0 0.00422 211.73303 211.77676
257.0 0.00389 211.59821 211.64250
208.0 0.00481 211.46529 211.51019
225.0 0.00444 211.33426 211.37978
239.0 0.00418 211.20506 211.25117
222.0 0.00450 211.07773 211.12445
206.0 0.00485 210.95218 210.99957
218.0 0.00459 210.82845 210.87642
203.0 0.00493 210.70644 210.75514
213.0 0.00469 210.58620 210.63557
210.0 0.00476 210.46768 210.51772
207.0 0.00483 210.35088 210.40166
222.0 0.00450 210.23573 210.28725
220.0 0.00455 210.12228 210.17451
219.0 0.00457 210.01044 210.06342
226.0 0.00442 209.90024 209.95396
216.0 0.00463 209.79161 209.84613
216.0 0.00463 209.68456 209.73991
193.0 0.00518 209.57909 209.63525
211.0 0.00474 209.47513 209.53214
228.0 0.00439 209.37271 209.43056
213.0 0.00469 209.27180 209.33055
204.0 0.00490 209.17236 209.23203
204.0 0.00490 209.07436 209.13493
227.0 0.00441 208.97783 209.03934
222.0 0.00450 208.88271 208.94519
207.0 0.00483 208.78897 208.85243
205.0 0.00488 208.69662 208.76112
210.0 0.00476 208.60567 208.67120
226.0 0.00442 208.51604 208.58261
226.0 0.00442 208.42775 208.49544
217.0 0.00461 208.34077 208.40958
200.0 0.00500 208.25502 208.32498
207.0 0.00483 208.17062 208.24173
209.0 0.00478 208.08742 208.15974
195.0 0.00513 208.00551 208.07907
240.0 0.00417 207.92477 207.99956
217.0 0.00461 207.84525 207.92137
190.0 0.00526 207.76689 207.84435
200.0 0.00500 207.68976 207.76860
190.0 0.00526 207.61372 207.69392
181.0 0.00552 207.53879 207.62050
185.0 0.00541 207.46506 207.54820
215.0 0.00465 207.39236 207.47704
203.0 0.00493 207.32076 207.40703
190.0 0.00526 207.25018 207.33809
232.0 0.00431 207.18069 207.27026
193.0 0.00518 207.11221 207.20348
193.0 0.00518 207.04480 207.13779
200.0 0.00500 206.97832 207.07315
210.0 0.00476 206.91281 207.00949
228.0 0.00439 206.84830 206.94691
203.0 0.00493 206.78474 206.88535
210.0 0.00476 206.72214 206.82472
219.0 0.00457 206.66040 206.76509
193.0 0.00518 206.59958 206.70650
179.0 0.00559 206.53966 206.64876
192.0 0.00521 206.48058 206.59200
214.0 0.00467 206.42238 206.53616
212.0 0.00472 206.36502 206.48126
196.0 0.00510 206.30846 206.42725
220.0 0.00455 206.25273 206.37415
204.0 0.00490 206.19777 206.32191
217.0 0.00461 206.14363 206.27055
199.0 0.00503 206.09023 206.22005
194.0 0.00515 206.03760 206.17043
209.0 0.00478 205.98569 206.12163
192.0 0.00521 205.93449 206.07362
202.0 0.00495 205.88403 206.02650
215.0 0.00465 205.83421 205.98018
209.0 0.00478 205.78514 205.93462
221.0 0.00452 205.73668 205.88992
187.0 0.00535 205.68890 205.84595
202.0 0.00495 205.64174 205.80280
211.0 0.00474 205.59521 205.76045
184.0 0.00543 205.54927 205.71880
182.0 0.00549 205.50398 205.67799
197.0 0.00508 205.45924 205.63795
191.0 0.00524 205.41508 205.59866
238.0 0.00420 205.37148 205.56007
215.0 0.00465 205.32838 205.52229
224.0 0.00446 205.28587 205.48524
185.0 0.00541 205.24390 205.44901
182.0 0.00549 205.20238 205.41348
208.0 0.00481 205.16133 205.37874
198.0 0.00505 205.12083 205.34477
213.0 0.00469 205.08080 205.31152
199.0 0.00503 205.04120 205.27908
235.0 0.00426 205.00203 205.24741
186.0 0.00538 204.96329 205.21655
208.0 0.00481 204.92499 205.18651
219.0 0.00457 204.88712 205.15726
188.0 0.00532 204.84958 205.12885
205.0 0.00488 204.81247 205.10129
210.0 0.00476 204.77574 205.07462
228.0 0.00439 204.73936 205.04886
225.0 0.00444 204.70335 205.02402
206.0 0.00485 204.66762 205.00012
201.0 0.00498 204.63228 204.97717
192.0 0.00521 204.59724 204.95534
210.0 0.00476 204.56247 204.93452
205.0 0.00488 204.52798 204.91486
188.0 0.00532 204.49384 204.89638
215.0 0.00465 204.45995 204.87915
200.0 0.00500 204.42632 204.86322
198.0 0.00505 204.39293 204.84869
159.0 0.00629 204.35980 204.83572
186.0 0.00538 204.32690 204.82428
187.0 0.00535 204.29422 204.81462
206.0 0.00485 204.26175 204.80678
224.0 0.00446 204.22943 204.80093
221.0 0.00452 204.19736 204.79727
220.0 0.00455 204.16544 204.79596
207.0 0.00483 204.13368 204.79724
188.0 0.00532 204.10211 204.80139
161.0 0.00621 204.07071 204.80865
199.0 0.00503 204.03938 204.81938
199.0 0.00503 204.00822 204.83400
196.0 0.00510 203.97716 204.85291
199.0 0.00503 203.94626 204.87663
226.0 0.00442 203.91539 204.90578
227.0 0.00441 203.88467 204.94113
199.0 0.00503 203.85397 204.98346
196.0 0.00510 203.82344 205.03389
208.0 0.00481 203.79292 205.09354
211.0 0.00474 203.76247 205.16423
186.0 0.00538 203.73210 205.24799
187.0 0.00535 203.70168 205.34808
203.0 0.00493 203.67133 205.46933
197.0 0.00508 203.64104 205.61957
190.0 0.00526 203.61072 205.81140
199.0 0.00503 203.58041 206.06541
199.0 0.00503 203.55013 206.41409
234.0 0.00427 203.51985 206.90672
230.0 0.00435 203.48947 207.61467
183.0 0.00546 203.45908 208.63544
204.0 0.00490 203.42873 210.09470
218.0 0.00459 203.39827 212.14330
224.0 0.00446 203.36772 214.94861
214.0 0.00467 203.33717 218.67879
212.0 0.00472 203.30655 223.48024
221.0 0.00452 203.27585 229.45372
219.0 0.00457 203.24506 236.63509
206.0 0.00485 203.21420 244.98477
235.0 0.00426 203.18323 254.38799
239.0 0.00418 203.15218 264.66895
247.0 0.00405 203.12094 275.60675
276.0 0.00362 203.08963 286.94647
279.0 0.00358 203.05820 298.39728
275.0 0.00364 203.02660 309.60156
282.0 0.00355 202.99489 320.09293
303.0 0.003300 202.96304 329.26154
290.0 0.003448 202.93100 336.34964
359.0 0.002786 202.89882 340.50497
323.0 0.003096 202.86642 340.90091
307.0 0.003257 202.83397 336.93616
300.0 0.003333 202.80122 328.48862
301.0 0.003322 202.76831 316.10242
285.0 0.00351 202.73520 300.93512
272.0 0.00368 202.70192 284.47562
213.0 0.00469 202.66846 268.20364
226.0 0.00442 202.63470 253.31268
243.0 0.00412 202.60077 240.56200
213.0 0.00469 202.56660 230.26833
209.0 0.00478 202.53218 222.38867
191.0 0.00524 202.49754 216.63902
206.0 0.00485 202.46268 212.61418
200.0 0.00500 202.42752 209.88689
195.0 0.00513 202.39214 208.07471
186.0 0.00538 202.35648 206.87256
207.0 0.00483 202.32056 206.05865
175.0 0.00571 202.28436 205.48404
196.0 0.00510 202.24789 205.05487
191.0 0.00524 202.21112 204.71535
199.0 0.00503 202.17409 204.43335
175.0 0.00571 202.13673 204.19070
209.0 0.00478 202.09909 203.97682
196.0 0.00510 202.06114 203.78531
193.0 0.00518 202.02287 203.61201
212.0 0.00472 201.98430 203.45374
193.0 0.00518 201.94539 203.30821
167.0 0.00599 201.90617 203.17357
182.0 0.00549 201.86661 203.04832
183.0 0.00546 201.82672 202.93117
195.0 0.00513 201.78647 202.82094
222.0 0.00450 201.74593 202.71687
181.0 0.00552 201.70499 202.61810
197.0 0.00508 201.66371 202.52402
192.0 0.00521 201.62206 202.43402
199.0 0.00503 201.58005 202.34761
211.0 0.00474 201.53764 202.26443
183.0 0.00546 201.49493 202.18399
197.0 0.00508 201.45183 202.10608
201.0 0.00498 201.40833 202.03035
171.0 0.00585 201.36440 201.95651
186.0 0.00538 201.32013 201.88443
178.0 0.00562 201.27547 201.81390
174.0 0.00575 201.23039 201.74464
204.0 0.00490 201.18494 201.67664
198.0 0.00505 201.13902 201.60963
183.0 0.00546 201.09276 201.54355
216.0 0.00463 201.04605 201.47832
223.0 0.00448 200.99889 201.41373
204.0 0.00490 200.95135 201.34978
186.0 0.00538 200.90343 201.28639
168.0 0.00595 200.85500 201.22342
180.0 0.00556 200.80617 201.16081
171.0 0.00585 200.75690 201.09857
190.0 0.00526 200.70720 201.03656
193.0 0.00518 200.65704 200.97476
169.0 0.00592 200.60648 200.91312
185.0 0.00541 200.55542 200.85162
178.0 0.00562 200.50395 200.79015
189.0 0.00529 200.45200 200.72878
183.0 0.00546 200.39960 200.66739
184.0 0.00543 200.34673 200.60593
172.0 0.00581 200.29340 200.54440
211.0 0.00474 200.23958 200.48283
187.0 0.00535 200.18532 200.42116
165.0 0.00606 200.13055 200.35928
198.0 0.00505 200.07536 200.29727
191.0 0.00524 200.01965 200.23511
212.0 0.00472 199.96347 200.17268
219.0 0.00457 199.90678 200.11009
186.0 0.00538 199.84966 200.04724
181.0 0.00552 199.79196 199.98410
210.0 0.00476 199.73384 199.92076
202.0 0.00495 199.67520 199.85709
182.0 0.00549 199.61606 199.79311
168.0 0.00595 199.55644 199.72884
197.0 0.00508 199.49634 199.66423
189.0 0.00529 199.43564 199.59926
188.0 0.00532 199.37454 199.53403
171.0 0.00585 199.31284 199.46837
190.0 0.00526 199.25069 199.40239
204.0 0.00490 199.18800 199.33603
196.0 0.00510 199.12479 199.26927
191.0 0.00524 199.06107 199.20210
191.0 0.00524 198.99684 199.13457
192.0 0.00521 198.93210 199.06657
170.0 0.00588 198.86679 198.99820
206.0 0.00485 198.80099 198.92943
214.0 0.00467 198.73463 198.86014
246.0 0.00407 198.66779 198.79051
170.0 0.00588 198.60039 198.72043
171.0 0.00585 198.53244 198.64989
194.0 0.00515 198.46397 198.57889
192.0 0.00521 198.39497 198.50742
169.0 0.00592 198.32541 198.43555
185.0 0.00541 198.25533 198.36313
182.0 0.00549 198.18471 198.29030
191.0 0.00524 198.11353 198.21696
193.0 0.00518 198.04184 198.14317
210.0 0.00476 197.96957 198.06889
202.0 0.00495 197.89676 197.99408
209.0 0.00478 197.82341 197.91881
188.0 0.00532 197.74953 197.84303
186.0 0.00538 197.67506 197.76678
153.0 0.00654 197.60007 197.69006
188.0 0.00532 197.52451 197.61281
183.0 0.00546 197.44841 197.53497
223.0 0.00448 197.37173 197.45673
211.0 0.00474 197.29449 197.37791
209.0 0.00478 197.21672 197.29860
157.0 0.00637 197.13838 197.21877
157.0 0.00637 197.05948 197.13844
197.0 0.00508 196.98001 197.05757
184.0 0.00543 196.89999 196.97615
188.0 0.00532 196.81941 196.89427
171.0 0.00585 196.73827 196.81183
191.0 0.00524 196.65656 196.72887
199.0 0.00503 196.57428 196.64532
188.0 0.00532 196.49142 196.56128
192.0 0.00521 196.40802 196.47672
213.0 0.00469 196.32405 196.39157
170.0 0.00588 196.23950 196.30594
179.0 0.00559 196.15439 196.21971
204.0 0.00490 196.06873 196.13300
167.0 0.00599 195.98250 196.04568
187.0 0.00535 195.89565 195.95789
196.0 0.00510 195.80826 195.86948
166.0 0.00602 195.72032 195.78056
199.0 0.00503 195.63179 195.69109
195.0 0.00513 195.54272 195.60107
181.0 0.00552 195.45305 195.51050
195.0 0.00513 195.36278 195.41940
189.0 0.00529 195.27199 195.32771
196.0 0.00510 195.18060 195.23547
195.0 0.00513 195.08868 195.14273
210.0 0.00476 194.99614 195.04941
186.0 0.00538 194.90306 194.95552
199.0 0.00503 194.80937 194.86105
176.0 0.00568 194.71515 194.76607
196.0 0.00510 194.62030 194.67052
174.0 0.00575 194.52495 194.57442
181.0 0.00552 194.42897 194.47774
191.0 0.00524 194.33244 194.38054
190.0 0.00526 194.23535 194.28273
199.0 0.00503 194.13768 194.18443
189.0 0.00529 194.03943 194.08553
188.0 0.00532 193.94063 193.98607
175.0 0.00571 193.84122 193.88608
188.0 0.00532 193.74127 193.78546
203.0 0.00493 193.64073 193.68436
210.0 0.00476 193.53964 193.58264
174.0 0.00575 193.43799 193.48039
194.0 0.00515 193.33574 193.37761
186.0 0.00538 193.23294 193.27423
173.0 0.00578 193.12953 193.17033
199.0 0.00503 193.02559 193.06581
187.0 0.00535 192.92107 192.96080
167.0 0.00599 192.81601 192.85521
172.0 0.00581 192.71036 192.74904
201.0 0.00498 192.60413 192.64233
174.0 0.00575 192.49736 192.53506
202.0 0.00495 192.39001 192.42725
194.0 0.00515 192.28209 192.31886
194.0 0.00515 192.17360 192.20992
180.0 0.00556 192.06458 192.10045
203.0 0.00493 191.95499 191.99040
195.0 0.00513 191.84485 191.87981
195.0 0.00513 191.73405 191.76865
165.0 0.00606 191.62280 191.65692
198.0 0.00505 191.51097 191.54468
197.0 0.00508 191.39859 191.40910
198.0 0.00505 191.28557 191.29596
183.0 0.00546 191.17206 191.17093
190.0 0.00526 191.05800 191.05679
196.0 0.00510 190.94337 190.94223
171.0 0.00585 190.82816 190.82703
169.0 0.00592 190.71245 190.71129
193.0 0.00518 190.59616 190.59500
193.0 0.00518 190.47932 190.47815
190.0 0.00526 190.36188 190.36078
201.0 0.00498 190.24394 190.24281
194.0 0.00515 190.12549 190.12431
217.0 0.00461 190.00642 190.00529
176.0 0.00568 189.88684 189.88571
170.0 0.00588 189.76668 189.76555
204.0 0.00490 189.64604 189.64490
209.0 0.00478 189.52483 189.52368
172.0 0.00581 189.40308 189.40193
187.0 0.00535 189.28073 189.27965
180.0 0.00556 189.15790 189.15677
215.0 0.00465 189.03455 189.03343
182.0 0.00549 188.91061 188.90950
169.0 0.00592 188.78616 188.78506
171.0 0.00585 188.66121 188.66008
195.0 0.00513 188.53568 188.53455
185.0 0.00541 188.40964 188.40851
166.0 0.00602 188.28307 188.28194
185.0 0.00541 188.15594 188.15483
189.0 0.00529 188.02832 188.02721
186.0 0.00538 187.90016 187.89905
199.0 0.00503 187.77150 187.77039
196.0 0.00510 187.64226 187.64117
176.0 0.00568 187.51254 187.51144
169.0 0.00592 187.38232 187.38121
171.0 0.00585 187.25154 187.25044
194.0 0.00515 187.12027 187.11917
199.0 0.00503 186.98846 186.98737
185.0 0.00541 186.85616 186.85506
188.0 0.00532 186.72334 186.72226
197.0 0.00508 186.59001 186.58893
185.0 0.00541 186.45616 186.45508
183.0 0.00546 186.32181 186.32074
192.0 0.00521 186.18698 186.18590
172.0 0.00581 186.05164 186.05054
185.0 0.00541 185.91574 185.91467
201.0 0.00498 185.77937 185.78468
179.0 0.00559 185.64255 185.64786
172.0 0.00581 185.50519 185.51056
183.0 0.00546 185.36732 185.37592
223.0 0.00448 185.22897 185.23766
188.0 0.00532 185.09019 185.09891
192.0 0.00521 184.95085 184.95966
188.0 0.00532 184.81100 184.81993
181.0 0.00552 184.67072 184.67973
183.0 0.00546 184.52997 184.53903
172.0 0.00581 184.38866 184.39786
182.0 0.00549 184.24695 184.25621
170.0 0.00588 184.10471 184.11407
181.0 0.00552 183.96201 183.97148
197.0 0.00508 183.81883 183.82840
214.0 0.00467 183.67520 183.68483
224.0 0.00446 183.53105 183.54079
185.0 0.00541 183.38646 183.39632
181.0 0.00552 183.24139 183.25137
167.0 0.00599 183.09587 183.10593
204.0 0.00490 182.94987 182.96007
211.0 0.00474 182.80345 182.81372
182.0 0.00549 182.65652 182.66693
215.0 0.00465 182.50917 182.51967
212.0 0.00472 182.36136 182.37196
180.0 0.00556 182.21309 182.22379
169.0 0.00592 182.06436 182.07520
209.0 0.00478 181.91518 181.92610
226.0 0.00442 181.76556 181.77663
196.0 0.00510 181.61554 181.62669
168.0 0.00595 181.46501 182.17352
181.0 0.00552 181.31407 182.02753
194.0 0.00515 181.16267 181.88113
180.0 0.00556 181.01085 181.73439
190.0 0.00526 180.85858 181.93596
191.0 0.00524 180.70592 181.79080
199.0 0.00503 180.55280 181.64537
195.0 0.00513 180.39925 181.49957
203.0 0.00493 180.24530 181.35350
189.0 0.00529 180.09088 181.20699
181.0 0.00552 179.93607 181.06021
169.0 0.00592 179.78085 180.91307
179.0 0.00559 179.62520 180.76561
198.0 0.00505 179.46910 180.61780
225.0 0.00444 179.31265 180.46970
205.0 0.00488 179.15576 180.32126
204.0 0.00490 178.99849 180.17255
182.0 0.00549 178.84081 180.02350
189.0 0.00529 178.68271 179.87411
186.0 0.00538 178.52417 179.72446
183.0 0.00546 178.36530 179.57451
161.0 0.00621 178.20599 179.42426
197.0 0.00508 178.04630 179.27370
177.0 0.00565 177.88622 179.12286
186.0 0.00538 177.72575 178.97171
197.0 0.00508 177.56491 178.82034
186.0 0.00538 177.40364 178.66864
245.0 0.00408 177.24205 178.51669
182.0 0.00549 177.08002 178.36449
189.0 0.00529 176.91768 178.21199
203.0 0.00493 176.75493 178.05928
224.0 0.00446 176.59178 177.90628
208.0 0.00481 176.42828 177.75302
167.0 0.00599 176.26445 177.59952
209.0 0.00478 176.10022 177.44579
200.0 0.00500 175.93562 177.29178
185.0 0.00541 175.77068 177.13762
184.0 0.00543 175.60538 176.98317
184.0 0.00543 175.43971 176.82851
202.0 0.00495 175.27368 176.67360
217.0 0.00461 175.10733 176.51852
200.0 0.00500 174.94061 176.36319
201.0 0.00498 174.77354 176.20770
188.0 0.00532 174.60616 176.05196
163.0 0.00613 174.43840 175.89604
185.0 0.00541 174.27034 175.73991
203.0 0.00493 174.10191 175.58366
223.0 0.00448 173.93318 180.66626
188.0 0.00532 173.76408 180.57152
199.0 0.00503 173.59473 180.47772
190.0 0.00526 173.42496 180.38495
205.0 0.00488 173.25491 182.92293
176.0 0.00568 173.08452 182.86330
193.0 0.00518 172.91383 182.80537
182.0 0.00549 172.74284 182.74902
185.0 0.00541 172.57153 182.69444
178.0 0.00562 172.39987 182.64159
210.0 0.00476 172.22797 182.59064
187.0 0.00535 172.05571 182.54152
200.0 0.00500 171.88316 182.49434
207.0 0.00483 171.71033 182.44913
183.0 0.00546 171.53716 182.40598
182.0 0.00549 171.36372 182.36499
214.0 0.00467 171.19000 182.32614
211.0 0.00474 171.01601 182.28957
174.0 0.00575 170.84169 182.25526
196.0 0.00510 170.66708 182.22334
195.0 0.00513 170.49222 182.19388
192.0 0.00521 170.31706 182.16695
189.0 0.00529 170.14162 182.14262
205.0 0.00488 169.96597 182.12094
192.0 0.00521 169.78995 182.10202
214.0 0.00467 169.61374 182.08600
194.0 0.00515 169.43721 182.07281
188.0 0.00532 169.26044 182.06271
199.0 0.00503 169.08342 182.05568
193.0 0.00518 168.90613 182.05186
232.0 0.00431 168.72856 182.05138
206.0 0.00485 168.55077 182.05428
224.0 0.00446 168.37273 182.06067
212.0 0.00472 168.19443 182.07068
236.0 0.00424 168.01587 182.08443
177.0 0.00565 167.83710 182.10201
198.0 0.00505 167.65810 182.12358
197.0 0.00508 167.47879 182.14925
199.0 0.00503 167.29930 182.17914
186.0 0.00538 167.11958 182.21335
195.0 0.00513 166.93962 182.25214
236.0 0.00424 166.75940 182.29544
203.0 0.00493 166.57903 182.34361
199.0 0.00503 166.39839 182.39674
204.0 0.00490 166.21756 182.45494
194.0 0.00515 166.03645 182.51842
187.0 0.00535 165.85518 182.58736
214.0 0.00467 165.67368 182.66191
226.0 0.00442 165.49200 182.74232
224.0 0.00446 165.31009 182.82872
222.0 0.00450 165.12796 182.92128
203.0 0.00493 164.94568 183.02034
190.0 0.00526 164.76318 183.12598
238.0 0.00420 164.58046 183.23859
193.0 0.00518 164.39757 183.35826
239.0 0.00418 164.21446 183.48528
213.0 0.00469 164.03119 183.61998
208.0 0.00481 163.84779 183.76250
200.0 0.00500 163.66412 183.91327
218.0 0.00459 163.48030 184.07245
203.0 0.00493 163.29634 184.24040
224.0 0.00446 163.11214 184.41745
205.0 0.00488 162.92781 184.60394
231.0 0.00433 162.74332 184.80025
227.0 0.00441 162.55864 185.00668
207.0 0.00483 162.37381 185.22369
222.0 0.00450 162.18883 185.45157
229.0 0.00437 162.00365 185.69078
236.0 0.00424 161.81834 185.94183
217.0 0.00461 161.63292 186.20515
243.0 0.00412 161.44730 186.48119
231.0 0.00433 161.26154 186.77046
204.0 0.00490 161.07567 187.07353
223.0 0.00448 160.88959 187.39090
203.0 0.00493 160.70338 187.72324
222.0 0.00450 160.51707 188.07108
208.0 0.00481 160.33061 188.43515
200.0 0.00500 160.14406 188.81602
222.0 0.00450 159.95732 189.21451
190.0 0.00526 159.77051 189.63135
213.0 0.00469 159.58351 190.06731
208.0 0.00481 159.39644 190.52330
196.0 0.00510 159.20924 191.00015
229.0 0.00437 159.02193 191.49878
204.0 0.00490 158.83450 192.02020
229.0 0.00437 158.64697 192.56557
235.0 0.00426 158.45930 193.13580
229.0 0.00437 158.27156 193.73218
213.0 0.00469 158.08368 194.35593
196.0 0.00510 157.89574 195.00833
215.0 0.00465 157.70769 195.69092
248.0 0.00403 157.51953 196.40497
220.0 0.00455 157.33130 197.15218
230.0 0.00435 157.14294 197.93425
213.0 0.00469 156.95456 198.75291
223.0 0.00448 156.76607 199.61002
209.0 0.00478 156.57747 200.50771
228.0 0.00439 156.38881 201.44801
205.0 0.00488 156.20010 202.43333
230.0 0.00435 156.01126 203.46614
207.0 0.00483 155.82239 204.54893
207.0 0.00483 155.63342 205.68463
212.0 0.00472 155.44443 206.87628
224.0 0.00446 155.25536 208.12701
220.0 0.00455 155.06619 209.44034
243.0 0.00412 154.87700 210.82007
223.0 0.00448 154.68771 212.27013
242.0 0.00413 154.49846 213.79492
240.0 0.00417 154.30910 215.39908
219.0 0.00457 154.11971 217.08760
228.0 0.00439 153.93022 218.86597
249.0 0.00402 153.74074 220.74011
242.0 0.00413 153.55122 222.71637
234.0 0.00427 153.36165 224.80165
236.0 0.00424 153.17201 227.00349
226.0 0.00442 152.98242 229.33012
229.0 0.00437 152.79274 231.79047
233.0 0.00429 152.60301 234.39421
211.0 0.00474 152.41331 237.15208
236.0 0.00424 152.22356 240.07567
256.0 0.00391 152.03381 243.17778
247.0 0.00405 151.84401 246.47244
233.0 0.00429 151.65422 249.97510
254.0 0.00394 151.46442 253.70288
269.0 0.00372 151.27458 257.67444
269.0 0.00372 151.08478 261.91074
261.0 0.00383 150.89494 266.43484
237.0 0.00422 150.70511 271.27246
257.0 0.00389 150.51524 276.45221
247.0 0.00405 150.32544 282.00601
238.0 0.00420 150.13560 287.96979
239.0 0.00418 149.94576 294.38379
232.0 0.00431 149.75598 301.29315
263.0 0.00380 149.56618 308.74915
260.0 0.00385 149.37640 316.80969
272.0 0.00368 149.18665 325.54083
283.0 0.00353 148.99689 335.01794
225.0 0.00444 148.80717 345.32776
286.0 0.003497 148.61745 356.57031
302.0 0.003311 148.42778 368.86206
279.0 0.00358 148.23814 382.33963
313.0 0.003195 148.04854 397.16513
335.0 0.002985 147.85895 413.53433
363.0 0.002755 147.66940 431.68854
349.0 0.002865 147.47990 451.93506
385.0 0.002597 147.29048 474.68140
460.0 0.002174 147.10104 500.49347
492.0 0.002033 146.91167 530.19379
576.0 0.001736 146.72234 565.02258
610.0 0.001639 146.53310 606.89136
773.0 0.001294 146.34384 658.76581
844.0 0.001185 146.15472 725.21008
1076.0 0.000929 145.96561 813.11664
1260.0 0.000794 145.77657 932.61157
1463.0 0.000684 145.58757 1098.07910
1753.0 0.000570 145.39868 1329.17639
2207.0 0.000453 145.20982 1651.62122
2713.0 0.000369 145.02106 2097.45557
3235.0 0.0003091 144.83235 2704.42554
4155.0 0.0002407 144.64369 3514.11011
4963.0 0.0002015 144.45517 4568.47754
6179.0 0.0001618 144.26669 5904.67139
7557.0 0.0001323 144.07831 7548.08887
9052.0 0.0001105 143.88998 9504.24902
11127.0 0.0000899 143.70177 11750.62109
13329.0 0.0000750 143.51363 14230.13672
15986.0 0.0000626 143.32558 16848.22461
18819.0 0.0000531 143.13765 19474.90039
21389.0 0.0000468 142.94981 21952.88086
24268.0 0.0000412 142.76205 24110.76563
25900.0 0.0000386 142.57439 25779.12500
27562.0 0.0000363 142.38681 26809.41992
28065.0 0.0000356 142.19939 27095.92773
27552.0 0.0000363 142.01202 26597.42773
26597.0 0.0000376 141.82478 25350.56055
24545.0 0.0000407 141.63766 23465.49414
21764.0 0.0000459 141.45064 21104.33398
18649.0 0.0000536 141.26378 18454.20117
15750.0 0.0000635 141.07700 15703.53320
12775.0 0.0000783 140.89032 13021.47754
10027.0 0.0000997 140.70381 10541.20898
7592.0 0.0001317 140.51735 8351.27051
5723.0 0.0001747 140.33110 6496.05566
4425.0 0.0002260 140.14491 4982.55322
3215.0 0.0003110 139.95889 3789.94385
2318.0 0.000431 139.77299 2879.66113
1793.0 0.000558 139.58727 2204.48657
1401.0 0.000714 139.40160 1715.83569
1024.0 0.000977 139.21611 1368.84631
890.0 0.001124 139.03078 1125.29443
773.0 0.001294 138.84558 954.68555
690.0 0.001449 138.66057 834.03119
625.0 0.001600 138.47563 746.84595
573.0 0.001745 138.29088 681.81854
554.0 0.001805 138.10629 631.47845
544.0 0.001838 137.92183 591.04150
475.0 0.002105 137.73755 557.50714
474.0 0.002110 137.55338 529.00793
448.0 0.002232 137.36940 504.37054
468.0 0.002137 137.18559 482.83609
437.0 0.002288 137.00194 463.89084
419.0 0.002387 136.81848 447.16754
394.0 0.002538 136.63519 432.38977
383.0 0.002611 136.45203 419.34076
439.0 0.002278 136.26903 407.84610
427.0 0.002342 136.08626 397.76352
393.0 0.002545 135.90361 388.97647
430.0 0.002326 135.72121 381.39047
390.0 0.002564 135.53894 374.92960
378.0 0.002646 135.35684 369.53540
384.0 0.002604 135.17494 365.16522
409.0 0.002445 134.99324 361.79147
347.0 0.002882 134.81172 359.40259
347.0 0.002882 134.63040 358.00351
403.0 0.002481 134.44922 357.61905
359.0 0.002786 134.26833 358.29849
331.0 0.003021 134.08757 360.12366
352.0 0.002841 133.90700 363.22150
345.0 0.002899 133.72664 367.78238
355.0 0.002817 133.54651 374.08707
344.0 0.002907 133.36658 382.54245
369.0 0.002710 133.18684 393.72910
380.0 0.002632 133.00732 408.45844
376.0 0.002660 132.82797 427.83902
385.0 0.002597 132.64890 453.34497
470.0 0.002128 132.46997 486.87833
480.0 0.002083 132.29128 530.81085
573.0 0.001745 132.11282 587.99084
555.0 0.001802 131.93462 661.69476
681.0 0.001468 131.75659 755.50867
806.0 0.001241 131.57877 873.12445
962.0 0.001040 131.40115 1018.04425
1072.0 0.000933 131.22385 1193.18970
1322.0 0.000756 131.04671 1401.38232
1548.0 0.000646 130.86981 1640.90332
1798.0 0.000556 130.69316 1910.59827
2038.0 0.000491 130.51675 2205.32422
2403.0 0.000416 130.34053 2516.79297
2772.0 0.000361 130.16457 2831.54102
3193.0 0.0003132 129.98886 3134.62817
3418.0 0.0002926 129.81340 3409.53174
3708.0 0.0002697 129.63815 3640.58789
3919.0 0.0002552 129.46313 3814.00073
3890.0 0.0002571 129.28841 3918.02295
4100.0 0.0002439 129.11391 3943.80713
3985.0 0.0002509 128.93967 3887.56689
3912.0 0.0002556 128.76564 3752.50293
3770.0 0.0002653 128.59190 3548.58569
3536.0 0.0002828 128.41843 3290.38037
3193.0 0.0003132 128.24518 2994.67334
2872.0 0.0003482 128.07219 2678.77441
2635.0 0.000380 127.89946 2359.07886
2224.0 0.000450 127.72701 2049.63672
2006.0 0.000499 127.55482 1761.13196
1572.0 0.000636 127.38290 1500.59290
1341.0 0.000746 127.21117 1271.71130
1132.0 0.000883 127.03978 1075.46338
980.0 0.001020 126.86868 910.78882
791.0 0.001264 126.69782 775.22705
681.0 0.001468 126.52718 665.46832
544.0 0.001838 126.35690 577.81165
468.0 0.002137 126.18685 508.52173
425.0 0.002353 126.01707 454.08743
355.0 0.002817 125.84758 411.38513
319.0 0.003135 125.67839 377.76031
295.0 0.003390 125.50947 351.04462
263.0 0.00380 125.34080 329.52673
246.0 0.00407 125.17241 311.89651
254.0 0.00394 125.00438 297.17609
246.0 0.00407 124.83660 284.65048
259.0 0.00386 124.66910 273.80493
266.0 0.00376 124.50188 264.27133
221.0 0.00452 124.33494 255.78656
236.0 0.00424 124.16834 248.16051
242.0 0.00413 124.00202 241.25342
208.0 0.00481 123.83598 234.95984
212.0 0.00472 123.67022 229.19791
203.0 0.00493 123.50483 223.90219
194.0 0.00515 123.33968 219.01895
192.0 0.00521 123.17485 214.50302
189.0 0.00529 123.01031 210.31607
187.0 0.00535 122.84608 206.42485
205.0 0.00488 122.68217 202.80045
212.0 0.00472 122.51855 199.41751
199.0 0.00503 122.35527 196.25372
174.0 0.00575 122.19225 193.28923
179.0 0.00559 122.02959 190.50653
194.0 0.00515 121.86722 187.89001
175.0 0.00571 121.70515 185.42566
175.0 0.00571 121.54342 183.10100
202.0 0.00495 121.38202 180.90485
183.0 0.00546 121.22093 178.82710
190.0 0.00526 121.06014 176.85866
197.0 0.00508 120.89965 174.99135
175.0 0.00571 120.73955 173.21768
196.0 0.00510 120.57972 171.53098
171.0 0.00585 120.42024 169.92509
185.0 0.00541 120.26106 168.39444
205.0 0.00488 120.10226 166.93401
188.0 0.00532 119.94373 165.53905
187.0 0.00535 119.78558 164.20540
181.0 0.00552 119.62771 162.92912
181.0 0.00552 119.47020 161.70667
187.0 0.00535 119.31303 160.53476
180.0 0.00556 119.15617 159.41039
162.0 0.00617 118.99966 158.33075
161.0 0.00621 118.84348 157.29330
199.0 0.00503 118.68768 156.29568
178.0 0.00562 118.53216 155.33565
201.0 0.00498 118.37701 154.41125
161.0 0.00621 118.22221 153.52055
159.0 0.00629 118.06775 152.66185
162.0 0.00617 117.91362 151.83348
160.0 0.00625 117.75984 151.03397
170.0 0.00588 117.60643 150.26192
151.0 0.00662 117.45335 149.51601
170.0 0.00588 117.30060 148.79503
155.0 0.00645 117.14821 148.09782
156.0 0.00641 116.99619 147.42342
178.0 0.00562 116.84451 146.77077
161.0 0.00621 116.69318 146.13896
149.0 0.00671 116.54221 145.52715
154.0 0.00649 116.39157 144.93451
172.0 0.00581 116.24132 144.36028
159.0 0.00629 116.09142 143.80380
179.0 0.00559 115.94186 143.26443
142.0 0.00704 115.79266 142.74150
139.0 0.00719 115.64387 142.23448
150.0 0.00667 115.49538 141.74278
162.0 0.00617 115.34730 141.26593
157.0 0.00637 115.19955 140.80350
156.0 0.00641 115.05217 140.35503
160.0 0.00625 114.90519 139.92003
161.0 0.00621 114.75851 139.49828
162.0 0.00617 114.61225 139.08929
168.0 0.00595 114.46635 138.69281
157.0 0.00637 114.32079 138.30847
152.0 0.00658 114.17563 137.93607
136.0 0.00735 114.03085 137.57529
174.0 0.00575 113.88641 137.22595
148.0 0.00676 113.74236 136.88782
160.0 0.00625 113.59869 136.56064
144.0 0.00694 113.45537 136.24428
170.0 0.00588 113.31245 135.93855
154.0 0.00649 113.16988 135.64339
153.0 0.00654 113.02773 135.35855
157.0 0.00637 112.88591 135.08405
142.0 0.00704 112.74450 134.81972
136.0 0.00735 112.60347 134.56551
159.0 0.00629 112.46281 134.32135
156.0 0.00641 112.32252 134.08722
149.0 0.00671 112.18265 133.86304
134.0 0.00746 112.04314 133.64891
158.0 0.00633 111.90401 133.44475
139.0 0.00719 111.76526 133.25063
146.0 0.00685 111.62691 133.06651
142.0 0.00704 111.48893 132.89258
141.0 0.00709 111.35135 132.72881
164.0 0.00610 111.21418 132.57533
138.0 0.00725 111.07736 132.43227
134.0 0.00746 110.94093 132.29976
134.0 0.00746 110.80492 132.17795
151.0 0.00662 110.66927 132.06699
120.0 0.00833 110.53403 131.96710
132.0 0.00758 110.39916 131.87849
158.0 0.00633 110.26470 131.80142
128.0 0.00781 110.13066 131.73615
153.0 0.00654 109.99696 131.68297
140.0 0.00714 109.86370 131.64217
144.0 0.00694 109.73082 131.61414
155.0 0.00645 109.59833 131.59920
126.0 0.00794 109.46624 131.59787
145.0 0.00690 109.33454 131.61052
147.0 0.00680 109.20326 131.63763
137.0 0.00730 109.07236 131.67978
157.0 0.00637 108.94186 131.73755
142.0 0.00704 108.81175 131.81145
143.0 0.00699 108.68208 131.90230
144.0 0.00694 108.55278 132.01071
141.0 0.00709 108.42387 132.13747
127.0 0.00787 108.29539 132.28352
172.0 0.00581 108.16730 132.44965
152.0 0.00658 108.03963 132.63689
137.0 0.00730 107.91235 132.84634
136.0 0.00735 107.78546 133.07913
134.0 0.00746 107.65898 133.33652
164.0 0.00610 107.53294 133.66461
129.0 0.00775 107.40728 133.97575
130.0 0.00769 107.28201 134.31595
148.0 0.00676 107.15718 134.68687
145.0 0.00690 107.03275 135.09045
144.0 0.00694 106.90871 135.55116
160.0 0.00625 106.78508 136.02654
133.0 0.00752 106.66188 136.54132
129.0 0.00775 106.53907 137.18425
139.0 0.00719 106.41669 137.78665
145.0 0.00690 106.29469 138.43727
126.0 0.00794 106.17313 139.13951
140.0 0.00714 106.05198 139.89725
139.0 0.00719 105.93125 140.75153
148.0 0.00676 105.81088 141.63383
140.0 0.00714 105.69095 142.58568
148.0 0.00676 105.57146 143.60973
134.0 0.00746 105.45237 144.71849
143.0 0.00699 105.33366 145.91589
158.0 0.00633 105.21539 147.20969
160.0 0.00625 105.09753 148.60863
144.0 0.00694 104.98012 150.12250
137.0 0.00730 104.86308 151.76205
136.0 0.00735 104.74646 153.53967
147.0 0.00680 104.63029 155.46910
140.0 0.00714 104.51450 157.56602
150.0 0.00667 104.39914 159.84793
141.0 0.00709 104.28418 162.33501
141.0 0.00709 104.16967 165.05022
137.0 0.00730 104.05556 168.01994
143.0 0.00699 103.94189 171.27477
142.0 0.00704 103.82861 174.85075
155.0 0.00645 103.71574 178.79102
171.0 0.00585 103.60331 183.14874
154.0 0.00649 103.49130 187.99179
156.0 0.00641 103.37967 193.41045
185.0 0.00541 103.26849 199.53024
170.0 0.00588 103.15775 206.53215
173.0 0.00578 103.04741 214.68442
204.0 0.00490 102.93746 224.38986
186.0 0.00538 102.82797 236.25400
214.0 0.00467 102.71890 251.17775
265.0 0.00377 102.61025 270.47723
284.0 0.00352 102.50200 296.02841
291.0 0.003436 102.39417 330.42542
390.0 0.002564 102.28679 377.13623
442.0 0.002262 102.17979 440.62070
548.0 0.001825 102.07323 526.37268
621.0 0.001610 101.96711 640.83325
774.0 0.001292 101.86141 791.12427
931.0 0.001074 101.75613 984.56238
1128.0 0.000887 101.65125 1227.92456
1414.0 0.000707 101.54678 1526.47644
1686.0 0.000593 101.44277 1882.80408
2027.0 0.000493 101.33917 2295.54004
2553.0 0.000392 101.23598 2758.13599
3032.0 0.0003298 101.13326 3257.95850
3643.0 0.0002745 101.03091 3776.07178
4196.0 0.0002383 100.92899 4288.00244
4925.0 0.0002030 100.82752 4765.34033
5431.0 0.0001841 100.72645 5177.76514
5830.0 0.0001715 100.62579 5495.59277
6173.0 0.0001620 100.52558 5693.44092
6214.0 0.0001609 100.42574 5754.56592
6232.0 0.0001605 100.32643 5674.10010
5954.0 0.0001680 100.22747 5459.62939
5622.0 0.0001779 100.12894 5129.18555
5075.0 0.0001970 100.03084 4707.92725
4425.0 0.0002260 99.93314 4224.87207
3840.0 0.0002604 99.83589 3710.08057
3206.0 0.0003119 99.73907 3191.97266
2578.0 0.000388 99.64265 2694.81812
2086.0 0.000479 99.54665 2236.97900
1631.0 0.000613 99.45110 1830.32629
1188.0 0.000842 99.35596 1480.67395
922.0 0.001085 99.26123 1188.80200
750.0 0.001333 99.16693 951.70837
581.0 0.001721 99.07307 763.86761
477.0 0.002096 98.97962 618.36865
401.0 0.002494 98.88658 507.85806
331.0 0.003021 98.79397 425.24496
286.0 0.003497 98.70182 364.16498
247.0 0.00405 98.61004 319.22604
246.0 0.00407 98.51872 286.07910
244.0 0.00410 98.42780 261.36447
199.0 0.00503 98.33730 242.64087
215.0 0.00465 98.24723 228.00410
193.0 0.00518 98.15759 216.25954
215.0 0.00465 98.06837 206.55685
162.0 0.00617 97.97956 198.32762
161.0 0.00621 97.89117 191.22270
169.0 0.00592 97.80322 184.93617
184.0 0.00543 97.71568 179.32623
173.0 0.00578 97.62856 174.27481
174.0 0.00575 97.54185 169.69643
166.0 0.00602 97.45557 165.52612
183.0 0.00546 97.36974 161.71278
152.0 0.00658 97.28429 158.21454
149.0 0.00671 97.19928 154.99628
175.0 0.00571 97.11468 152.02814
169.0 0.00592 97.03051 149.28410
169.0 0.00592 96.94674 146.74170
120.0 0.00833 96.86341 144.52258
158.0 0.00633 96.78049 142.32809
136.0 0.00735 96.69799 140.28278
125.0 0.00800 96.61591 138.37308
154.0 0.00649 96.53427 136.58691
131.0 0.00763 96.45301 134.98413
141.0 0.00709 96.37220 133.41458
135.0 0.00741 96.29179 131.93956
134.0 0.00746 96.21179 130.55138
129.0 0.00775 96.13222 129.24313
139.0 0.00719 96.05307 128.00851
126.0 0.00794 95.97434 126.84185
135.0 0.00741 95.89602 125.73808
124.0 0.00806 95.81812 124.69257
118.0 0.00847 95.74062 123.70102
131.0 0.00763 95.66355 122.75972
117.0 0.00855 95.58688 121.86514
116.0 0.00862 95.51064 121.01405
120.0 0.00833 95.43479 120.20360
128.0 0.00781 95.35940 119.43111
123.0 0.00813 95.28438 118.69411
130.0 0.00769 95.20979 117.99041
138.0 0.00725 95.13563 117.31789
111.0 0.00901 95.06186 116.67469
114.0 0.00877 94.98852 116.05907
138.0 0.00725 94.91556 115.46937
120.0 0.00833 94.84305 114.90417
116.0 0.00862 94.77092 114.36204
113.0 0.00885 94.69922 113.84171
108.0 0.00926 94.62794 113.34203
125.0 0.00800 94.55705 112.86190
111.0 0.00901 94.48656 112.40028
109.0 0.00917 94.41650 111.95624
121.0 0.00826 94.34686 111.52893
111.0 0.00901 94.27760 111.11751
115.0 0.00870 94.20876 110.72124
99.0 0.01010 94.14032 110.33940
107.0 0.00935 94.07230 109.97140
108.0 0.00926 94.00468 109.61655
112.0 0.00893 93.93747 109.27428
101.0 0.00990 93.87067 108.94415
121.0 0.00826 93.80428 108.62563
102.0 0.00980 93.73825 108.31820
141.0 0.00709 93.67268 108.02155
132.0 0.00758 93.60747 107.03706
133.0 0.00752 93.54269 106.76550
118.0 0.00847 93.47832 106.50352
102.0 0.00980 93.41434 106.25082
130.0 0.00769 93.35077 103.93759
102.0 0.00980 93.28757 103.71444
111.0 0.00901 93.22481 103.49966
98.0 0.01020 93.16242 103.29307
101.0 0.00990 93.10044 103.09449
101.0 0.00990 93.03886 102.90368
113.0 0.00885 92.97771 102.72060
114.0 0.00877 92.91691 102.54504
113.0 0.00885 92.85653 102.37688
108.0 0.00926 92.79653 102.21609
95.0 0.01053 92.73697 102.06255
135.0 0.00741 92.67777 101.91625
104.0 0.00962 92.61897 101.77715
110.0 0.00909 92.56057 101.64527
140.0 0.00714 92.50256 101.52055
112.0 0.00893 92.44495 101.40311
105.0 0.00952 92.38772 101.29301
93.0 0.01075 92.33091 101.19030
114.0 0.00877 92.27447 101.09519
104.0 0.00962 92.21842 101.00778
104.0 0.00962 92.16278 100.92830
102.0 0.00980 92.10751 100.85699
104.0 0.00962 92.05261 100.79410
100.0 0.01000 91.99814 100.73997
93.0 0.01075 91.94404 100.69498
111.0 0.00901 91.89034 100.65958
102.0 0.00980 91.83701 100.63430
114.0 0.00877 91.78407 100.61968
118.0 0.00847 91.73153 100.61642
94.0 0.01064 91.67937 100.62528
110.0 0.00909 91.62758 100.64721
104.0 0.00962 91.57620 100.68326
125.0 0.00800 91.52518 100.73452
108.0 0.00926 91.47455 100.80257
116.0 0.00862 91.42430 100.88907
100.0 0.01000 91.37443 100.99625
104.0 0.00962 91.32494 101.12677
113.0 0.00885 91.27584 101.28432
95.0 0.01053 91.22711 101.47396
106.0 0.00943 91.17878 101.70298
111.0 0.00901 91.13079 101.98205
109.0 0.00917 91.08320 102.32708
89.0 0.01124 91.03597 102.76181
107.0 0.00935 90.98912 103.32133
116.0 0.00862 90.94267 104.05660
102.0 0.00980 90.89658 105.04005
110.0 0.00909 90.85084 106.37160
119.0 0.00840 90.80549 108.18513
119.0 0.00840 90.76052 110.65322
103.0 0.00971 90.71592 113.98981
121.0 0.00826 90.67169 118.44817
129.0 0.00775 90.62782 124.31257
119.0 0.00840 90.58433 131.88155
144.0 0.00694 90.54120 141.44252
138.0 0.00725 90.49845 153.23721
177.0 0.00565 90.45604 167.41913
168.0 0.00595 90.41404 184.00729
194.0 0.00515 90.37238 202.83885
222.0 0.00450 90.33108 223.52837
241.0 0.00415 90.29014 245.44254
264.0 0.00379 90.24954 267.70282
285.0 0.00351 90.20936 289.22473
308.0 0.003247 90.16950 308.79391
327.0 0.003058 90.13003 325.16644
338.0 0.002959 90.09091 337.19507
325.0 0.003077 90.05214 343.98212
328.0 0.003049 90.01374 345.02969
321.0 0.003115 89.97567 340.32300
320.0 0.003125 89.93796 330.30399
315.0 0.003175 89.90064 315.76190
316.0 0.003165 89.86365 297.70819
265.0 0.00377 89.82702 277.27530
225.0 0.00444 89.79073 255.62852
241.0 0.00415 89.75483 233.87102
198.0 0.00505 89.71926 212.95070
186.0 0.00538 89.68403 193.59476
172.0 0.00581 89.64915 176.28693
156.0 0.00641 89.61465 161.28168
142.0 0.00704 89.58044 148.63950
125.0 0.00800 89.54662 138.27122
113.0 0.00885 89.51313 129.98361
115.0 0.00870 89.48001 123.52128
107.0 0.00935 89.44724 118.60247
127.0 0.00787 89.41477 114.94713
119.0 0.00840 89.38268 112.29660
118.0 0.00847 89.35090 110.42565
99.0 0.01010 89.31949 109.14752
93.0 0.01075 89.28841 108.31419
107.0 0.00935 89.25765 107.81306
104.0 0.00962 89.22726 107.56228
117.0 0.00855 89.19720 107.50453
116.0 0.00862 89.16748 107.60230
94.0 0.01064 89.13808 107.83316
95.0 0.01053 89.10904 108.18658
119.0 0.00840 89.08030 108.66190
102.0 0.00980 89.05190 109.26768
96.0 0.01042 89.02384 110.02252
108.0 0.00926 88.99613 110.95699
89.0 0.01124 88.96873 112.11716
106.0 0.00943 88.94169 113.56948
122.0 0.00820 88.91494 115.40704
113.0 0.00885 88.88853 117.75629
116.0 0.00862 88.86243 120.78482
123.0 0.00813 88.83669 124.70766
136.0 0.00735 88.81126 129.79205
131.0 0.00763 88.78615 136.35780
129.0 0.00775 88.76138 144.77235
157.0 0.00637 88.73692 155.43762
152.0 0.00658 88.71277 168.76790
164.0 0.00610 88.68894 185.15802
166.0 0.00602 88.66547 204.94211
175.0 0.00571 88.64227 228.34427
236.0 0.00424 88.61940 255.42404
261.0 0.00383 88.59685 286.01840
314.0 0.003185 88.57462 319.68500
347.0 0.002882 88.55271 355.65112
363.0 0.002755 88.53111 392.78262
424.0 0.002358 88.50980 429.59479
429.0 0.002331 88.48882 464.33456
485.0 0.002062 88.46817 495.14111
497.0 0.002012 88.44781 520.24927
544.0 0.001838 88.42773 538.17969
500.0 0.002000 88.40798 547.90021
543.0 0.001842 88.38857 548.98309
481.0 0.002079 88.36942 541.72333
525.0 0.001905 88.35060 527.13879
501.0 0.001996 88.33207 505.85913
473.0 0.002114 88.31384 481.82059
434.0 0.002304 88.29592 456.27838
414.0 0.002415 88.27832 431.60797
410.0 0.002439 88.26100 409.72745
408.0 0.002451 88.24398 393.88614
390.0 0.002564 88.22725 385.60193
394.0 0.002538 88.21083 386.48044
399.0 0.002506 88.19470 397.62451
409.0 0.002445 88.17886 419.54227
437.0 0.002288 88.16331 452.06046
495.0 0.002020 88.14808 494.24747
485.0 0.002062 88.13313 544.36267
589.0 0.001698 88.11845 599.85846
645.0 0.001550 88.10406 657.46454
692.0 0.001445 88.08999 713.37964
820.0 0.001220 88.07619 763.55762
859.0 0.001164 88.06268 804.06512
899.0 0.001112 88.04945 831.49780
910.0 0.001099 88.03648 843.42578
897.0 0.001115 88.02383 838.74872
876.0 0.001142 88.01145 817.79578
865.0 0.001156 87.99935 782.13281
748.0 0.001337 87.98755 734.21051
694.0 0.001441 87.97601 677.03546
620.0 0.001613 87.96475 613.91205
545.0 0.001835 87.95376 548.19061
462.0 0.002165 87.94306 482.98453
418.0 0.002392 87.93263 420.90906
345.0 0.002899 87.92248 363.91711
302.0 0.003311 87.91258 313.25821
214.0 0.00467 87.90296 269.53271
203.0 0.00493 87.89364 232.80037
199.0 0.00503 87.88457 202.70950
144.0 0.00694 87.87574 178.62804
149.0 0.00671 87.86722 159.76353
139.0 0.00719 87.85895 145.26427
117.0 0.00855 87.85094 134.29713
113.0 0.00885 87.84321 126.10161
107.0 0.00935 87.83573 120.02045
121.0 0.00826 87.82851 115.51177
110.0 0.00909 87.82156 112.14720
119.0 0.00840 87.81487 109.60034
106.0 0.00943 87.80843 107.63092
97.0 0.01031 87.80228 106.06732
99.0 0.01010 87.79634 104.79015
99.0 0.01010 87.79066 103.71809
99.0 0.01010 87.78527 102.79673
88.0 0.01136 87.78011 101.98962
109.0 0.00917 87.77522 101.27247
98.0 0.01020 87.77057 100.62874
109.0 0.00917 87.76617 100.04680
107.0 0.00935 87.76201 99.51815
102.0 0.00980 87.75812 99.03637
103.0 0.00971 87.75444 98.59631
97.0 0.01031 87.75105 98.19378
102.0 0.00980 87.74789 97.82521
110.0 0.00909 87.74496 97.48756
97.0 0.01031 87.74227 97.17828
72.0 0.01389 87.73985 96.89502
104.0 0.00962 87.73765 96.63580
96.0 0.01042 87.73569 96.39887
116.0 0.00862 87.73397 96.18268
113.0 0.00885 87.73248 95.98586
99.0 0.01010 87.73123 95.80724
87.0 0.01149 87.73022 95.64580
109.0 0.00917 87.72945 95.50060
98.0 0.01020 87.72891 95.37090
113.0 0.00885 87.72861 95.25600
103.0 0.00971 87.72852 95.15536
97.0 0.01031 87.72867 95.17300
105.0 0.00952 87.72904 95.10046
90.0 0.01111 87.72964 95.04102
110.0 0.00909 87.73047 94.99442
113.0 0.00885 87.73154 94.96056
107.0 0.00935 87.73281 94.99118
105.0 0.00952 87.73431 94.98308
79.0 0.01266 87.73604 96.24721
103.0 0.00971 87.73798 96.27438
91.0 0.01099 87.74015 96.31479
94.0 0.01064 87.74252 96.36878
93.0 0.01075 87.74512 96.43676
88.0 0.01136 87.74795 97.14388
95.0 0.01053 87.75095 97.24624
88.0 0.01136 87.75421 97.36446
89.0 0.01124 87.75768 97.49942
113.0 0.00885 87.76134 97.65210
87.0 0.01149 87.76522 97.82364
76.0 0.01316 87.76929 98.01529
82.0 0.01220 87.77358 98.22861
106.0 0.00943 87.77809 98.46540
78.0 0.01282 87.78281 98.72761
99.0 0.01010 87.78773 99.01765
113.0 0.00885 87.79283 99.33845
116.0 0.00862 87.79815 99.69339
93.0 0.01075 87.80368 100.08681
97.0 0.01031 87.80939 100.52411
90.0 0.01111 87.81531 101.01239
95.0 0.01053 87.82143 101.56100
109.0 0.00917 87.82776 102.18251
100.0 0.01000 87.83427 102.89391
103.0 0.00971 87.84097 103.71855
104.0 0.00962 87.84789 104.68785
95.0 0.01053 87.85496 105.84435
107.0 0.00935 87.86224 107.24412
116.0 0.00862 87.86973 108.96053
115.0 0.00870 87.87737 111.08694
106.0 0.00943 87.88522 113.73947
97.0 0.01031 87.89327 117.05862
134.0 0.00746 87.90150 121.20879
112.0 0.00893 87.90990 126.37581
137.0 0.00730 87.91848 132.76083
147.0 0.00680 87.92726 140.57095
154.0 0.00649 87.93622 150.00577
147.0 0.00680 87.94535 161.24046
181.0 0.00552 87.95467 174.40582
211.0 0.00474 87.96416 189.56625
224.0 0.00446 87.97381 206.69649
234.0 0.00427 87.98366 225.65709
281.0 0.00356 87.99368 246.17029
276.0 0.00362 88.00387 267.79395
322.0 0.003106 88.01424 289.89774
316.0 0.003165 88.02477 311.64835
344.0 0.002907 88.03548 332.02176
325.0 0.003077 88.04633 349.86890
405.0 0.002469 88.05739 364.05307
382.0 0.002618 88.06859 373.63800
408.0 0.002451 88.07996 378.05695
386.0 0.002591 88.09149 377.17670
398.0 0.002513 88.10318 371.23868
370.0 0.002703 88.11506 360.74149
341.0 0.002933 88.12709 346.35059
288.0 0.003472 88.13927 328.85840
302.0 0.003311 88.15161 309.15677
296.0 0.003378 88.16409 288.18015
262.0 0.00382 88.17675 266.82343
267.0 0.00375 88.18955 245.86438
229.0 0.00437 88.20251 225.91893
195.0 0.00513 88.21564 207.42909
196.0 0.00510 88.22890 190.67529
179.0 0.00559 88.24232 175.79926
160.0 0.00625 88.25591 162.83040
155.0 0.00645 88.26960 151.71149
127.0 0.00787 88.28347 142.32260
146.0 0.00685 88.29746 134.50247
116.0 0.00862 88.31161 128.06685
117.0 0.00855 88.32593 122.82394
115.0 0.00870 88.34037 118.58614
105.0 0.00952 88.35493 115.17862
97.0 0.01031 88.36967 112.44496
122.0 0.00820 88.38453 110.24975
95.0 0.01053 88.39953 108.47917
116.0 0.00862 88.41467 107.04029
86.0 0.01163 88.42995 105.81420
110.0 0.00909 88.44535 104.83242
97.0 0.01031 88.46089 104.00540
92.0 0.01087 88.47657 103.29929
103.0 0.00971 88.49236 102.66656
101.0 0.00990 88.50831 102.13318
98.0 0.01020 88.52438 101.66270
96.0 0.01042 88.54057 101.24458
103.0 0.00971 88.55690 100.87097
92.0 0.01087 88.57333 100.53579
110.0 0.00909 88.58990 100.23422
107.0 0.00935 88.60661 99.96252
92.0 0.01087 88.62343 99.71754
89.0 0.01124 88.64037 99.49657
111.0 0.00901 88.65742 99.29746
118.0 0.00847 88.67461 99.11828
113.0 0.00885 88.69190 98.95730
108.0 0.00926 88.70933 98.81309
101.0 0.00990 88.72687 98.68427
112.0 0.00893 88.74451 98.56970
116.0 0.00862 88.76226 98.46832
83.0 0.01205 88.78014 98.37924
109.0 0.00917 88.79812 98.30161
94.0 0.01064 88.81622 98.23468
88.0 0.01136 88.83443 98.17774
91.0 0.01099 88.85275 98.13023
102.0 0.00980 88.87117 98.09158
100.0 0.01000 88.88969 98.06129
125.0 0.00800 88.90831 98.03893
97.0 0.01031 88.92705 98.02406
91.0 0.01099 88.94588 98.01640
95.0 0.01053 88.96482 98.01555
102.0 0.00980 88.98389 98.02126
93.0 0.01075 89.00301 98.03321
95.0 0.01053 89.02225 98.05122
100.0 0.01000 89.04159 98.07505
103.0 0.00971 89.06103 98.10453
96.0 0.01042 89.08054 98.13946
102.0 0.00980 89.10017 98.17971
108.0 0.00926 89.11989 98.22517
99.0 0.01010 89.13971 98.27567
126.0 0.00794 89.15958 98.33114
101.0 0.00990 89.17960 98.39150
95.0 0.01053 89.19967 98.45667
102.0 0.00980 89.21983 98.52655
99.0 0.01010 89.24008 98.60117
99.0 0.01010 89.26042 98.68041
88.0 0.01136 89.28084 98.76434
88.0 0.01136 89.30134 98.85289
100.0 0.01000 89.32193 98.94605
111.0 0.00901 89.34261 99.04385
97.0 0.01031 89.36336 99.14630
73.0 0.01370 89.38419 99.25340
92.0 0.01087 89.40510 99.36525
100.0 0.01000 89.42608 99.48183
109.0 0.00917 89.44714 99.60326
96.0 0.01042 89.46828 99.72956
118.0 0.00847 89.48949 99.86079
80.0 0.01250 89.51078 99.99710
104.0 0.00962 89.53213 100.13854
91.0 0.01099 89.55354 100.28523
106.0 0.00943 89.57504 100.43727
99.0 0.01010 89.59660 100.59483
104.0 0.00962 89.61824 100.75801
101.0 0.00990 89.63993 100.92699
110.0 0.00909 89.66170 101.10191
125.0 0.00800 89.68353 101.28300
113.0 0.00885 89.70541 101.47041
100.0 0.01000 89.72736 101.66437
118.0 0.00847 89.74938 101.86507
122.0 0.00820 89.77146 102.07282
101.0 0.00990 89.79359 102.28784
107.0 0.00935 89.81579 102.51038
87.0 0.01149 89.83804 102.74078
122.0 0.00820 89.86034 102.97939
94.0 0.01064 89.88271 103.22652
106.0 0.00943 89.90514 103.48258
100.0 0.01000 89.92758 103.74794
95.0 0.01053 89.95011 104.02307
119.0 0.00840 89.97269 104.30846
105.0 0.00952 89.99532 104.60455
88.0 0.01136 90.01797 104.91197
96.0 0.01042 90.04071 105.23132
112.0 0.00893 90.06348 105.56316
97.0 0.01031 90.08629 105.90833
99.0 0.01010 90.10912 106.26745
95.0 0.01053 90.13204 106.64146
108.0 0.00926 90.15501 107.03126
121.0 0.00826 90.17799 107.43781
96.0 0.01042 90.20102 107.86226
118.0 0.00847 90.22409 108.30578
89.0 0.01124 90.24720 108.76967
130.0 0.00769 90.27034 109.25546
85.0 0.01176 90.29353 110.34660
106.0 0.00943 90.31674 110.88426
109.0 0.00917 90.33998 111.44923
114.0 0.00877 90.36330 112.04378
124.0 0.00806 90.38661 112.67047
115.0 0.00870 90.40997 113.33223
78.0 0.01282 90.43336 114.32190
120.0 0.00833 90.45678 115.06652
111.0 0.00901 90.48022 115.85905
105.0 0.00952 90.50369 116.70611
109.0 0.00917 90.52719 117.61664
130.0 0.00769 90.55071 118.60297
136.0 0.00735 90.57428 119.59658
130.0 0.00769 90.59786 120.79552
122.0 0.00820 90.62146 122.14973
108.0 0.00926 90.64507 123.71207
130.0 0.00769 90.66872 125.55801
127.0 0.00787 90.69240 127.75040
154.0 0.00649 90.71608 130.51965
146.0 0.00685 90.73979 134.01532
134.0 0.00746 90.76351 138.48643
164.0 0.00610 90.78724 144.24428
163.0 0.00613 90.81101 151.66333
150.0 0.00667 90.83479 161.17525
199.0 0.00503 90.85857 173.25310
193.0 0.00518 90.88236 188.38435
229.0 0.00437 90.90618 207.03210
238.0 0.00420 90.93000 229.58466
232.0 0.00431 90.95383 256.29749
290.0 0.003448 90.97767 287.23026
327.0 0.003058 91.00151 322.18527
381.0 0.002625 91.02538 360.65216
382.0 0.002618 91.04924 401.76508
471.0 0.002123 91.07313 444.28052
533.0 0.001876 91.09700 486.59058
567.0 0.001764 91.12087 526.79260
594.0 0.001684 91.14475 562.83478
594.0 0.001684 91.16865 592.72699
629.0 0.001590 91.19252 614.77515
630.0 0.001587 91.21642 627.78241
567.0 0.001764 91.24030 631.17841
606.0 0.001650 91.26420 625.05469
631.0 0.001585 91.28808 610.09290
620.0 0.001613 91.31194 587.42468
515.0 0.001942 91.33583 558.48444
511.0 0.001957 91.35970 524.89441
483.0 0.002070 91.38355 488.37631
448.0 0.002232 91.40741 450.65286
358.0 0.002793 91.43126 413.80463
334.0 0.002994 91.45512 378.24753
303.0 0.003300 91.47894 345.50851
255.0 0.00392 91.50278 316.30768
275.0 0.00364 91.52657 291.05164
262.0 0.00382 91.55037 269.87933
232.0 0.00431 91.57417 252.95496
214.0 0.00467 91.59793 239.57648
216.0 0.00463 91.62168 229.64851
184.0 0.00543 91.64542 222.78661
168.0 0.00595 91.66915 218.59227
192.0 0.00521 91.69289 216.68408
164.0 0.00610 91.71657 216.72041
165.0 0.00606 91.74025 218.41418
181.0 0.00552 91.76389 221.54117
194.0 0.00515 91.78752 225.94484
179.0 0.00559 91.81113 231.53918
208.0 0.00481 91.83472 238.31267
214.0 0.00467 91.85828 246.33607
186.0 0.00538 91.88184 255.77641
242.0 0.00413 91.90534 266.91983
213.0 0.00469 91.92883 280.20551
236.0 0.00424 91.95232 296.27231
272.0 0.00368 91.97575 316.01816
270.0 0.00370 91.99917 340.67172
297.0 0.003367 92.02254 371.87158
351.0 0.002849 92.04588 411.74640
397.0 0.002519 92.06921 462.98465
457.0 0.002188 92.09251 528.87915
578.0 0.001730 92.11576 613.32831
709.0 0.001410 92.13901 720.77362
764.0 0.001309 92.16219 856.05682
917.0 0.001091 92.18535 1024.17932
1145.0 0.000873 92.20846 1229.96289
1375.0 0.000727 92.23156 1477.61206
1697.0 0.000589 92.25460 1770.20020
2143.0 0.000467 92.27762 2109.10303
2500.0 0.000400 92.30060 2493.41504
2998.0 0.0003336 92.32354 2919.38232
3406.0 0.0002936 92.34644 3379.88477
4018.0 0.0002489 92.36930 3864.02148
4459.0 0.0002243 92.39211 4356.89111
5075.0 0.0001970 92.41488 4839.77295
5442.0 0.0001838 92.43761 5290.97510
5614.0 0.0001781 92.46029 5687.53125
6058.0 0.0001651 92.48294 6007.64258
6094.0 0.0001641 92.50555 6233.30908
6280.0 0.0001592 92.52810 6352.52490
6567.0 0.0001523 92.55060 6360.46729
6370.0 0.0001570 92.57307 6259.45410
6009.0 0.0001664 92.59548 6057.79248
5853.0 0.0001709 92.61784 5768.12939
5450.0 0.0001835 92.64015 5406.00537
4921.0 0.0002032 92.66240 4988.86182
4512.0 0.0002216 92.68462 4535.26074
4094.0 0.0002443 92.70677 4063.92358
3562.0 0.0002807 92.72889 3592.46289
3257.0 0.0003070 92.75094 3136.12573
2792.0 0.000358 92.77296 2706.94385
2266.0 0.000441 92.79489 2313.42847
2115.0 0.000473 92.81678 1960.73669
1763.0 0.000567 92.83861 1651.10974
1436.0 0.000696 92.86040 1384.41516
1260.0 0.000794 92.88212 1158.71301
1083.0 0.000923 92.90379 970.78815
857.0 0.001167 92.92539 816.62903
760.0 0.001316 92.94694 691.83862
579.0 0.001727 92.96842 591.96533
539.0 0.001855 92.98985 512.75452
460.0 0.002174 93.01121 450.32129
380.0 0.002632 93.03251 401.25174
377.0 0.002653 93.05374 362.64545
318.0 0.003145 93.07491 332.11139
297.0 0.003367 93.09602 307.73148
298.0 0.003356 93.11707 288.00488
278.0 0.00360 93.13805 271.78293
263.0 0.00380 93.15896 258.20380
228.0 0.00439 93.17984 246.63106
230.0 0.00435 93.20060 236.60074
219.0 0.00457 93.22132 227.77713
188.0 0.00532 93.24195 219.91766
214.0 0.00467 93.26254 212.84636
195.0 0.00513 93.28303 206.43381
182.0 0.00549 93.30346 200.58313
185.0 0.00541 93.32384 195.21989
200.0 0.00500 93.34412 190.28543
182.0 0.00549 93.36433 185.73209
167.0 0.00599 93.38448 181.52023
175.0 0.00571 93.40454 177.61636
172.0 0.00581 93.42455 173.99139
173.0 0.00578 93.44448 170.61998
157.0 0.00637 93.46432 167.47977
169.0 0.00592 93.48408 164.55092
183.0 0.00546 93.50379 161.81572
152.0 0.00658 93.52339 159.25830
174.0 0.00575 93.54294 156.86461
153.0 0.00654 93.56239 154.62160
167.0 0.00599 93.58176 152.51790
161.0 0.00621 93.60107 150.54300
147.0 0.00680 93.62030 148.68736
137.0 0.00730 93.63943 146.95345
140.0 0.00714 93.65851 145.31168
157.0 0.00637 93.67747 143.76570
156.0 0.00641 93.69637 142.30919
143.0 0.00699 93.71516 140.93620
136.0 0.00735 93.73390 139.64136
129.0 0.00775 93.75254 138.43416
117.0 0.00855 93.77110 137.28676
151.0 0.00662 93.78957 136.19859
160.0 0.00625 93.80795 135.17122
149.0 0.00671 93.82626 134.20120
142.0 0.00704 93.84446 133.28532
159.0 0.00629 93.86259 132.42784
165.0 0.00606 93.88062 131.61183
147.0 0.00680 93.89857 130.84189
147.0 0.00680 93.91643 130.11743
153.0 0.00654 93.93420 129.43307
151.0 0.00662 93.95188 128.78857
146.0 0.00685 93.96946 128.18221
154.0 0.00649 93.98694 127.61232
125.0 0.00800 94.00436 127.07753
130.0 0.00769 94.02166 126.57642
141.0 0.00709 94.03888 126.10871
145.0 0.00690 94.05601 125.67163
139.0 0.00719 94.07305 125.26507
152.0 0.00658 94.08997 124.88811
150.0 0.00667 94.10680 124.54002
149.0 0.00671 94.12357 124.22013
153.0 0.00654 94.14020 123.92792
149.0 0.00671 94.15676 123.66283
142.0 0.00704 94.17322 123.42459
155.0 0.00645 94.18958 123.21278
129.0 0.00775 94.20585 123.02734
153.0 0.00654 94.22200 122.86812
161.0 0.00621 94.23808 122.73508
129.0 0.00775 94.25404 122.62833
130.0 0.00769 94.26989 122.54808
136.0 0.00735 94.28567 122.49466
132.0 0.00758 94.30133 122.47119
130.0 0.00769 94.31689 122.47270
117.0 0.00855 94.33235 122.50259
140.0 0.00714 94.34771 122.56162
127.0 0.00787 94.36298 122.65070
131.0 0.00763 94.37814 122.77098
118.0 0.00847 94.39317 122.92365
120.0 0.00833 94.40813 123.11154
123.0 0.00813 94.42297 123.33352
143.0 0.00699 94.43770 123.59277
136.0 0.00735 94.45235 123.89146
109.0 0.00917 94.46687 124.17638
146.0 0.00685 94.48129 124.56177
128.0 0.00781 94.49562 124.99466
136.0 0.00735 94.50982 125.47860
139.0 0.00719 94.52393 126.01740
138.0 0.00725 94.53793 126.54536
132.0 0.00758 94.55181 127.20823
136.0 0.00735 94.56559 127.94128
133.0 0.00752 94.57926 128.75111
139.0 0.00719 94.59282 129.64558
143.0 0.00699 94.60627 130.63399
130.0 0.00769 94.61961 131.72777
136.0 0.00735 94.63285 132.94157
132.0 0.00758 94.64597 134.29489
160.0 0.00625 94.65899 135.81429
152.0 0.00658 94.67187 137.53815
158.0 0.00633 94.68467 139.52252
149.0 0.00671 94.69734 141.85088
177.0 0.00565 94.70991 144.64789
159.0 0.00629 94.72236 148.09860
174.0 0.00575 94.73468 152.47418
162.0 0.00617 94.74693 158.16493
157.0 0.00637 94.75903 165.71951
195.0 0.00513 94.77102 175.88989
214.0 0.00467 94.78289 189.67630
217.0 0.00461 94.79467 208.36736
238.0 0.00420 94.80634 233.56473
289.0 0.003460 94.81786 267.18204
312.0 0.003205 94.82928 311.40485
337.0 0.002967 94.84059 368.60019
409.0 0.002445 94.85177 441.16919
538.0 0.001859 94.86284 531.33752
582.0 0.001718 94.87379 640.89624
674.0 0.001484 94.88463 770.90570
872.0 0.001147 94.89536 921.38965
1046.0 0.000956 94.90596 1091.05249
1171.0 0.000854 94.91643 1277.04883
1420.0 0.000704 94.92680 1474.84326
1645.0 0.000608 94.93703 1678.18787
1823.0 0.000549 94.94718 1879.26465
2134.0 0.000469 94.95716 2069.05396
2326.0 0.000430 94.96704 2237.97095
2474.0 0.000404 94.97682 2376.77954
2501.0 0.000400 94.98646 2477.66211
2612.0 0.000383 94.99599 2535.22070
2532.0 0.000395 95.00540 2547.08179
2478.0 0.000404 95.01470 2513.89233
2445.0 0.000409 95.02386 2438.78906
2423.0 0.000413 95.03288 2326.67969
2214.0 0.000452 95.04181 2183.67773
1962.0 0.000510 95.05059 2016.77539
1764.0 0.000567 95.05927 1833.57959
1597.0 0.000626 95.06780 1641.92578
1418.0 0.000705 95.07624 1449.33057
1205.0 0.000830 95.08455 1262.42578
1000.0 0.001000 95.09274 1086.44287
995.0 0.001005 95.10079 925.45404
765.0 0.001307 95.10873 781.76355
651.0 0.001536 95.11653 656.48047
585.0 0.001709 95.12422 549.62939
434.0 0.002304 95.13177 460.38876
411.0 0.002433 95.13922 387.27936
356.0 0.002809 95.14655 328.59647
276.0 0.00362 95.15372 282.29349
273.0 0.00366 95.16078 246.35333
232.0 0.00431 95.16772 218.85884
214.0 0.00467 95.17452 198.07643
204.0 0.00490 95.18121 182.50426
197.0 0.00508 95.18776 170.88879
175.0 0.00571 95.19419 162.21951
167.0 0.00599 95.20050 155.70682
169.0 0.00592 95.20668 150.75165
156.0 0.00641 95.21273 146.91158
159.0 0.00629 95.21866 143.86784
164.0 0.00610 95.22446 141.39554
157.0 0.00637 95.23013 139.33893
179.0 0.00559 95.23566 137.59145
160.0 0.00625 95.24109 136.08076
125.0 0.00800 95.24635 134.75749
143.0 0.00699 95.25153 133.58775
134.0 0.00746 95.25655 132.54753
141.0 0.00709 95.26147 131.61952
155.0 0.00645 95.26623 130.79054
152.0 0.00658 95.27088 130.05034
173.0 0.00578 95.27540 129.39107
159.0 0.00629 95.27979 128.80487
116.0 0.00862 95.28403 128.28633
152.0 0.00658 95.28816 127.83031
134.0 0.00746 95.29216 127.43256
145.0 0.00690 95.29604 127.08916
119.0 0.00840 95.29978 126.79678
157.0 0.00637 95.30339 126.55273
128.0 0.00781 95.30686 126.35399
138.0 0.00725 95.31022 126.19855
149.0 0.00671 95.31345 126.08450
167.0 0.00599 95.31653 126.01018
137.0 0.00730 95.31949 125.97418
153.0 0.00654 95.32233 125.97531
132.0 0.00758 95.32503 126.01257
138.0 0.00725 95.32758 126.08517
166.0 0.00602 95.33002 126.19247
141.0 0.00709 95.33234 126.33406
149.0 0.00671 95.33452 126.50961
153.0 0.00654 95.33656 126.71900
159.0 0.00629 95.33849 126.96223
141.0 0.00709 95.34026 127.23942
144.0 0.00694 95.34193 127.55089
123.0 0.00813 95.34344 127.89701
128.0 0.00781 95.34483 128.27838
134.0 0.00746 95.34609 128.69568
140.0 0.00714 95.34723 129.14983
143.0 0.00699 95.34822 129.64172
117.0 0.00855 95.34908 130.17255
145.0 0.00690 95.34983 130.74359
144.0 0.00694 95.35043 131.35634
135.0 0.00741 95.35088 132.01244
125.0 0.00800 95.35123 132.71362
132.0 0.00758 95.35144 133.46202
145.0 0.00690 95.35150 134.25977
140.0 0.00714 95.35147 135.10939
123.0 0.00813 95.35126 136.01352
132.0 0.00758 95.35097 136.97513
140.0 0.00714 95.35050 137.99751
150.0 0.00667 95.34993 139.08417
142.0 0.00704 95.34922 140.23904
116.0 0.00862 95.34837 141.46637
151.0 0.00662 95.34740 142.77084
122.0 0.00820 95.34627 144.15762
122.0 0.00820 95.34505 145.63229
139.0 0.00719 95.34368 147.20126
135.0 0.00741 95.34217 148.87132
120.0 0.00833 95.34052 150.65013
122.0 0.00820 95.33875 152.54619
129.0 0.00775 95.33686 154.56902
143.0 0.00699 95.33484 156.72937
150.0 0.00667 95.33267 159.03926
157.0 0.00637 95.33038 161.51260
141.0 0.00709 95.32795 164.16519
148.0 0.00676 95.32539 167.01520
160.0 0.00625 95.32271 170.08382
155.0 0.00645 95.31989 173.39568
157.0 0.00637 95.31693 176.97961
156.0 0.00641 95.31384 180.86957
139.0 0.00719 95.31064 185.10585
148.0 0.00676 95.30729 189.73650
144.0 0.00694 95.30380 194.81935
124.0 0.00806 95.30019 200.42523
164.0 0.00610 95.29645 206.64156
166.0 0.00602 95.29258 213.57806
172.0 0.00581 95.28857 221.37376
200.0 0.00500 95.28445 230.20659
195.0 0.00513 95.28018 240.30519
209.0 0.00478 95.27579 251.96275
213.0 0.00469 95.27126 265.55380
260.0 0.00385 95.26660 281.55161
246.0 0.00407 95.26182 300.54745
294.0 0.003401 95.25689 323.26764
297.0 0.003367 95.25185 350.58813
322.0 0.003106 95.24669 383.54312
379.0 0.002639 95.24136 423.32254
410.0 0.002439 95.23592 469.99869
510.0 0.001961 95.23035 527.53461
600.0 0.001667 95.22465 596.15564
697.0 0.001435 95.21883 677.34039
769.0 0.001300 95.21286 772.46667
879.0 0.001138 95.20676 882.70868
1089.0 0.000918 95.20055 1008.29932
1177.0 0.000850 95.19421 1150.91150
1460.0 0.000685 95.18774 1309.76563
1655.0 0.000604 95.18112 1484.06091
1811.0 0.000552 95.17438 1671.99438
2109.0 0.000474 95.16752 1870.93298
2310.0 0.000433 95.16053 2077.06055
2395.0 0.000418 95.15341 2285.27124
2627.0 0.000381 95.14616 2489.16699
2789.0 0.000359 95.13879 2681.15918
2840.0 0.000352 95.13127 2852.93872
3028.0 0.0003303 95.12364 2997.17212
3027.0 0.0003304 95.11588 3104.83301
3078.0 0.0003249 95.10799 3172.03979
3043.0 0.0003286 95.09996 3196.72876
3058.0 0.0003270 95.09182 3179.51196
2983.0 0.0003352 95.08355 3122.95313
2909.0 0.0003438 95.07513 3030.73804
2874.0 0.0003479 95.06660 2907.14551
2681.0 0.000373 95.05795 2757.43066
2545.0 0.000393 95.04919 2585.94507
2422.0 0.000413 95.04026 2399.09155
2241.0 0.000446 95.03125 2203.10303
2060.0 0.000485 95.02207 2004.08032
1843.0 0.000543 95.01278 1807.52393
1698.0 0.000589 95.00337 1618.01611
1529.0 0.000654 94.99384 1439.07532
1358.0 0.000736 94.98418 1273.17627
1201.0 0.000833 94.97439 1121.85071
1140.0 0.000877 94.96446 985.83301
985.0 0.001015 94.95444 865.21082
885.0 0.001130 94.94427 759.56738
789.0 0.001267 94.93398 668.11108
682.0 0.001466 94.92357 589.79138
622.0 0.001608 94.91302 523.39874
557.0 0.001795 94.90237 467.64908
480.0 0.002083 94.89159 421.25372
467.0 0.002141 94.88069 382.97321
419.0 0.002387 94.86964 351.65540
370.0 0.002703 94.85850 326.25989
309.0 0.003236 94.84723 305.86969
286.0 0.003497 94.83582 289.69196
266.0 0.00376 94.82430 277.05038
255.0 0.00392 94.81266 267.37216
261.0 0.00383 94.80090 260.17017
246.0 0.00407 94.78900 255.02483
234.0 0.00427 94.77702 251.56519
233.0 0.00429 94.76488 249.45163
245.0 0.00408 94.75262 248.36101
213.0 0.00469 94.74026 247.97411
213.0 0.00469 94.72776 247.96867
233.0 0.00429 94.71515 248.02010
211.0 0.00474 94.70241 248.27083
213.0 0.00469 94.68957 247.52638
244.0 0.00410 94.67661 246.02307
239.0 0.00418 94.66352 243.63014
222.0 0.00450 94.65031 240.30739
202.0 0.00495 94.63697 236.08755
220.0 0.00455 94.62354 231.04817
206.0 0.00485 94.60997 225.29016
194.0 0.00515 94.59629 219.16002
193.0 0.00518 94.58248 212.33710
196.0 0.00510 94.56858 205.20572
193.0 0.00518 94.55457 197.93777
177.0 0.00565 94.54041 190.70612
188.0 0.00532 94.52613 183.66832
187.0 0.00535 94.51174 176.95514
162.0 0.00617 94.49726 170.66463
173.0 0.00578 94.48264 164.86224
148.0 0.00676 94.46791 159.58369
145.0 0.00690 94.45306 154.83936
128.0 0.00781 94.43812 150.61917
141.0 0.00709 94.42305 146.89734
155.0 0.00645 94.40787 143.63687
139.0 0.00719 94.39256 140.79375
127.0 0.00787 94.37714 138.32021
129.0 0.00775 94.36161 136.16811
127.0 0.00787 94.34597 134.29100
128.0 0.00781 94.33022 132.64578
154.0 0.00649 94.31438 131.19408
131.0 0.00763 94.29839 129.90231
113.0 0.00885 94.28231 128.74210
113.0 0.00885 94.26611 127.69013
126.0 0.00794 94.24981 126.72737
123.0 0.00813 94.23339 125.83866
118.0 0.00847 94.21684 125.01218
118.0 0.00847 94.20020 124.23869
121.0 0.00826 94.18346 123.51106
127.0 0.00787 94.16662 122.82378
101.0 0.00990 94.14965 122.17251
118.0 0.00847 94.13258 121.55395
106.0 0.00943 94.11539 120.96533
124.0 0.00806 94.09811 120.40443
114.0 0.00877 94.08070 119.86938
111.0 0.00901 94.06317 119.35860
124.0 0.00806 94.04556 118.87073
109.0 0.00917 94.02787 118.40447
117.0 0.00855 94.01005 117.95876
121.0 0.00826 93.99211 117.53259
145.0 0.00690 93.97408 117.12510
133.0 0.00752 93.95592 116.73534
128.0 0.00781 93.93769 116.36266
119.0 0.00840 93.91934 116.00630
117.0 0.00855 93.90089 115.66571
104.0 0.00962 93.88232 115.34023
107.0 0.00935 93.86367 115.02942
134.0 0.00746 93.84492 114.73284
119.0 0.00840 93.82605 114.45007
130.0 0.00769 93.80708 114.18091
112.0 0.00893 93.78802 113.92508
119.0 0.00840 93.76884 113.68266
105.0 0.00952 93.74956 113.45364
121.0 0.00826 93.73021 113.23843
137.0 0.00730 93.71073 113.03757
119.0 0.00840 93.69116 112.85204
107.0 0.00935 93.67149 112.68320
124.0 0.00806 93.65173 112.53310
137.0 0.00730 93.63184 112.40425
112.0 0.00893 93.61189 112.30011
159.0 0.00629 93.59184 112.22494
116.0 0.00862 93.57167 112.18398
122.0 0.00820 93.55142 112.18342
122.0 0.00820 93.53105 112.23035
134.0 0.00746 93.51060 112.33260
134.0 0.00746 93.49006 112.49854
150.0 0.00667 93.46942 112.73656
127.0 0.00787 93.44869 113.05461
115.0 0.00870 93.42786 113.45956
119.0 0.00840 93.40694 113.95650
131.0 0.00763 93.38592 114.54795
143.0 0.00699 93.36482 115.23306
149.0 0.00671 93.34363 116.00690
98.0 0.01020 93.32232 116.85968
153.0 0.00654 93.30094 117.77612
144.0 0.00694 93.27946 118.73502
131.0 0.00763 93.25790 119.70854
131.0 0.00763 93.23623 120.66246
127.0 0.00787 93.21449 121.55701
126.0 0.00794 93.19263 122.34946
131.0 0.00763 93.17072 122.99826
134.0 0.00746 93.14868 123.46893
135.0 0.00741 93.12659 123.73921
145.0 0.00690 93.10441 123.80154
130.0 0.00769 93.08212 123.66146
139.0 0.00719 93.05976 123.33363
120.0 0.00833 93.03731 122.83727
136.0 0.00735 93.01476 122.19361
142.0 0.00704 92.99214 121.42580
122.0 0.00820 92.96943 120.55981
121.0 0.00826 92.94663 119.62492
111.0 0.00901 92.92374 118.65235
129.0 0.00775 92.90077 117.67313
131.0 0.00763 92.87773 116.71531
109.0 0.00917 92.85461 115.80231
123.0 0.00813 92.83138 114.95206
144.0 0.00694 92.80811 114.17691
120.0 0.00833 92.78472 113.48438
137.0 0.00730 92.76127 112.87788
116.0 0.00862 92.73773 112.35718
113.0 0.00885 92.71413 111.91946
131.0 0.00763 92.69041 111.56004
118.0 0.00847 92.66665 111.27274
107.0 0.00935 92.64279 111.05074
100.0 0.01000 92.61885 110.88692
126.0 0.00794 92.59485 110.77406
108.0 0.00926 92.57076 110.70551
90.0 0.01111 92.54661 110.67508
110.0 0.00909 92.52237 110.67733
119.0 0.00840 92.49805 110.70749
117.0 0.00855 92.47364 110.76173
129.0 0.00775 92.44919 110.83687
119.0 0.00840 92.42464 110.93025
106.0 0.00943 92.40003 111.04005
111.0 0.00901 92.37534 111.16473
106.0 0.00943 92.35057 111.30336
106.0 0.00943 92.32576 111.45522
120.0 0.00833 92.30084 111.61993
115.0 0.00870 92.27587 111.79730
105.0 0.00952 92.25082 111.98730
117.0 0.00855 92.22570 112.19013
114.0 0.00877 92.20051 112.40598
129.0 0.00775 92.17525 112.63530
121.0 0.00826 92.14994 112.87845
115.0 0.00870 92.12455 113.13599
111.0 0.00901 92.09908 113.40857
103.0 0.00971 92.07354 113.69692
137.0 0.00730 92.04795 114.00185
113.0 0.00885 92.02231 114.32442
130.0 0.00769 91.99657 114.66568
130.0 0.00769 91.97076 115.02713
126.0 0.00794 91.94492 115.41029
121.0 0.00826 91.91900 115.81721
135.0 0.00741 91.89301 116.25023
124.0 0.00806 91.86696 116.71233
86.0 0.01163 91.84084 117.20716
113.0 0.00885 91.81468 117.73907
117.0 0.00855 91.78844 118.31359
132.0 0.00758 91.76215 118.93726
124.0 0.00806 91.73579 119.61813
113.0 0.00885 91.70937 120.36580
123.0 0.00813 91.68289 121.19149
141.0 0.00709 91.65634 122.10851
143.0 0.00699 91.62977 123.13188
104.0 0.00962 91.60312 124.27866
123.0 0.00813 91.57640 125.56763
129.0 0.00775 91.54963 127.01894
132.0 0.00758 91.52280 128.65385
132.0 0.00758 91.49593 130.49391
124.0 0.00806 91.46901 132.56030
154.0 0.00649 91.44202 134.87263
168.0 0.00595 91.41497 137.44815
154.0 0.00649 91.38787 140.30022
169.0 0.00592 91.36073 143.43709
160.0 0.00625 91.33353 146.86023
152.0 0.00658 91.30628 150.56325
195.0 0.00513 91.27897 154.52963
155.0 0.00645 91.25160 158.73122
163.0 0.00613 91.22421 163.12596
178.0 0.00562 91.19675 167.65593
190.0 0.00526 91.16924 172.24567
171.0 0.00585 91.14169 176.80194
206.0 0.00485 91.11410 181.21587
212.0 0.00472 91.08643 185.36954
166.0 0.00602 91.05875 189.14682
194.0 0.00515 91.03100 192.44756
190.0 0.00526 91.00320 195.20155
222.0 0.00450 90.97536 197.37683
203.0 0.00493 90.94747 198.97989
198.0 0.00505 90.91955 200.04802
194.0 0.00515 90.89161 200.63792
217.0 0.00461 90.86358 200.81653
200.0 0.00500 90.83553 200.65683
205.0 0.00488 90.80743 200.23819
204.0 0.00490 90.77930 199.64865
218.0 0.00459 90.75110 198.98495
207.0 0.00483 90.72289 198.34969
217.0 0.00461 90.69462 197.84654
208.0 0.00481 90.66634 197.57451
178.0 0.00562 90.63799 197.62427
203.0 0.00493 90.60963 198.07712
190.0 0.00526 90.58119 199.00603
198.0 0.00505 90.55275 200.47916
213.0 0.00469 90.52426 202.56514
199.0 0.00503 90.49574 205.34016
206.0 0.00485 90.46717 208.89752
213.0 0.00469 90.43858 213.36000
201.0 0.00498 90.40996 218.89684
233.0 0.00429 90.38130 225.74460
234.0 0.00427 90.35260 234.23541
239.0 0.00418 90.32388 244.83080
246.0 0.00407 90.29510 258.16306
279.0 0.00358 90.26631 275.08234
304.0 0.003289 90.23750 296.70767
320.0 0.003125 90.20861 324.47791
348.0 0.002874 90.17976 360.19623
425.0 0.002353 90.15086 406.06088
471.0 0.002123 90.12190 464.67374
498.0 0.002008 90.09295 539.00256
622.0 0.001608 90.06396 632.32062
714.0 0.001401 90.03491 748.06970
826.0 0.001211 90.00587 889.67542
997.0 0.001003 89.97678 1060.30408
1130.0 0.000885 89.94769 1262.56921
1380.0 0.000725 89.91857 1498.20715
1640.0 0.000610 89.88942 1767.74011
1909.0 0.000524 89.86024 2070.14990
2350.0 0.000426 89.83105 2402.60083
2669.0 0.000375 89.80183 2760.20532
3124.0 0.0003201 89.77260 3135.86914
3511.0 0.0002848 89.74333 3520.21558
3900.0 0.0002564 89.71405 3901.62012
4248.0 0.0002354 89.68476 4266.46289
4624.0 0.0002163 89.65546 4599.73779
4845.0 0.0002064 89.62610 4886.22510
5133.0 0.0001948 89.59676 5112.22998
5332.0 0.0001875 89.56738 5267.51514
5455.0 0.0001833 89.53799 5346.71484
5357.0 0.0001867 89.50856 5349.54980
5327.0 0.0001877 89.47914 5279.80566
5239.0 0.0001909 89.44970 5143.72900
5020.0 0.0001992 89.42026 4948.70020
4689.0 0.0002133 89.39079 4702.66211
4552.0 0.0002197 89.36130 4414.24219
4106.0 0.0002435 89.33182 4093.08936
3775.0 0.0002649 89.30229 3749.88647
3519.0 0.0002842 89.27278 3395.83252
3119.0 0.0003206 89.24325 3041.77759
2806.0 0.000356 89.21371 2697.38477
2438.0 0.000410 89.18415 2370.58691
2176.0 0.000460 89.15459 2067.38623
1866.0 0.000536 89.12503 1791.92773
1650.0 0.000606 89.09546 1546.70703
1475.0 0.000678 89.06587 1332.85657
1266.0 0.000790 89.03628 1150.43835
1115.0 0.000897 89.00668 998.73621
1016.0 0.000984 88.97707 876.52606
895.0 0.001117 88.94745 782.31927
843.0 0.001186 88.91785 714.56653
841.0 0.001189 88.88821 671.81616
756.0 0.001323 88.85860 652.81708
741.0 0.001350 88.82897 656.56378
794.0 0.001259 88.79935 682.28070
778.0 0.001285 88.76971 729.35229
878.0 0.001139 88.74008 797.20551
934.0 0.001071 88.71044 885.15784
1085.0 0.000922 88.68082 992.24792
1178.0 0.000849 88.65118 1117.06274
1408.0 0.000710 88.62155 1257.57886
1535.0 0.000651 88.59192 1411.02576
1667.0 0.000600 88.56230 1573.78186
1899.0 0.000527 88.53266 1741.30896
2067.0 0.000484 88.50305 1908.14404
2150.0 0.000465 88.47343 2067.99487
2355.0 0.000425 88.44384 2214.00610
2408.0 0.000415 88.41422 2339.28394
2497.0 0.000400 88.38461 2437.66260
2509.0 0.000399 88.35503 2504.55420
2526.0 0.000396 88.32542 2537.55273
2564.0 0.000390 88.29584 2536.51294
2516.0 0.000397 88.26628 2503.08911
2554.0 0.000392 88.23671 2440.02271
2368.0 0.000422 88.20716 2350.54443
2188.0 0.000457 88.17762 2238.11548
2107.0 0.000475 88.14806 2106.47632
2054.0 0.000487 88.11855 1959.80420
1848.0 0.000541 88.08904 1802.74878
1737.0 0.000576 88.05953 1640.22778
1677.0 0.000596 88.03007 1477.05566
1481.0 0.000675 88.00058 1317.56201
1244.0 0.000804 87.97112 1165.32861
1174.0 0.000852 87.94167 1023.07562
1056.0 0.000947 87.91224 892.67249
967.0 0.001034 87.88283 775.21442
788.0 0.001269 87.85342 671.13342
773.0 0.001294 87.82405 580.31555
612.0 0.001634 87.79467 502.21844
613.0 0.001631 87.76534 435.98169
509.0 0.001965 87.73599 380.53082
448.0 0.002232 87.70670 334.65964
370.0 0.002703 87.67741 297.12225
402.0 0.002488 87.64815 266.68866
333.0 0.003003 87.61890 242.19601
315.0 0.003175 87.58967 222.58369
286.0 0.003497 87.56046 206.91382
258.0 0.00388 87.53129 194.38042
251.0 0.00398 87.50213 184.30849
232.0 0.00431 87.47299 176.14735
209.0 0.00478 87.44387 169.45364
210.0 0.00476 87.41479 163.88298
218.0 0.00459 87.38573 159.16995
190.0 0.00526 87.35670 155.11380
190.0 0.00526 87.32768 151.56490
178.0 0.00562 87.29871 148.41354
170.0 0.00588 87.26976 145.57741
149.0 0.00671 87.24084 142.99802
162.0 0.00617 87.21194 140.64400
162.0 0.00617 87.18308 138.45882
168.0 0.00595 87.15424 136.43008
159.0 0.00629 87.12543 134.53888
164.0 0.00610 87.09666 132.77034
157.0 0.00637 87.06792 131.11249
175.0 0.00571 87.03922 129.55458
155.0 0.00645 87.01054 128.08820
182.0 0.00549 86.98190 126.71191
160.0 0.00625 86.95329 125.40699
144.0 0.00694 86.92471 124.17355
156.0 0.00641 86.89618 123.00627
139.0 0.00719 86.86768 121.90035
133.0 0.00752 86.83920 120.85157
135.0 0.00741 86.81078 119.85590
150.0 0.00667 86.78237 118.90984
148.0 0.00676 86.75404 118.01017
140.0 0.00714 86.72572 117.15378
133.0 0.00752 86.69744 116.33801
138.0 0.00725 86.66920 115.56039
131.0 0.00763 86.64101 114.81861
143.0 0.00699 86.61285 114.11053
118.0 0.00847 86.58475 113.43427
143.0 0.00699 86.55667 112.78796
136.0 0.00735 86.52864 112.16999
117.0 0.00855 86.50066 111.57887
124.0 0.00806 86.47271 111.01318
123.0 0.00813 86.44482 110.47162
109.0 0.00917 86.41695 109.95293
119.0 0.00840 86.38916 109.45611
126.0 0.00794 86.36140 108.98000
115.0 0.00870 86.33368 108.52375
119.0 0.00840 86.30602 108.08641
117.0 0.00855 86.27838 107.08665
114.0 0.00877 86.25082 106.68785
116.0 0.00862 86.22329 106.30563
130.0 0.00769 86.19582 105.93941
128.0 0.00781 86.16840 105.58853
133.0 0.00752 86.14101 105.25246
130.0 0.00769 86.11370 104.54105
125.0 0.00800 86.08642 104.23502
114.0 0.00877 86.05919 103.94234
102.0 0.00980 86.03204 103.66269
108.0 0.00926 86.00491 103.39558
95.0 0.01053 85.97785 103.14079
126.0 0.00794 85.95084 102.89796
115.0 0.00870 85.92389 102.66690
123.0 0.00813 85.89700 102.44732
118.0 0.00847 85.87016 102.23895
111.0 0.00901 85.84338 102.04170
108.0 0.00926 85.81664 101.85544
104.0 0.00962 85.78998 101.67999
125.0 0.00800 85.76337 101.51524
92.0 0.01087 85.73682 101.36115
90.0 0.01111 85.71032 101.21774
92.0 0.01087 85.68387 101.08494
124.0 0.00806 85.65749 100.96273
101.0 0.00990 85.63117 100.85122
109.0 0.00917 85.60495 100.75050
121.0 0.00826 85.57874 100.66062
101.0 0.00990 85.55261 100.58181
97.0 0.01031 85.52654 100.51414
95.0 0.01053 85.50054 100.45792
97.0 0.01031 85.47459 100.41335
109.0 0.00917 85.44871 100.38079
110.0 0.00909 85.42290 100.36050
109.0 0.00917 85.39718 100.35290
101.0 0.00990 85.37149 100.35846
96.0 0.01042 85.34587 100.37766
103.0 0.00971 85.32030 100.41108
103.0 0.00971 85.29485 100.45929
113.0 0.00885 85.26942 100.52306
98.0 0.01020 85.24406 100.60320
106.0 0.00943 85.21881 100.70051
133.0 0.00752 85.19362 100.81609
111.0 0.00901 85.16847 100.95107
116.0 0.00862 85.14342 101.10674
94.0 0.01064 85.11842 101.28468
110.0 0.00909 85.09349 101.48662
97.0 0.01031 85.06863 101.71464
108.0 0.00926 85.04385 101.97122
105.0 0.00952 85.01913 102.25925
98.0 0.01020 84.99451 102.58236
71.0 0.01408 84.96997 102.94485
105.0 0.00952 84.94548 103.35201
108.0 0.00926 84.92108 103.81030
94.0 0.01064 84.89675 104.32772
91.0 0.01099 84.87247 104.91408
112.0 0.00893 84.84828 105.58133
105.0 0.00952 84.82418 106.34414
94.0 0.01064 84.80016 107.22025
97.0 0.01031 84.77622 108.23088
118.0 0.00847 84.75234 109.40144
118.0 0.00847 84.72856 110.76175
93.0 0.01075 84.70486 112.34643
96.0 0.01042 84.68121 114.19535
89.0 0.01124 84.65766 116.35352
124.0 0.00806 84.63419 118.87099
120.0 0.00833 84.61078 121.80257
141.0 0.00709 84.58751 125.20682
115.0 0.00870 84.56428 129.14520
157.0 0.00637 84.54112 133.68059
119.0 0.00840 84.51806 138.87518
141.0 0.00709 84.49509 144.78915
142.0 0.00704 84.47221 151.47508
143.0 0.00699 84.44939 158.97919
182.0 0.00549 84.42667 167.33545
194.0 0.00515 84.40402 176.56233
183.0 0.00546 84.38148 186.65938
198.0 0.00505 84.35902 197.60249
214.0 0.00467 84.33663 209.33932
234.0 0.00427 84.31435 221.78357
259.0 0.00386 84.29216 234.80920
269.0 0.00372 84.27004 248.24382
256.0 0.00391 84.24802 261.86176
274.0 0.00365 84.22608 275.38184
309.0 0.003236 84.20425 288.46829
332.0 0.003012 84.18247 300.74072
310.0 0.003226 84.16081 311.79559
299.0 0.003344 84.13925 321.24063
310.0 0.003226 84.11777 328.73526
294.0 0.003401 84.09638 334.02963
338.0 0.002959 84.07509 336.98901
293.0 0.003413 84.05387 337.59677
314.0 0.003185 84.03276 335.93454
295.0 0.003390 84.01175 332.14996
296.0 0.003378 83.99082 326.42514
333.0 0.003003 83.96998 318.95709
277.0 0.00361 83.94925 309.95187
275.0 0.00364 83.92862 299.62924
262.0 0.00382 83.90808 288.23087
255.0 0.00392 83.88765 276.02023
271.0 0.00369 83.86729 263.27545
273.0 0.00366 83.84702 250.27463
251.0 0.00398 83.82687 237.27908
237.0 0.00422 83.80684 224.51979
207.0 0.00483 83.78687 212.18878
182.0 0.00549 83.76700 200.43605
223.0 0.00448 83.74725 189.37079
204.0 0.00490 83.72759 179.06570
157.0 0.00637 83.70803 169.56183
154.0 0.00649 83.68857 160.87378
154.0 0.00649 83.66921 152.99503
158.0 0.00633 83.64997 146.11031
163.0 0.00613 83.63081 139.76875
144.0 0.00694 83.61176 134.13232
126.0 0.00794 83.59281 129.14964
113.0 0.00885 83.57397 124.76572
122.0 0.00820 83.55523 120.92377
125.0 0.00800 83.53659 117.56750
102.0 0.00980 83.51805 114.64218
120.0 0.00833 83.49963 112.09574
116.0 0.00862 83.48130 109.87975
106.0 0.00943 83.46308 108.05370
92.0 0.01087 83.44497 106.37012
97.0 0.01031 83.42696 104.89685
111.0 0.00901 83.40907 103.60262
114.0 0.00877 83.39127 102.46017
97.0 0.01031 83.37358 101.44630
106.0 0.00943 83.35601 100.54113
87.0 0.01149 83.33854 99.72806
102.0 0.00980 83.32117 98.99311
83.0 0.01205 83.30393 98.32471
87.0 0.01149 83.28679 97.71333
96.0 0.01042 83.26975 97.15105
113.0 0.00885 83.25283 96.63139
76.0 0.01316 83.23602 96.15160
75.0 0.01333 83.21930 95.70218
73.0 0.01370 83.20274 95.28194
93.0 0.01075 83.18624 94.88795
85.0 0.01176 83.16988 94.51759
90.0 0.01111 83.15363 94.16869
84.0 0.01190 83.13748 93.83947
91.0 0.01099 83.12146 93.52827
88.0 0.01136 83.10555 93.23367
70.0 0.01429 83.08973 92.95580
82.0 0.01220 83.07406 92.69101
89.0 0.01124 83.05848 92.43958
90.0 0.01111 83.04301 92.20061
83.0 0.01205 83.02766 91.97337
70.0 0.01429 83.01244 91.75720
77.0 0.01299 82.99734 91.55135
76.0 0.01316 82.98233 91.35522
91.0 0.01099 82.96745 91.16840
88.0 0.01136 82.95267 90.99038
86.0 0.01163 82.93803 90.82066
82.0 0.01220 82.92351 90.65884
87.0 0.01149 82.90909 90.50465
77.0 0.01299 82.89481 90.35769
65.0 0.01538 82.88065 90.21767
86.0 0.01163 82.86658 90.08442
86.0 0.01163 82.85265 89.95766
75.0 0.01333 82.83883 89.83726
83.0 0.01205 82.82513 89.72308
97.0 0.01031 82.81155 89.61506
79.0 0.01266 82.79809 89.51315
88.0 0.01136 82.78476 89.41736
82.0 0.01220 82.77155 89.32781
65.0 0.01538 82.75846 89.24467
82.0 0.01220 82.74548 89.16823
89.0 0.01124 82.73263 89.09880
71.0 0.01408 82.71990 89.03698
71.0 0.01408 82.70730 88.98330
82.0 0.01220 82.69481 88.93864
98.0 0.01020 82.68246 88.90383
84.0 0.01190 82.67022 88.88012
83.0 0.01205 82.65810 88.86897
66.0 0.01515 82.64613 88.87212
65.0 0.01538 82.63426 88.89176
84.0 0.01190 82.62253 88.93069
81.0 0.01235 82.61090 88.99247
71.0 0.01408 82.59942 89.08176
85.0 0.01176 82.58805 89.20455
78.0 0.01282 82.57681 89.36868
87.0 0.01149 82.56570 89.58414
92.0 0.01087 82.55472 89.86362
71.0 0.01408 82.54385 90.22293
78.0 0.01282 82.53312 90.68114
76.0 0.01316 82.52251 91.26108
88.0 0.01136 82.51204 91.98862
82.0 0.01220 82.50169 92.89295
80.0 0.01250 82.49146 94.00513
91.0 0.01099 82.48138 95.35730
88.0 0.01136 82.47141 96.98061
92.0 0.01087 82.46156 98.90278
112.0 0.00893 82.45184 101.14516
97.0 0.01031 82.44226 103.71938
83.0 0.01205 82.43281 106.62400
96.0 0.01042 82.42349 109.84175
77.0 0.01299 82.41432 113.33698
102.0 0.00980 82.40525 117.05438
109.0 0.00917 82.39632 120.91842
95.0 0.01053 82.38751 124.83334
129.0 0.00775 82.37883 128.68466
124.0 0.00806 82.37032 132.34219
113.0 0.00885 82.36190 135.66641
121.0 0.00826 82.35363 138.51909
143.0 0.00699 82.34548 140.87949
136.0 0.00735 82.33747 142.45354
149.0 0.00671 82.32959 143.29385
134.0 0.00746 82.32185 143.39647
132.0 0.00758 82.31425 142.79413
122.0 0.00820 82.30675 141.54300
129.0 0.00775 82.29938 139.71016
109.0 0.00917 82.29218 137.36603
123.0 0.00813 82.28510 134.58281
134.0 0.00746 82.27815 131.43730
110.0 0.00909 82.27134 128.06479
127.0 0.00787 82.26466 124.45599
107.0 0.00935 82.25812 120.75790
91.0 0.01099 82.25172 117.06435
97.0 0.01031 82.24543 113.45972
109.0 0.00917 82.23927 110.01481
99.0 0.01010 82.23325 106.78420
100.0 0.01000 82.22740 103.80663
95.0 0.01053 82.22166 101.10606
87.0 0.01149 82.21606 98.69354
75.0 0.01333 82.21058 96.56937
75.0 0.01333 82.20528 94.72491
92.0 0.01087 82.20009 93.14458
96.0 0.01042 82.19504 91.80772
74.0 0.01351 82.19009 90.69061
85.0 0.01176 82.18530 89.76756
62.0 0.01613 82.18066 89.01261
79.0 0.01266 82.17616 88.40058
81.0 0.01235 82.17178 87.90794
90.0 0.01111 82.16755 87.51333
70.0 0.01429 82.16345 87.19785
77.0 0.01299 82.15949 86.94543
91.0 0.01099 82.15568 86.74258
74.0 0.01351 82.15199 86.57819
93.0 0.01075 82.14843 86.44343
70.0 0.01429 82.14501 86.33150
89.0 0.01124 82.14175 86.23698
70.0 0.01429 82.13862 86.15585
79.0 0.01266 82.13563 86.08503
90.0 0.01111 82.13277 86.02243
99.0 0.01010 82.13006 85.96647
82.0 0.01220 82.12748 85.91589
60.0 0.01667 82.12505 85.86986
79.0 0.01266 82.12275 85.82791
83.0 0.01205 82.12058 85.78957
94.0 0.01064 82.11855 85.75455
99.0 0.01010 82.11669 85.72273
67.0 0.01493 82.11494 85.69405
70.0 0.01429 82.11335 85.66855
81.0 0.01235 82.11189 85.64631
74.0 0.01351 82.11057 85.62758
86.0 0.01163 82.10939 85.61272
89.0 0.01124 82.10835 85.60217
74.0 0.01351 82.10744 85.59643
77.0 0.01299 82.10668 85.59641
85.0 0.01176 82.10606 85.60278
89.0 0.01124 82.10559 85.61673
84.0 0.01190 82.10526 85.63934
76.0 0.01316 82.10506 85.67182
78.0 0.01282 82.10499 85.71549
78.0 0.01282 82.10509 85.77168
71.0 0.01408 82.10532 85.84165
63.0 0.01587 82.10569 85.92647
70.0 0.01429 82.10619 86.02699
93.0 0.01075 82.10685 86.14376
72.0 0.01389 82.10764 86.27676
73.0 0.01370 82.10857 86.42559
85.0 0.01176 82.10965 86.58910
76.0 0.01316 82.11086 86.76547
68.0 0.01471 82.11222 86.95213
73.0 0.01370 82.11372 87.14559
75.0 0.01333 82.11536 87.34156
68.0 0.01471 82.11715 87.52113
84.0 0.01190 82.11908 87.70570
85.0 0.01176 82.12115 87.87507
81.0 0.01235 82.12336 88.02271
63.0 0.01587 82.12571 88.14289
90.0 0.01111 82.12822 88.23121
86.0 0.01163 82.13085 88.67081
78.0 0.01282 82.13362 88.68346
76.0 0.01316 82.13655 88.67202
65.0 0.01538 82.13961 88.63025
76.0 0.01316 82.14281 88.56105
84.0 0.01190 82.14617 88.46761
93.0 0.01075 82.14966 88.35271
91.0 0.01099 82.15330 88.21984
81.0 0.01235 82.15709 88.07224
71.0 0.01408 82.16100 87.91368
88.0 0.01136 82.16505 87.94087
83.0 0.01205 82.16926 87.77440
77.0 0.01299 82.17361 87.60995
82.0 0.01220 82.17811 87.45645
81.0 0.01235 82.18273 87.30679
70.0 0.01429 82.18750 87.16857
77.0 0.01299 82.19243 87.04357
93.0 0.01075 82.19749 86.93293
71.0 0.01408 82.20268 86.83725
62.0 0.01613 82.20802 86.75680
78.0 0.01282 82.21352 86.69135
89.0 0.01124 82.21915 86.64059
76.0 0.01316 82.22492 86.60389
65.0 0.01538 82.23083 86.58327
91.0 0.01099 82.23690 86.57278
68.0 0.01471 82.24311 86.57455
86.0 0.01163 82.24944 86.58804
77.0 0.01299 82.25591 86.61290
77.0 0.01299 82.26255 86.64898
70.0 0.01429 82.26932 86.69644
89.0 0.01124 82.27623 86.75570
89.0 0.01124 82.28328 86.82751
79.0 0.01266 82.29048 86.91278
76.0 0.01316 82.29783 87.01290
83.0 0.01205 82.30530 87.12946
74.0 0.01351 82.31293 87.26455
84.0 0.01190 82.32069 87.42020
82.0 0.01220 82.32861 87.59893
82.0 0.01220 82.33665 87.80334
78.0 0.01282 82.34485 88.03616
82.0 0.01220 82.35318 88.30019
85.0 0.01176 82.36166 88.59814
78.0 0.01282 82.37027 88.93256
84.0 0.01190 82.37904 89.30589
93.0 0.01075 82.38793 89.72004
84.0 0.01190 82.39699 90.17655
82.0 0.01220 82.40617 90.67641
99.0 0.01010 82.41550 91.21977
94.0 0.01064 82.42496 91.80598
97.0 0.01031 82.43458 92.43326
78.0 0.01282 82.44433 93.09854
80.0 0.01250 82.45420 93.79730
88.0 0.01136 82.46426 94.52310
87.0 0.01149 82.47443 95.26772
95.0 0.01053 82.48473 96.02097
88.0 0.01136 82.49519 96.77092
97.0 0.01031 82.50581 97.50477
85.0 0.01176 82.51653 98.20992
104.0 0.00962 82.52740 98.87518
103.0 0.00971 82.53842 99.49238
97.0 0.01031 82.54959 100.05693
94.0 0.01064 82.56088 100.56815
97.0 0.01031 82.57232 101.02831
96.0 0.01042 82.58389 101.44089
97.0 0.01031 82.59563 101.80949
97.0 0.01031 82.60749 102.13614
104.0 0.00962 82.61950 102.42081
119.0 0.00840 82.63162 102.66126
88.0 0.01136 82.64390 102.85325
108.0 0.00926 82.65631 102.99113
123.0 0.00813 82.66888 103.06819
94.0 0.01064 82.68157 103.07720
102.0 0.00980 82.69442 103.01108
73.0 0.01370 82.70738 102.86436
91.0 0.01099 82.72049 102.63430
111.0 0.00901 82.73376 102.32181
94.0 0.01064 82.74713 101.93181
85.0 0.01176 82.76067 101.47240
90.0 0.01111 82.77433 100.95341
86.0 0.01163 82.78812 100.38489
109.0 0.00917 82.80207 99.77615
110.0 0.00909 82.81616 99.13520
85.0 0.01176 82.83037 98.46942
77.0 0.01299 82.84473 97.78629
107.0 0.00935 82.85921 97.09402
79.0 0.01266 82.87385 96.40208
83.0 0.01205 82.88861 95.72076
101.0 0.00990 82.90350 95.06082
87.0 0.01149 82.91854 94.43280
84.0 0.01190 82.93372 93.84637
92.0 0.01087 82.94904 93.31031
84.0 0.01190 82.96449 92.83221
80.0 0.01250 82.98006 92.42120
93.0 0.01075 82.99578 92.07863
93.0 0.01075 83.01163 91.81242
89.0 0.01124 83.02762 91.62784
87.0 0.01149 83.04375 91.52983
83.0 0.01205 83.06002 91.52312
77.0 0.01299 83.07640 91.61173
85.0 0.01176 83.09294 91.79893
92.0 0.01087 83.10958 92.08667
116.0 0.00862 83.12638 92.47525
92.0 0.01087 83.14333 92.96391
94.0 0.01064 83.16039 93.54564
73.0 0.01370 83.17759 94.21393
88.0 0.01136 83.19489 94.95763
103.0 0.00971 83.21239 95.76201
87.0 0.01149 83.22997 96.60860
83.0 0.01205 83.24770 97.47514
89.0 0.01124 83.26556 98.33618
86.0 0.01163 83.28356 99.16367
90.0 0.01111 83.30168 99.92703
113.0 0.00885 83.31995 100.59732
93.0 0.01075 83.33834 101.14830
105.0 0.00952 83.35684 101.56019
103.0 0.00971 83.37550 101.82157
101.0 0.00990 83.39428 101.93020
113.0 0.00885 83.41319 101.89165
113.0 0.00885 83.43224 101.71684
112.0 0.00893 83.45142 101.41908
96.0 0.01042 83.47072 101.01249
103.0 0.00971 83.49015 100.51128
119.0 0.00840 83.50970 99.92905
101.0 0.00990 83.52940 99.28099
104.0 0.00962 83.54922 98.58368
105.0 0.00952 83.56916 97.85488
89.0 0.01124 83.58924 97.11333
103.0 0.00971 83.60944 96.37705
101.0 0.00990 83.62979 95.66232
83.0 0.01205 83.65024 94.98264
103.0 0.00971 83.67083 94.34856
89.0 0.01124 83.69154 93.76751
79.0 0.01266 83.71238 93.24429
101.0 0.00990 83.73335 92.78099
93.0 0.01075 83.75444 92.37785
93.0 0.01075 83.77567 92.03322
112.0 0.00893 83.79700 91.74432
105.0 0.00952 83.81848 91.50725
85.0 0.01176 83.84007 91.31752
102.0 0.00980 83.86178 91.17021
86.0 0.01163 83.88364 91.06046
105.0 0.00952 83.90562 90.98322
89.0 0.01124 83.92770 90.93378
91.0 0.01099 83.94991 90.90788
87.0 0.01149 83.97225 90.90147
100.0 0.01000 83.99470 90.91121
100.0 0.01000 84.01729 90.93420
97.0 0.01031 84.03999 90.96797
80.0 0.01250 84.06282 91.01073
108.0 0.00926 84.08578 91.06096
75.0 0.01333 84.10884 91.11742
59.0 0.01695 84.13206 91.17938
96.0 0.01042 84.15535 91.24610
88.0 0.01136 84.17878 91.31717
78.0 0.01282 84.20233 91.39217
86.0 0.01163 84.22602 91.47091
85.0 0.01176 84.24981 91.55315
100.0 0.01000 84.27371 91.63877
90.0 0.01111 84.29776 91.72768
85.0 0.01176 84.32188 91.81975
99.0 0.01010 84.34617 91.91496
84.0 0.01190 84.37054 92.01324
83.0 0.01205 84.39506 92.11454
86.0 0.01163 84.41965 92.22611
89.0 0.01124 84.44440 92.33342
84.0 0.01190 84.46927 92.44372
81.0 0.01235 84.49423 92.55695
84.0 0.01190 84.51931 92.67317
114.0 0.00877 84.54451 92.79234
88.0 0.01136 84.56984 92.91452
101.0 0.00990 84.59525 93.03975
83.0 0.01205 84.62081 93.16802
92.0 0.01087 84.64645 93.29943
85.0 0.01176 84.67223 93.43764
72.0 0.01389 84.69810 93.57552
86.0 0.01163 84.72411 93.71665
77.0 0.01299 84.75022 93.86125
88.0 0.01136 84.77645 94.00928
85.0 0.01176 84.80277 94.16091
88.0 0.01136 84.82923 94.31619
77.0 0.01299 84.85575 94.47533
98.0 0.01020 84.88243 94.63830
89.0 0.01124 84.90921 94.80532
90.0 0.01111 84.93611 94.97653
86.0 0.01163 84.96310 95.15203
85.0 0.01176 84.99020 95.33190
106.0 0.00943 85.01740 95.51644
98.0 0.01020 85.04474 95.70567
82.0 0.01220 85.07216 95.89986
88.0 0.01136 85.09968 96.09915
101.0 0.00990 85.12734 96.30373
101.0 0.00990 85.15509 96.51382
87.0 0.01149 85.18295 96.72961
92.0 0.01087 85.21090 96.95135
90.0 0.01111 85.23899 97.17928
105.0 0.00952 85.26716 97.41360
100.0 0.01000 85.29543 97.65462
83.0 0.01205 85.32381 97.90265
95.0 0.01053 85.35228 98.15793
100.0 0.01000 85.38089 98.42080
95.0 0.01053 85.40957 98.69154
95.0 0.01053 85.43837 98.97068
126.0 0.00794 85.46726 99.25844
92.0 0.01087 85.49625 99.55526
100.0 0.01000 85.52537 99.86162
106.0 0.00943 85.55456 100.17790
107.0 0.00935 85.58386 100.50465
105.0 0.00952 85.61327 100.84241
101.0 0.00990 85.64276 101.19167
104.0 0.00962 85.67234 101.55305
93.0 0.01075 85.70205 101.92719
113.0 0.00885 85.73185 102.31477
105.0 0.00952 85.76174 102.71658
99.0 0.01010 85.79174 103.13330
100.0 0.01000 85.82182 103.56589
100.0 0.01000 85.85201 104.01517
110.0 0.00909 85.88228 104.48215
102.0 0.00980 85.91267 104.96795
121.0 0.00826 85.94312 105.47367
103.0 0.00971 85.97369 106.00060
101.0 0.00990 86.00434 106.54993
107.0 0.00935 86.03511 107.12341
92.0 0.01087 86.06596 107.72249
124.0 0.00806 86.09689 108.34898
98.0 0.01020 86.12792 109.00492
109.0 0.00917 86.15903 109.69252
126.0 0.00794 86.19025 110.41431
128.0 0.00781 86.22156 111.17330
109.0 0.00917 86.25294 111.97288
129.0 0.00775 86.28443 112.81718
116.0 0.00862 86.31601 113.71117
98.0 0.01020 86.34767 114.66123
98.0 0.01020 86.37943 115.67509
108.0 0.00926 86.41129 116.76281
123.0 0.00813 86.44320 117.93734
129.0 0.00775 86.47523 119.21539
117.0 0.00855 86.50730 120.61868
138.0 0.00725 86.53950 122.17521
111.0 0.00901 86.57177 123.92097
127.0 0.00787 86.60413 125.90180
120.0 0.00833 86.63657 128.17549
110.0 0.00909 86.66910 130.81444
138.0 0.00725 86.70171 133.90503
142.0 0.00704 86.73439 137.55376
150.0 0.00667 86.76718 141.88568
151.0 0.00662 86.80003 147.04594
145.0 0.00690 86.83298 153.28845
136.0 0.00735 86.86600 160.61618
157.0 0.00637 86.89909 169.31429
170.0 0.00588 86.93229 179.59094
167.0 0.00599 86.96552 191.64307
197.0 0.00508 86.99888 205.67128
199.0 0.00503 87.03231 221.85248
225.0 0.00444 87.06580 240.33023
239.0 0.00418 87.09936 261.20352
274.0 0.00365 87.13302 284.51141
294.0 0.003401 87.16676 310.22079
321.0 0.003115 87.20056 338.25830
326.0 0.003067 87.23444 368.32144
357.0 0.002801 87.26839 400.13638
428.0 0.002336 87.30242 433.27191
457.0 0.002188 87.33651 467.18027
487.0 0.002053 87.37070 501.18677
546.0 0.001832 87.40495 534.50909
583.0 0.001715 87.43925 566.27069
627.0 0.001595 87.47365 595.54797
676.0 0.001479 87.50812 621.44348
648.0 0.001543 87.54266 643.18359
671.0 0.001490 87.57726 660.21637
662.0 0.001511 87.61194 672.28473
683.0 0.001464 87.64667 679.44086
673.0 0.001486 87.68149 682.00122
627.0 0.001595 87.71637 680.46283
674.0 0.001484 87.75130 675.40759
676.0 0.001479 87.78633 667.43475
666.0 0.001502 87.82139 657.12891
641.0 0.001560 87.85656 645.06818
647.0 0.001546 87.89176 631.85468
619.0 0.001616 87.92705 618.14990
652.0 0.001534 87.96238 604.63409
588.0 0.001701 87.99776 592.21509
617.0 0.001621 88.03326 581.81720
625.0 0.001600 88.06876 573.92267
689.0 0.001451 88.10437 569.41052
656.0 0.001524 88.14001 568.89404
628.0 0.001592 88.17573 572.85785
683.0 0.001464 88.21149 581.64655
670.0 0.001493 88.24733 595.09564
638.0 0.001567 88.28323 613.99542
689.0 0.001451 88.31917 637.88995
767.0 0.001304 88.35519 666.54254
832.0 0.001202 88.39124 699.75616
792.0 0.001263 88.42736 736.59802
851.0 0.001175 88.46354 776.54150
892.0 0.001121 88.49978 818.69366
960.0 0.001042 88.53606 861.98260
930.0 0.001075 88.57241 905.16827
992.0 0.001008 88.60880 946.87323
987.0 0.001013 88.64523 985.64532
951.0 0.001052 88.68175 1020.05054
1032.0 0.000969 88.71829 1048.79541
1036.0 0.000965 88.75490 1070.85303
1045.0 0.000957 88.79157 1085.61218
1099.0 0.000910 88.82829 1092.69458
1062.0 0.000942 88.86504 1092.25793
1014.0 0.000986 88.90184 1084.68164
979.0 0.001021 88.93870 1070.50598
938.0 0.001066 88.97560 1050.32117
977.0 0.001024 89.01255 1024.70044
932.0 0.001073 89.04954 994.18372
897.0 0.001115 89.08659 959.29877
903.0 0.001107 89.12367 920.60785
858.0 0.001166 89.16081 878.74890
809.0 0.001236 89.19798 834.44861
732.0 0.001366 89.23521 788.50861
714.0 0.001401 89.27248 741.76300
742.0 0.001348 89.30978 695.02582
681.0 0.001468 89.34715 649.04199
607.0 0.001647 89.38453 604.45416
619.0 0.001616 89.42197 561.78430
573.0 0.001745 89.45942 521.43109
541.0 0.001848 89.49693 483.67664
482.0 0.002075 89.53449 448.70023
481.0 0.002079 89.57209 416.59265
465.0 0.002151 89.60970 387.37140
423.0 0.002364 89.64736 360.99429
401.0 0.002494 89.68508 337.37314
355.0 0.002817 89.72281 316.38358
314.0 0.003185 89.76059 297.87527
347.0 0.002882 89.79838 281.84811
333.0 0.003003 89.83622 267.79156
307.0 0.003257 89.87409 255.69130
264.0 0.00379 89.91200 245.36995
261.0 0.00383 89.94994 236.65742
278.0 0.00360 89.98790 229.39542
266.0 0.00376 90.02593 223.43994
238.0 0.00420 90.06393 218.66385
219.0 0.00457 90.10201 214.95851
257.0 0.00389 90.14008 212.23485
234.0 0.00427 90.17822 210.50777
245.0 0.00408 90.21636 209.56612
221.0 0.00452 90.25454 209.46970
211.0 0.00474 90.29272 210.22179
228.0 0.00439 90.33096 211.85291
246.0 0.00407 90.36921 214.42426
221.0 0.00452 90.40749 218.03040
215.0 0.00465 90.44579 222.80287
270.0 0.00370 90.48411 228.91460
242.0 0.00413 90.52245 236.58336
272.0 0.00368 90.56083 246.07603
270.0 0.00370 90.59921 257.71130
304.0 0.003289 90.63763 271.86157
308.0 0.003247 90.67606 288.95181
362.0 0.002762 90.71452 309.45645
382.0 0.002618 90.75297 333.89203
434.0 0.002304 90.79144 362.80667
401.0 0.002494 90.82997 396.76437
490.0 0.002041 90.86849 436.32748
565.0 0.001770 90.90702 482.03345
682.0 0.001466 90.94558 534.36829
630.0 0.001587 90.98416 593.73547
759.0 0.001318 91.02274 660.41986
888.0 0.001126 91.06134 734.54919
949.0 0.001054 91.09995 816.05286
946.0 0.001057 91.13857 904.61969
1156.0 0.000865 91.17720 999.66406
1292.0 0.000774 91.21584 1100.28931
1275.0 0.000784 91.25452 1205.25854
1462.0 0.000684 91.29318 1312.97046
1517.0 0.000659 91.33185 1421.43799
1520.0 0.000658 91.37054 1528.29468
1703.0 0.000587 91.40923 1630.82666
1689.0 0.000592 91.44792 1726.07080
1813.0 0.000552 91.48662 1810.99231
1848.0 0.000541 91.52534 1882.74768
1799.0 0.000556 91.56406 1938.99292
1880.0 0.000532 91.60278 1978.15979
1829.0 0.000547 91.64150 1999.61365
1892.0 0.000529 91.68024 2003.62585
1828.0 0.000547 91.71897 1991.17639
1895.0 0.000528 91.75770 1963.66064
1807.0 0.000553 91.79646 1922.60205
1744.0 0.000573 91.83517 1869.45679
1732.0 0.000577 91.87391 1805.53589
1628.0 0.000614 91.91266 1732.05408
1607.0 0.000622 91.95139 1650.24060
1436.0 0.000696 91.99012 1561.46533
1377.0 0.000726 92.02886 1467.30872
1387.0 0.000721 92.06757 1369.54822
1248.0 0.000801 92.10629 1270.06970
1162.0 0.000861 92.14501 1170.73401
1114.0 0.000898 92.18373 1073.25220
1106.0 0.000904 92.22244 979.09387
936.0 0.001068 92.26114 889.43951
897.0 0.001115 92.29984 805.17688
804.0 0.001244 92.33852 726.91614
758.0 0.001319 92.37719 655.02301
725.0 0.001379 92.41587 589.65393
641.0 0.001560 92.45454 530.79041
580.0 0.001724 92.49317 478.27209
563.0 0.001776 92.53181 431.82642
488.0 0.002049 92.57045 391.09399
422.0 0.002370 92.60904 355.65344
401.0 0.002494 92.64764 325.04144
370.0 0.002703 92.68624 298.77307
377.0 0.002653 92.72480 276.35715
334.0 0.002994 92.76336 257.31186
308.0 0.003247 92.80190 241.17639
311.0 0.003215 92.84042 227.52100
279.0 0.00358 92.87891 215.95493
263.0 0.00380 92.91742 206.13104
229.0 0.00437 92.95589 197.74724
232.0 0.00431 92.99434 190.54558
192.0 0.00521 93.03277 184.30919
209.0 0.00478 93.07117 178.85750
215.0 0.00465 93.10957 174.21356
189.0 0.00529 93.14793 169.91328
186.0 0.00538 93.18629 166.02943
165.0 0.00606 93.22459 162.48390
171.0 0.00585 93.26292 159.21648
171.0 0.00585 93.30116 156.18169
166.0 0.00602 93.33942 153.34659
146.0 0.00685 93.37764 150.68806
162.0 0.00617 93.41583 148.19005
149.0 0.00671 93.45400 145.84148
145.0 0.00690 93.49214 143.63431
142.0 0.00704 93.53026 141.56212
144.0 0.00694 93.56834 139.70546
160.0 0.00625 93.60640 137.88722
127.0 0.00787 93.64440 136.18774
137.0 0.00730 93.68240 134.60144
150.0 0.00667 93.72035 133.12282
149.0 0.00671 93.75828 131.74605
133.0 0.00752 93.79619 130.46501
145.0 0.00690 93.83404 129.27380
146.0 0.00685 93.87187 128.16631
132.0 0.00758 93.90965 127.13657
129.0 0.00775 93.94740 126.17876
135.0 0.00741 93.98512 125.28728
135.0 0.00741 94.02280 124.45692
141.0 0.00709 94.06044 123.68273
132.0 0.00758 94.09803 122.96014
142.0 0.00704 94.13562 122.28529
108.0 0.00926 94.17313 121.65443
131.0 0.00763 94.21062 121.06461
130.0 0.00769 94.24805 120.51334
123.0 0.00813 94.28546 119.99874
135.0 0.00741 94.32281 119.51951
123.0 0.00813 94.36012 119.07496
130.0 0.00769 94.39739 118.66531
143.0 0.00699 94.43462 118.29139
139.0 0.00719 94.47181 117.95506
133.0 0.00752 94.50893 117.65915
124.0 0.00806 94.54602 117.40759
114.0 0.00877 94.58307 117.20544
117.0 0.00855 94.62004 117.05917
112.0 0.00893 94.65700 116.97649
139.0 0.00719 94.69387 116.96624
132.0 0.00758 94.73074 117.03857
124.0 0.00806 94.76752 117.20461
122.0 0.00820 94.80428 117.47593
129.0 0.00775 94.84095 117.86444
127.0 0.00787 94.87759 118.38176
130.0 0.00769 94.91418 119.03832
135.0 0.00741 94.95070 119.84301
141.0 0.00709 94.98717 120.80193
128.0 0.00781 95.02360 121.91803
133.0 0.00752 95.05996 123.18994
138.0 0.00725 95.09626 124.61147
149.0 0.00671 95.13253 126.17147
136.0 0.00735 95.16872 127.85072
152.0 0.00658 95.20483 129.62569
160.0 0.00625 95.24091 131.46515
160.0 0.00625 95.27692 133.33102
143.0 0.00699 95.31287 135.17873
150.0 0.00667 95.34877 136.95753
136.0 0.00735 95.38460 138.61269
148.0 0.00676 95.42035 140.08832
138.0 0.00725 95.45606 141.33185
149.0 0.00671 95.49172 142.29987
173.0 0.00578 95.52727 142.96251
159.0 0.00629 95.56280 143.30743
116.0 0.00862 95.59822 143.33755
111.0 0.00901 95.63363 143.07033
136.0 0.00735 95.66892 142.53094
155.0 0.00645 95.70416 141.74762
132.0 0.00758 95.73933 140.74802
139.0 0.00719 95.77445 139.55716
156.0 0.00641 95.80949 138.19791
161.0 0.00621 95.84444 136.69270
126.0 0.00794 95.87934 135.06531
140.0 0.00714 95.91416 133.34274
146.0 0.00685 95.94892 131.55560
135.0 0.00741 95.98358 129.73668
147.0 0.00680 96.01819 127.91886
149.0 0.00671 96.05270 126.13314
148.0 0.00676 96.08717 124.40668
155.0 0.00645 96.12154 122.76167
130.0 0.00769 96.15583 121.21524
127.0 0.00787 96.19008 119.77966
123.0 0.00813 96.22420 118.46266
135.0 0.00741 96.25829 117.26819
135.0 0.00741 96.29227 116.19891
108.0 0.00926 96.32618 115.24847
104.0 0.00962 96.36000 114.41464
143.0 0.00699 96.39374 113.69131
128.0 0.00781 96.42741 113.07115
119.0 0.00840 96.46098 112.54580
117.0 0.00855 96.49451 112.10653
123.0 0.00813 96.52792 111.74436
113.0 0.00885 96.56126 111.45052
116.0 0.00862 96.59450 111.21654
103.0 0.00971 96.62766 111.03455
98.0 0.01020 96.66073 110.89739
113.0 0.00885 96.69372 110.79940
113.0 0.00885 96.72664 110.73377
128.0 0.00781 96.75945 110.69585
105.0 0.00952 96.79219 110.68199
129.0 0.00775 96.82483 110.68893
117.0 0.00855 96.85736 110.71392
136.0 0.00735 96.88982 110.75507
112.0 0.00893 96.92220 110.81082
122.0 0.00820 96.95446 110.88004
144.0 0.00694 96.98664 110.96213
110.0 0.00909 97.01875 111.05662
125.0 0.00800 97.05072 111.16333
99.0 0.01010 97.08263 111.28247
118.0 0.00847 97.11443 111.41418
114.0 0.00877 97.14616 111.55884
123.0 0.00813 97.17778 111.71690
106.0 0.00943 97.20929 111.88899
106.0 0.00943 97.24071 112.07568
112.0 0.00893 97.27203 112.27523
135.0 0.00741 97.30325 112.49297
101.0 0.00990 97.33437 112.72696
113.0 0.00885 97.36541 112.97797
112.0 0.00893 97.39633 113.24629
116.0 0.00862 97.42717 113.53239
102.0 0.00980 97.45789 113.83643
133.0 0.00752 97.48849 114.15855
117.0 0.00855 97.51903 114.49875
124.0 0.00806 97.54943 114.84985
124.0 0.00806 97.57975 115.22539
115.0 0.00870 97.60995 115.61782
107.0 0.00935 97.64006 116.02645
134.0 0.00746 97.67005 116.45039
121.0 0.00826 97.69994 116.88879
121.0 0.00826 97.72972 117.34080
119.0 0.00840 97.75938 117.80610
118.0 0.00847 97.78896 118.28497
124.0 0.00806 97.81841 118.77842
113.0 0.00885 97.84777 119.28883
126.0 0.00794 97.87701 119.81973
100.0 0.01000 97.90614 120.37614
136.0 0.00735 97.93513 120.96469
129.0 0.00775 97.96404 121.59396
134.0 0.00746 97.99284 122.27483
143.0 0.00699 98.02152 123.02144
158.0 0.00633 98.05008 123.85248
139.0 0.00719 98.07854 124.79730
130.0 0.00769 98.10687 125.87966
153.0 0.00654 98.13508 127.14783
132.0 0.00758 98.16319 128.65913
146.0 0.00685 98.19119 130.49141
151.0 0.00662 98.21905 132.73477
155.0 0.00645 98.24680 135.50781
164.0 0.00610 98.27444 138.96036
155.0 0.00645 98.30196 143.27170
165.0 0.00606 98.32936 148.65489
195.0 0.00513 98.35664 155.35811
194.0 0.00515 98.38378 163.66350
178.0 0.00562 98.41083 173.88533
218.0 0.00459 98.43774 186.35410
218.0 0.00459 98.46452 201.41957
248.0 0.00403 98.49120 219.42654
266.0 0.00376 98.51774 240.70180
282.0 0.00355 98.54417 265.52115
314.0 0.003185 98.57047 294.10248
307.0 0.003257 98.59664 326.56943
403.0 0.002481 98.62267 362.93036
435.0 0.002299 98.64860 403.05624
470.0 0.002128 98.67441 446.66248
577.0 0.001733 98.70006 493.29602
590.0 0.001695 98.72562 542.32898
631.0 0.001585 98.75102 592.95752
682.0 0.001466 98.77631 644.20911
709.0 0.001410 98.80144 694.95624
759.0 0.001318 98.82647 743.94403
805.0 0.001242 98.85138 789.83606
862.0 0.001160 98.87611 831.28314
828.0 0.001208 98.90076 867.02264
891.0 0.001122 98.92525 895.99817
910.0 0.001099 98.94962 917.47357
874.0 0.001144 98.97385 931.10675
881.0 0.001135 98.99795 936.95947
880.0 0.001136 99.02191 935.43567
878.0 0.001139 99.04574 927.17743
856.0 0.001168 99.06943 912.95099
877.0 0.001140 99.09299 893.55798
851.0 0.001175 99.11641 869.78094
860.0 0.001163 99.13969 842.37091
852.0 0.001174 99.16285 812.06525
798.0 0.001253 99.18585 779.62531
773.0 0.001294 99.20872 745.87299
724.0 0.001381 99.23145 711.70703
699.0 0.001431 99.25404 678.09100
689.0 0.001451 99.27649 646.01306
638.0 0.001567 99.29881 616.43274
607.0 0.001647 99.32099 590.23071
695.0 0.001439 99.34300 568.17169
557.0 0.001795 99.36490 550.87854
610.0 0.001639 99.38663 538.82056
596.0 0.001678 99.40825 532.30603
606.0 0.001650 99.42970 531.47937
652.0 0.001534 99.45101 536.31799
568.0 0.001761 99.47219 546.63293
642.0 0.001558 99.49319 562.06854
646.0 0.001548 99.51409 582.10614
697.0 0.001435 99.53483 606.06665
665.0 0.001504 99.55541 633.11591
724.0 0.001381 99.57584 662.27454
751.0 0.001332 99.59615 692.43347
797.0 0.001255 99.61627 722.38025
825.0 0.001212 99.63628 750.84717
738.0 0.001355 99.65614 776.58105
786.0 0.001272 99.67583 798.43597
765.0 0.001307 99.69537 815.47699
771.0 0.001297 99.71478 827.06586
786.0 0.001272 99.73403 832.90283
851.0 0.001175 99.75311 833.01141
792.0 0.001263 99.77207 827.67065
754.0 0.001326 99.79086 817.31433
708.0 0.001412 99.80949 802.43604
728.0 0.001374 99.82799 783.51544
776.0 0.001289 99.84631 760.98212
718.0 0.001393 99.86449 735.21686
732.0 0.001366 99.88253 706.57849
625.0 0.001600 99.90040 675.44635
613.0 0.001631 99.91810 642.25641
640.0 0.001563 99.93565 607.51697
541.0 0.001848 99.95306 571.80011
528.0 0.001894 99.97032 535.70886
497.0 0.002012 99.98740 499.83575
491.0 0.002037 100.00433 464.72348
442.0 0.002262 100.02111 430.83890
420.0 0.002381 100.03773 398.55927
387.0 0.002584 100.05419 368.17044
384.0 0.002604 100.07049 339.87259
343.0 0.002915 100.08662 313.78979
337.0 0.002967 100.10259 289.97955
292.0 0.003425 100.11841 268.44412
286.0 0.003497 100.13407 249.13925
283.0 0.00353 100.14956 231.98212
267.0 0.00375 100.16491 216.86130
250.0 0.00400 100.18008 203.64259
225.0 0.00444 100.19508 192.17610
214.0 0.00467 100.20992 182.30289
201.0 0.00498 100.22461 173.86067
173.0 0.00578 100.23913 166.68681
179.0 0.00559 100.25347 160.62541
177.0 0.00565 100.26768 155.52876
178.0 0.00562 100.28169 151.25993
167.0 0.00599 100.29556 147.69450
146.0 0.00685 100.30926 144.72159
158.0 0.00633 100.32277 142.24406
145.0 0.00690 100.33615 140.17764
133.0 0.00752 100.34933 138.45107
141.0 0.00709 100.36236 137.00441
155.0 0.00645 100.37523 135.78827
137.0 0.00730 100.38791 134.76218
130.0 0.00769 100.40042 133.89355
134.0 0.00746 100.41279 133.15656
145.0 0.00690 100.42496 132.53012
125.0 0.00800 100.43699 131.99837
123.0 0.00813 100.44884 131.54865
144.0 0.00694 100.46050 131.17128
134.0 0.00746 100.47202 130.85889
152.0 0.00658 100.48335 130.60567
139.0 0.00719 100.49451 130.40735
130.0 0.00769 100.50549 130.26068
145.0 0.00690 100.51631 130.16316
129.0 0.00775 100.52696 130.11316
133.0 0.00752 100.53742 130.10950
133.0 0.00752 100.54774 130.15143
158.0 0.00633 100.55786 130.23872
152.0 0.00658 100.56782 130.37135
116.0 0.00862 100.57761 130.54994
149.0 0.00671 100.58720 130.77522
147.0 0.00680 100.59663 131.04858
143.0 0.00699 100.60590 131.37186
108.0 0.00926 100.61497 131.74747
132.0 0.00758 100.62387 132.17865
121.0 0.00826 100.63260 132.66974
138.0 0.00725 100.64114 133.22632
148.0 0.00676 100.64952 133.85593
148.0 0.00676 100.65771 134.56828
143.0 0.00699 100.66574 135.37646
147.0 0.00680 100.67359 136.29761
141.0 0.00709 100.68126 137.35408
156.0 0.00641 100.68874 138.57507
167.0 0.00599 100.69604 139.99875
141.0 0.00709 100.70317 141.67346
143.0 0.00699 100.71012 143.66096
155.0 0.00645 100.71690 146.03828
162.0 0.00617 100.72347 148.90073
171.0 0.00585 100.72990 152.36424
153.0 0.00654 100.73612 156.56758
172.0 0.00581 100.74218 161.67384
169.0 0.00592 100.74804 167.87148
179.0 0.00559 100.75373 175.37308
225.0 0.00444 100.75924 184.41403
167.0 0.00599 100.76455 195.24745
210.0 0.00476 100.76971 208.13846
235.0 0.00426 100.77468 223.35535
262.0 0.00382 100.77945 241.15811
245.0 0.00408 100.78407 261.78592
301.0 0.003322 100.78847 285.44138
315.0 0.003175 100.79269 312.27570
371.0 0.002695 100.79673 342.37140
420.0 0.002381 100.80060 375.72681
443.0 0.002257 100.80429 412.24197
462.0 0.002165 100.80777 451.70529
534.0 0.001873 100.81108 493.78497
534.0 0.001873 100.81421 538.01984
652.0 0.001534 100.81715 583.81580
649.0 0.001541 100.81992 630.44391
693.0 0.001443 100.82248 677.04382
741.0 0.001350 100.82487 722.63525
731.0 0.001368 100.82706 766.14197
810.0 0.001235 100.82908 806.43884
845.0 0.001183 100.83091 842.42249
807.0 0.001239 100.83255 873.29388
858.0 0.001166 100.83401 897.91742
917.0 0.001091 100.83527 916.02478
866.0 0.001155 100.83636 927.51343
904.0 0.001106 100.83725 932.61444
868.0 0.001152 100.83795 931.81830
872.0 0.001147 100.83847 925.77515
912.0 0.001096 100.83881 915.19275
898.0 0.001114 100.83894 900.76251
863.0 0.001159 100.83890 883.11768
887.0 0.001127 100.83866 862.82733
878.0 0.001139 100.83823 840.41937
800.0 0.001250 100.83763 816.51105
826.0 0.001211 100.83682 791.47662
886.0 0.001129 100.83585 766.02502
771.0 0.001297 100.83466 740.82489
799.0 0.001252 100.83330 716.58191
777.0 0.001287 100.83173 693.93536
722.0 0.001385 100.82999 673.50171
721.0 0.001387 100.82805 655.77777
686.0 0.001458 100.82591 641.13715
786.0 0.001272 100.82362 629.81580
682.0 0.001466 100.82108 621.91272
680.0 0.001471 100.81840 617.39093
649.0 0.001541 100.81550 616.08228
657.0 0.001522 100.81243 617.68982
712.0 0.001404 100.80916 621.79504
703.0 0.001422 100.80570 627.86407
630.0 0.001587 100.80204 635.26648
653.0 0.001531 100.79820 643.29688
683.0 0.001464 100.79415 651.21460
668.0 0.001497 100.78993 658.29974
706.0 0.001416 100.78552 663.88086
634.0 0.001577 100.78092 667.43298
685.0 0.001460 100.77611 668.58606
640.0 0.001563 100.77111 667.14648
629.0 0.001590 100.76591 663.08307
607.0 0.001647 100.76054 656.48846
628.0 0.001592 100.75496 647.53094
580.0 0.001724 100.74921 636.40466
565.0 0.001770 100.74326 623.29730
560.0 0.001786 100.73711 608.37183
611.0 0.001637 100.73076 591.76715
561.0 0.001783 100.72423 573.61444
541.0 0.001848 100.71751 554.05975
469.0 0.002132 100.71059 533.28430
494.0 0.002024 100.70347 511.51672
486.0 0.002058 100.69617 489.03369
467.0 0.002141 100.68867 466.14545
481.0 0.002079 100.68097 443.17545
426.0 0.002347 100.67309 420.43921
415.0 0.002410 100.66501 398.22305
362.0 0.002762 100.65673 376.77280
389.0 0.002571 100.64828 356.28583
400.0 0.002500 100.63960 336.90964
357.0 0.002801 100.63076 318.74557
338.0 0.002959 100.62171 301.85233
325.0 0.003077 100.61247 286.25217
294.0 0.003401 100.60304 271.93637
303.0 0.003300 100.59341 258.87180
295.0 0.003390 100.58359 247.00667
277.0 0.00361 100.57357 236.27528
249.0 0.00402 100.56338 226.60405
210.0 0.00476 100.55296 217.91504
236.0 0.00424 100.54236 210.13014
226.0 0.00442 100.53157 203.17278
226.0 0.00442 100.52059 196.96976
211.0 0.00474 100.50941 191.45113
194.0 0.00515 100.49804 186.55055
225.0 0.00444 100.48650 182.20503
200.0 0.00500 100.47472 178.35492
183.0 0.00546 100.46276 174.94426
169.0 0.00592 100.45063 171.92091
196.0 0.00510 100.43828 169.23790
179.0 0.00559 100.42574 166.85368
169.0 0.00592 100.41302 164.73222
173.0 0.00578 100.40009 162.84381
159.0 0.00629 100.38698 161.16350
170.0 0.00588 100.37368 159.67149
164.0 0.00610 100.36017 158.35091
149.0 0.00671 100.34646 157.18765
152.0 0.00658 100.33258 156.16864
147.0 0.00680 100.31850 155.28188
138.0 0.00725 100.30421 154.51523
139.0 0.00719 100.28975 153.85693
152.0 0.00658 100.27509 153.29547
140.0 0.00714 100.26023 152.82027
149.0 0.00671 100.24518 152.42278
135.0 0.00741 100.22993 152.09697
128.0 0.00781 100.21450 151.84029
148.0 0.00676 100.19887 151.65405
148.0 0.00676 100.18304 151.54329
125.0 0.00800 100.16702 151.51631
159.0 0.00629 100.15080 151.58391
132.0 0.00758 100.13442 151.75920
130.0 0.00769 100.11782 152.05669
143.0 0.00699 100.10104 152.49303
160.0 0.00625 100.08405 153.08667
162.0 0.00617 100.06687 153.85869
154.0 0.00649 100.04952 154.83337
150.0 0.00667 100.03196 156.03850
161.0 0.00621 100.01421 157.50632
158.0 0.00633 99.99627 159.27275
161.0 0.00621 99.97814 161.37776
127.0 0.00787 99.95982 163.86508
162.0 0.00617 99.94129 166.78090
167.0 0.00599 99.92258 170.17383
166.0 0.00602 99.90369 174.09360
194.0 0.00515 99.88459 178.59106
189.0 0.00529 99.86532 183.71660
218.0 0.00459 99.84584 189.51996
205.0 0.00488 99.82616 196.04851
238.0 0.00420 99.80631 203.34677
265.0 0.00377 99.78628 211.45491
234.0 0.00427 99.76604 220.40724
253.0 0.00395 99.74561 230.23122
298.0 0.003356 99.72501 240.94585
301.0 0.003322 99.70419 252.55994
308.0 0.003247 99.68317 265.07104
328.0 0.003049 99.66201 278.46393
335.0 0.002985 99.64063 292.70856
348.0 0.002874 99.61907 307.76035
326.0 0.003067 99.59729 323.55667
383.0 0.002611 99.57536 340.01535
419.0 0.002387 99.55323 357.03091
380.0 0.002632 99.53091 374.47147
408.0 0.002451 99.50840 392.17252
415.0 0.002410 99.48570 409.93353
410.0 0.002439 99.46282 427.51575
453.0 0.002208 99.43974 444.64206
449.0 0.002227 99.41648 461.00275
455.0 0.002198 99.39302 476.26636
434.0 0.002304 99.36940 490.09702
419.0 0.002387 99.34558 502.17654
459.0 0.002179 99.32156 512.22974
488.0 0.002049 99.29736 520.04785
464.0 0.002155 99.27298 525.50458
477.0 0.002096 99.24841 528.56329
420.0 0.002381 99.22366 529.26990
446.0 0.002242 99.19871 527.73785
454.0 0.002203 99.17358 524.12280
463.0 0.002160 99.14827 518.60175
429.0 0.002331 99.12278 511.34769
428.0 0.002336 99.09708 502.52112
422.0 0.002370 99.07122 492.26221
414.0 0.002415 99.04518 480.69635
424.0 0.002358 99.01894 467.94220
412.0 0.002427 98.99253 454.12537
413.0 0.002421 98.96590 439.38397
386.0 0.002591 98.93913 423.87726
370.0 0.002703 98.91216 407.78439
330.0 0.003030 98.88503 391.29965
398.0 0.002513 98.85768 374.62262
335.0 0.002985 98.83017 357.94946
329.0 0.003040 98.80246 341.46249
363.0 0.002755 98.77457 324.74731
303.0 0.003300 98.74653 309.09735
302.0 0.003311 98.71828 294.04553
280.0 0.00357 98.68986 279.67776
269.0 0.00372 98.66125 266.05673
263.0 0.00380 98.63247 253.22270
257.0 0.00389 98.60351 241.19859
265.0 0.00377 98.57437 229.99142
271.0 0.00369 98.54505 219.59543
218.0 0.00459 98.51555 209.99458
228.0 0.00439 98.48586 201.16469
209.0 0.00478 98.45601 193.07497
178.0 0.00562 98.42599 185.69023
210.0 0.00476 98.39577 178.97169
196.0 0.00510 98.36537 172.87839
177.0 0.00565 98.33481 167.36978
186.0 0.00538 98.30407 162.40114
151.0 0.00662 98.27315 157.93225
159.0 0.00629 98.24207 154.00162
157.0 0.00637 98.21078 150.41368
172.0 0.00581 98.17933 147.21062
131.0 0.00763 98.14771 144.35884
148.0 0.00676 98.11591 141.82762
136.0 0.00735 98.08395 139.58936
145.0 0.00690 98.05180 137.61928
152.0 0.00658 98.01948 135.89589
140.0 0.00714 97.98700 134.40002
121.0 0.00826 97.95432 133.11601
139.0 0.00719 97.92149 132.02966
138.0 0.00725 97.88848 131.12950
117.0 0.00855 97.85532 130.40582
149.0 0.00671 97.82195 129.84846
132.0 0.00758 97.78845 129.48938
114.0 0.00877 97.75475 129.24152
117.0 0.00855 97.72091 129.13606
119.0 0.00840 97.68687 129.16400
108.0 0.00926 97.65268 129.31541
121.0 0.00826 97.61830 129.57877
109.0 0.00917 97.58375 129.94075
113.0 0.00885 97.54906 130.38622
117.0 0.00855 97.51420 130.89752
111.0 0.00901 97.47916 131.45454
109.0 0.00917 97.44393 132.03479
108.0 0.00926 97.40859 132.61313
95.0 0.01053 97.37304 133.16260
132.0 0.00758 97.33734 133.65523
124.0 0.00806 97.30148 134.06339
130.0 0.00769 97.26543 134.36211
129.0 0.00775 97.22925 134.53111
117.0 0.00855 97.19289 134.55675
123.0 0.00813 97.15636 134.43338
105.0 0.00952 97.11968 134.16280
123.0 0.00813 97.08284 133.75322
116.0 0.00862 97.04583 133.21703
114.0 0.00877 97.00864 132.56802
103.0 0.00971 96.97132 131.82019
115.0 0.00870 96.93384 130.98595
118.0 0.00847 96.89617 130.07547
124.0 0.00806 96.85836 129.09735
104.0 0.00962 96.82041 128.05907
117.0 0.00855 96.78227 126.96822
117.0 0.00855 96.74399 125.83337
104.0 0.00962 96.70556 124.66483
110.0 0.00909 96.66696 123.47467
114.0 0.00877 96.62820 122.27628
116.0 0.00862 96.58928 121.08344
123.0 0.00813 96.55022 119.90965
104.0 0.00962 96.51099 118.76684
122.0 0.00820 96.47163 117.66549
97.0 0.01031 96.43211 116.61380
106.0 0.00943 96.39240 115.61826
118.0 0.00847 96.35258 114.68329
99.0 0.01010 96.31258 113.81181
83.0 0.01205 96.27244 113.00530
99.0 0.01010 96.23214 112.26395
91.0 0.01099 96.19170 111.58713
82.0 0.01220 96.15110 110.97318
101.0 0.00990 96.11037 110.41985
96.0 0.01042 96.06950 109.92465
82.0 0.01220 96.02843 109.48438
92.0 0.01087 95.98724 109.09606
102.0 0.00980 95.94592 108.75642
94.0 0.01064 95.90443 108.46254
92.0 0.01087 95.86279 108.21169
82.0 0.01220 95.82102 108.00127
92.0 0.01087 95.77910 107.83172
83.0 0.01205 95.73704 107.69705
107.0 0.00935 95.69484 107.59870
114.0 0.00877 95.65250 107.53655
102.0 0.00980 95.60999 107.51096
72.0 0.01389 95.56736 107.52300
107.0 0.00935 95.52457 107.57420
93.0 0.01075 95.48165 107.66671
87.0 0.01149 95.43859 107.80298
102.0 0.00980 95.39539 107.98582
97.0 0.01031 95.35205 108.21796
106.0 0.00943 95.30858 108.50243
115.0 0.00870 95.26495 108.84190
75.0 0.01333 95.22119 109.23862
101.0 0.00990 95.17730 109.69431
110.0 0.00909 95.13326 110.21091
106.0 0.00943 95.08910 110.78629
97.0 0.01031 95.04479 111.42028
99.0 0.01010 95.00037 112.11003
108.0 0.00926 94.95581 112.85228
127.0 0.00787 94.91111 113.64108
114.0 0.00877 94.86626 114.46883
101.0 0.00990 94.82131 115.32623
104.0 0.00962 94.77619 116.20300
97.0 0.01031 94.73097 117.08298
131.0 0.00763 94.68562 117.95147
128.0 0.00781 94.64013 118.79091
98.0 0.01020 94.59451 119.58207
117.0 0.00855 94.54875 120.30085
95.0 0.01053 94.50290 120.93856
105.0 0.00952 94.45689 121.47462
106.0 0.00943 94.41077 121.89767
109.0 0.00917 94.36451 122.20152
117.0 0.00855 94.31814 122.38596
114.0 0.00877 94.27164 122.45579
110.0 0.00909 94.22501 122.41977
115.0 0.00870 94.17827 122.28883
117.0 0.00855 94.13139 122.07516
109.0 0.00917 94.08440 121.78825
103.0 0.00971 94.03728 121.43802
128.0 0.00781 93.99005 121.03213
100.0 0.01000 93.94269 120.57700
115.0 0.00870 93.89524 120.07841
102.0 0.00980 93.84765 119.54235
114.0 0.00877 93.79993 118.97581
96.0 0.01042 93.75213 118.38743
123.0 0.00813 93.70416 117.78695
109.0 0.00917 93.65612 117.18539
91.0 0.01099 93.60794 116.59409
105.0 0.00952 93.55966 116.02423
119.0 0.00840 93.51125 115.48590
97.0 0.01031 93.46275 114.98830
101.0 0.00990 93.41413 114.53900
100.0 0.01000 93.36541 114.14419
117.0 0.00855 93.31656 113.80890
106.0 0.00943 93.26761 113.53701
95.0 0.01053 93.21855 113.33151
98.0 0.01020 93.16938 113.19456
113.0 0.00885 93.12010 113.12801
124.0 0.00806 93.07072 113.13332
85.0 0.01176 93.02123 113.21188
96.0 0.01042 92.97163 113.36522
93.0 0.01075 92.92194 113.59546
118.0 0.00847 92.87212 113.90538
118.0 0.00847 92.82221 114.29902
116.0 0.00862 92.77222 114.78213
112.0 0.00893 92.72211 115.36260
128.0 0.00781 92.67191 116.05155
112.0 0.00893 92.62159 116.86385
101.0 0.00990 92.57118 117.81947
112.0 0.00893 92.52068 118.94663
114.0 0.00877 92.47006 120.27543
123.0 0.00813 92.41936 121.85126
128.0 0.00781 92.36856 123.72900
160.0 0.00625 92.31767 125.97665
135.0 0.00741 92.26667 128.82193
126.0 0.00794 92.21561 132.07770
167.0 0.00599 92.16444 136.00735
149.0 0.00671 92.11314 140.75098
161.0 0.00621 92.06180 146.46992
161.0 0.00621 92.01035 153.34621
198.0 0.00505 91.95881 161.58156
170.0 0.00588 91.90718 171.39436
212.0 0.00472 91.85545 183.01581
226.0 0.00442 91.80368 196.68373
218.0 0.00459 91.75177 212.63593
225.0 0.00444 91.69979 231.09697
277.0 0.00361 91.64773 252.27318
285.0 0.00351 91.59559 276.33655
314.0 0.003185 91.54334 303.48557
398.0 0.002513 91.49104 333.64352
398.0 0.002513 91.43864 366.87805
475.0 0.002105 91.38617 403.10199
488.0 0.002049 91.33363 442.13528
476.0 0.002101 91.28098 483.69635
530.0 0.001887 91.22828 527.39551
612.0 0.001634 91.17548 572.73212
604.0 0.001656 91.12260 619.08966
642.0 0.001558 91.06966 665.73962
716.0 0.001397 91.01664 711.84320
708.0 0.001412 90.96355 756.46606
779.0 0.001284 90.91039 798.60315
793.0 0.001261 90.85715 837.22113
802.0 0.001247 90.80383 871.32092
796.0 0.001256 90.75047 900.01855
794.0 0.001259 90.69700 922.62817
852.0 0.001174 90.64348 938.73083
776.0 0.001289 90.58989 948.20782
853.0 0.001172 90.53625 951.22632
812.0 0.001232 90.48251 948.18243
837.0 0.001195 90.42871 939.61761
832.0 0.001202 90.37486 926.13367
820.0 0.001220 90.32095 908.31915
851.0 0.001175 90.26697 886.70178
766.0 0.001305 90.21291 861.72766
802.0 0.001247 90.15881 833.76392
761.0 0.001314 90.10464 803.12225
710.0 0.001408 90.05042 770.09692
672.0 0.001488 89.99615 735.00177
661.0 0.001513 89.94177 698.20355
642.0 0.001558 89.88740 660.13153
625.0 0.001600 89.83292 621.37085
537.0 0.001862 89.77842 582.23993
552.0 0.001812 89.72383 543.34961
498.0 0.002008 89.66924 505.17902
503.0 0.001988 89.61453 468.15036
439.0 0.002278 89.55982 432.61792
407.0 0.002457 89.50504 398.86383
388.0 0.002577 89.45023 367.10181
371.0 0.002695 89.39536 337.47836
317.0 0.003155 89.34042 310.08630
341.0 0.002933 89.28545 284.96671
331.0 0.003021 89.23042 262.11685
273.0 0.00366 89.17538 241.49573
272.0 0.00368 89.12028 223.03012
251.0 0.00398 89.06512 206.61996
244.0 0.00410 89.00993 192.14380
224.0 0.00446 88.95469 179.57161
194.0 0.00515 88.89941 168.54089
202.0 0.00495 88.84409 159.00443
183.0 0.00546 88.78874 150.80670
195.0 0.00513 88.73333 143.79498
155.0 0.00645 88.67793 137.82217
157.0 0.00637 88.62247 132.75012
146.0 0.00685 88.56693 128.45161
156.0 0.00641 88.51141 124.80982
133.0 0.00752 88.45583 121.72182
142.0 0.00704 88.40024 119.09692
121.0 0.00826 88.34459 116.85651
99.0 0.01010 88.28894 114.93357
152.0 0.00658 88.23322 113.27159
123.0 0.00813 88.17751 111.82347
136.0 0.00735 88.12176 110.57949
136.0 0.00735 88.06598 109.45022
95.0 0.01053 88.01018 108.43901
111.0 0.00901 87.95432 107.52544
108.0 0.00926 87.89848 106.69311
101.0 0.00990 87.84259 105.92907
100.0 0.01000 87.78671 105.22301
106.0 0.00943 87.73079 104.56664
108.0 0.00926 87.67484 103.95358
101.0 0.00990 87.61887 103.37849
77.0 0.01299 87.56289 102.83719
85.0 0.01176 87.50691 102.32605
95.0 0.01053 87.45088 101.84512
97.0 0.01031 87.39486 101.38631
83.0 0.01205 87.33880 100.95039
88.0 0.01136 87.28274 100.53551
82.0 0.01220 87.22668 100.14010
91.0 0.01099 87.17060 99.76287
102.0 0.00980 87.11451 99.40253
110.0 0.00909 87.05839 99.05793
87.0 0.01149 87.00228 98.72812
88.0 0.01136 86.94614 98.41213
84.0 0.01190 86.89004 98.10921
92.0 0.01087 86.83387 97.81850
95.0 0.01053 86.77776 97.53946
104.0 0.00962 86.72163 97.27131
100.0 0.01000 86.66547 97.01492
90.0 0.01111 86.60932 96.76698
95.0 0.01053 86.55317 96.52831
84.0 0.01190 86.49702 96.29861
81.0 0.01235 86.44086 96.07733
94.0 0.01064 86.38473 95.86411
92.0 0.01087 86.32858 95.65865
96.0 0.01042 86.27243 95.46061
75.0 0.01333 86.21632 95.26971
87.0 0.01149 86.16018 95.08569
81.0 0.01235 86.10406 94.90829
80.0 0.01250 86.04793 94.73745
97.0 0.01031 85.99184 94.57283
89.0 0.01124 85.93571 94.41436
79.0 0.01266 85.87965 94.26188
88.0 0.01136 85.82359 94.11537
99.0 0.01010 85.76752 93.99065
77.0 0.01299 85.71146 93.85583
74.0 0.01351 85.65544 93.72682
85.0 0.01176 85.59941 93.60362
100.0 0.01000 85.54340 93.48621
94.0 0.01064 85.48744 93.37472
82.0 0.01220 85.43146 93.26920
111.0 0.00901 85.37551 93.16971
96.0 0.01042 85.31960 93.07648
83.0 0.01205 85.26369 92.98943
94.0 0.01064 85.20782 92.90892
98.0 0.01020 85.15193 92.83498
96.0 0.01042 85.09612 92.76780
73.0 0.01370 85.04029 92.70753
100.0 0.01000 84.98454 92.65432
102.0 0.00980 84.92880 92.60838
91.0 0.01099 84.87306 92.56973
76.0 0.01316 84.81738 92.53857
96.0 0.01042 84.76169 92.51492
78.0 0.01282 84.70608 92.49890
70.0 0.01429 84.65046 92.49048
76.0 0.01316 84.59490 92.48964
88.0 0.01136 84.53935 92.49623
85.0 0.01176 84.48387 92.51015
81.0 0.01235 84.42842 92.53107
89.0 0.01124 84.37299 92.55867
85.0 0.01176 84.31762 92.59263
70.0 0.01429 84.26225 92.63214
96.0 0.01042 84.20697 92.71185
83.0 0.01205 84.15170 92.76042
95.0 0.01053 84.09650 92.81195
87.0 0.01149 84.04131 92.86527
110.0 0.00909 83.98619 92.91907
92.0 0.01087 83.93111 92.97182
84.0 0.01190 83.87608 93.02198
98.0 0.01020 83.82110 93.06824
83.0 0.01205 83.76614 93.10903
87.0 0.01149 83.71127 93.14346
79.0 0.01266 83.65642 93.17054
107.0 0.00935 83.60162 93.18998
76.0 0.01316 83.54691 93.20170
87.0 0.01149 83.49221 93.20614
80.0 0.01250 83.43759 93.20406
72.0 0.01389 83.38301 93.19655
94.0 0.01064 83.32850 93.18476
77.0 0.01299 83.27406 93.16996
82.0 0.01220 83.21967 93.15342
100.0 0.01000 83.16533 93.13635
93.0 0.01075 83.11106 93.11987
83.0 0.01205 83.05684 93.10503
94.0 0.01064 83.00269 93.09285
87.0 0.01149 82.94859 93.08436
89.0 0.01124 82.89457 93.08070
95.0 0.01053 82.84063 93.08302
82.0 0.01220 82.78672 93.09255
96.0 0.01042 82.73293 93.11059
87.0 0.01149 82.67916 93.13853
78.0 0.01282 82.62550 93.17767
79.0 0.01266 82.57188 93.22936
90.0 0.01111 82.51836 93.29461
94.0 0.01064 82.46490 93.37453
94.0 0.01064 82.41151 93.46992
80.0 0.01250 82.35818 93.58146
106.0 0.00943 82.30492 93.70952
78.0 0.01282 82.25178 93.85436
102.0 0.00980 82.19871 94.01599
89.0 0.01124 82.14568 94.19422
80.0 0.01250 82.09277 94.38880
112.0 0.00893 82.03992 94.59936
91.0 0.01099 81.98716 94.82554
89.0 0.01124 81.93448 95.06718
87.0 0.01149 81.88189 95.32439
88.0 0.01136 81.82938 95.59816
94.0 0.01064 81.77696 95.89017
95.0 0.01053 81.72465 96.20355
110.0 0.00909 81.67239 96.54290
94.0 0.01064 81.62025 96.91499
93.0 0.01075 81.56818 97.32894
99.0 0.01010 81.51620 97.79624
101.0 0.00990 81.46432 98.33162
94.0 0.01064 81.41252 98.95332
112.0 0.00893 81.36083 99.68298
110.0 0.00909 81.30924 100.54696
115.0 0.00870 81.25774 101.57611
113.0 0.00885 81.20632 102.80703
103.0 0.00971 81.15504 104.28211
94.0 0.01064 81.10382 106.04988
110.0 0.00909 81.05271 108.16579
131.0 0.00763 81.00169 110.69170
107.0 0.00935 80.95080 113.69565
126.0 0.00794 80.90002 117.25112
143.0 0.00699 80.84931 121.43593
142.0 0.00704 80.79873 126.32970
128.0 0.00781 80.74824 132.01285
165.0 0.00606 80.69788 138.56274
163.0 0.00613 80.64759 146.05122
171.0 0.00585 80.59746 154.54065
180.0 0.00556 80.54738 164.08064
177.0 0.00565 80.49744 174.70375
215.0 0.00465 80.44765 186.42227
228.0 0.00439 80.39793 199.22418
224.0 0.00446 80.34832 213.07021
255.0 0.00392 80.29885 227.89088
268.0 0.00373 80.24950 243.58401
284.0 0.00352 80.20023 260.01279
266.0 0.00376 80.15112 277.00415
322.0 0.003106 80.10210 294.34744
339.0 0.002950 80.05322 311.79517
325.0 0.003077 80.00445 329.06195
330.0 0.003030 79.95580 345.83002
350.0 0.002857 79.90728 361.75562
355.0 0.002817 79.85889 376.48178
368.0 0.002717 79.81061 389.65808
359.0 0.002786 79.76244 400.96628
359.0 0.002786 79.71444 410.14746
405.0 0.002469 79.66656 417.02832
372.0 0.002688 79.61878 421.53467
343.0 0.002915 79.57116 423.69519
366.0 0.002732 79.52364 423.62613
362.0 0.002762 79.47630 421.50739
348.0 0.002874 79.42903 417.55331
371.0 0.002695 79.38194 411.98517
386.0 0.002591 79.33496 405.00949
362.0 0.002762 79.28813 396.80438
344.0 0.002907 79.24145 387.51514
338.0 0.002959 79.19488 377.25598
333.0 0.003003 79.14847 366.11877
309.0 0.003236 79.10217 354.18628
302.0 0.003311 79.05605 341.54568
301.0 0.003322 79.01003 328.30060
297.0 0.003367 78.96420 314.57751
295.0 0.003390 78.91847 300.52554
302.0 0.003311 78.87291 286.31039
299.0 0.003344 78.82751 272.10300
264.0 0.00379 78.78222 258.06995
250.0 0.00400 78.73709 244.36235
233.0 0.00429 78.69211 231.11139
209.0 0.00478 78.64727 218.42448
238.0 0.00420 78.60258 206.38506
213.0 0.00469 78.55805 195.05363
200.0 0.00500 78.51369 184.47026
190.0 0.00526 78.46944 174.65529
179.0 0.00559 78.42538 165.61423
197.0 0.00508 78.38147 157.33830
172.0 0.00581 78.33772 149.80728
179.0 0.00559 78.29411 142.99182
166.0 0.00602 78.25067 136.85567
138.0 0.00725 78.20736 131.35756
170.0 0.00588 78.16424 126.45316
140.0 0.00714 78.12127 122.09773
124.0 0.00806 78.07848 118.24162
133.0 0.00752 78.03583 114.83926
129.0 0.00775 77.99334 111.84435
112.0 0.00893 77.95100 109.21202
120.0 0.00833 77.90885 106.89875
114.0 0.00877 77.86687 104.86378
116.0 0.00862 77.82504 103.06872
99.0 0.01010 77.78339 101.47849
120.0 0.00833 77.74190 100.06178
103.0 0.00971 77.70058 98.79041
82.0 0.01220 77.65945 97.64069
79.0 0.01266 77.61846 96.59294
89.0 0.01124 77.57766 95.63114
107.0 0.00935 77.53702 94.74263
90.0 0.01111 77.49657 93.91761
84.0 0.01190 77.45630 93.14973
84.0 0.01190 77.41617 92.43144
89.0 0.01124 77.37626 91.75936
82.0 0.01220 77.33649 91.13023
82.0 0.01220 77.29691 90.54147
94.0 0.01064 77.25751 89.99089
75.0 0.01333 77.21830 89.47673
94.0 0.01064 77.17924 88.99719
88.0 0.01136 77.14041 88.55089
95.0 0.01053 77.10175 88.13635
103.0 0.00971 77.06323 87.75208
95.0 0.01053 77.02496 87.39652
80.0 0.01250 76.98682 87.06812
107.0 0.00935 76.94888 86.76543
83.0 0.01205 76.91113 86.48669
95.0 0.01053 76.87359 86.23034
85.0 0.01176 76.83619 85.99470
73.0 0.01370 76.79903 85.77826
72.0 0.01389 76.76204 85.57934
69.0 0.01449 76.72522 85.39617
80.0 0.01250 76.68862 85.22760
78.0 0.01282 76.65219 85.07214
73.0 0.01370 76.61597 84.92857
78.0 0.01282 76.57992 84.79594
71.0 0.01408 76.54410 84.67304
71.0 0.01408 76.50847 84.55902
87.0 0.01149 76.47301 84.45296
73.0 0.01370 76.43777 84.35444
78.0 0.01282 76.40270 84.26265
79.0 0.01266 76.36787 84.17716
79.0 0.01266 76.33321 84.09740
92.0 0.01087 76.29877 84.02316
75.0 0.01333 76.26452 83.95398
73.0 0.01370 76.23046 83.88969
77.0 0.01299 76.19663 83.83010
76.0 0.01316 76.16298 83.77480
79.0 0.01266 76.12955 83.72374
98.0 0.01020 76.09631 83.67683
73.0 0.01370 76.06330 83.63396
75.0 0.01333 76.03048 83.59496
89.0 0.01124 75.99787 83.55982
80.0 0.01250 75.96545 83.52836
74.0 0.01351 75.93326 83.50066
76.0 0.01316 75.90130 83.47664
86.0 0.01163 75.86951 83.45616
79.0 0.01266 75.83794 83.43931
65.0 0.01538 75.80660 83.42597
76.0 0.01316 75.77547 83.41624
85.0 0.01176 75.74454 83.41006
82.0 0.01220 75.71384 83.40746
78.0 0.01282 75.68336 83.40839
79.0 0.01266 75.65307 83.41288
83.0 0.01205 75.62299 83.42098
89.0 0.01124 75.59315 83.43275
73.0 0.01370 75.56352 83.44813
77.0 0.01299 75.53413 83.46725
85.0 0.01176 75.50494 83.49017
78.0 0.01282 75.47595 83.51692
71.0 0.01408 75.44723 83.54751
78.0 0.01282 75.41869 83.58221
87.0 0.01149 75.39039 83.62080
88.0 0.01136 75.36230 83.66356
92.0 0.01087 75.33443 83.71059
95.0 0.01053 75.30681 83.76200
97.0 0.01031 75.27939 83.81786
89.0 0.01124 75.25223 83.87834
64.0 0.01563 75.22527 83.94361
77.0 0.01299 75.19853 84.01378
87.0 0.01149 75.17201 84.08916
91.0 0.01099 75.14574 84.16981
90.0 0.01111 75.11971 84.25613
91.0 0.01099 75.09387 84.34823
76.0 0.01316 75.06829 84.44658
90.0 0.01111 75.04292 84.55139
82.0 0.01220 75.01781 84.66325
86.0 0.01163 74.99292 84.78251
69.0 0.01449 74.96825 84.90968
89.0 0.01124 74.94382 85.04556
73.0 0.01370 74.91962 85.19066
89.0 0.01124 74.89568 85.34595
95.0 0.01053 74.87195 85.51234
85.0 0.01176 74.84847 85.69095
84.0 0.01190 74.82519 85.88289
95.0 0.01053 74.80219 86.08968
84.0 0.01190 74.77942 86.31275
90.0 0.01111 74.75687 86.55380
84.0 0.01190 74.73456 86.81470
86.0 0.01163 74.71251 87.09735
95.0 0.01053 74.69067 87.40400
74.0 0.01351 74.66911 87.73685
81.0 0.01235 74.64777 88.09820
95.0 0.01053 74.62665 88.49037
99.0 0.01010 74.60580 88.91579
99.0 0.01010 74.58520 89.37672
110.0 0.00909 74.56481 89.87540
85.0 0.01176 74.54469 90.41386
83.0 0.01205 74.52480 90.99379
110.0 0.00909 74.50518 91.61683
100.0 0.01000 74.48578 92.28407
98.0 0.01020 74.46663 92.99621
97.0 0.01031 74.44774 93.75362
106.0 0.00943 74.42908 94.55598
95.0 0.01053 74.41066 95.40255
98.0 0.01020 74.39251 96.29210
107.0 0.00935 74.37460 97.22253
110.0 0.00909 74.35694 98.19170
95.0 0.01053 74.33953 99.19646
108.0 0.00926 74.32238 100.23345
83.0 0.01205 74.30546 101.29903
131.0 0.00763 74.28880 102.38939
106.0 0.00943 74.27240 103.50147
100.0 0.01000 74.25623 104.63292
106.0 0.00943 74.24034 105.78358
118.0 0.00847 74.22468 106.95599
121.0 0.00826 74.20930 108.15707
137.0 0.00730 74.19415 109.39926
111.0 0.00901 74.17926 110.69962
123.0 0.00813 74.16462 112.08372
117.0 0.00855 74.15025 113.58403
117.0 0.00855 74.13612 115.24024
156.0 0.00641 74.12225 117.10007
125.0 0.00800 74.10863 119.21900
141.0 0.00709 74.09528 121.66058
164.0 0.00610 74.08219 124.49681
156.0 0.00641 74.06935 127.80877
160.0 0.00625 74.05676 131.68625
169.0 0.00592 74.04443 136.22861
171.0 0.00585 74.03238 141.54430
163.0 0.00613 74.02057 147.75046
159.0 0.00629 74.00902 154.97165
186.0 0.00538 73.99775 163.33813
189.0 0.00529 73.98670 172.98315
218.0 0.00459 73.97594 184.03996
200.0 0.00500 73.96545 196.63615
243.0 0.00412 73.95520 210.89111
262.0 0.00382 73.94521 226.90895
307.0 0.003257 73.93549 244.77365
275.0 0.00364 73.92603 264.54343
311.0 0.003215 73.91684 286.24503
334.0 0.002994 73.90792 309.86871
347.0 0.002882 73.89926 335.36310
397.0 0.002519 73.89085 362.63095
396.0 0.002525 73.88271 391.52460
447.0 0.002237 73.87484 421.84378
481.0 0.002079 73.86723 453.33087
473.0 0.002114 73.85989 485.66928
597.0 0.001675 73.85278 518.48163
543.0 0.001842 73.84599 551.32922
565.0 0.001770 73.83942 583.71423
607.0 0.001647 73.83315 615.08606
635.0 0.001575 73.82713 644.85474
668.0 0.001497 73.82140 672.41217
603.0 0.001658 73.81590 697.16370
723.0 0.001383 73.81068 718.56598
704.0 0.001420 73.80573 736.17316
710.0 0.001408 73.80106 749.67474
709.0 0.001410 73.79665 758.92200
691.0 0.001447 73.79250 763.84497
707.0 0.001414 73.78863 764.80426
705.0 0.001418 73.78503 762.00128
701.0 0.001427 73.78168 755.80408
687.0 0.001456 73.77861 746.60718
671.0 0.001490 73.77581 734.79132
677.0 0.001477 73.77328 720.69513
662.0 0.001511 73.77101 704.59894
644.0 0.001553 73.76903 686.72119
619.0 0.001616 73.76730 667.22632
585.0 0.001709 73.76584 646.23932
599.0 0.001669 73.76466 623.86969
543.0 0.001842 73.76376 600.01190
558.0 0.001792 73.76311 575.24988
515.0 0.001942 73.76275 549.54584
524.0 0.001908 73.76262 523.12665
463.0 0.002160 73.76282 496.25424
481.0 0.002079 73.76326 469.21252
500.0 0.002000 73.76396 442.28882
425.0 0.002353 73.76495 415.75708
408.0 0.002451 73.76619 389.86475
373.0 0.002681 73.76774 364.82510
346.0 0.002890 73.76953 340.81363
343.0 0.002915 73.77161 317.96915
332.0 0.003012 73.77393 296.39389
323.0 0.003096 73.77657 276.15979
279.0 0.00358 73.77944 257.31000
275.0 0.00364 73.78260 239.86316
271.0 0.00369 73.78603 223.81682
252.0 0.00397 73.78974 209.14952
235.0 0.00426 73.79372 195.82437
208.0 0.00481 73.79797 183.79097
186.0 0.00538 73.80248 172.98802
188.0 0.00532 73.80728 163.34552
182.0 0.00549 73.81236 154.78711
197.0 0.00508 73.81768 147.23222
176.0 0.00568 73.82329 140.59766
164.0 0.00610 73.82916 134.80025
149.0 0.00671 73.83533 129.75764
173.0 0.00578 73.84175 125.39049
172.0 0.00581 73.84843 121.62302
134.0 0.00746 73.85540 118.38447
132.0 0.00758 73.86265 115.60909
123.0 0.00813 73.87017 113.23739
136.0 0.00735 73.87795 111.21593
134.0 0.00746 73.88600 109.49749
149.0 0.00671 73.89434 108.04045
128.0 0.00781 73.90295 106.80922
114.0 0.00877 73.91183 105.77350
115.0 0.00870 73.92097 104.90775
114.0 0.00877 73.93040 104.19094
106.0 0.00943 73.94008 103.60595
112.0 0.00893 73.95006 103.13910
137.0 0.00730 73.96028 102.77972
113.0 0.00885 73.97079 102.51969
121.0 0.00826 73.98157 102.35323
126.0 0.00794 73.99261 102.27631
115.0 0.00870 74.00393 102.28642
133.0 0.00752 74.01552 102.38242
122.0 0.00820 74.02739 102.56440
128.0 0.00781 74.03951 102.83319
113.0 0.00885 74.05193 103.19021
115.0 0.00870 74.06460 103.63773
125.0 0.00800 74.07754 104.17822
142.0 0.00704 74.09074 104.81459
114.0 0.00877 74.10423 105.54969
139.0 0.00719 74.11799 106.38657
117.0 0.00855 74.13200 107.32823
95.0 0.01053 74.14629 108.37725
128.0 0.00781 74.16086 109.62391
132.0 0.00758 74.17569 110.89510
130.0 0.00769 74.19079 112.27963
125.0 0.00800 74.20615 113.77840
147.0 0.00680 74.22178 115.39140
127.0 0.00787 74.23768 117.11766
140.0 0.00714 74.25388 118.98669
143.0 0.00699 74.27030 120.93220
139.0 0.00719 74.28701 122.98068
148.0 0.00676 74.30397 125.12556
146.0 0.00685 74.32120 127.35810
147.0 0.00680 74.33871 129.66733
144.0 0.00694 74.35648 132.03955
131.0 0.00763 74.37453 134.45842
155.0 0.00645 74.39284 136.90433
158.0 0.00633 74.41141 139.35455
140.0 0.00714 74.43024 141.78300
134.0 0.00746 74.44932 144.16103
148.0 0.00676 74.46869 146.50162
138.0 0.00725 74.48832 148.68391
146.0 0.00685 74.50820 150.71938
149.0 0.00671 74.52835 152.57635
142.0 0.00704 74.54878 154.22635
130.0 0.00769 74.56946 155.64545
145.0 0.00690 74.59041 156.81557
136.0 0.00735 74.61161 157.72610
149.0 0.00671 74.63306 158.37325
143.0 0.00699 74.65480 158.77643
149.0 0.00671 74.67678 158.91336
159.0 0.00629 74.69903 158.81401
136.0 0.00735 74.72153 158.49564
154.0 0.00649 74.74430 157.97659
144.0 0.00694 74.76732 157.27483
146.0 0.00685 74.79060 156.40689
146.0 0.00685 74.81413 155.38736
139.0 0.00719 74.83794 154.22862
149.0 0.00671 74.86199 152.94109
161.0 0.00621 74.88631 151.53378
158.0 0.00633 74.91088 150.01581
149.0 0.00671 74.93569 148.39638
145.0 0.00690 74.96076 146.68637
137.0 0.00730 74.98612 144.89832
143.0 0.00699 75.01170 143.04697
140.0 0.00714 75.03756 141.14883
144.0 0.00694 75.06364 139.22214
143.0 0.00699 75.09000 137.28603
120.0 0.00833 75.11659 135.36015
149.0 0.00671 75.14344 133.46361
139.0 0.00719 75.17056 131.61493
136.0 0.00735 75.19791 129.83162
147.0 0.00680 75.22552 128.12959
150.0 0.00667 75.25335 126.52357
146.0 0.00685 75.28149 125.02702
123.0 0.00813 75.30982 123.65235
123.0 0.00813 75.33842 122.41129
128.0 0.00781 75.36726 121.31519
140.0 0.00714 75.39636 120.37518
150.0 0.00667 75.42570 119.60291
129.0 0.00775 75.45529 119.01073
126.0 0.00794 75.48514 118.61218
132.0 0.00758 75.51521 118.42179
119.0 0.00840 75.54552 118.45622
126.0 0.00794 75.57607 118.73371
130.0 0.00769 75.60690 119.27475
127.0 0.00787 75.63795 120.10191
141.0 0.00709 75.66923 121.24017
149.0 0.00671 75.70074 122.71634
134.0 0.00746 75.73251 124.55942
154.0 0.00649 75.76453 126.79990
162.0 0.00617 75.79676 129.46951
164.0 0.00610 75.82926 132.60051
190.0 0.00526 75.86195 136.22534
151.0 0.00662 75.89494 140.37526
205.0 0.00488 75.92813 145.07973
178.0 0.00562 75.96155 150.36549
199.0 0.00503 75.99520 156.25500
196.0 0.00510 76.02910 162.76575
218.0 0.00459 76.06323 169.90868
221.0 0.00452 76.09760 177.68707
190.0 0.00526 76.13219 186.09500
235.0 0.00426 76.16702 195.11674
228.0 0.00439 76.20205 204.72495
229.0 0.00437 76.23733 214.87988
269.0 0.00372 76.27282 225.52788
263.0 0.00380 76.30859 236.60031
299.0 0.003344 76.34454 248.01231
296.0 0.003378 76.38072 259.66144
292.0 0.003425 76.41714 271.42715
282.0 0.00355 76.45377 283.16943
287.0 0.003484 76.49064 294.73013
283.0 0.00353 76.52774 305.93399
312.0 0.003205 76.56502 316.59235
277.0 0.00361 76.60253 326.51105
335.0 0.002985 76.64028 335.49789
324.0 0.003086 76.67826 343.37668
323.0 0.003096 76.71645 349.99863
320.0 0.003125 76.75484 355.25607
309.0 0.003236 76.79344 359.09012
339.0 0.002950 76.83228 361.49521
337.0 0.002967 76.87133 362.51517
316.0 0.003165 76.91058 362.23584
314.0 0.003185 76.95005 360.77094
317.0 0.003155 76.98975 358.24911
346.0 0.002890 77.02964 354.79938
324.0 0.003086 77.06976 350.54092
312.0 0.003205 77.11007 345.57535
314.0 0.003185 77.15059 339.98358
307.0 0.003257 77.19131 333.82535
278.0 0.00360 77.23225 327.24417
278.0 0.00360 77.27340 320.06784
295.0 0.003390 77.31474 312.42230
306.0 0.003268 77.35630 304.33572
255.0 0.00392 77.39804 295.84525
263.0 0.00380 77.44002 287.00208
269.0 0.00372 77.48216 277.87210
261.0 0.00383 77.52452 268.53522
243.0 0.00412 77.56707 259.08026
256.0 0.00391 77.60981 249.60014
249.0 0.00402 77.65278 240.18658
258.0 0.00388 77.69592 230.92450
207.0 0.00483 77.73926 221.88974
213.0 0.00469 77.78277 213.14590
200.0 0.00500 77.82650 204.74513
189.0 0.00529 77.87042 196.72766
196.0 0.00510 77.91451 189.12311
198.0 0.00505 77.95882 181.95197
191.0 0.00524 78.00329 175.27808
185.0 0.00541 78.04797 169.00557
189.0 0.00529 78.09282 163.18588
158.0 0.00633 78.13786 157.81505
199.0 0.00503 78.18307 152.88499
170.0 0.00588 78.22849 148.38420
168.0 0.00595 78.27407 144.29810
173.0 0.00578 78.31983 140.60970
153.0 0.00654 78.36580 137.29965
146.0 0.00685 78.41190 134.34723
174.0 0.00575 78.45820 131.73125
132.0 0.00758 78.50469 129.44778
164.0 0.00610 78.55136 127.43410
139.0 0.00719 78.59816 125.68819
142.0 0.00704 78.64518 124.18868
134.0 0.00746 78.69232 122.91550
120.0 0.00833 78.73967 121.85013
150.0 0.00667 78.78719 120.97616
136.0 0.00735 78.83485 120.27912
161.0 0.00621 78.88273 119.74685
146.0 0.00685 78.93071 119.36936
124.0 0.00806 78.97890 119.13889
139.0 0.00719 79.02723 119.04975
138.0 0.00725 79.07571 119.09852
135.0 0.00741 79.12438 119.28407
128.0 0.00781 79.17319 119.60729
132.0 0.00758 79.22217 120.07150
122.0 0.00820 79.27129 120.68204
114.0 0.00877 79.32059 121.44626
128.0 0.00781 79.37002 122.38628
143.0 0.00699 79.41962 123.49362
154.0 0.00649 79.46937 124.79458
154.0 0.00649 79.51926 126.30662
181.0 0.00552 79.56931 128.05107
149.0 0.00671 79.61948 130.05170
188.0 0.00532 79.66985 132.33504
145.0 0.00690 79.72032 134.93036
176.0 0.00568 79.77097 137.86926
166.0 0.00602 79.82172 141.18619
191.0 0.00524 79.87265 144.91725
165.0 0.00606 79.92368 149.10078
155.0 0.00645 79.97488 153.77567
189.0 0.00529 80.02621 158.98352
216.0 0.00463 80.07767 164.76408
201.0 0.00498 80.12929 171.15877
242.0 0.00413 80.18099 178.20453
259.0 0.00386 80.23286 185.93887
225.0 0.00444 80.28487 194.39584
259.0 0.00386 80.33698 203.60477
259.0 0.00386 80.38924 213.59007
274.0 0.00365 80.44160 224.36960
259.0 0.00386 80.49412 235.95395
286.0 0.003497 80.54675 248.34497
311.0 0.003215 80.59952 261.53403
309.0 0.003236 80.65237 275.50134
343.0 0.002915 80.70536 290.21439
326.0 0.003067 80.75847 305.62567
329.0 0.003040 80.81169 321.67111
375.0 0.002667 80.86504 338.26907
415.0 0.002410 80.91848 355.31708
363.0 0.002755 80.97206 372.69019
384.0 0.002604 81.02573 390.23920
406.0 0.002463 81.07954 407.78928
417.0 0.002398 81.13343 425.13998
396.0 0.002525 81.18743 442.06696
429.0 0.002331 81.24153 458.32584
423.0 0.002364 81.29574 473.65964
436.0 0.002294 81.35007 487.80865
425.0 0.002353 81.40447 500.52509
413.0 0.002421 81.45899 511.58801
453.0 0.002208 81.51360 520.81836
469.0 0.002132 81.56832 528.09271
433.0 0.002309 81.62312 533.35071
457.0 0.002188 81.67801 536.59741
438.0 0.002283 81.73302 537.89917
457.0 0.002188 81.78806 537.37030
496.0 0.002016 81.84325 535.16040
450.0 0.002222 81.89851 531.43506
429.0 0.002331 81.95387 526.36133
455.0 0.002198 82.00928 520.09351
476.0 0.002101 82.06480 512.76447
420.0 0.002381 82.12038 504.48050
444.0 0.002252 82.17605 495.32071
407.0 0.002457 82.23180 485.34180
431.0 0.002320 82.28761 474.58401
423.0 0.002364 82.34353 463.07999
412.0 0.002427 82.39951 450.86478
388.0 0.002577 82.45557 437.98334
394.0 0.002538 82.51167 424.49759
352.0 0.002841 82.56789 410.48917
414.0 0.002415 82.62411 396.05899
351.0 0.002849 82.68044 381.32422
366.0 0.002732 82.73682 366.41180
324.0 0.003086 82.79328 351.45239
338.0 0.002959 82.84978 336.57394
296.0 0.003378 82.90636 321.89563
313.0 0.003195 82.96300 307.52417
268.0 0.00373 83.01965 293.55200
284.0 0.00352 83.07639 280.05536
288.0 0.003472 83.13319 267.09497
242.0 0.00413 83.19003 254.71683
258.0 0.00388 83.24693 242.95380
242.0 0.00413 83.30386 231.82664
271.0 0.00369 83.36088 221.34665
248.0 0.00403 83.41788 211.51675
249.0 0.00402 83.47498 202.33031
239.0 0.00418 83.53210 193.77721
199.0 0.00503 83.58925 185.84171
207.0 0.00483 83.64645 178.50359
206.0 0.00485 83.70367 171.73988
206.0 0.00485 83.76097 165.52498
211.0 0.00474 83.81827 159.83101
179.0 0.00559 83.87560 154.62933
173.0 0.00578 83.93298 149.89018
168.0 0.00595 83.99036 145.58337
152.0 0.00658 84.04778 141.67897
153.0 0.00654 84.10524 138.14705
163.0 0.00613 84.16272 134.95865
151.0 0.00662 84.22021 132.08563
145.0 0.00690 84.27774 129.50307
149.0 0.00671 84.33527 127.18085
155.0 0.00645 84.39283 125.09682
151.0 0.00662 84.45040 123.22808
117.0 0.00855 84.50797 121.55328
143.0 0.00699 84.56558 120.05279
138.0 0.00725 84.62318 118.70795
133.0 0.00752 84.68080 117.50212
123.0 0.00813 84.73843 116.41946
111.0 0.00901 84.79607 115.44577
109.0 0.00917 84.85369 114.56792
130.0 0.00769 84.91134 113.77362
107.0 0.00935 84.96896 113.05173
115.0 0.00870 85.02660 112.39203
119.0 0.00840 85.08424 111.78492
116.0 0.00862 85.14186 111.22179
104.0 0.00962 85.19949 110.69461
93.0 0.01075 85.25710 110.19640
121.0 0.00826 85.31473 109.72089
97.0 0.01031 85.37230 109.26277
119.0 0.00840 85.42991 108.81806
96.0 0.01042 85.48746 108.38361
107.0 0.00935 85.54501 107.95739
121.0 0.00826 85.60256 107.53830
116.0 0.00862 85.66006 107.12591
99.0 0.01010 85.71756 106.72036
120.0 0.00833 85.77503 106.32204
116.0 0.00862 85.83249 105.93152
88.0 0.01136 85.88991 105.54932
119.0 0.00840 85.94729 105.17582
86.0 0.01163 86.00467 104.81137
106.0 0.00943 86.06199 104.45596
90.0 0.01111 86.11929 104.10944
106.0 0.00943 86.17656 103.77159
97.0 0.01031 86.23379 103.44204
107.0 0.00935 86.29097 103.12057
92.0 0.01087 86.34814 102.80741
98.0 0.01020 86.40526 102.50153
101.0 0.00990 86.46230 102.20349
103.0 0.00971 86.51934 101.91376
100.0 0.01000 86.57629 101.63292
97.0 0.01031 86.63322 101.36152
87.0 0.01149 86.69009 101.10027
100.0 0.01000 86.74694 100.85011
87.0 0.01149 86.80368 100.61151
83.0 0.01205 86.86041 100.38507
100.0 0.01000 86.91708 100.17141
79.0 0.01266 86.97366 99.97085
89.0 0.01124 87.03023 99.78371
99.0 0.01010 87.08668 99.61030
94.0 0.01064 87.14310 99.45071
79.0 0.01266 87.19945 99.30493
91.0 0.01099 87.25575 99.17301
92.0 0.01087 87.31196 99.05474
109.0 0.00917 87.36810 98.94996
86.0 0.01163 87.42419 98.85847
107.0 0.00935 87.48018 98.77961
76.0 0.01316 87.53610 98.71294
94.0 0.01064 87.59195 98.65803
93.0 0.01075 87.64774 98.61430
103.0 0.00971 87.70341 98.58088
82.0 0.01220 87.75902 98.55715
102.0 0.00980 87.81454 98.54230
97.0 0.01031 87.86998 98.53529
82.0 0.01220 87.92535 98.53537
78.0 0.01282 87.98058 98.54134
98.0 0.01020 88.03577 98.55227
90.0 0.01111 88.09085 98.56693
88.0 0.01136 88.14586 98.58422
101.0 0.00990 88.20073 98.60288
108.0 0.00926 88.25554 98.62188
96.0 0.01042 88.31023 98.64010
89.0 0.01124 88.36482 98.65653
88.0 0.01136 88.41932 98.67055
82.0 0.01220 88.47370 98.68149
81.0 0.01235 88.52802 98.68905
97.0 0.01031 88.58219 98.69320
94.0 0.01064 88.63628 98.69414
88.0 0.01136 88.69023 98.69230
78.0 0.01282 88.74406 98.68796
85.0 0.01176 88.79782 98.68195
101.0 0.00990 88.85143 98.67471
92.0 0.01087 88.90495 98.66675
91.0 0.01099 88.95834 98.65855
115.0 0.00870 89.01161 98.65057
99.0 0.01010 89.06476 98.64301
106.0 0.00943 89.11781 98.63634
86.0 0.01163 89.17068 98.63046
94.0 0.01064 89.22346 98.62572
84.0 0.01190 89.27612 98.62236
88.0 0.01136 89.32862 98.62060
94.0 0.01064 89.38103 98.62073
90.0 0.01111 89.43330 98.62315
98.0 0.01020 89.48542 98.62863
106.0 0.00943 89.53741 98.63747
81.0 0.01235 89.58927 98.65068
96.0 0.01042 89.64098 98.66880
94.0 0.01064 89.69255 98.69263
88.0 0.01136 89.74400 98.72303
105.0 0.00952 89.79529 98.76057
83.0 0.01205 89.84644 98.80607
101.0 0.00990 89.89744 98.85998
99.0 0.01010 89.94830 98.92283
104.0 0.00962 89.99899 98.99522
88.0 0.01136 90.04956 99.07641
98.0 0.01020 90.09997 99.16844
109.0 0.00917 90.15020 99.27036
86.0 0.01163 90.20033 99.38237
96.0 0.01042 90.25024 99.50407
89.0 0.01124 90.30005 99.63522
83.0 0.01205 90.34966 99.77528
83.0 0.01205 90.39914 99.92358
78.0 0.01282 90.44843 100.09727
84.0 0.01190 90.49757 100.25936
83.0 0.01205 90.54654 100.42670
85.0 0.01176 90.59534 100.59786
85.0 0.01176 90.64399 100.77139
99.0 0.01010 90.69247 100.89442
99.0 0.01010 90.74077 101.06752
80.0 0.01250 90.78891 101.23759
75.0 0.01333 90.83687 101.40279
80.0 0.01250 90.88465 101.56129
90.0 0.01111 90.93225 101.71151
93.0 0.01075 90.97969 101.85217
105.0 0.00952 91.02695 101.98247
107.0 0.00935 91.07401 102.10206
76.0 0.01316 91.12091 102.21100
89.0 0.01124 91.16763 102.31004
94.0 0.01064 91.21414 102.40000
98.0 0.01020 91.26050 102.48216
88.0 0.01136 91.30664 102.55790
97.0 0.01031 91.35262 102.62852
82.0 0.01220 91.39839 102.69524
81.0 0.01235 91.44399 102.76828
108.0 0.00926 91.48940 102.83031
81.0 0.01235 91.53459 102.89113
90.0 0.01111 91.57962 102.95128
92.0 0.01087 91.62445 103.01115
88.0 0.01136 91.66905 103.07092
96.0 0.01042 91.71349 103.13082
88.0 0.01136 91.75771 103.19104
98.0 0.01020 91.80176 103.25201
92.0 0.01087 91.84557 103.31396
102.0 0.00980 91.88921 103.37760
79.0 0.01266 91.93262 103.44355
86.0 0.01163 91.97587 103.51273
99.0 0.01010 92.01888 103.58587
88.0 0.01136 92.06168 103.76940
97.0 0.01031 92.10429 103.85391
92.0 0.01087 92.14667 103.94497
92.0 0.01087 92.18887 104.04355
95.0 0.01053 92.23085 104.15028
108.0 0.00926 92.27263 104.26587
101.0 0.00990 92.31417 104.39088
92.0 0.01087 92.35552 104.52572
108.0 0.00926 92.39664 104.67106
100.0 0.01000 92.43755 104.82735
94.0 0.01064 92.47825 104.99487
101.0 0.00990 92.51873 105.17405
92.0 0.01087 92.55899 105.36532
102.0 0.00980 92.59902 105.56915
104.0 0.00962 92.63885 105.78577
91.0 0.01099 92.67845 106.01580
106.0 0.00943 92.71782 106.25964
99.0 0.01010 92.75700 106.51783
99.0 0.01010 92.79592 106.79102
106.0 0.00943 92.83463 107.07984
118.0 0.00847 92.87312 107.43837
127.0 0.00787 92.91139 107.76131
85.0 0.01176 92.94941 108.10274
84.0 0.01190 92.98722 108.46388
104.0 0.00962 93.02480 108.84621
98.0 0.01020 93.06214 109.25134
98.0 0.01020 93.09928 109.68119
84.0 0.01190 93.13616 110.13795
107.0 0.00935 93.17284 110.62398
126.0 0.00794 93.20924 111.14197
104.0 0.00962 93.24545 111.69511
103.0 0.00971 93.28141 112.28671
128.0 0.00781 93.31715 112.92049
96.0 0.01042 93.35265 113.60062
109.0 0.00917 93.38791 114.33176
116.0 0.00862 93.42294 115.11877
102.0 0.00980 93.45774 115.96688
130.0 0.00769 93.49230 116.88197
120.0 0.00833 93.52662 117.87028
119.0 0.00840 93.56071 118.93832
117.0 0.00855 93.59456 120.09299
109.0 0.00917 93.62816 121.34161
117.0 0.00855 93.66154 122.69176
144.0 0.00694 93.69466 124.15134
126.0 0.00794 93.72757 125.72843
104.0 0.00962 93.76021 127.43112
126.0 0.00794 93.79265 129.26787
128.0 0.00781 93.82479 131.24670
131.0 0.00763 93.85675 133.37585
152.0 0.00658 93.88844 135.66315
112.0 0.00893 93.91990 138.11617
134.0 0.00746 93.95110 140.74185
155.0 0.00645 93.98207 143.54675
147.0 0.00680 94.01280 146.53638
166.0 0.00602 94.04329 149.71567
173.0 0.00578 94.07354 153.08804
143.0 0.00699 94.10354 156.65599
171.0 0.00585 94.13329 160.42038
175.0 0.00571 94.16280 164.38019
214.0 0.00467 94.19209 168.53285
180.0 0.00556 94.22112 172.87314
178.0 0.00562 94.24990 177.39334
185.0 0.00541 94.27846 182.08298
198.0 0.00505 94.30677 186.92795
202.0 0.00495 94.33483 191.91072
195.0 0.00513 94.36265 197.00929
202.0 0.00495 94.39022 202.19707
199.0 0.00503 94.41757 207.44254
240.0 0.00417 94.44466 212.76384
200.0 0.00500 94.47152 218.00868
203.0 0.00493 94.49815 223.18465
195.0 0.00513 94.52451 228.23938
191.0 0.00524 94.55065 233.11739
189.0 0.00529 94.57653 237.76082
242.0 0.00413 94.60217 242.11211
235.0 0.00426 94.62757 246.11581
213.0 0.00469 94.65275 249.72214
218.0 0.00459 94.67768 252.88907
233.0 0.00429 94.70236 255.58501
237.0 0.00422 94.72682 257.79111
233.0 0.00429 94.75102 259.50143
216.0 0.00463 94.77499 260.72360
232.0 0.00431 94.79873 261.47745
206.0 0.00485 94.82223 261.79300
217.0 0.00461 94.84549 261.70816
220.0 0.00455 94.86852 261.26578
212.0 0.00472 94.89131 260.51044
257.0 0.00389 94.91387 259.48663
247.0 0.00405 94.93621 258.23639
245.0 0.00408 94.95830 256.82623
233.0 0.00429 94.98015 255.23509
216.0 0.00463 95.00177 253.52142
231.0 0.00433 95.02317 251.71288
240.0 0.00417 95.04433 249.83513
214.0 0.00467 95.06526 247.91348
242.0 0.00413 95.08598 245.97372
216.0 0.00463 95.10647 244.04390
214.0 0.00467 95.12671 242.15465
217.0 0.00461 95.14675 240.33958
230.0 0.00435 95.16654 238.63515
257.0 0.00389 95.18611 237.07916
242.0 0.00413 95.20548 235.70988
228.0 0.00439 95.22461 234.56425
253.0 0.00395 95.24354 233.67635
240.0 0.00417 95.26224 233.07507
250.0 0.00400 95.28071 232.78368
251.0 0.00398 95.29898 232.81767
236.0 0.00424 95.31702 233.18463
239.0 0.00418 95.33485 233.88400
236.0 0.00424 95.35247 234.90668
229.0 0.00437 95.36988 236.23558
270.0 0.00370 95.38708 237.84618
272.0 0.00368 95.40407 239.70718
245.0 0.00408 95.42084 241.78188
272.0 0.00368 95.43743 244.02940
292.0 0.003425 95.45379 246.40654
241.0 0.00415 95.46996 248.87027
228.0 0.00439 95.48594 251.38087
255.0 0.00392 95.50169 253.90547
246.0 0.00407 95.51728 256.42267
249.0 0.00402 95.53264 258.92572
278.0 0.00360 95.54782 261.42596
278.0 0.00360 95.56280 263.95444
288.0 0.003472 95.57760 266.56024
289.0 0.003460 95.59222 269.30838
299.0 0.003344 95.60661 272.27533
315.0 0.003175 95.62085 275.54401
324.0 0.003086 95.63492 279.19794
317.0 0.003155 95.64879 283.31711
343.0 0.002915 95.66247 287.97372
345.0 0.002899 95.67598 293.22919
372.0 0.002688 95.68932 299.13153
340.0 0.002941 95.70247 305.71356
337.0 0.002967 95.71547 312.99173
365.0 0.002740 95.72831 320.96619
362.0 0.002762 95.74095 329.62024
350.0 0.002857 95.75346 338.92099
366.0 0.002732 95.76579 348.82080
377.0 0.002653 95.77797 359.25864
392.0 0.002551 95.78997 370.15985
390.0 0.002564 95.80184 381.43793
423.0 0.002364 95.81355 392.99277
412.0 0.002427 95.82512 404.70969
496.0 0.002016 95.83652 416.45770
382.0 0.002618 95.84779 428.08862
448.0 0.002232 95.85893 439.43549
432.0 0.002315 95.86992 450.31570
421.0 0.002375 95.88078 460.53354
423.0 0.002364 95.89151 469.88828
421.0 0.002375 95.90210 478.18414
408.0 0.002451 95.91255 485.24133
451.0 0.002217 95.92291 490.91068
435.0 0.002299 95.93313 495.08450
460.0 0.002174 95.94324 497.70706
478.0 0.002092 95.95321 498.77695
437.0 0.002288 95.96308 498.34622
436.0 0.002294 95.97286 496.51263
470.0 0.002128 95.98250 493.40781
444.0 0.002252 95.99207 489.18332
474.0 0.002110 96.00152 483.99680
442.0 0.002262 96.01089 477.99991
424.0 0.002358 96.02016 471.32806
416.0 0.002404 96.02934 464.09525
464.0 0.002155 96.03844 456.38904
397.0 0.002519 96.04744 448.27112
407.0 0.002457 96.05639 439.77872
386.0 0.002591 96.06525 430.92847
373.0 0.002681 96.07404 421.72305
402.0 0.002488 96.08276 412.15732
355.0 0.002817 96.09143 402.22711
370.0 0.002703 96.10003 391.93622
405.0 0.002469 96.10858 381.30237
377.0 0.002653 96.11708 370.36157
386.0 0.002591 96.12553 359.16861
356.0 0.002809 96.13393 347.79523
347.0 0.002882 96.14230 336.32602
342.0 0.002924 96.15062 324.85416
341.0 0.002933 96.15893 313.47458
296.0 0.003378 96.16718 302.28091
321.0 0.003115 96.17543 291.36081
301.0 0.003322 96.18367 280.79434
298.0 0.003356 96.19189 270.65311
294.0 0.003401 96.20009 261.00012
266.0 0.00376 96.20831 251.89107
314.0 0.003185 96.21651 243.37402
261.0 0.00383 96.22472 235.49226
300.0 0.003333 96.23293 228.28407
246.0 0.00407 96.24115 221.78471
257.0 0.00389 96.24940 216.02667
246.0 0.00407 96.25769 211.04103
281.0 0.00356 96.26598 206.85738
252.0 0.00397 96.27432 203.50494
253.0 0.00395 96.28269 201.01242
274.0 0.00365 96.29111 199.40855
268.0 0.00373 96.29960 198.72173
243.0 0.00412 96.30811 198.98015
266.0 0.00376 96.31670 200.21138
257.0 0.00389 96.32534 202.44174
278.0 0.00360 96.33407 205.69626
276.0 0.00362 96.34285 209.99675
289.0 0.003460 96.35174 215.36185
304.0 0.003289 96.36069 221.80515
273.0 0.00366 96.36973 229.33440
282.0 0.00355 96.37890 237.94949
289.0 0.003460 96.38815 247.64175
277.0 0.00361 96.39754 258.39172
322.0 0.003106 96.40700 270.16849
318.0 0.003145 96.41661 282.92731
353.0 0.002833 96.42634 296.60916
346.0 0.002890 96.43620 311.13931
393.0 0.002545 96.44620 326.42517
424.0 0.002358 96.45635 342.35620
412.0 0.002427 96.46665 358.80249
417.0 0.002398 96.47712 375.61334
395.0 0.002532 96.48773 392.61667
420.0 0.002381 96.49855 409.61871
415.0 0.002410 96.50952 426.40494
418.0 0.002392 96.52068 442.74060
437.0 0.002288 96.53203 458.37622
478.0 0.002092 96.54358 473.05383
429.0 0.002331 96.55534 486.51599
449.0 0.002227 96.56730 498.51993
450.0 0.002222 96.57948 508.85126
486.0 0.002058 96.59190 517.33972
476.0 0.002101 96.60454 523.87280
435.0 0.002299 96.61742 528.40210
464.0 0.002155 96.63056 530.94861
463.0 0.002160 96.64395 531.59485
471.0 0.002123 96.65759 530.47485
484.0 0.002066 96.67151 527.75958
455.0 0.002198 96.68570 523.63934
438.0 0.002283 96.70018 518.30786
441.0 0.002268 96.71495 511.94986
426.0 0.002347 96.73000 504.73035
436.0 0.002294 96.74538 496.78757
454.0 0.002203 96.76109 488.23038
420.0 0.002381 96.77711 479.13678
420.0 0.002381 96.79345 469.55719
408.0 0.002451 96.81013 459.51697
412.0 0.002427 96.82716 449.02414
394.0 0.002538 96.84456 438.07620
412.0 0.002427 96.86229 426.66998
400.0 0.002500 96.88043 414.80914
384.0 0.002604 96.89893 402.51230
344.0 0.002907 96.91782 389.81720
375.0 0.002667 96.93712 376.78265
363.0 0.002755 96.95684 363.48581
308.0 0.003247 96.97694 350.01913
352.0 0.002841 96.99747 336.48349
349.0 0.002865 97.01845 322.98218
338.0 0.002959 97.03987 309.61545
316.0 0.003165 97.06174 296.47693
292.0 0.003425 97.08407 283.64969
296.0 0.003378 97.10686 271.20596
264.0 0.00379 97.13015 259.20578
286.0 0.003497 97.15391 247.69843
274.0 0.00365 97.17818 236.72232
259.0 0.00386 97.20294 226.30609
269.0 0.00372 97.22824 216.46983
261.0 0.00383 97.25405 207.22575
231.0 0.00433 97.28042 198.57901
239.0 0.00418 97.30731 190.52794
214.0 0.00467 97.33477 183.06580
232.0 0.00431 97.36281 176.18040
212.0 0.00472 97.39142 169.85509
216.0 0.00463 97.42061 164.06926
207.0 0.00483 97.45037 158.79918
198.0 0.00505 97.48078 154.01837
182.0 0.00549 97.51180 149.69809
171.0 0.00585 97.54346 145.80859
193.0 0.00518 97.57573 142.31885
185.0 0.00541 97.60867 139.19762
155.0 0.00645 97.64227 136.41394
171.0 0.00585 97.67656 133.93741
174.0 0.00575 97.71150 131.73849
170.0 0.00588 97.74715 129.78923
144.0 0.00694 97.78352 128.06288
161.0 0.00621 97.82059 126.53486
157.0 0.00637 97.85840 125.18227
166.0 0.00602 97.89695 123.98418
148.0 0.00676 97.93625 122.92155
149.0 0.00671 97.97632 121.97755
157.0 0.00637 98.01713 121.13702
130.0 0.00769 98.05878 120.38679
137.0 0.00730 98.10121 119.71524
125.0 0.00800 98.14446 119.11242
143.0 0.00699 98.18849 118.56988
154.0 0.00649 98.23343 118.08048
142.0 0.00704 98.27915 117.63815
130.0 0.00769 98.32578 117.23809
121.0 0.00826 98.37325 116.87617
119.0 0.00840 98.42162 116.54930
120.0 0.00833 98.47090 116.25496
133.0 0.00752 98.52108 115.99119
118.0 0.00847 98.57221 115.75671
107.0 0.00935 98.62424 115.55052
129.0 0.00775 98.67725 115.37206
120.0 0.00833 98.73119 115.22100
144.0 0.00694 98.78615 115.09723
109.0 0.00917 98.84208 115.00095
138.0 0.00725 98.89900 114.93242
110.0 0.00909 98.95699 114.89191
88.0 0.01136 99.01596 114.87969
104.0 0.00962 99.07601 114.89625
97.0 0.01031 99.13709 114.94167
126.0 0.00794 99.19929 115.01627
125.0 0.00800 99.26254 115.11993
131.0 0.00763 99.32690 115.25244
128.0 0.00781 99.39240 115.41324
129.0 0.00775 99.45901 115.60172
123.0 0.00813 99.52677 115.81660
99.0 0.01010 99.59568 116.05646
113.0 0.00885 99.66582 116.31954
114.0 0.00877 99.73710 116.60342
126.0 0.00794 99.80962 116.90541
124.0 0.00806 99.88332 117.22235
130.0 0.00769 99.95828 117.55065
99.0 0.01010 100.03451 117.88621
111.0 0.00901 100.11197 118.22446
109.0 0.00917 100.19076 118.56052
121.0 0.00826 100.27080 118.88907
127.0 0.00787 100.35221 119.20457
106.0 0.00943 100.43491 119.50151
139.0 0.00719 100.51897 119.77464
120.0 0.00833 100.60439 120.01900
112.0 0.00893 100.69119 120.23077
126.0 0.00794 100.77940 120.40701
117.0 0.00855 100.86901 120.54623
122.0 0.00820 100.96008 120.64838
128.0 0.00781 101.05255 120.71475
110.0 0.00909 101.14654 120.74783
116.0 0.00862 101.24195 120.75105
108.0 0.00926 101.33887 120.72844
121.0 0.00826 101.43736 120.68429
108.0 0.00926 101.53733 120.62257
119.0 0.00840 101.63888 120.54730
122.0 0.00820 101.74197 120.46176
100.0 0.01000 101.84668 120.36885
119.0 0.00840 101.95296 120.27057
116.0 0.00862 102.06090 120.16859
127.0 0.00787 102.17043 120.06371
94.0 0.01064 102.28165 119.95641
120.0 0.00833 102.39455 119.84666
125.0 0.00800 102.50912 119.73441
104.0 0.00962 102.62545 119.61935
106.0 0.00943 102.74347 119.50145
98.0 0.01020 102.86328 119.38091
115.0 0.00870 102.98482 119.25832
106.0 0.00943 103.10818 119.13490
98.0 0.01020 103.23331 119.01201
110.0 0.00909 103.36028 118.89158
130.0 0.00769 103.48914 118.77563
115.0 0.00870 103.61982 118.66637
120.0 0.00833 103.75246 118.56604
115.0 0.00870 103.88691 118.47670
119.0 0.00840 104.02338 118.40040
120.0 0.00833 104.16174 118.33869
119.0 0.00840 104.30205 118.29333
129.0 0.00775 104.44441 118.26576
121.0 0.00826 104.58873 118.25712
110.0 0.00909 104.73513 118.26848
120.0 0.00833 104.88354 118.30079
111.0 0.00901 105.03407 118.35487
127.0 0.00787 105.18663 118.43136
127.0 0.00787 105.34137 118.53089
130.0 0.00769 105.49819 118.65378
138.0 0.00725 105.65716 118.80056
127.0 0.00787 105.81838 118.97152
131.0 0.00763 105.98172 119.16681
107.0 0.00935 106.14737 119.38668
105.0 0.00952 106.31521 119.63108
120.0 0.00833 106.48537 119.90022
122.0 0.00820 106.65775 120.19400
120.0 0.00833 106.83250 120.51250
99.0 0.01010 107.00954 120.85548
126.0 0.00794 107.18894 121.22292
99.0 0.01010 107.37077 121.61475
106.0 0.00943 107.55497 122.03072
99.0 0.01010 107.74165 122.47083
119.0 0.00840 107.93072 122.93468
105.0 0.00952 108.12232 123.42232
126.0 0.00794 108.31638 123.93336
122.0 0.00820 108.51292 124.46773
122.0 0.00820 108.71211 125.02540
142.0 0.00704 108.91380 125.60626
116.0 0.00862 109.11815 126.21042
121.0 0.00826 109.32505 126.83796
141.0 0.00709 109.53468 127.48938
112.0 0.00893 109.74690 128.16519
119.0 0.00840 109.96188 128.86649
130.0 0.00769 110.17953 129.59464
123.0 0.00813 110.39991 130.35188
138.0 0.00725 110.62314 131.14128
136.0 0.00735 110.84909 131.96666
149.0 0.00671 111.07795 132.83383
120.0 0.00833 111.30959 133.74956
130.0 0.00769 111.54416 134.72340
133.0 0.00752 111.78159 135.76683
118.0 0.00847 112.02200 136.89433
145.0 0.00690 112.26527 138.12314
147.0 0.00680 112.51154 139.47403
157.0 0.00637 112.76092 140.97141
161.0 0.00621 113.01323 142.64287
136.0 0.00735 113.26868 144.52037
182.0 0.00549 113.52715 146.63943
189.0 0.00529 113.78885 149.03967
150.0 0.00667 114.05357 151.76436
162.0 0.00617 114.32148 154.86063
153.0 0.00654 114.59267 158.37921
165.0 0.00606 114.86703 162.37334
196.0 0.00510 115.14471 166.89897
179.0 0.00559 115.42561 172.01332
174.0 0.00575 115.70991 177.77446
193.0 0.00518 115.99746 184.23929
215.0 0.00465 116.28849 191.46326
224.0 0.00446 116.58282 199.49741
218.0 0.00459 116.88058 208.38803
222.0 0.00450 117.18192 218.17403
236.0 0.00424 117.48663 228.88493
267.0 0.00375 117.79499 240.53938
248.0 0.00403 118.10677 253.14288
290.0 0.003448 118.42229 266.68649
292.0 0.003425 118.74127 281.14423
285.0 0.00351 119.06403 296.47311
285.0 0.00351 119.39036 312.61020
332.0 0.003012 119.72036 329.47336
313.0 0.003195 120.05425 346.95972
377.0 0.002653 120.39178 364.94537
367.0 0.002725 120.73324 383.28561
389.0 0.002571 121.07840 401.81458
401.0 0.002494 121.42757 420.34668
417.0 0.002398 121.78049 438.67719
403.0 0.002481 122.13735 456.58499
421.0 0.002375 122.49832 473.83646
424.0 0.002358 122.86314 490.19040
427.0 0.002342 123.23212 505.40799
456.0 0.002193 123.60504 519.26208
465.0 0.002151 123.98220 531.55200
472.0 0.002119 124.36331 542.11627
437.0 0.002288 124.74878 550.84729
480.0 . . .
loop_
_refln_index_h
_refln_index_k
_refln_index_l
_pd_refln_wavelength_id
_refln_observed_status
_refln_F_squared_meas
_refln_F_squared_calc
_refln_phase_calc
_refln_d_spacing
0 1 1 1 o -17.471 129.281 0.00 5.08281
0 1 1 2 o -33.866 129.281 0.00 5.08281
0 1 3 1 o 69.389 3.081 180.00 3.36036
0 1 3 2 o 63.393 3.081 180.00 3.36036
0 0 4 1 o 70038.99 68621.62 180.00 3.16701
0 0 4 2 o 71215.88 68621.62 180.00 3.16701
1 1 2 1 o 95223.06 94467.38 180.00 3.33561
1 1 2 2 o 94044.57 94467.38 180.00 3.33561
0 2 0 1 o 59086.21 58549.38 180.00 2.77453
0 2 0 2 o 58650.43 58549.38 180.00 2.77453
0 2 2 1 o 1530.848 1571.336 180.00 2.54140
0 2 2 2 o 1505.348 1571.336 180.00 2.54140
1 1 4 1 o 3312.475 3512.477 180.00 2.46442
1 1 4 2 o 3385.408 3512.477 180.00 2.46442
0 1 5 1 o 2992.721 2904.786 180.00 2.30474
0 1 5 2 o 2939.948 2904.786 180.00 2.30474
2 1 1 1 o 5589.485 5493.761 0.00 2.43533
1 2 1 1 o 70.004 66.026 180.00 2.43533
1 2 1 2 o 66.474 66.026 180.00 2.43533
2 1 1 2 o 5504.533 5493.761 0.00 2.43533
2 1 3 1 o 255.977 256.537 0.00 2.13950
1 2 3 1 o 5220.423 5229.917 180.00 2.13950
2 1 3 2 o 242.229 256.537 0.00 2.13950
1 2 3 2 o 4987.329 5229.917 180.00 2.13950
0 2 4 1 o 74897.70 74763.84 0.00 2.08694
0 2 4 2 o 75624.92 74763.84 0.00 2.08694
1 1 6 1 o 59902.00 59046.01 0.00 1.85926
1 1 6 2 o 60509.86 59046.01 0.00 1.85926
2 2 0 1 o 63130.45 62838.20 180.00 1.96189
2 2 0 2 o 63538.19 62838.20 180.00 1.96189
0 1 7 1 o 1624.678 1491.296 180.00 1.72053
0 3 1 1 o 1111.342 1220.420 180.00 1.83028
0 1 7 2 o 1578.949 1491.296 180.00 1.72053
0 3 1 2 o 1114.356 1220.420 180.00 1.83028
2 2 2 1 o 99.629 115.966 180.00 1.87405
2 2 2 2 o 112.645 115.966 180.00 1.87405
1 2 5 1 o 123.651 46.296 0.00 1.77286
2 1 5 1 o 46.399 0.265 0.00 1.77286
1 2 5 2 o 110.406 46.296 0.00 1.77286
2 1 5 2 o 38.500 0.265 0.00 1.77286
0 2 6 1 o 74.054 67.151 0.00 1.68018
0 2 6 2 o 74.968 67.151 0.00 1.68018
0 0 8 1 o 32253.980 33945.141 0.00 1.58350
0 3 3 1 o 814.920 822.095 180.00 1.69427
0 0 8 2 o 31959.832 33945.141 0.00 1.58350
3 1 2 1 o 42924.17 42574.38 180.00 1.69107
1 3 2 1 o 65517.54 64982.68 0.00 1.69107
0 3 3 2 o 834.244 822.095 180.00 1.69427
3 1 2 2 o 44060.41 42574.38 180.00 1.69107
1 3 2 2 o 67255.11 64982.68 0.00 1.69107
2 2 4 1 o 58934.84 54931.99 0.00 1.66780
2 2 4 2 o 60956.53 54931.99 0.00 1.66780
1 1 8 1 o 262.631 440.146 180.00 1.46843
1 1 8 2 o 296.267 440.146 180.00 1.46843
1 3 4 1 o 5.884 33.745 0.00 1.53490
3 1 4 1 o 0.279 1.603 0.00 1.53490
3 1 4 2 o 0.755 1.603 0.00 1.53490
1 3 4 2 o 15.890 33.745 0.00 1.53490
1 2 7 1 o 95.337 165.128 0.00 1.46221
2 1 7 1 o -2.367 63.707 0.00 1.46221
2 1 7 2 o -16.138 63.707 0.00 1.46221
1 2 7 2 o 80.791 165.128 0.00 1.46221
0 3 5 1 o -101.346 0.166 0.00 1.49392
3 2 1 1 o 890.194 1374.396 0.00 1.52780
2 3 1 1 o 35.693 146.610 0.00 1.52780
0 3 5 2 o -101.346 0.166 0.00 1.49392
3 2 1 2 o 834.300 1374.396 0.00 1.52780
2 3 1 2 o 22.890 146.610 0.00 1.52780
0 1 9 1 o 177.562 148.630 0.00 1.36435
2 2 6 1 o 6.976 5.930 0.00 1.43720
0 1 9 2 o 177.376 148.630 0.00 1.36435
2 2 6 2 o 5.750 5.930 0.00 1.43720
0 2 8 1 o 50369.80 49129.93 180.00 1.37528
0 2 8 2 o 50708.45 49129.93 180.00 1.37528
2 3 3 1 o 211.773 230.521 180.00 1.44598
3 2 3 1 o 31.654 43.838 0.00 1.44598
2 3 3 2 o 263.414 230.521 180.00 1.44598
3 2 3 2 o 65.214 43.838 0.00 1.44598
0 4 0 1 o 42111.26 42291.78 0.00 1.38726
0 4 0 2 o 44002.44 42291.78 0.00 1.38726
3 1 6 1 o 58442.95 56336.79 0.00 1.34952
1 3 6 1 o 33541.406 32336.229 180.00 1.34952
3 1 6 2 o 59324.98 56336.79 0.00 1.34952
1 3 6 2 o 34046.043 32336.229 180.00 1.34952
0 4 2 1 o 1264.876 1113.998 180.00 1.35514
0 4 2 2 o 1199.543 1113.998 180.00 1.35514
4 1 1 1 o 387.155 291.256 0.00 1.33831
1 4 1 1 o 144.288 98.098 180.00 1.33831
1 4 1 2 o 135.909 98.098 180.00 1.33831
4 1 1 2 o 369.758 291.256 0.00 1.33831
0 3 7 1 o 25.616 2.596 0.00 1.29356
0 3 7 2 o 32.127 2.596 0.00 1.29356
3 2 5 1 o 772.598 622.536 180.00 1.31537
2 3 5 1 o 1281.859 1037.463 0.00 1.31537
3 2 5 2 o 798.230 622.536 180.00 1.31537
2 3 5 2 o 1323.601 1037.463 0.00 1.31537
1 4 3 1 o 8.031 1.007 0.00 1.28229
4 1 3 1 o 54.995 46.336 0.00 1.28229
1 1 10 1 o 33067.098 34525.367 180.00 1.20553
2 1 9 1 o 14.410 5.228 0.00 1.22433
1 2 9 1 o 1518.554 1378.308 0.00 1.22433
4 1 3 2 o 51.096 46.336 0.00 1.28229
1 4 3 2 o 4.868 1.007 0.00 1.28229
1 1 10 2 o 32711.344 34525.367 180.00 1.20553
2 1 9 2 o 9.845 5.228 0.00 1.22433
1 2 9 2 o 1448.829 1378.308 0.00 1.22433
0 4 4 1 o 39259.41 37754.79 180.00 1.27070
2 2 8 1 o 37387.23 36260.70 180.00 1.23221
0 4 4 2 o 39572.04 37754.79 180.00 1.27070
2 2 8 2 o 37522.86 36260.70 180.00 1.23221
3 3 2 1 o 41219.93 39715.64 0.00 1.28090
3 3 2 2 o 41620.43 39715.64 0.00 1.28090
2 4 0 1 o 47734.82 46726.13 0.00 1.24081
4 2 0 1 o 41512.87 40636.55 180.00 1.24081
4 2 0 2 o 42541.08 40636.55 180.00 1.24081
2 4 0 2 o 48918.30 46726.13 0.00 1.24081
0 2 10 1 o 273.256 272.609 0.00 1.15237
3 1 8 1 o 0.133 0.298 0.00 1.17560
1 3 8 1 o 2.794 6.266 0.00 1.17560
0 2 10 2 o 306.120 272.609 0.00 1.15237
1 3 8 2 o 3.632 6.266 0.00 1.17560
3 1 8 2 o 0.173 0.298 0.00 1.17560
0 1 11 1 o 101.692 235.875 0.00 1.12761
4 2 2 1 o 317.618 349.619 0.00 1.21766
2 4 2 1 o 62.107 68.365 0.00 1.21766
2 4 2 2 o 64.876 68.365 0.00 1.21766
4 2 2 2 o 331.777 349.619 0.00 1.21766
0 1 11 2 o 127.958 235.875 0.00 1.12761
4 1 5 1 o 264.024 462.022 180.00 1.18856
1 4 5 1 o 547.147 929.716 0.00 1.18856
2 3 7 1 o 701.553 1157.637 0.00 1.17240
3 2 7 1 o 78.267 158.508 0.00 1.17240
3 3 4 1 o 618.310 571.519 180.00 1.20889
1 4 5 2 o 464.039 929.716 0.00 1.18856
4 1 5 2 o 221.012 462.022 180.00 1.18856
2 3 7 2 o 716.041 1157.637 0.00 1.17240
3 2 7 2 o 80.816 158.508 0.00 1.17240
3 3 4 2 o 540.096 571.519 180.00 1.20889
0 4 6 1 o 74.877 70.623 0.00 1.15939
0 3 9 1 o 167.370 187.402 180.00 1.12012
0 4 6 2 o 69.298 70.623 0.00 1.15939
0 3 9 2 o 199.848 187.402 180.00 1.12012
4 2 4 1 o 29359.857 30807.078 0.00 1.15530
2 4 4 1 o 27937.498 29314.240 180.00 1.15530
2 4 4 2 o 29044.350 29314.240 180.00 1.15530
4 2 4 2 o 30523.393 30807.078 0.00 1.15530
0 0 12 1 o 38609.11 35240.05 180.00 1.05567
0 0 12 2 o 38507.91 35240.05 180.00 1.05567
2 2 10 1 o 40.776 28.676 0.00 1.06423
0 5 1 1 o 142.547 118.642 0.00 1.10558
0 5 1 2 o 121.495 118.642 0.00 1.10558
2 2 10 2 o 41.394 28.676 0.00 1.06423
1 2 11 1 o 15.767 5.296 0.00 1.04463
2 1 11 1 o 663.610 599.092 0.00 1.04463
3 3 6 1 o 26897.605 27986.355 180.00 1.11187
2 1 11 2 o 619.692 599.092 0.00 1.04463
1 2 11 2 o 8.639 5.296 0.00 1.04463
3 3 6 2 o 27674.104 27986.355 180.00 1.11187
1 1 12 1 o 94.237 83.422 0.00 1.01942
4 1 7 1 o 367.948 292.559 180.00 1.07994
1 4 7 1 o 766.787 618.819 180.00 1.07994
1 1 12 2 o 82.140 83.422 0.00 1.01942
4 1 7 2 o 360.979 292.559 180.00 1.07994
1 4 7 2 o 753.109 618.819 180.00 1.07994
4 3 1 1 o 194.414 158.842 180.00 1.10558
3 4 1 1 o 196.435 160.591 180.00 1.10558
4 3 1 2 o 164.586 158.842 180.00 1.10558
3 4 1 2 o 166.378 160.591 180.00 1.10558
0 5 3 1 o 728.650 704.137 0.00 1.07336
5 1 2 1 o 32436.590 32030.523 180.00 1.07254
1 5 2 1 o 25635.279 25314.721 180.00 1.07254
0 5 3 2 o 716.522 704.137 0.00 1.07336
5 1 2 2 o 33436.875 32030.523 180.00 1.07254
1 5 2 2 o 26424.334 25314.721 180.00 1.07254
1 3 10 1 o 25614.029 25872.867 0.00 1.02712
3 1 10 1 o 24813.016 25063.703 180.00 1.02712
2 4 6 1 o 4.892 4.656 180.00 1.06975
4 2 6 1 o 25.019 23.812 180.00 1.06975
3 2 9 1 o 14.579 1.129 180.00 1.03867
2 3 9 1 o 516.883 446.810 180.00 1.03867
0 4 8 1 o 27424.102 26616.740 0.00 1.04347
2 4 6 2 o 5.848 4.656 180.00 1.06975
4 2 6 2 o 29.908 23.812 180.00 1.06975
1 3 10 2 o 25581.717 25872.867 0.00 1.02712
3 1 10 2 o 24781.717 25063.703 180.00 1.02712
2 3 9 2 o 583.181 446.810 180.00 1.03867
3 2 9 2 o 27.304 1.129 180.00 1.03867
0 4 8 2 o 27210.381 26616.740 0.00 1.04347
3 4 3 1 o 365.484 357.031 0.00 1.07336
4 3 3 1 o 742.813 726.518 180.00 1.07336
3 4 3 2 o 356.870 357.031 0.00 1.07336
4 3 3 2 o 726.209 726.518 180.00 1.07336
0 2 12 2 o 19461.488 20616.010 0.00 0.98666
0 2 12 1 o 18597.715 20616.010 0.00 0.98666
0 1 13 1 o 69.984 29.999 180.00 0.95978
0 1 13 2 o 50.749 29.999 180.00 0.95978
5 1 4 1 o 28.772 25.701 180.00 1.02919
1 5 4 1 o 29.627 26.465 0.00 1.02919
0 3 11 1 o 204.246 200.289 180.00 0.97764
5 2 1 1 o -2.143 2.304 180.00 1.02704
2 5 1 1 o 430.995 453.901 0.00 1.02704
1 5 4 2 o 24.877 26.465 0.00 1.02919
5 1 4 2 o 24.159 25.701 180.00 1.02919
0 3 11 2 o 206.061 200.289 180.00 0.97764
5 2 1 2 o -0.793 2.304 180.00 1.02704
2 5 1 2 o 437.947 453.901 0.00 1.02704
3 3 8 1 o 51.801 132.400 180.00 1.00842
3 3 8 2 o 52.444 132.400 180.00 1.00842
0 5 5 1 o 10.314 10.655 180.00 1.01656
0 5 5 2 o -11.202 10.655 180.00 1.01656
3 4 5 1 o 84.320 83.681 0.00 1.01656
4 3 5 1 o 4.004 3.627 0.00 1.01656
3 4 5 2 o 46.852 83.681 0.00 1.01656
4 3 5 2 o -18.095 3.627 0.00 1.01656
2 5 3 1 o -79.114 0.001 0.00 1.00106
5 2 3 1 o -39.027 119.029 180.00 1.00106
5 2 3 2 o -15.452 119.029 180.00 1.00106
2 5 3 2 o -67.314 0.001 0.00 1.00106
1 4 9 1 o 95.756 73.871 180.00 0.97274
4 1 9 1 o 98.410 76.184 0.00 0.97274
1 4 9 2 o 103.863 73.871 180.00 0.97274
4 1 9 2 o 106.642 76.184 0.00 0.97274
4 2 8 1 o 20979.680 21253.125 180.00 0.97668
2 4 8 1 o 18931.408 19178.092 0.00 0.97668
2 4 8 2 o 20269.453 19178.092 0.00 0.97668
4 2 8 2 o 22462.998 21253.125 180.00 0.97668
5 1 6 1 o 18086.846 17770.156 0.00 0.96732
1 5 6 1 o 26267.229 25806.553 0.00 0.96732
1 5 6 2 o 27551.426 25806.553 0.00 0.96732
5 1 6 2 o 18969.615 17770.156 0.00 0.96732
4 4 0 1 o 18302.016 16968.930 0.00 0.98094
4 4 0 2 o 17822.041 16968.930 0.00 0.98094
0 5 7 1 o 60.814 60.705 180.00 0.94608
4 4 2 1 o 0.611 0.500 180.00 0.96939
0 5 7 2 o 67.765 60.705 180.00 0.94608
5 2 5 2 o 416.733 521.430 180.00 0.95451
2 5 5 2 o 300.468 378.347 180.00 0.95451
4 4 2 2 o 0.487 0.500 180.00 0.96939
2 5 5 1 o 344.104 378.347 180.00 0.95451
5 2 5 1 o 475.395 521.430 180.00 0.95451
3 4 7 1 o 110.920 110.263 180.00 0.94608
4 3 7 1 o 39.996 39.590 0.00 0.94608
3 4 7 2 o 120.816 110.263 180.00 0.94608
4 3 7 2 o 46.117 39.590 0.00 0.94608
3 5 2 1 o 19400.738 20827.525 180.00 0.94109
5 3 2 1 o 19674.037 21121.035 0.00 0.94109
