#------------------------------------------------------------------------------
#$Date: 2018-11-23 06:07:15 +0200 (Fri, 23 Nov 2018) $
#$Revision: 212145 $
#$URL: file:///home/coder/svn-repositories/cod/cif/2/30/06/2300645.cif $
#------------------------------------------------------------------------------
#
# This file is available in the Crystallography Open Database (COD),
# http://www.crystallography.net/. The original data for this entry
# were provided by IUCr Journals, http://journals.iucr.org/.
#
# The file may be used within the scientific community so long as
# proper attribution is given to the journal article from which the
# data were obtained.
#
data_2300645
loop_
_publ_author_name
'Cichocka, Magdalena Ola'
'\%Angstr\"om, Jonas'
'Wang, Bin'
'Zou, Xiaodong'
'Smeets, Stef'
_publ_section_title
;
 High-throughput continuous rotation electron diffraction data acquisition
 <i>via</i> software automation
;
_journal_issue                   6
_journal_name_full               'Journal of Applied Crystallography'
_journal_page_first
;
;
_journal_paper_doi               10.1107/S1600576718015145
_journal_volume                  51
_journal_year                    2018
_chemical_formula_moiety         'O96 Si48'
_chemical_formula_sum            'O96 Si48'
_chemical_formula_weight         3022.66
_chemical_name_common            Mordenite
_chemical_name_systematic        Mordenite
_space_group_crystal_system      orthorhombic
_space_group_IT_number           63
_space_group_name_Hall           '-C 2c 2'
_space_group_name_H-M_alt        'C m c m'
_symmetry_space_group_name_Hall  '-C 2c 2'
_symmetry_space_group_name_H-M   'C m c m'
_audit_creation_method           SHELXL-2014/7
_cell_angle_alpha                90
_cell_angle_beta                 90
_cell_angle_gamma                90
_cell_formula_units_Z            1
_cell_length_a                   18.110(4)
_cell_length_b                   20.530(4)
_cell_length_c                   7.5280(16)
_cell_measurement_temperature    293(2)
_cell_volume                     2798.9(10)
_computing_cell_refinement       'XDS-20180126 (Kabsch, 2018)'
_computing_data_collection       'Instamatic-0.6.2 (Smeets, 2018)'
_computing_data_reduction        'XDS-20180126 (Kabsch, 2018)'
_computing_structure_refinement  'SHELXL-2014/7 (Sheldrick, 2014)'
_computing_structure_solution    'SHELXS-2013/1 (Sheldrick, 2013)'
_diffrn_ambient_temperature      293(2)
_diffrn_measured_fraction_theta_full 0.937
_diffrn_measured_fraction_theta_max 0.925
_diffrn_measurement_device_type  'Jeol JEM-2100-LaB6'
_diffrn_measurement_method       'Continuous rotation electron diffraction'
_diffrn_radiation_probe          electron
_diffrn_radiation_wavelength     0.0251
_diffrn_reflns_av_R_equivalents  0.0878
_diffrn_reflns_av_unetI/netI     0.0932
_diffrn_reflns_Laue_measured_fraction_full 0.937
_diffrn_reflns_Laue_measured_fraction_max 0.925
_diffrn_reflns_limit_h_max       22
_diffrn_reflns_limit_h_min       -22
_diffrn_reflns_limit_k_max       25
_diffrn_reflns_limit_k_min       -25
_diffrn_reflns_limit_l_max       9
_diffrn_reflns_limit_l_min       -9
_diffrn_reflns_number            5244
_diffrn_reflns_point_group_measured_fraction_full 0.937
_diffrn_reflns_point_group_measured_fraction_max 0.925
_diffrn_reflns_theta_full        0.863
_diffrn_reflns_theta_max         0.920
_diffrn_reflns_theta_min         0.070
_diffrn_source                   'electron microscope'
_exptl_absorpt_coefficient_mu    0.000
_exptl_crystal_density_diffrn    1.793
_exptl_crystal_F_000             470
_refine_diff_density_max         0.239
_refine_diff_density_min         -0.181
_refine_diff_density_rms         0.066
_refine_ls_extinction_coef       508(27)
_refine_ls_extinction_expression Fc^*^=kFc[1+0.001xFc^2^\l^3^/sin(2\q)]^-1/4^
_refine_ls_extinction_method     'SHELXL-2014/7 (Sheldrick 2014)'
_refine_ls_goodness_of_fit_ref   1.610
_refine_ls_hydrogen_treatment    undef
_refine_ls_matrix_type           full
_refine_ls_number_parameters     96
_refine_ls_number_reflns         1585
_refine_ls_number_restraints     0
_refine_ls_restrained_S_all      1.610
_refine_ls_R_factor_all          0.1769
_refine_ls_R_factor_gt           0.1602
_refine_ls_shift/su_max          0.006
_refine_ls_shift/su_mean         0.000
_refine_ls_structure_factor_coef Fsqd
_refine_ls_weighting_details
'w=1/[\s^2^(Fo^2^)+(0.2000P)^2^] where P=(Fo^2^+2Fc^2^)/3'
_refine_ls_weighting_scheme      calc
_refine_ls_wR_factor_gt          0.4332
_refine_ls_wR_factor_ref         0.4480
_reflns_Friedel_coverage         0.000
_reflns_number_gt                1140
_reflns_number_total             1585
_reflns_threshold_expression     'I > 2\s(I)'
_cod_data_source_file            yr5038sup1.cif
_cod_data_source_block           mordenite_2
_cod_database_code               2300645
_shelx_shelxl_version_number     2014/7
_shelx_space_group_comment
;
The symmetry employed for this shelxl refinement is uniquely defined
by the following loop, which should always be used as a source of
symmetry information in preference to the above space-group names.
They are only intended as comments.
;
_shelx_res_file
;

    2.res created by SHELXL-2014/7


TITL 2 in Cmcm
CELL 0.0251 18.1100   20.5300    7.5280  90 90 90
ZERR 1 0.0037 0.0042 0.0016 0 0 0
LATT 7
SYMM -X,-Y,0.5+Z
SYMM -X,+Y,0.5-Z
SYMM +X,-Y,-Z
SFAC  O 0.455 23.78 0.917 7.622 0.472 2.144 0.138 0.296 0 0 0 0 0.73 15.999
SFAC  SI 2.129 57.775 2.533 16.476 0.835 2.88 0.322 0.386 0 0 0 0 1.06 30.974
UNIT 96 48

L.S. 70
PLAN  20
list 4
fmap 2
acta

WGHT    0.200000
EXTI  508.393219
FVAR       0.34439
SI1   2    0.194351    0.425910    0.543124    11.00000    0.05001    0.04494 =
         0.03126   -0.00132   -0.00658    0.00287
SI2   2    0.196908    0.189568    0.543950    11.00000    0.04130    0.04998 =
         0.02989    0.00140   -0.00256    0.00563
SI3   2    0.084346    0.379471    0.250000    10.50000    0.03299    0.04796 =
         0.03288    0.00000    0.00000   -0.00170
SI4   2    0.084759    0.222458    0.250000    10.50000    0.02788    0.05165 =
         0.03086    0.00000    0.00000    0.00267
O1    1    0.122002    0.410021    0.426741    11.00000    0.06761    0.13008 =
         0.05810   -0.00972   -0.02283   -0.00892
O2    1    0.123313    0.191423    0.423686    11.00000    0.04734    0.11396 =
         0.05328    0.01767   -0.02049   -0.00202
O3    1    0.262279    0.378027    0.494563    11.00000    0.07915    0.07038 =
         0.08289   -0.01362    0.00181    0.03010
O4    1    0.091440    0.299755    0.250000    10.50000    0.06235    0.06048 =
         0.15174    0.00000    0.00000   -0.00421
O5    1    0.172257    0.192049    0.750000    10.50000    0.05707    0.13545 =
         0.03113    0.00000    0.00000    0.00758
O6    1    0.172828    0.419057    0.750000    10.50000    0.07699    0.09586 =
         0.03579    0.00000    0.00000   -0.01330
O7    1    0.222679    0.500000    0.500000    10.50000    0.07044    0.05550 =
         0.07165    0.01290    0.00000    0.00000
O8    1    0.250000    0.250000    0.500000    10.50000    0.05836    0.08685 =
         0.11879    0.03081   -0.01755   -0.01470
O9    1    0.000000    0.403501    0.250000    10.25000    0.03253    0.06407 =
         0.08261    0.00000    0.00000    0.00000
O10   1    0.000000    0.198221    0.250000    10.25000    0.02768    0.07121 =
         0.06592    0.00000    0.00000    0.00000
HKLF 4

REM  2 in Cmcm
REM R1 =  0.1602 for    1140 Fo > 4sig(Fo)  and  0.1769 for all    1585 data
REM     96 parameters refined using      0 restraints

END

WGHT      0.2000      0.0000

REM Highest difference peak  0.239,  deepest hole -0.181,  1-sigma level  0.066
Q1    1   0.1936  0.2099  0.5581  11.00000  0.05    0.24
Q2    1   0.2242  0.1909  0.5540  11.00000  0.05    0.23
Q3    1   0.0153  0.2982  0.7500  10.50000  0.05    0.23
Q4    1   0.0000  0.0984  0.7500  10.25000  0.05    0.20
Q5    1   0.0766  0.4301  0.2500  10.50000  0.05    0.19
Q6    1   0.0000  0.1717  0.7500  10.25000  0.05    0.18
Q7    1   0.2083  0.4524  0.5471  11.00000  0.05    0.18
Q8    1   0.2033  0.3949  0.4876  11.00000  0.05    0.17
Q9    1   0.2299  0.4252  0.5516  11.00000  0.05    0.17
Q10   1   0.0727  0.1849  0.2500  10.50000  0.05    0.15
Q11   1   0.0831  0.2614  0.2500  10.50000  0.05    0.14
Q12   1   0.0000  0.4052  0.7500  10.25000  0.05    0.14
Q13   1   0.4190  0.5000  0.5000  10.50000  0.05    0.13
Q14   1   0.0000  0.5000  0.0000  10.25000  0.05    0.13
Q15   1   0.0000  0.5479  0.2500  10.25000  0.05    0.12
Q16   1  -0.0510  0.5102  0.2500  10.50000  0.05    0.12
Q17   1   0.0624  0.0089  0.7500  10.50000  0.05    0.12
Q18   1   0.2969  0.5000  0.5000  10.50000  0.05    0.12
Q19   1   0.0000  0.2898 -0.1116  10.50000  0.05    0.12
Q20   1   0.3828  0.4772  0.4272  11.00000  0.05    0.12
;
_shelx_res_checksum              79093
_shelx_hkl_file
;
   0   0   2  488.06   55.75
   0   0  -2  379.28   43.34
   0   0   4  438.31   50.09
   0   0  -4  424.58   48.55
   0   0   6  160.75   18.43
   0   0  -6  153.32   17.58
   0   0   8    6.50    0.90
   0   0  -8    6.45    0.91
   0  -2   0  130.68   14.94
   0   2   0  118.28   13.51
   0  -2   1   60.18    6.90
   0   2  -1   68.00    7.79
   0  -2   2   99.11   11.36
   0  -2   3   18.03    2.12
   0   2  -3   18.48    2.17
   0   2   4   23.64    2.77
   0  -2   4   25.33    2.98
   0   2  -4   21.01    2.46
   0  -2  -5    3.47    0.53
   0   2   5    3.80    0.57
   0   2  -5    5.46    0.73
   0  -2  -6   11.54    1.41
   0  -2   6   11.09    1.38
   0  -2  -7    0.47    0.30
   0   2   7    0.76    0.30
   0   2  -7    0.42    0.31
   0  -2  -8    0.27    0.20
   0   2   8    0.28    0.21
   0  -2   8    0.47    0.24
   0   2  -8    0.32    0.24
   0  -2  -9    0.08    0.17
   0   2   9    0.33    0.19
   0  -2   9    0.19    0.22
   0   2  -9   -0.06    0.19
   0  -4   0   73.39    8.41
   0  -4   1   19.82    2.31
   0   4  -1   19.55    2.27
   0  -4   2    9.92    1.19
   0   4  -2   12.54    1.48
   0  -4   3   22.24    2.61
   0   4  -3   26.85    3.12
   0  -4   4    4.49    0.62
   0   4  -4    4.24    0.61
   0  -4   5   39.51    4.59
   0   4  -5   44.14    5.11
   0  -4   6    2.36    0.48
   0   4  -6    2.50    0.46
   0   4   8    0.14    0.23
   0  -4   8    0.12    0.21
   0   4  -8    0.08    0.21
   0  -4  -9    4.18    0.64
   0   4   9    4.03    0.62
   0  -4   9    4.51    0.68
   0  -6   0   99.83   11.44
   0   6   0   95.60   10.95
   0  -6   1  178.07   20.38
   0   6  -1  176.59   20.20
   0  -6   2    0.93    0.30
   0   6  -2    1.24    0.32
   0  -6   3   12.62    1.52
   0   6  -3   18.60    2.19
   0  -6   4   15.04    1.79
   0   6  -4   13.37    1.59
   0  -6   5   13.91    1.69
   0   6  -5   14.64    1.75
   0  -6   6    4.74    0.72
   0   6  -6    4.31    0.68
   0  -6   7    4.69    0.73
   0   6  -7    3.86    0.68
   0  -6   8    0.20    0.20
   0   6  -8   -0.10    0.20
   0   6  -9    0.23    0.20
   0  -8   0  242.54   27.74
   0   8   0  242.92   27.77
   0  -8   1    9.69    1.23
   0   8  -1   13.53    1.65
   0  -8   2   57.08    6.59
   0   8  -2   47.51    5.48
   0  -8   3    7.44    0.93
   0   8  -3    7.57    0.94
   0   8  -4    6.12    0.77
   0  -8   5    3.87    0.56
   0   8  -5    4.04    0.58
   0   8  -6   15.69    1.92
   0  -8   7    0.06    0.23
   0   8  -7    0.00    0.21
   0  -8   8    6.70    0.93
   0   8  -8    7.40    1.01
   0  -8   9    1.08    0.34
   0   8  -9    0.80    0.32
   0 -10   2    2.51    0.43
   0  10  -3    0.77    0.24
   0 -10   4   29.24    3.41
   0  10  -5    3.51    0.56
   0  10  -6   11.25    1.43
   0 -10   7    0.42    0.25
   0  10  -7    0.49    0.27
   0 -10   8    0.25    0.21
   0 -12   1   60.45    6.96
   0 -12   2   55.46    6.40
   0  12  -2   53.78    6.21
   0 -12   3    0.92    0.33
   0  12  -3    0.81    0.28
   0 -12   4    2.69    0.47
   0  12  -4    3.45    0.55
   0  12  -5   49.81    5.79
   0  12  -6    1.56    0.36
   0 -12   7    4.39    0.66
   0  12  -8    0.54    0.26
   0 -14   1   22.92    2.72
   0  14  -1   20.74    2.46
   0 -14   2    0.13    0.30
   0  14  -2    0.36    0.33
   0 -14   3   10.37    1.33
   0  14  -3   10.67    1.35
   0 -14   4    2.25    0.46
   0  14  -4    3.00    0.57
   0 -14   5   12.52    1.58
   0  14  -5   13.35    1.66
   0 -14   6    0.13    0.21
   0  14  -6    0.00    0.20
   0  14  -7    0.33    0.21
   0 -14   8   -0.10    0.22
   0  14  -8    0.06    0.19
   0 -16   1    0.86    0.46
   0  16  -1    0.54    0.37
   0 -16   2   43.06    5.05
   0  16  -2   43.31    5.07
   0 -16   3    1.41    0.44
   0  16  -3    1.14    0.41
   0  16  -4   10.54    1.34
   0 -16   5    3.17    0.53
   0 -16   6    0.73    0.25
   0 -16   7    0.75    0.28
   0  16  -7    0.57    0.28
   0 -18   0   15.36    1.89
   0 -18   1    0.23    0.35
   0  18  -1    0.41    0.42
   0 -18   2    3.91    0.65
   0  18  -2    3.71    0.61
   0 -18   3    1.73    0.42
   0  18  -3    1.56    0.43
   0 -18   4    0.25    0.23
   0 -18   5    0.14    0.19
   0  18  -5    0.26    0.22
   0 -18   6    0.22    0.21
   0  18  -6    0.41    0.23
   0 -20   0    5.42    0.77
   0 -20   1   -0.07    0.25
   0  20  -1    0.04    0.25
   0 -20   2    0.66    0.29
   0 -20   3    0.80    0.31
   0  20  -3    0.59    0.32
   0 -20   4    0.80    0.29
   0  20  -4    0.62    0.31
   0  20  -5    0.24    0.23
   0 -20   6    0.39    0.27
   0  20  -6    0.60    0.27
   0 -22   0    0.67    0.28
   0  22  -1    0.66    0.30
   0 -22   2   -0.12    0.24
   0  22  -2    0.31    0.26
   0  22  -3    0.81    0.33
   0 -22   4    0.09    0.24
   0  22  -4    0.14    0.30
   0  22  -5    1.67    0.44
   0 -24   0    0.18    0.27
   0 -24   1    0.10    0.29
   0 -24   2    0.06    0.22
   0  24  -2    0.47    0.32
   0 -24   3    1.02    0.35
   0  24  -3    1.27    0.37
   1   1   1  183.02   20.91
  -1  -1  -1  178.69   20.42
   1   1   2    3.25    0.48
   1  -1   2    3.12    0.46
  -1  -1  -2    3.25    0.49
  -1  -1   2    4.96    0.69
  -1   1  -2    3.59    0.50
   1   1   3   64.62    7.42
   1   1  -3   75.04    8.61
   1  -1   3   76.15    8.75
  -1  -1  -3   64.98    7.46
  -1  -1   3   63.84    7.35
  -1   1  -3   90.74   10.40
   1   1   4   11.47    1.40
   1   1  -4   11.92    1.46
  -1  -1  -4   12.19    1.50
  -1   1   4    9.50    1.17
  -1  -1   4   13.20    1.59
  -1   1  -4   12.91    1.56
   1  -1   5   12.30    1.51
  -1  -1  -5   12.52    1.53
  -1   1   5   18.64    2.21
  -1  -1   5   14.10    1.69
  -1   1  -5   10.60    1.31
   1   1  -6    2.83    0.51
   1  -1   6    3.44    0.55
  -1  -1  -6    3.32    0.52
  -1   1   6    3.92    0.58
  -1  -1   6    3.25    0.53
  -1   1  -6    3.46    0.54
   1  -1  -7    6.55    0.91
   1   1  -7    6.68    0.96
   1  -1   7    6.39    0.89
  -1  -1  -7    5.93    0.83
  -1   1   7    6.10    0.88
  -1  -1   7    5.25    0.78
   1   1   8    0.08    0.24
   1  -1  -8   -0.03    0.18
   1   1  -8   -0.11    0.21
   1  -1   8    0.06    0.22
  -1  -1  -8    0.04    0.21
  -1  -1   8   -0.07    0.24
  -1   1  -8    0.02    0.22
   1   1   9    0.31    0.24
   1   1  -9    0.41    0.23
  -1  -1  -9    0.24    0.25
  -1   1   9    0.07    0.17
  -1   1  -9    0.23    0.21
   1   3   0   87.44   10.00
  -1  -3   0   64.56    7.39
   1  -3   1   10.98    1.30
  -1  -3   1   10.32    1.23
  -1   3  -1   11.17    1.32
   1   3  -2   75.14    8.62
   1  -3   2   69.35    7.96
  -1  -3   2   72.60    8.33
  -1   3  -2   69.48    7.97
   1   3  -3    2.92    0.47
   1  -3   3    2.60    0.43
  -1  -3   3    2.75    0.46
  -1   3  -3    2.62    0.41
   1  -3   4    1.97    0.42
  -1   3  -4    1.48    0.32
   1   3   5    3.45    0.54
   1   3  -5    2.94    0.44
  -1  -3   5    3.66    0.53
   1   3   6    1.69    0.34
   1  -3  -6    1.67    0.34
   1   3  -6    2.17    0.42
   1  -3   6    3.41    0.53
  -1  -3  -6    1.78    0.35
   1   3   7    0.06    0.22
   1   3  -7    0.05    0.33
   1  -3   7    0.86    0.34
  -1  -3  -7    0.19    0.22
  -1   3   7    0.74    0.30
  -1  -3   7    0.26    0.30
  -1   3  -7    0.90    0.34
   1  -3  -8    0.42    0.24
   1   3  -8    0.48    0.26
   1  -3   8    0.33    0.24
  -1  -3  -8    0.07    0.19
  -1  -3   8    0.14    0.21
   1   3   9    0.21    0.20
   1   3  -9    0.46    0.24
   1  -3   9    0.38    0.24
  -1   3   9    0.29    0.21
  -1  -3   9    0.18    0.24
  -1   3  -9    0.26    0.21
   1   5   0  522.34   59.66
  -1  -5   0  427.05   48.78
   1  -5   1    1.16    0.39
  -1   5  -1    0.89    0.31
   1  -5   2    6.20    0.78
  -1   5  -2    5.76    0.73
   1  -5   3    3.78    0.53
  -1   5  -3    3.10    0.46
   1   5  -4   42.21    4.89
   1  -5   4   42.14    4.87
  -1  -5   4   44.91    5.18
  -1   5  -4   42.37    4.90
   1   5  -5    0.79    0.24
   1  -5   5    0.27    0.23
  -1  -5   5    0.85    0.28
   1   5  -6   37.63    4.40
   1  -5   6   38.89    4.58
  -1  -5   6   39.30    4.59
  -1   5  -6   39.41    4.60
   1   5  -7    0.16    0.27
  -1  -5   7    0.13    0.25
  -1   5  -7    0.38    0.28
   1   5  -8    5.86    0.87
  -1  -5   8    5.54    0.80
   1   5   9    0.08    0.19
   1  -5  -9    0.12    0.20
   1   5  -9    0.27    0.22
   1  -5   9    0.13    0.20
  -1  -5  -9    0.14    0.26
  -1  -5   9    0.28    0.24
  -1   5  -9    0.39    0.21
  -1  -7   0   11.03    1.36
   1  -7   1   40.24    4.66
  -1  -7   1   44.26    5.11
  -1   7  -1   42.58    4.94
   1   7  -2   39.96    4.62
   1  -7   2   43.67    5.04
  -1  -7   2   43.72    5.05
   1   7  -3    7.26    0.92
   1  -7   3    6.45    0.85
  -1  -7   3    6.89    0.88
  -1   7  -3    5.01    0.66
   1   7  -4    6.88    0.87
   1  -7   4    6.12    0.78
  -1  -7   4    6.17    0.79
   1   7  -5    9.19    1.15
   1  -7   5    6.65    0.87
  -1  -7   5    9.18    1.14
  -1   7  -5    7.45    0.95
   1   7  -6    1.94    0.41
   1  -7   6    1.99    0.44
  -1  -7   6    1.98    0.46
   1   7  -7    0.27    0.24
   1  -7   7    0.39    0.27
  -1   7  -7    0.22    0.24
   1   7  -8    0.87    0.29
   1  -7   8    0.90    0.31
  -1  -7   8    0.96    0.33
  -1   7  -8    0.83    0.29
   1   7  -9    0.56    0.30
   1  -7   9    0.57    0.27
  -1  -7   9    0.78    0.30
   1  -9   0    2.65    0.51
  -1  -9   0    1.58    0.43
   1   9  -1    1.24    0.37
  -1  -9   1    1.48    0.40
  -1   9  -1    2.84    0.46
   1   9  -2   -0.04    0.28
   1  -9   2    0.06    0.23
  -1  -9   2    0.11    0.24
  -1   9  -2   -0.15    0.24
   1   9  -3    2.73    0.41
   1  -9   3    2.24    0.37
  -1  -9   3    3.03    0.48
   1  -9   4    0.49    0.22
  -1  -9   4    0.62    0.23
  -1   9  -4    0.54    0.21
   1   9  -5    1.44    0.34
   1  -9   5    1.70    0.37
  -1   9  -5    2.76    0.52
   1  -9   6    0.55    0.30
  -1  -9   6    0.29    0.28
  -1   9  -6    0.35    0.28
   1   9  -7    1.18    0.32
   1  -9   7    0.36    0.25
  -1   9  -7    0.52    0.27
   1   9  -8    0.08    0.18
  -1   9  -8   -0.10    0.18
   1   9  -9    0.77    0.35
  -1   9  -9    0.68    0.30
   1  11   0    5.78    0.76
   1 -11   0    5.03    0.69
  -1 -11   0    3.60    0.56
   1  11  -1   16.28    1.94
  -1 -11   1   16.10    1.91
   1  11  -2    4.70    0.65
   1 -11   2    5.34    0.72
  -1 -11   2    4.67    0.64
  -1  11  -2    5.11    0.69
   1  11  -3    7.07    0.90
   1 -11   3    8.58    1.06
  -1 -11   3    7.20    0.92
  -1  11  -3    8.10    1.00
   1  11  -4    1.60    0.35
   1 -11   4    1.59    0.34
  -1  11  -4    1.30    0.35
   1 -11   5   12.02    1.51
  -1 -11   5   12.67    1.57
  -1  11  -5   12.03    1.50
   1 -11   6    0.58    0.28
  -1 -11   6    0.32    0.26
  -1  11  -6    0.57    0.29
   1  11  -7    0.37    0.22
  -1  11  -7    1.09    0.32
   1  11  -8    0.06    0.19
   1 -11   8    0.05    0.19
  -1 -11   8    0.06    0.19
  -1  11  -8    0.05    0.20
   1  13   0   11.50    1.39
   1 -13   0   10.61    1.29
  -1 -13   0    8.57    1.08
   1 -13   1    3.70    0.54
  -1 -13   1    4.08    0.59
  -1  13  -1    3.03    0.48
   1 -13   2   51.90    6.00
  -1 -13   2   55.49    6.42
  -1  13  -2   58.56    6.78
   1  13  -3    8.19    1.07
   1 -13   3    8.76    1.12
  -1 -13   3    9.64    1.22
   1  13  -4    1.54    0.40
   1 -13   4    0.71    0.31
  -1  13  -4    0.82    0.34
   1 -13   5    1.17    0.35
  -1 -13   5    0.68    0.33
  -1  13  -5    0.84    0.37
   1 -13   6    0.09    0.23
  -1 -13   6    0.34    0.23
   1  13  -7    0.24    0.20
   1 -13   7    0.19    0.21
  -1 -13   7    0.25    0.19
  -1  13  -7    0.48    0.25
   1 -13   8    1.05    0.35
  -1 -13   8    1.21    0.35
   1 -15   0    4.53    0.66
  -1 -15   0    2.95    0.53
   1  15  -1    0.47    0.32
  -1 -15   1    0.16    0.33
  -1  15  -1    0.40    0.31
   1  15  -2    1.78    0.46
   1 -15   2    2.42    0.50
  -1 -15   2    1.95    0.49
  -1  15  -2    2.32    0.51
   1  15  -3    0.60    0.36
  -1  15  -3    0.29    0.34
   1  15  -4    0.79    0.33
   1 -15   4    1.36    0.37
  -1 -15   4    0.61    0.31
  -1  15  -4    1.29    0.39
   1  15  -5    0.13    0.21
   1 -15   5   -0.02    0.24
  -1 -15   5   -0.33    0.23
  -1  15  -5    0.53    0.28
   1  15  -6    0.14    0.18
  -1  15  -6   -0.16    0.16
   1 -15   7    0.05    0.21
  -1 -15   7    0.15    0.18
  -1  15  -7    0.11    0.23
   1  17   0    1.02    0.38
   1 -17   0    0.96    0.39
  -1 -17   0    0.91    0.44
   1  17  -1    1.04    0.41
   1 -17   1    0.44    0.38
   1  17  -2    0.62    0.36
  -1 -17   2    0.89    0.45
  -1  17  -2    1.85    0.48
   1  17  -3    1.55    0.46
   1 -17   3    0.36    0.33
  -1 -17   3    0.55    0.34
  -1  17  -3    0.70    0.33
   1  17  -4    0.38    0.28
   1 -17   4    0.27    0.26
  -1 -17   4    0.23    0.25
  -1  17  -4    0.03    0.24
   1  17  -5    1.47    0.34
   1 -17   5    1.08    0.30
  -1 -17   5    2.19    0.41
  -1  17  -5    1.42    0.34
   1  17  -6   -0.04    0.16
   1 -17   6    0.00    0.18
  -1 -17   6   -0.06    0.17
  -1  17  -6    0.21    0.23
   1  17  -7    0.26    0.22
   1 -17   7    0.26    0.25
  -1 -17   7    0.04    0.20
  -1  17  -7    0.10    0.20
   1  19   0    0.93    0.32
   1 -19   0    0.82    0.33
  -1 -19   0    0.34    0.32
   1  19  -1    0.38    0.31
   1 -19   1    0.47    0.27
  -1 -19   1    0.44    0.32
  -1  19  -1    0.30    0.27
   1 -19   2    3.96    0.61
  -1 -19   2    3.11    0.54
   1 -19   3    1.36    0.36
  -1 -19   3    1.10    0.34
  -1  19  -3    1.65    0.39
   1  19  -4    0.11    0.22
   1 -19   4    0.12    0.21
  -1 -19   4   -0.12    0.19
   1  19  -5    0.26    0.21
   1 -19   5    0.40    0.23
  -1  19  -5    0.16    0.22
   1  19  -6    0.14    0.20
   1 -19   6    0.06    0.20
  -1 -19   6    0.03    0.18
  -1  19  -6    0.27    0.23
   1 -21   0    2.00    0.40
  -1 -21   0    1.04    0.34
   1  21  -1    0.29    0.26
   1 -21   1    0.03    0.25
  -1 -21   1    0.23    0.25
  -1  21  -1    0.11    0.24
   1 -21   2    0.03    0.25
  -1  21  -2    0.59    0.27
  -1 -21   3    0.05    0.24
  -1  21  -3    0.22    0.26
   1  21  -4    0.12    0.24
   1 -21   4    0.32    0.24
  -1 -21   4    0.23    0.24
   1  21  -5    0.32    0.28
   1 -21   5   -0.07    0.21
  -1 -21   5    0.12    0.26
  -1  21  -5   -0.07    0.20
   1  23   0    0.55    0.31
   1 -23   0    1.07    0.35
  -1 -23   0    0.33    0.29
   1  23  -1   -0.06    0.24
   1 -23   1    0.25    0.25
  -1 -23   1   -0.02    0.25
   1  23  -2    0.51    0.31
   1 -23   2    0.21    0.24
  -1 -23   2    0.13    0.23
  -1  23  -2    0.59    0.34
   1  23  -3    0.33    0.31
   1 -23   3    0.26    0.27
  -1  23  -3    0.19    0.28
   1  23  -4    0.15    0.26
   1 -23   4    0.21    0.29
  -1 -23   4    0.15    0.23
  -1  23  -4    0.31    0.31
   1 -25   0    0.61    0.28
  -1 -25   0    0.19    0.24
   1  25  -1   -0.08    0.27
   1 -25   1    0.02    0.21
  -1 -25   1   -0.05    0.21
  -1  25  -1   -0.04    0.24
   1  25  -2    0.32    0.31
   1 -25   2    0.22    0.27
  -1 -25   2    0.27    0.24
  -1  25  -2    0.29    0.28
   2   0  -2  695.71   79.46
   2   0   2  972.28  111.03
  -2   0   2  712.66   81.40
  -2   0  -2 1000.00  114.18
  -2   0   4   57.90    6.67
  -2   0  -4   68.62    7.90
   2   0  -6    7.28    0.94
   2   0   6    6.98    0.93
  -2   0   6    7.26    0.95
  -2   0  -6    8.25    1.05
   2   0  -8    1.10    0.31
   2   0   8    1.59    0.36
  -2   0   8    1.51    0.35
  -2   0  -8    1.88    0.40
   2   2   0   30.02    3.44
  -2  -2   0   30.59    3.50
   2   2  -1   26.94    3.11
   2  -2   1   28.90    3.33
  -2  -2   1   28.49    3.29
  -2   2  -1   30.12    3.47
   2   2   2   38.51    4.43
   2  -2   2   48.10    5.53
  -2  -2  -2   39.41    4.54
  -2  -2   2   57.73    6.64
   2   2   3    4.65    0.64
   2   2  -3    8.40    1.05
   2  -2   3    5.39    0.72
  -2  -2  -3    4.92    0.64
  -2  -2   3    7.05    0.90
  -2   2  -3    6.09    0.77
   2   2   4    6.11    0.79
  -2  -2   4    6.00    0.78
  -2   2  -4    5.30    0.72
   2  -2  -5    1.20    0.28
   2   2  -5    1.68    0.34
   2  -2   5    2.34    0.43
  -2  -2  -5    1.83    0.37
  -2  -2   5    1.44    0.32
  -2   2  -5    2.01    0.38
   2   2   6    0.41    0.25
   2   2  -6    0.33    0.29
  -2  -2  -6    0.36    0.23
   2   2   7    0.32    0.24
   2  -2  -7    0.06    0.26
   2   2  -7    0.48    0.33
   2  -2   7    0.46    0.28
  -2  -2   7    0.33    0.32
  -2   2  -7    0.35    0.29
   2   2   8    0.43    0.23
   2  -2  -8    0.32    0.27
   2   2  -8    1.03    0.32
   2  -2   8    0.33    0.22
  -2  -2  -8    0.96    0.28
  -2   2   8    0.26    0.22
  -2  -2   8    0.71    0.28
  -2   2  -8    0.67    0.26
   2   2   9    0.25    0.20
   2  -2  -9    0.05    0.18
   2   2  -9    0.21    0.24
   2  -2   9    0.54    0.25
  -2  -2  -9    0.32    0.22
  -2   2   9    0.00    0.17
  -2  -2   9    0.43    0.24
  -2   2  -9    0.35    0.27
   2   4   0   22.92    2.65
   2   4  -1  232.77   26.61
   2  -4   1  241.18   27.56
  -2  -4   1  226.95   25.94
  -2   4  -1  227.08   25.96
   2  -4   2    9.96    1.19
  -2  -4   2   10.27    1.24
  -2   4  -2    9.52    1.14
   2   4  -3   28.40    3.32
  -2  -4   3   25.39    2.97
   2  -4   4    0.37    0.25
  -2  -4   4    0.39    0.21
  -2   4  -4    0.17    0.25
   2  -4   5  112.36   12.92
  -2  -4   5   95.11   10.92
  -2   4  -5   98.64   11.33
   2   4   6    0.67    0.25
   2   4  -6    0.74    0.28
   2  -4   6    0.16    0.29
  -2  -4   6    0.59    0.29
   2   4  -7    2.79    0.51
   2  -4   7    4.40    0.67
  -2  -4  -7    1.99    0.38
  -2  -4   7    3.10    0.60
  -2   4  -7    3.91    0.67
   2   4   8    0.06    0.20
   2   4  -8   -0.01    0.20
   2  -4   8    0.26    0.20
  -2  -4  -8    0.10    0.23
  -2  -4   8    0.22    0.23
  -2   4  -8    0.07    0.19
   2   4   9    3.35    0.56
   2  -4  -9    3.45    0.56
   2  -4   9    5.13    0.74
  -2  -4  -9    3.23    0.56
  -2  -4   9    2.97    0.54
   2   6   0    6.35    0.81
   2   6  -1   78.13    8.96
   2  -6   1   89.01   10.21
  -2  -6   1   92.59   10.61
  -2   6  -1   79.82    9.17
   2   6  -2   19.24    2.25
   2  -6   2   19.29    2.26
  -2  -6   2   20.84    2.46
  -2   6  -2   19.27    2.26
   2  -6   3   11.16    1.35
  -2   6  -3   11.80    1.42
   2   6  -4    0.42    0.20
  -2  -6   4    0.48    0.21
  -2   6  -4    1.41    0.30
   2  -6   5   15.85    1.90
  -2  -6   5   17.28    2.06
  -2   6  -5   14.66    1.77
   2   6  -6    0.51    0.32
  -2  -6   6    0.69    0.32
  -2   6  -6    0.76    0.33
   2  -6   7    0.87    0.30
  -2  -6   7    0.39    0.25
  -2   6  -7    0.78    0.31
   2   6  -8    0.25    0.20
   2  -6   8    0.11    0.18
  -2  -6   8    0.19    0.20
  -2   6  -8    0.17    0.20
   2   6  -9    1.27    0.36
  -2  -6  -9    0.34    0.23
  -2   6  -9    0.74    0.27
   2   8   0   68.52    7.87
  -2  -8   0   79.62    9.14
   2  -8   1   15.38    1.83
  -2   8  -1   12.55    1.51
   2   8  -3    3.76    0.55
   2  -8   3    3.31    0.49
  -2  -8   3    3.29    0.49
  -2   8  -3    3.58    0.51
   2   8  -4    0.71    0.23
   2  -8   4    0.27    0.19
  -2   8  -4    0.22    0.21
   2   8  -5    2.66    0.45
   2  -8   5    2.11    0.42
  -2  -8   5    1.88    0.37
  -2   8  -5    2.32    0.43
   2   8  -6    9.70    1.24
   2  -8   6    8.18    1.09
  -2  -8   6    9.54    1.22
  -2   8  -6    7.61    1.03
   2   8  -7    0.95    0.33
   2  -8   7    0.74    0.28
  -2  -8   7    0.38    0.24
  -2   8  -7    0.58    0.28
   2   8  -8    0.68    0.26
   2  -8   8    0.64    0.25
  -2  -8   8    0.72    0.25
  -2   8  -8    1.10    0.30
   2   8  -9    0.35    0.25
   2  -8   9    0.29    0.23
  -2  -8   9   -0.02    0.22
  -2   8  -9    0.03    0.21
   2 -10   1    3.75    0.55
  -2  10  -1    5.21    0.75
   2  10  -2   37.11    4.30
  -2 -10   2   34.45    4.01
  -2  10  -2   37.50    4.34
   2  10  -3    0.64    0.24
   2 -10   3    0.77    0.23
  -2 -10   3    0.59    0.22
   2  10  -4    1.03    0.28
  -2  10  -4    0.28    0.21
   2  10  -5    3.23    0.55
   2 -10   5    1.71    0.42
  -2 -10   5    3.61    0.57
  -2  10  -5    2.54    0.52
   2  10  -6    0.95    0.31
   2 -10   6    0.28    0.27
  -2 -10   6    1.49    0.39
  -2  10  -6    0.34    0.31
   2 -10   7    0.08    0.22
  -2 -10   7    0.37    0.21
  -2  10  -7    0.05    0.21
   2 -10   8    0.14    0.18
  -2 -10   8    0.18    0.19
  -2 -12   0    7.71    0.98
   2 -12   1    0.70    0.26
  -2  12  -1    0.23    0.30
   2  12  -2    0.76    0.29
   2 -12   2    0.79    0.27
   2  12  -3   32.41    3.79
   2 -12   3   31.62    3.68
  -2 -12   3   32.10    3.75
  -2  12  -3   30.69    3.58
  -2 -12   4    6.81    0.92
  -2  12  -4    7.92    1.03
   2  12  -5   13.09    1.62
   2 -12   5   11.04    1.40
  -2 -12   5   10.43    1.34
  -2  12  -5   11.51    1.47
   2  12  -6    0.53    0.24
  -2 -12   6    0.79    0.28
  -2  12  -6    0.85    0.31
   2 -12   7    4.49    0.68
  -2 -12   7    4.48    0.66
   2  12  -8    0.02    0.21
   2 -12   8    0.10    0.25
  -2  12  -8    0.20    0.21
   2 -14   0    1.31    0.37
  -2 -14   0    0.51    0.32
   2 -14   1    1.41    0.37
  -2 -14   1    0.63    0.28
  -2  14  -1    0.52    0.29
   2  14  -2    0.83    0.38
   2 -14   2    1.69    0.38
  -2 -14   2    1.30    0.38
  -2  14  -2    1.79    0.40
   2  14  -3    6.69    0.94
   2 -14   3    6.19    0.89
  -2 -14   3    5.88    0.84
  -2  14  -3    7.28    0.99
   2 -14   4    0.12    0.28
  -2 -14   4    0.35    0.32
  -2  14  -4    0.30    0.34
   2  14  -5    3.98    0.62
  -2 -14   5    3.95    0.62
  -2  14  -5    4.81    0.74
   2  14  -6    0.20    0.20
   2 -14   6   -0.07    0.20
  -2 -14   6    0.01    0.19
  -2  14  -6   -0.08    0.20
   2  14  -7    1.10    0.30
   2 -14   7    1.04    0.36
  -2  14  -7    1.24    0.34
   2  14  -8    0.01    0.20
   2 -14   8    0.15    0.22
  -2 -14   8    0.00    0.19
  -2  14  -8    0.19    0.24
   2  16   0   25.86    3.05
   2 -16   0   20.69    2.47
   2  16  -1    0.63    0.35
   2 -16   1    0.50    0.34
  -2 -16   1    0.81    0.42
   2  16  -2   35.85    4.22
   2 -16   2   23.10    2.76
  -2 -16   2   34.95    4.14
  -2  16  -2   26.17    3.12
   2  16  -3    0.85    0.35
  -2 -16   3    1.17    0.45
  -2  16  -3    2.54    0.52
   2  16  -4    8.99    1.18
  -2  16  -4    8.72    1.15
   2  16  -5    1.12    0.38
   2 -16   5    0.90    0.32
  -2 -16   5    0.62    0.27
   2 -16   6    0.26    0.21
  -2 -16   6    0.66    0.25
  -2  16  -6    0.56    0.27
   2  16  -7    0.53    0.25
   2 -16   7    0.36    0.24
  -2 -16   7    0.28    0.21
   2  18   0    6.75    0.92
   2 -18   0    5.32    0.78
   2  18  -1    0.26    0.32
  -2 -18   1    0.04    0.31
  -2  18  -1    0.56    0.33
   2  18  -2    0.70    0.31
  -2 -18   2    0.26    0.33
  -2 -18   3   -0.09    0.27
  -2  18  -3    0.19    0.25
   2  18  -4    1.38    0.38
   2 -18   4    0.80    0.30
  -2 -18   4    0.82    0.29
  -2  18  -4    0.64    0.29
   2  18  -5    0.12    0.21
   2 -18   5    0.18    0.21
  -2 -18   5    0.16    0.22
  -2  18  -5    0.33    0.24
   2  18  -6    0.43    0.24
   2 -18   6    0.50    0.26
  -2 -18   6    0.93    0.29
  -2  18  -6    0.44    0.26
   2  20   0    3.03    0.50
   2 -20   0    1.80    0.39
   2  20  -1    0.11    0.27
   2 -20   1    0.17    0.23
  -2 -20   1    0.08    0.28
  -2  20  -1    0.12    0.28
   2  20  -2    0.67    0.26
  -2 -20   2    1.45    0.36
  -2  20  -2    0.68    0.28
   2  20  -3    0.47    0.30
  -2 -20   3    0.73    0.30
  -2  20  -3    0.17    0.23
   2  20  -4    0.20    0.22
   2 -20   4    0.30    0.25
  -2 -20   4    0.12    0.23
  -2  20  -4   -0.09    0.27
   2  20  -5    0.38    0.31
   2 -20   5    0.37    0.23
  -2 -20   5    0.33    0.27
  -2  20  -5    0.30    0.27
   2  20  -6   -0.11    0.20
   2 -20   6    0.16    0.22
  -2  20  -6    0.01    0.22
   2  22   0    1.45    0.35
   2 -22   0    0.72    0.29
   2  22  -1    0.44    0.27
   2 -22   1    0.26    0.23
  -2 -22   1    0.34    0.26
  -2  22  -1   -0.01    0.28
   2 -22   2    0.27    0.23
  -2 -22   2    0.33    0.28
  -2  22  -2    0.28    0.30
   2  22  -3    1.57    0.47
   2 -22   3    0.74    0.31
  -2 -22   3    1.47    0.40
  -2  22  -3    0.71    0.31
   2  22  -4    0.10    0.23
  -2 -22   4   -0.15    0.22
  -2  22  -4    0.26    0.26
   2 -22   5    0.82    0.36
  -2 -22   5    1.66    0.44
  -2  22  -5    0.57    0.34
   2  24   0    1.30    0.36
   2 -24   0    1.56    0.40
   2  24  -1    0.24    0.29
   2 -24   1    0.14    0.24
  -2 -24   1    0.19    0.26
  -2  24  -1    0.14    0.27
   2  24  -2    0.30    0.25
   2 -24   2    0.13    0.24
  -2 -24   2    0.07    0.21
  -2  24  -2    0.04    0.23
   2  24  -3   -0.19    0.26
   2 -24   3   -0.01    0.21
   3   1  -1   78.39    8.97
   3  -1   1   91.75   10.50
  -3  -1  -1   70.50    8.07
   3   1   2   51.36    5.89
   3  -1   2   53.79    6.17
  -3  -1  -2   53.17    6.10
  -3  -1   2   49.51    5.70
  -3   1  -2   52.32    6.00
   3   1   3    1.24    0.31
   3   1  -3    1.34    0.32
   3  -1   3    1.55    0.39
  -3  -1  -3    1.47    0.33
  -3  -1   3    1.21    0.33
  -3   1  -3    1.24    0.30
   3  -1   4    5.00    0.70
  -3  -1  -4    6.11    0.81
  -3  -1   4    4.52    0.60
  -3   1  -4    6.33    0.83
   3   1   5   51.55    5.97
   3   1  -5   40.01    4.63
  -3  -1  -5   46.97    5.47
  -3   1   5   33.86    3.93
  -3  -1   5   53.09    6.13
  -3   1  -5   47.80    5.54
   3   1   6    1.47    0.34
   3  -1  -6    0.76    0.29
   3   1  -6    1.67    0.36
   3  -1   6    1.27    0.32
  -3   1   6    0.83    0.29
  -3   1  -6    1.04    0.29
   3   1   7    2.47    0.44
   3   1  -7    2.30    0.47
   3  -1   7    3.67    0.58
  -3   1   7    1.63    0.40
  -3   1  -7    3.46    0.55
   3   1   8    0.14    0.23
   3  -1  -8    0.08    0.20
   3   1  -8    0.02    0.21
   3  -1   8    0.13    0.21
  -3  -1  -8    0.15    0.26
   3   1   9    4.16    0.72
   3   1  -9    4.44    0.71
  -3  -1  -9    4.63    0.75
  -3   1   9    2.77    0.48
  -3   1  -9    4.26    0.67
   3   3   0  338.94   38.72
  -3  -3   0  354.16   40.47
   3   3  -1   16.48    1.92
   3  -3   1   18.33    2.14
  -3   3  -1   17.76    2.07
   3  -3   2  199.11   22.76
  -3  -3   2  183.64   21.01
  -3   3  -2  198.00   22.63
   3   3   3    6.56    0.82
   3  -3   3    8.60    1.07
  -3  -3  -3    7.66    0.96
  -3  -3   3    7.99    1.02
   3   3   4   15.32    1.82
  -3  -3   4   24.19    2.83
  -3   3  -4   20.44    2.42
   3   3   5    6.76    0.88
   3   3  -5    8.30    1.03
   3  -3   5    9.58    1.22
  -3  -3  -5    6.89    0.89
  -3   3  -5    9.82    1.23
   3   3   6    4.44    0.61
   3   3  -6    2.65    0.49
  -3  -3  -6    2.72    0.46
  -3  -3   6    2.98    0.51
  -3   3  -6    2.63    0.46
   3   3   7    0.88    0.30
  -3  -3  -7    0.56    0.23
  -3  -3   7    0.50    0.30
  -3   3  -7    0.49    0.25
   3  -3  -8    0.84    0.30
   3   3  -8    0.41    0.25
  -3  -3  -8    0.32    0.22
  -3  -3   8    0.64    0.33
   3   3   9    0.25    0.23
   3  -3  -9    0.38    0.24
   3   3  -9    0.46    0.26
   3  -3   9    0.57    0.24
  -3   3   9    0.40    0.22
  -3  -3   9    0.39    0.30
  -3   3  -9    0.33    0.23
   3   5   0  568.87   64.97
  -3  -5   0  612.30   69.93
   3   5  -1    5.01    0.62
   3  -5   1    5.81    0.75
  -3   5  -1    6.07    0.78
   3  -5   2  205.54   23.50
  -3  -5   2  167.80   19.21
   3   5  -3    2.03    0.38
   3  -5   3    2.06    0.38
  -3  -5   3    2.20    0.40
   3   5  -4    8.07    1.02
   3  -5   4    7.35    0.94
  -3  -5   4    7.51    0.95
  -3   5  -4    7.82    0.99
   3   5  -5    2.27    0.41
   3  -5   5    3.13    0.52
  -3  -5   5    2.21    0.40
  -3   5  -5    3.55    0.53
   3   5  -6   16.50    2.00
   3  -5   6   19.21    2.30
  -3  -5  -6   15.33    1.83
  -3  -5   6   18.64    2.24
   3   5   7    0.58    0.26
   3   5  -7    0.42    0.24
   3  -5   7    0.15    0.23
  -3  -5   7    0.65    0.29
  -3   5  -7    0.45    0.29
   3   5  -8    2.06    0.39
   3  -5   8    1.92    0.39
  -3  -5  -8    1.43    0.34
  -3  -5   8    2.04    0.45
   3   5   9    0.09    0.22
   3   5  -9    0.10    0.21
   3  -5   9    0.24    0.20
  -3  -5   9    0.15    0.22
  -3   5  -9    0.11    0.20
   3   7   0   29.45    3.40
  -3  -7   0   37.73    4.34
   3  -7   1   14.80    1.76
  -3   7  -1   17.26    2.04
   3  -7   3    4.45    0.61
  -3   7  -3    4.44    0.64
   3   7  -4    2.62    0.40
   3  -7   4    2.42    0.40
  -3   7  -4    2.43    0.40
   3   7  -5    8.87    1.12
  -3  -7   5    8.16    1.09
   3   7  -6    1.13    0.35
   3  -7   6    0.79    0.32
  -3  -7   6    0.41    0.30
  -3   7  -6    0.47    0.30
   3   7  -7    1.34    0.33
   3  -7   7    1.19    0.32
  -3  -7   7    1.28    0.32
   3   7  -8    0.07    0.17
   3  -7   8    0.07    0.17
  -3   7  -8    0.06    0.20
   3   7  -9    0.59    0.28
   3  -7   9    0.43    0.23
  -3  -7  -9    0.54    0.26
  -3  -7   9    0.80    0.30
   3   9   0    0.73    0.30
   3   9  -1   45.59    5.25
   3  -9   1   33.23    3.85
  -3  -9   1   41.81    4.83
  -3   9  -1   32.32    3.77
   3  -9   2    0.02    0.32
  -3  -9   2    0.09    0.22
  -3   9  -2   -0.01    0.27
   3  -9   3    1.32    0.30
  -3   9  -3    1.19    0.29
   3   9  -4    0.97    0.26
   3  -9   4    0.91    0.25
  -3   9  -4    0.86    0.27
   3   9  -5   37.72    4.40
  -3  -9   5   45.14    5.26
  -3   9  -5   35.34    4.13
   3   9  -6    0.09    0.22
   3  -9   6    0.19    0.31
  -3  -9   6    0.13    0.27
  -3   9  -6    0.31    0.27
   3   9  -7    2.90    0.47
   3  -9   7    2.43    0.47
  -3  -9   7    3.28    0.54
  -3   9  -7    3.15    0.63
   3   9  -8    0.11    0.17
  -3  -9   8    0.10    0.20
  -3   9  -8    0.19    0.19
   3  11   0    2.82    0.44
   3  11  -1    0.17    0.21
   3 -11   1    0.08    0.24
  -3 -11   1    1.02    0.32
   3 -11   2    0.55    0.24
  -3 -11   2    0.64    0.25
  -3  11  -2    0.35    0.26
   3  11  -3    9.02    1.12
   3 -11   3    8.43    1.06
  -3 -11   3    8.03    1.01
  -3  11  -3    9.20    1.13
   3 -11   4   -0.04    0.25
  -3 -11   4    0.42    0.29
  -3  11  -4    0.01    0.25
   3  11  -5    1.13    0.35
  -3 -11   5    2.29    0.52
  -3  11  -5    2.26    0.47
   3  11  -6    0.39    0.28
   3 -11   6    0.86    0.34
  -3 -11   6    1.88    0.39
  -3  11  -6    0.99    0.34
   3  11  -7    0.82    0.25
  -3 -11   7    0.84    0.26
  -3  11  -7    0.29    0.24
   3  11  -8    0.40    0.22
   3 -11   8    0.28    0.20
  -3 -11   8    0.17    0.18
  -3  11  -8    0.07    0.19
  -3 -13   0   70.98    8.16
   3 -13   1    0.18    0.23
  -3  13  -1    0.21    0.24
   3  13  -2   56.76    6.56
   3 -13   2   56.58    6.53
  -3 -13   2   58.52    6.76
  -3  13  -2   63.38    7.33
   3  13  -3    2.90    0.52
   3 -13   3    3.16    0.53
  -3  13  -3    2.88    0.50
   3  13  -4   11.59    1.45
   3 -13   4   13.22    1.65
  -3 -13   4   12.13    1.52
   3  13  -5    0.16    0.28
   3 -13   5    0.28    0.29
  -3 -13   5    0.39    0.30
  -3  13  -5    0.38    0.30
   3  13  -6    1.48    0.37
  -3 -13   6    1.25    0.31
   3  13  -7    0.25    0.19
   3 -13   7    0.06    0.19
  -3 -13   7    0.04    0.17
  -3  13  -7    0.07    0.21
   3  13  -8    0.98    0.35
  -3 -13   8    1.16    0.33
  -3  13  -8    0.36    0.25
   3  15   0   11.63    1.44
  -3 -15   0   11.02    1.35
   3 -15   1    0.04    0.27
  -3 -15   1    0.80    0.30
  -3  15  -1    0.03    0.29
   3  15  -2    0.75    0.35
   3 -15   2    1.26    0.38
  -3 -15   2    0.08    0.33
  -3  15  -2    1.87    0.49
   3  15  -3    0.50    0.33
  -3 -15   3    0.27    0.31
  -3  15  -3    0.67    0.41
   3  15  -4    1.51    0.39
   3 -15   4    2.24    0.48
  -3 -15   4    1.61    0.39
  -3  15  -4    1.78    0.44
   3  15  -5    0.27    0.21
   3 -15   5    0.04    0.24
  -3  15  -5    0.14    0.26
   3  15  -6    0.29    0.21
  -3  15  -6    0.01    0.21
  -3 -15   7    0.20    0.19
  -3  15  -7    0.56    0.27
  -3 -17   0    1.19    0.37
   3  17  -1    1.88    0.46
  -3 -17   1    2.42    0.55
  -3  17  -1    1.85    0.45
   3  17  -2    0.24    0.33
  -3 -17   2    0.05    0.39
  -3 -17   3    2.75    0.51
  -3  17  -3    2.58    0.51
   3  17  -4    0.25    0.27
  -3 -17   4    0.24    0.24
  -3  17  -4    0.14    0.27
   3  17  -5    7.70    1.02
   3 -17   5    7.68    1.05
  -3 -17   5    7.08    0.96
  -3  17  -5    7.84    1.10
   3  17  -6    0.29    0.20
   3 -17   6    0.29    0.22
  -3 -17   6    0.19    0.21
   3  17  -7    1.27    0.36
   3 -17   7    1.98    0.45
  -3 -17   7    0.97    0.32
  -3  17  -7    1.80    0.47
   3  19   0    0.42    0.28
   3 -19   0    0.44    0.29
  -3 -19   0    0.16    0.24
   3  19  -1    0.13    0.26
  -3 -19   1    0.31    0.26
   3  19  -2    0.58    0.27
  -3 -19   2    1.48    0.39
  -3  19  -2    0.36    0.27
   3  19  -3    1.07    0.34
   3 -19   3    0.48    0.29
  -3 -19   3    1.28    0.35
  -3  19  -3    0.49    0.28
   3  19  -4   -0.19    0.18
   3 -19   4   -0.10    0.25
  -3 -19   4    0.07    0.20
  -3  19  -4    0.33    0.26
   3  19  -5   -0.02    0.19
   3 -19   5    0.35    0.24
  -3  19  -5    0.60    0.29
   3  19  -6    0.13    0.18
   3 -19   6    0.12    0.23
  -3  19  -6    0.14    0.22
   3  21   0    2.70    0.46
   3 -21   0    2.87    0.49
   3  21  -1    0.28    0.25
   3 -21   1    0.32    0.24
  -3  21  -1    0.36    0.28
   3  21  -2    2.02    0.40
   3 -21   2    1.76    0.38
  -3 -21   2    1.17    0.33
  -3  21  -2    1.87    0.41
   3  21  -3    0.54    0.30
   3 -21   3    0.13    0.25
  -3 -21   3    0.21    0.27
  -3  21  -3    0.23    0.25
   3  21  -4    0.35    0.26
  -3 -21   4    0.60    0.28
  -3  21  -4    0.38    0.28
   3  21  -5    0.53    0.29
   3 -21   5    0.38    0.25
  -3 -21   5    0.23    0.21
  -3  21  -5    0.05    0.21
   3  23   0    1.24    0.34
   3 -23   0    0.91    0.32
   3  23  -1    0.10    0.24
   3 -23   1   -0.09    0.19
  -3 -23   1    0.20    0.24
  -3  23  -1    0.18    0.25
  -3 -23   2    0.59    0.28
  -3  23  -2    0.13    0.25
   3  23  -3    0.06    0.27
   3 -23   3    0.11    0.23
  -3 -23   3    0.15    0.24
   3  23  -4    0.02    0.21
   3 -23   4    0.02    0.23
  -3 -23   4    0.22    0.22
  -3  23  -4   -0.06    0.25
   3  25   0    0.24    0.22
   3 -25   0    0.36    0.25
  -3 -25   0   -0.17    0.15
   3  25  -1    0.15    0.23
  -3 -25   1    0.00    0.20
  -3  25  -1   -0.08    0.22
   3  25  -2    0.13    0.23
   3 -25   2    0.20    0.25
  -3 -25   2    0.31    0.23
   4   0   2  316.30   36.15
  -4   0  -2  238.71   27.27
   4   0   4  197.38   22.60
  -4   0  -4  174.73   20.01
   4   0  -6   50.37    5.83
   4   0   6   55.82    6.44
  -4   0   6   57.43    6.66
  -4   0  -6   63.59    7.34
   4   0  -8    0.42    0.23
   4   0   8    0.22    0.23
  -4   0   8    0.18    0.21
  -4   0  -8    0.11    0.20
   4   2   0   41.28    4.74
  -4  -2   0   37.88    4.35
   4   2   1   16.10    1.86
   4   2  -1   16.78    1.94
   4  -2   1   14.06    1.65
  -4  -2  -1   16.10    1.86
  -4  -2   1   14.49    1.69
  -4   2  -1   14.34    1.69
   4   2  -2   16.22    1.91
   4  -2   2   17.54    2.04
  -4  -2   2   17.54    2.06
  -4   2  -2   19.55    2.27
   4   2  -3    2.84    0.51
   4  -2   3    2.87    0.47
  -4  -2  -3    1.61    0.35
  -4  -2   3    1.64    0.38
  -4   2  -3    2.38    0.40
   4   2   4    4.09    0.60
   4  -2   4    2.66    0.46
  -4  -2  -4    2.16    0.39
  -4  -2   4    2.46    0.41
  -4   2  -4    2.08    0.39
   4   2  -5    2.60    0.47
   4  -2   5    0.99    0.32
  -4  -2  -5    1.57    0.36
  -4  -2   5    1.87    0.38
   4   2   6    1.91    0.37
   4   2  -6    2.67    0.52
   4  -2   6    1.88    0.37
  -4  -2  -6    3.63    0.54
   4   2   7    0.74    0.26
   4  -2  -7    0.22    0.28
   4   2  -7    0.42    0.31
   4  -2   7    0.57    0.25
  -4  -2  -7    0.35    0.24
  -4  -2   7    0.49    0.30
  -4   2  -7    0.55    0.27
   4   2   8    0.35    0.25
   4  -2  -8    0.60    0.31
   4   2  -8    0.71    0.29
   4  -2   8    0.96    0.33
  -4  -2  -8    0.73    0.29
  -4   2   8    0.65    0.26
  -4  -2   8    0.67    0.27
  -4   2  -8    1.29    0.33
   4   2   9    0.19    0.25
   4  -2  -9    0.21    0.22
   4   2  -9    0.17    0.23
   4  -2   9    0.02    0.19
  -4  -2  -9    0.17    0.25
  -4   2   9    0.12    0.22
  -4  -2   9    0.22    0.24
  -4   2  -9    0.02    0.21
   4   4   0  128.20   14.65
  -4  -4   0  162.23   18.54
   4  -4   1   10.95    1.31
  -4   4  -1   10.52    1.26
   4   4  -2    2.21    0.37
   4  -4   2    1.20    0.29
  -4  -4   2    2.15    0.41
  -4   4  -2    1.59    0.31
   4   4  -3  120.79   13.86
  -4  -4   3  136.00   15.60
  -4   4  -3  128.82   14.75
   4   4   4    1.29    0.29
   4  -4   4    2.45    0.42
  -4  -4   4    2.22    0.39
  -4   4  -4    2.79    0.49
   4   4   5    8.66    1.08
   4   4  -5    8.62    1.08
   4  -4   5   10.23    1.27
  -4  -4  -5    8.48    1.06
  -4  -4   5   10.77    1.34
   4   4   6    0.66    0.27
   4   4  -6    1.17    0.35
  -4  -4  -6    1.07    0.29
  -4  -4   6    0.96    0.33
  -4   4  -6    1.05    0.30
   4   4   7    0.64    0.24
   4   4  -7    0.90    0.29
   4  -4   7    0.61    0.27
  -4  -4  -7    0.52    0.25
  -4  -4   7    0.91    0.33
  -4   4  -7    0.38    0.25
   4   4   8    0.09    0.19
   4   4  -8    0.03    0.18
  -4  -4  -8    0.04    0.17
  -4  -4   8    0.22    0.21
  -4   4  -8    0.20    0.20
   4   4   9    0.39    0.25
   4  -4   9    0.36    0.24
  -4  -4  -9    0.30    0.23
  -4  -4   9    0.47    0.27
   4   6   0    4.53    0.58
  -4  -6   0    3.86    0.51
   4  -6   1    8.70    1.07
  -4   6  -1    7.62    0.95
   4  -6   2    0.85    0.29
  -4   6  -2    0.57    0.27
   4   6  -3   16.62    1.97
   4  -6   3   14.83    1.78
  -4  -6   3   17.39    2.05
  -4   6  -3   15.06    1.80
   4   6  -4    0.51    0.22
   4  -6   4    0.57    0.24
  -4  -6   4    0.26    0.23
  -4   6  -4    0.83    0.29
   4   6  -5    7.41    0.96
   4  -6   5    6.12    0.82
  -4  -6   5    8.62    1.12
  -4   6  -5    8.22    1.04
   4   6  -6    0.89    0.32
   4  -6   6    1.89    0.40
  -4  -6   6    1.49    0.39
  -4   6  -6    1.86    0.43
  -4  -6  -7    1.34    0.31
  -4   6  -7    1.09    0.30
   4   6   8    0.22    0.20
   4   6  -8    0.12    0.15
   4  -6   8    0.11    0.17
  -4  -6  -8    0.13    0.23
  -4  -6   8    0.10    0.19
  -4   6  -8    0.22    0.19
   4   6   9    0.42    0.24
   4   6  -9    0.34    0.26
   4  -6   9    0.00    0.23
  -4  -6  -9    0.17    0.21
  -4  -6   9    0.24    0.28
  -4   6  -9    0.15    0.20
   4   8   0   52.89    6.07
  -4  -8   0   50.07    5.75
   4   8  -1    0.48    0.24
   4  -8   1    0.83    0.29
  -4  -8   1    0.54    0.23
  -4   8  -1    1.45    0.40
   4  -8   2   59.67    6.88
  -4  -8   2   58.20    6.69
  -4   8  -2   54.04    6.26
   4   8  -3    9.71    1.19
   4  -8   3   12.71    1.56
  -4  -8   3   10.55    1.28
  -4   8  -3   13.64    1.64
   4  -8   4    2.32    0.39
  -4  -8   4    2.75    0.44
  -4   8  -4    2.11    0.37
   4   8  -5    0.08    0.28
   4  -8   5    0.62    0.30
  -4  -8   5    0.29    0.28
   4   8  -6    0.47    0.33
   4  -8   6    0.92    0.31
  -4  -8   6    0.19    0.27
   4  -8   7    0.28    0.27
  -4  -8   7    0.28    0.19
  -4   8  -7    0.32    0.26
   4   8  -8    0.75    0.26
   4  -8   8    0.01    0.16
  -4  -8   8    0.38    0.21
  -4   8  -8    0.04    0.17
   4   8  -9    0.21    0.23
   4  -8   9    0.08    0.21
  -4  -8   9    0.15    0.24
  -4   8  -9    0.03    0.19
   4  10   0   17.30    2.01
  -4 -10   0   19.28    2.24
   4  10  -1    0.19    0.22
   4 -10   1    0.20    0.27
   4  10  -2    1.41    0.27
   4 -10   2    1.32    0.32
  -4 -10   2    1.03    0.29
  -4  10  -2    1.30    0.32
   4 -10   3   -0.09    0.29
  -4 -10   3    0.77    0.25
  -4  10  -3    0.29    0.25
   4 -10   4    2.02    0.39
  -4 -10   4    1.16    0.31
  -4  10  -4    1.95    0.40
   4  10  -5    0.16    0.29
   4 -10   5    0.16    0.31
  -4 -10   5    1.70    0.43
  -4  10  -5    0.22    0.32
   4  10  -6    3.58    0.57
   4 -10   6    3.41    0.57
  -4 -10   6    3.83    0.59
   4 -10   7    0.29    0.22
  -4 -10   7   -0.08    0.17
  -4  10  -7    0.33    0.25
   4 -10   8    1.02    0.28
  -4 -10   8    0.38    0.20
   4  12   0    1.33    0.28
   4  12  -1    1.59    0.29
   4 -12   1    1.19    0.29
  -4  12  -1    1.40    0.32
   4 -12   2    6.77    0.88
  -4 -12   2    6.20    0.79
   4  12  -3   17.93    2.14
   4 -12   3   20.68    2.46
  -4 -12   3   21.74    2.59
   4  12  -4    3.05    0.54
   4 -12   4    3.35    0.59
  -4  12  -4    3.43    0.59
   4  12  -5    0.39    0.30
   4 -12   5    0.28    0.29
  -4 -12   5    0.32    0.29
   4  12  -6    0.04    0.19
   4 -12   6    0.27    0.26
  -4 -12   6    0.54    0.24
  -4  12  -6    0.05    0.23
   4 -12   7    0.99    0.29
  -4 -12   7    1.11    0.29
   4  12  -8    0.06    0.19
   4 -12   8    0.08    0.17
  -4  12  -8   -0.10    0.18
   4  14   0    0.21    0.27
   4 -14   1    2.73    0.45
  -4  14  -1    4.25    0.60
   4 -14   2    1.32    0.36
  -4 -14   2    1.34    0.36
   4  14  -3   34.08    4.02
   4 -14   3   43.78    5.14
  -4 -14   3   36.37    4.26
  -4  14  -3   44.67    5.23
   4  14  -4    0.67    0.32
   4 -14   4    0.81    0.37
  -4  14  -4    0.88    0.40
   4  14  -5    0.08    0.24
  -4 -14   5    0.00    0.23
  -4  14  -5    0.17    0.27
   4  14  -6    0.05    0.17
   4 -14   6    0.15    0.19
  -4 -14   6    0.02    0.17
  -4  14  -6    0.03    0.21
   4  14  -7    1.89    0.39
   4 -14   7    1.87    0.41
  -4  14  -7    1.42    0.37
   4  16   0    7.86    1.06
  -4 -16   0    4.81    0.69
   4 -16   1    1.24    0.38
  -4 -16   1    0.98    0.33
  -4  16  -1    1.23    0.38
  -4 -16   2   17.36    2.11
  -4  16  -2   16.24    2.03
   4  16  -3    0.44    0.28
  -4  16  -3    0.59    0.39
   4  16  -4    3.36    0.55
  -4 -16   4    2.72    0.52
  -4  16  -4    2.49    0.52
   4 -16   5    0.13    0.25
  -4 -16   5    0.04    0.22
  -4 -16   6    0.57    0.25
  -4  16  -6    0.31    0.25
   4  16  -7   -0.05    0.18
   4 -16   7    0.19    0.22
  -4 -16   7    0.05    0.19
   4  18   0    8.82    1.14
  -4 -18   0   12.73    1.56
   4 -18   1    0.91    0.34
   4  18  -2    0.83    0.31
  -4  18  -2    0.62    0.33
   4  18  -3    0.55    0.30
   4 -18   3    0.24    0.31
  -4 -18   3    0.42    0.24
  -4  18  -3    0.75    0.35
   4  18  -4    0.27    0.25
  -4 -18   4    0.20    0.22
  -4  18  -4    0.39    0.29
   4  18  -5    0.23    0.21
   4 -18   5    0.01    0.23
  -4 -18   5    0.22    0.26
  -4  18  -5    0.28    0.27
   4  18  -6    0.13    0.20
   4 -18   6    0.07    0.20
  -4 -18   6    0.06    0.21
  -4 -20   0    1.63    0.34
   4 -20   1   -0.13    0.22
  -4 -20   1    0.06    0.22
  -4  20  -1    0.31    0.25
   4  20  -2    1.12    0.29
   4 -20   2    0.89    0.30
  -4 -20   2    0.99    0.33
  -4  20  -2    0.49    0.31
   4  20  -3    0.04    0.21
   4 -20   3    0.43    0.27
  -4 -20   3    0.13    0.23
  -4  20  -3    0.25    0.24
   4  20  -4    0.35    0.23
   4 -20   4    1.13    0.42
  -4 -20   4    0.26    0.21
  -4  20  -4    1.23    0.40
   4  20  -5    0.29    0.26
   4 -20   5   -0.08    0.23
  -4 -20   5   -0.10    0.21
  -4  20  -5    0.12    0.24
   4 -22   0    0.11    0.28
  -4 -22   0   -0.11    0.19
   4  22  -1    0.19    0.25
   4 -22   1    0.10    0.23
  -4 -22   1   -0.33    0.25
  -4  22  -1    0.21    0.25
   4  22  -2    0.00    0.20
  -4 -22   2    0.68    0.28
  -4  22  -2    0.15    0.25
   4  22  -3    0.56    0.30
   4 -22   3    0.50    0.30
  -4 -22   3    0.98    0.34
   4  22  -4   -0.05    0.19
   4 -22   4    0.07    0.23
  -4 -22   4    0.02    0.19
  -4  22  -4   -0.02    0.22
   4  24   0    0.16    0.23
   4 -24   0    0.40    0.27
  -4 -24   0    0.02    0.20
   4  24  -1    0.59    0.30
  -4 -24   1    0.38    0.27
  -4  24  -1    0.17    0.24
   4  24  -2    0.54    0.27
   4 -24   2    0.20    0.23
  -4 -24   2    1.14    0.32
  -4  24  -2   -0.11    0.30
   4  24  -3    0.29    0.27
   4 -24   3    0.28    0.27
  -4 -24   3    0.37    0.29
  -4  24  -3    0.37    0.27
   5   1   1  427.55   48.83
  -5  -1  -1  489.54   55.92
   5  -1   2   47.77    5.49
  -5   1  -2   54.16    6.22
   5   1   3   36.73    4.24
   5   1  -3   37.57    4.36
   5  -1   3   32.15    3.73
  -5  -1  -3   32.99    3.83
  -5  -1   3   46.91    5.42
  -5   1  -3   28.19    3.28
   5   1   4    1.87    0.36
   5  -1   4    2.12    0.39
  -5  -1  -4    2.38    0.39
  -5  -1   4    1.70    0.33
  -5   1  -4    1.90    0.36
   5   1   5  163.84   18.77
   5   1  -5  130.06   14.91
   5  -1   5  168.92   19.35
  -5  -1   5  117.71   13.50
  -5   1  -5  154.68   17.73
   5  -1  -6    0.51    0.28
   5  -1   6    1.35    0.31
  -5  -1  -6    1.70    0.37
  -5  -1   6    0.67    0.28
  -5   1  -6    1.04    0.29
   5   1   7    1.08    0.31
   5   1  -7    0.70    0.27
  -5  -1  -7    1.12    0.30
  -5  -1   7    1.03    0.31
   5   1   8    0.08    0.20
   5  -1  -8    0.20    0.22
   5   1  -8   -0.02    0.18
   5  -1   8    0.12    0.21
  -5   1  -8    0.20    0.23
   5   1  -9    2.22    0.49
  -5  -1  -9    3.22    0.61
  -5   1   9    2.46    0.49
  -5  -1   9    2.92    0.57
  -5   1  -9    2.57    0.50
   5   3   0  431.38   49.47
  -5  -3   0  424.33   48.62
   5   3  -1    1.31    0.23
   5  -3   1    1.56    0.35
  -5  -3   1    1.91    0.28
  -5   3  -1    1.56    0.33
   5   3   2   56.19    6.45
   5   3  -2   59.51    6.83
   5  -3   2   54.66    6.28
  -5  -3  -2   44.19    5.08
  -5   3  -2   54.46    6.26
   5   3   3   27.48    3.19
   5  -3   3   33.73    3.91
  -5  -3  -3   28.10    3.27
  -5  -3   3   30.63    3.57
  -5   3  -3   30.12    3.50
   5   3   4   66.30    7.63
  -5  -3  -4   57.64    6.64
  -5  -3   4   69.09    7.95
  -5   3  -4   66.80    7.70
   5   3  -5    7.60    1.00
   5  -3   5    7.30    0.97
  -5  -3  -5    6.43    0.83
  -5  -3   5    6.33    0.85
  -5   3  -5    6.88    0.90
   5   3  -6    0.53    0.30
   5  -3   6    1.18    0.31
  -5  -3  -6    0.47    0.27
  -5  -3   6    0.34    0.30
   5   3   7    0.79    0.30
   5   3  -7    1.28    0.34
   5  -3   7    0.84    0.27
  -5  -3  -7    1.10    0.31
  -5  -3   7    1.27    0.36
  -5   3  -7    1.20    0.35
   5   3   8    0.28    0.25
   5   3  -8    0.31    0.21
   5  -3   8    0.18    0.20
  -5  -3  -8    0.63    0.30
  -5   3  -8    0.21    0.22
   5   3   9    0.27    0.28
   5  -3  -9    0.21    0.21
   5   3  -9    0.21    0.24
   5  -3   9    0.13    0.20
  -5   3  -9    0.15    0.23
   5   5   0   93.49   10.69
  -5  -5   0   79.33    9.07
   5  -5   1   10.18    1.23
  -5   5  -1   11.24    1.35
   5   5  -2   27.71    3.21
  -5   5  -2   29.17    3.39
   5  -5   3    2.82    0.45
  -5  -5   3    3.30    0.50
  -5   5  -3    2.96    0.49
   5   5  -4   15.30    1.84
   5  -5   4   11.05    1.37
  -5  -5   4    8.57    1.07
  -5   5  -4    9.39    1.17
   5   5   5    1.68    0.34
   5  -5   5    2.68    0.45
  -5  -5   5    2.70    0.48
  -5   5  -5    2.00    0.39
   5   5   6    0.65    0.32
   5   5  -6    0.85    0.32
   5  -5   6    1.00    0.30
  -5  -5  -6    1.12    0.31
  -5  -5   6    1.25    0.41
  -5   5  -6    1.37    0.32
   5   5   7    0.41    0.23
   5  -5   7    0.12    0.21
  -5  -5  -7    0.24    0.19
  -5  -5   7    0.66    0.25
   5   5  -8    0.90    0.25
   5  -5   8    0.66    0.26
  -5  -5  -8    0.88    0.26
  -5   5  -8    0.88    0.33
   5   5   9    0.13    0.20
   5   5  -9    0.04    0.22
   5  -5   9    0.19    0.23
  -5  -5   9    0.12    0.24
  -5   5  -9    0.10    0.20
   5   7   0   50.43    5.78
  -5  -7   0   56.86    6.52
   5   7  -1    0.61    0.20
   5  -7   1    1.82    0.42
  -5  -7   1    0.70    0.21
  -5   7  -1    1.44    0.37
   5  -7   2    3.27    0.53
  -5   7  -2    2.47    0.46
   5  -7   3   30.23    3.54
  -5  -7   3   24.23    2.83
  -5   7  -3   29.04    3.41
   5   7  -4   11.83    1.44
   5  -7   4   13.38    1.63
  -5   7  -4   11.13    1.36
   5  -7   5    3.05    0.52
  -5  -7   5    2.15    0.45
  -5   7  -5    1.27    0.32
  -5  -7   6    2.68    0.50
  -5   7  -6    1.84    0.37
   5   7  -7    3.63    0.55
   5  -7   7    3.04    0.52
  -5  -7   7    3.77    0.56
  -5   7  -7    3.02    0.55
   5   7  -8    0.69    0.24
   5  -7   8    0.35    0.20
  -5  -7  -8    0.46    0.22
   5   7   9    0.24    0.22
   5   7  -9    0.03    0.20
   5  -7   9   -0.08    0.19
  -5  -7  -9   -0.08    0.23
  -5  -7   9    0.04    0.21
   5   9   0    3.21    0.44
  -5  -9   0    3.09    0.43
   5   9  -1   38.23    4.40
   5  -9   1   30.01    3.50
  -5  -9   1   33.97    3.93
  -5   9  -1   34.11    3.98
   5   9  -2    3.70    0.49
   5  -9   2    4.11    0.60
  -5   9  -2    3.82    0.59
   5  -9   3   98.68   11.34
  -5   9  -3   98.37   11.32
   5   9  -4    0.55    0.24
  -5   9  -4    0.02    0.25
   5   9  -5   53.82    6.26
   5  -9   5   58.31    6.75
  -5  -9   5   43.40    5.07
  -5   9  -5   59.55    6.89
   5   9  -6    0.11    0.23
  -5  -9   6    0.24    0.27
  -5   9  -6    0.41    0.27
   5   9  -7    9.28    1.19
   5  -9   7    7.74    1.04
  -5  -9   7    9.18    1.18
   5   9  -8    0.19    0.17
  -5  -9   8    0.06    0.19
  -5   9  -8    0.32    0.21
   5  11   0    3.49    0.47
  -5 -11   0    4.59    0.60
   5  11  -1    9.95    1.20
   5 -11   1    7.49    0.95
  -5 -11   1    8.98    1.09
  -5  11  -1    6.68    0.86
   5  11  -2   -0.05    0.20
   5 -11   2    0.44    0.28
   5 -11   3    7.73    1.00
  -5  11  -3    7.68    1.00
   5 -11   4    0.63    0.38
  -5  11  -4    0.98    0.35
   5  11  -5    1.63    0.38
   5 -11   5    0.76    0.38
  -5  11  -5    0.86    0.33
   5  11  -6    0.24    0.21
   5 -11   6    0.44    0.26
  -5  11  -6    0.57    0.28
   5  11  -7    1.17    0.30
  -5 -11   7    1.18    0.29
  -5  11  -7    1.03    0.31
   5  11  -8    0.09    0.19
   5 -11   8    0.50    0.23
  -5 -11   8    0.07    0.19
  -5  11  -8    0.51    0.24
   5  13   0  130.31   14.91
  -5 -13   0  136.37   15.62
   5  13  -1    3.72    0.50
  -5 -13   1    3.62    0.53
  -5  13  -1    3.54    0.54
   5  13  -2    4.57    0.61
   5 -13   2    3.27    0.52
  -5 -13   2    4.69    0.66
   5 -13   3    8.63    1.15
  -5 -13   3    8.66    1.11
  -5  13  -3    8.81    1.18
   5 -13   4   54.75    6.37
  -5 -13   4   57.07    6.62
   5  13  -5    0.59    0.27
   5 -13   5    0.61    0.30
  -5  13  -5    0.37    0.30
   5  13  -6    1.70    0.36
   5 -13   6    1.13    0.33
   5  13  -7    0.18    0.19
   5 -13   7   -0.02    0.18
  -5 -13   7    0.31    0.22
  -5  13  -7    0.33    0.22
   5  13  -8    0.39    0.24
  -5 -13   8    0.12    0.20
  -5  13  -8    0.03    0.18
   5  15   0    1.40    0.32
  -5 -15   0    1.05    0.32
   5 -15   1    0.18    0.32
  -5  15  -1   -0.07    0.30
   5 -15   2   16.61    2.04
  -5  15  -2   15.63    1.97
   5 -15   3    0.68    0.41
  -5 -15   3    0.34    0.28
  -5  15  -3    0.57    0.40
   5  15  -4    1.04    0.38
   5 -15   4    1.54    0.41
  -5 -15   4    1.08    0.31
  -5  15  -4    1.22    0.40
   5  15  -5    0.79    0.29
   5 -15   5   -0.04    0.29
  -5 -15   5   -0.06    0.25
  -5  15  -5    0.15    0.27
   5  15  -6    0.32    0.21
   5 -15   6    0.91    0.30
  -5 -15   6    1.06    0.33
  -5  15  -6    1.06    0.34
   5  15  -7    0.18    0.26
  -5 -15   7    0.33    0.22
  -5  15  -7    0.26    0.22
   5  17   0    0.36    0.32
   5  17  -1    4.30    0.66
   5 -17   1    1.99    0.46
  -5  17  -1    2.71    0.61
   5  17  -2    0.38    0.28
  -5 -17   2    0.30    0.32
  -5  17  -2    0.57    0.36
   5 -17   3   11.20    1.46
  -5 -17   3   12.21    1.53
  -5  17  -3   11.93    1.54
   5  17  -4    0.66    0.29
   5 -17   4    0.81    0.37
  -5 -17   4    0.73    0.32
  -5  17  -4    0.64    0.35
   5  17  -5    6.06    0.84
   5 -17   5    9.04    1.21
  -5 -17   5    6.97    0.96
   5  17  -6    0.07    0.20
  -5 -17   6    0.24    0.22
  -5  17  -6    0.01    0.23
   5  19   0   -0.02    0.28
   5  19  -1    0.63    0.24
   5 -19   1    0.06    0.25
  -5 -19   1    0.57    0.30
  -5  19  -1    1.14    0.37
   5 -19   2    0.03    0.25
  -5  19  -2    0.03    0.29
   5  19  -3    2.55    0.47
   5 -19   3    2.04    0.46
  -5 -19   3    2.73    0.46
  -5  19  -3    1.78    0.45
   5  19  -4    0.15    0.21
   5 -19   4    0.27    0.30
  -5 -19   4    0.07    0.20
  -5  19  -4    0.27    0.31
   5 -19   5    0.49    0.27
  -5 -19   5    0.26    0.26
   5  19  -6   -0.08    0.19
   5 -19   6   -0.03    0.20
   5  21   0    0.83    0.30
  -5 -21   0    1.27    0.31
   5  21  -1    0.50    0.24
  -5 -21   1    0.83    0.27
  -5  21  -1    0.32    0.26
  -5 -21   2    3.93    0.64
  -5  21  -2    2.63    0.54
   5  21  -3    0.51    0.25
   5 -21   3    0.00    0.25
  -5 -21   3    0.28    0.23
  -5  21  -3   -0.06    0.24
   5  21  -4    0.20    0.21
   5 -21   4    0.62    0.33
  -5 -21   4    0.24    0.23
  -5  21  -4    0.37    0.31
   5  21  -5    0.46    0.25
   5 -21   5    0.68    0.31
  -5 -21   5    0.78    0.29
   5  23   0    1.20    0.33
  -5 -23   0    2.21    0.42
   5 -23   1    0.01    0.24
  -5 -23   1   -0.07    0.24
  -5  23  -1    0.01    0.27
   5  23  -2    0.14    0.22
   5 -23   2    0.32    0.31
  -5 -23   2    0.30    0.26
  -5  23  -2    0.32    0.34
   5  23  -3    0.13    0.20
   5 -23   3    0.10    0.23
  -5 -23   3   -0.05    0.20
  -5  23  -3    0.12    0.22
   5 -25   0    0.13    0.27
  -5 -25   0    0.53    0.24
   5 -25   1    0.13    0.24
  -5 -25   1    0.14    0.25
   6   0   4   25.18    2.94
  -6   0  -4   24.84    2.92
   6   0   6   14.87    1.83
  -6   0   6    8.74    1.11
  -6   0  -6   11.21    1.38
   6   0  -8    1.45    0.33
   6   0   8    2.04    0.45
  -6   0   8    1.74    0.35
  -6   0  -8    2.37    0.44
   6   2   1   34.44    3.95
   6  -2   1   34.33    3.97
   6   2   2   20.05    2.34
   6   2  -2   15.74    1.85
   6  -2   2   21.80    2.53
  -6  -2  -2   17.97    2.09
  -6   2  -2   18.92    2.22
   6  -2   3   10.56    1.27
  -6  -2  -3   12.16    1.45
  -6   2  -3   14.05    1.68
   6   2   4    9.57    1.18
   6  -2   4    8.79    1.09
  -6  -2  -4    9.55    1.16
  -6  -2   4    7.56    0.95
  -6   2  -4    8.37    1.04
   6   2   5    4.80    0.67
   6   2  -5    6.02    0.80
   6  -2   5    4.99    0.69
  -6  -2  -5    5.38    0.73
  -6   2  -5    5.69    0.76
   6   2   6    1.53    0.37
   6   2  -6    0.68    0.29
   6  -2   6    1.03    0.32
  -6  -2  -6    0.67    0.33
  -6  -2   6    1.23    0.34
  -6   2  -6    0.95    0.29
   6  -2   7    0.08    0.19
  -6  -2  -7    0.19    0.23
  -6  -2   7    0.69    0.25
  -6   2  -7    0.02    0.19
   6   2   8    0.26    0.22
   6  -2  -8    0.09    0.19
   6   2  -8    0.21    0.18
  -6  -2  -8    0.19    0.21
  -6  -2   8    0.11    0.16
  -6   2  -8    0.23    0.20
   6   2   9    0.23    0.24
   6  -2  -9    0.41    0.24
   6   2  -9    0.19    0.22
   6  -2   9    0.15    0.22
  -6  -2  -9    0.26    0.25
  -6  -2   9    0.27    0.24
  -6   2  -9    0.20    0.25
   6   4   0    4.14    0.49
  -6  -4   0    4.79    0.56
   6   4  -1   55.92    6.41
   6  -4   1   37.05    4.28
  -6   4  -1   37.67    4.34
   6   4  -2    1.07    0.25
   6  -4   2    0.68    0.26
  -6  -4   2    0.46    0.25
  -6   4  -2    0.86    0.28
   6   4  -3    4.97    0.64
   6  -4   3    4.04    0.57
  -6   4  -3    5.28    0.70
   6   4   4    0.40    0.19
  -6  -4  -4   -0.02    0.20
  -6  -4   4    0.13    0.23
   6   4  -5   49.65    5.76
   6  -4   5   45.14    5.25
  -6  -4  -5   44.60    5.16
  -6  -4   5   44.14    5.16
  -6   4  -5   37.36    4.34
   6   4   6    0.23    0.26
   6   4  -6    0.32    0.30
   6  -4   6    0.11    0.21
  -6  -4   6    0.37    0.37
   6   4   7    1.16    0.30
   6   4  -7    0.65    0.25
  -6  -4  -7    0.58    0.27
  -6  -4   7    0.44    0.23
  -6   4  -7    0.31    0.21
   6   4   8    0.14    0.17
   6   4  -8    0.00    0.18
  -6  -4  -8    0.13    0.18
  -6  -4   8    0.11    0.17
  -6   4  -8    0.12    0.18
   6   4   9    1.94    0.42
   6   4  -9    1.93    0.48
   6  -4   9    2.36    0.52
  -6  -4  -9    2.31    0.47
  -6  -4   9    2.48    0.50
   6   6   0   24.87    2.86
  -6  -6   0   35.48    4.07
   6   6  -1   39.75    4.57
  -6  -6   1   39.74    4.56
  -6   6  -1   43.86    5.07
   6   6  -2    0.43    0.22
   6  -6   2    0.28    0.26
  -6  -6   2    0.42    0.18
  -6   6  -2   -0.07    0.29
   6   6  -3   11.13    1.33
   6  -6   3   11.23    1.41
  -6  -6   3   11.39    1.38
  -6   6  -3   10.70    1.32
   6   6  -4    1.16    0.28
   6  -6   4    1.97    0.38
  -6  -6   4    2.15    0.38
  -6   6  -4    1.33    0.33
   6   6  -5   14.16    1.73
   6  -6   5   11.89    1.45
  -6  -6   5   12.97    1.60
  -6   6  -5   14.81    1.79
   6   6   6    0.28    0.25
   6  -6   6    0.09    0.20
  -6  -6   6    0.09    0.29
  -6   6  -6    0.10    0.22
   6   6  -7    1.15    0.28
  -6  -6  -7    0.88    0.26
  -6  -6   7    1.52    0.36
  -6   6  -7    0.78    0.26
   6   6   8    0.14    0.20
   6   6  -8    0.07    0.16
   6  -6   8    0.31    0.22
  -6  -6  -8    0.14    0.19
  -6  -6   8    0.19    0.19
  -6   6  -8    0.04    0.19
   6   6   9    1.15    0.35
   6  -6   9    0.82    0.33
  -6  -6  -9    0.99    0.30
  -6  -6   9    0.82    0.39
  -6   6  -9    0.85    0.32
   6   8   0  224.60   25.67
  -6  -8   0  252.82   28.90
   6   8  -1    0.29    0.20
   6  -8   1    0.37    0.34
  -6  -8   1    0.62    0.19
  -6   8  -1    0.54    0.37
   6   8  -2   15.15    1.77
   6  -8   2   20.34    2.45
  -6   8  -2   16.42    1.97
   6   8  -3    4.95    0.64
   6  -8   3    4.69    0.68
  -6   8  -3    5.03    0.71
   6   8  -4   65.20    7.53
   6  -8   4   70.61    8.14
  -6  -8   4   69.87    8.05
  -6   8  -4   69.61    8.03
   6   8  -5    0.34    0.30
   6  -8   5    0.92    0.36
  -6   8  -5    0.46    0.29
   6   8  -6    2.72    0.48
   6  -8   6    2.29    0.42
  -6   8  -6    1.75    0.37
   6   8  -7    0.88    0.25
  -6  -8   7    0.98    0.31
  -6   8  -7    0.81    0.29
   6   8  -8    0.83    0.27
   6  -8   8    1.37    0.34
  -6  -8   8    1.19    0.30
  -6   8  -8    1.21    0.33
   6  10  -1    1.12    0.25
   6 -10   1    1.22    0.33
  -6 -10   1    1.30    0.26
   6  10  -2    0.67    0.18
   6 -10   2    0.71    0.29
  -6 -10   2    1.16    0.23
  -6  10  -2    0.53    0.32
   6 -10   3    0.33    0.28
  -6 -10   3    0.63    0.25
  -6  10  -3    0.13    0.28
   6 -10   4    1.53    0.37
  -6  10  -4    0.78    0.33
   6  10  -5    0.94    0.33
   6 -10   5    0.75    0.31
  -6 -10   5    0.71    0.31
  -6  10  -5    0.72    0.30
   6 -10   6    0.26    0.23
  -6 -10   6    0.78    0.27
  -6  10  -6    0.62    0.30
   6  10  -7    0.04    0.19
   6 -10   7    0.07    0.18
  -6 -10   7    0.17    0.22
  -6  10  -7    0.05    0.20
   6 -10   8    0.27    0.20
  -6 -10   8   -0.02    0.17
   6  12   0   30.89    3.56
  -6 -12   0   30.97    3.59
   6  12  -1    2.43    0.37
  -6 -12   1    2.59    0.39
  -6  12  -1    1.86    0.38
   6  12  -2    8.37    1.02
   6 -12   2    9.23    1.17
  -6 -12   2    8.12    1.00
   6  12  -3    6.05    0.81
   6 -12   3    7.36    1.00
  -6 -12   3    7.01    0.91
  -6  12  -3    8.50    1.17
   6 -12   4   13.81    1.71
  -6 -12   4   10.18    1.29
  -6  12  -4   12.57    1.59
   6  12  -5    1.00    0.32
   6 -12   5    0.26    0.27
  -6 -12   5    0.28    0.29
   6  12  -6    2.79    0.51
   6 -12   6    2.76    0.51
  -6 -12   6    2.26    0.43
  -6  12  -6    3.27    0.58
   6  12  -7    1.36    0.36
   6 -12   7    1.05    0.29
  -6 -12   7    0.73    0.29
   6  12  -8    0.61    0.27
   6 -12   8    0.14    0.19
  -6 -12   8    0.23    0.25
  -6  12  -8    0.13    0.19
   6  14   0    0.24    0.22
  -6 -14   0    0.05    0.23
   6  14  -1    8.62    1.07
  -6 -14   1    6.59    0.86
  -6  14  -1    8.49    1.13
   6 -14   2   11.63    1.48
  -6  14  -2   11.96    1.54
   6  14  -3   11.31    1.39
   6 -14   3   12.93    1.65
  -6 -14   3   12.23    1.52
  -6  14  -3   13.70    1.73
   6  14  -4   -0.15    0.23
   6 -14   4    0.55    0.35
  -6 -14   4   -0.14    0.23
  -6  14  -4    0.35    0.34
   6 -14   5    0.35    0.31
  -6 -14   5    0.61    0.25
  -6  14  -5    0.38    0.30
   6  14  -6    0.18    0.19
   6 -14   6    0.09    0.20
  -6 -14   6    0.25    0.22
  -6  14  -6    0.36    0.24
   6  14  -7    1.16    0.32
   6 -14   7    0.78    0.26
  -6  14  -7    0.71    0.27
   6  16   0    5.72    0.76
  -6 -16   0    5.72    0.76
   6  16  -1    2.74    0.49
   6 -16   1    1.22    0.42
  -6 -16   1    1.73    0.38
  -6  16  -1    2.18    0.52
   6  16  -2    0.29    0.28
  -6  16  -2    0.85    0.41
   6  16  -3   -0.02    0.22
   6 -16   3    0.10    0.32
  -6 -16   3    0.12    0.22
  -6  16  -3    0.02    0.29
   6  16  -4    0.29    0.22
   6 -16   4    0.65    0.32
  -6 -16   4    0.56    0.23
  -6  16  -4    0.37    0.33
   6 -16   5    1.24    0.37
  -6 -16   5    1.48    0.36
  -6  16  -5    1.17    0.39
   6 -16   6    0.10    0.24
  -6 -16   6    0.26    0.22
  -6  16  -6    0.42    0.25
   6  16  -7    0.01    0.18
  -6 -16   7    0.02    0.21
  -6  16  -7    0.14    0.20
   6  18  -1    0.98    0.31
  -6  18  -1    0.28    0.30
   6  18  -2    0.80    0.26
   6 -18   2    1.53    0.41
  -6  18  -2    1.52    0.44
   6 -18   3    0.39    0.31
  -6 -18   3    0.13    0.20
  -6  18  -3    0.25    0.34
   6  18  -4    5.07    0.73
   6 -18   4    4.57    0.72
  -6 -18   4    3.24    0.51
  -6  18  -4    4.41    0.74
   6  18  -5    0.47    0.23
   6 -18   5    0.52    0.27
  -6 -18   5    0.53    0.25
   6  18  -6    1.05    0.31
  -6 -18   6    1.39    0.37
  -6  18  -6    0.80    0.32
   6  20   0    1.01    0.31
  -6 -20   0    0.36    0.23
   6  20  -1    0.38    0.20
   6 -20   1   -0.07    0.27
  -6  20  -1    0.19    0.27
   6  20  -2    3.29    0.53
  -6  20  -2    3.01    0.57
   6 -20   3    0.32    0.30
  -6 -20   3    0.35    0.21
  -6  20  -3    0.28    0.28
   6  20  -4    0.58    0.24
   6 -20   4    0.97    0.36
  -6 -20   4    0.79    0.27
  -6  20  -4    1.24    0.39
   6  20  -5    0.33    0.26
   6 -20   5    0.43    0.26
  -6 -20   5    0.58    0.26
   6  22   0    0.06    0.26
   6  22  -1    0.22    0.22
   6 -22   1    0.05    0.24
   6  22  -2    0.11    0.18
   6 -22   2   -0.01    0.24
  -6 -22   2    0.39    0.27
  -6  22  -2   -0.21    0.26
   6 -22   3    0.50    0.32
  -6 -22   3    1.37    0.35
  -6  22  -3    0.34    0.28
   6  22  -4   -0.02    0.22
   6 -22   4   -0.16    0.22
   6  24   0    0.11    0.21
   6  24  -1    1.34    0.33
   6 -24   1    0.74    0.29
  -6 -24   1    1.23    0.32
   6 -24   2    0.04    0.28
  -6 -24   2    0.09    0.22
  -6  24  -2   -0.01    0.28
   7   1   1   12.97    1.51
   7  -1   1   15.07    1.77
  -7  -1  -1   12.73    1.48
  -7   1  -1   12.82    1.52
   7   1   3  188.71   21.58
   7  -1   3  161.74   18.50
   7   1   4    5.87    0.75
   7   1  -4    5.53    0.75
   7  -1   4    5.60    0.72
   7   1   5    9.12    1.13
   7  -1   5    8.29    1.05
  -7  -1  -5   12.59    1.53
  -7   1  -5   11.31    1.40
   7   1   6    0.18    0.27
   7   1  -6   -0.09    0.23
   7  -1   6    0.26    0.28
  -7  -1   6    0.22    0.25
  -7   1  -6    0.27    0.27
   7   1   7    8.09    1.08
   7   1  -7    7.22    0.94
   7  -1   7    6.60    0.88
  -7  -1  -7    6.63    0.90
  -7  -1   7    7.82    1.01
   7   1   8    0.45    0.22
   7  -1  -8    0.10    0.16
   7   1  -8    0.26    0.17
   7  -1   8    0.06    0.17
  -7  -1  -8    0.78    0.29
  -7   1  -8    0.05    0.18
   7  -1  -9    0.22    0.21
   7  -1   9    0.69    0.32
  -7  -1  -9    0.78    0.34
  -7   1   9    0.40    0.25
  -7  -1   9    0.96    0.30
  -7   1  -9    0.63    0.27
   7   3   1    8.85    1.03
   7   3  -1    7.67    0.91
   7  -3   1   11.38    1.36
  -7  -3  -1    8.85    1.03
  -7   3  -1   12.21    1.45
   7   3   2  114.14   13.07
   7   3  -2   77.12    8.84
  -7  -3  -2  112.02   12.82
  -7  -3   2   94.82   10.86
  -7   3  -2  109.01   12.49
   7   3  -3    1.21    0.25
   7  -3   3    1.97    0.34
  -7  -3   3    1.56    0.31
   7   3   4    8.80    1.10
  -7  -3  -4    8.97    1.09
  -7  -3   4    8.96    1.11
  -7   3  -4   12.08    1.45
   7   3   5    1.80    0.37
   7   3  -5    2.15    0.41
   7  -3   5    2.05    0.39
  -7  -3  -5    2.13    0.39
  -7  -3   5    2.36    0.44
   7   3   6    3.68    0.58
   7   3  -6    3.69    0.58
  -7  -3  -6    3.43    0.58
  -7  -3   6    4.29    0.68
  -7   3  -6    2.84    0.45
   7   3   7    0.23    0.22
   7   3  -7    0.12    0.20
   7  -3   7    0.59    0.25
  -7  -3  -7    0.38    0.29
  -7   3  -7    0.08    0.19
   7   3   8   -0.01    0.18
   7   3  -8    0.27    0.18
   7  -3   8    0.49    0.24
  -7   3  -8    0.15    0.19
   7   3   9   -0.06    0.24
   7   3  -9    0.14    0.24
   7  -3   9    0.05    0.19
  -7   3  -9    0.08    0.21
   7   5   0    5.61    0.66
  -7  -5   0    4.56    0.54
   7   5  -1    0.33    0.15
  -7  -5   1    0.25    0.18
  -7   5  -1    0.88    0.36
   7  -5   2    0.32    0.30
  -7   5  -2    0.88    0.31
   7   5   3    0.52    0.19
   7   5  -3    1.23    0.25
   7  -5   3    1.18    0.29
  -7  -5  -3    1.36    0.29
  -7   5  -3    0.87    0.32
   7   5   4    6.12    0.76
   7  -5   4    9.87    1.23
  -7  -5  -4    7.07    0.89
  -7  -5   4    7.59    0.96
  -7   5  -4    7.90    0.99
   7   5   5    0.59    0.27
   7   5  -5    0.75    0.31
   7  -5   5    0.90    0.32
  -7  -5  -5    0.93    0.28
  -7  -5   5    0.91    0.35
  -7   5  -5    0.87    0.29
   7   5   6    0.01    0.25
  -7  -5  -6    0.25    0.25
  -7  -5   6    0.10    0.30
   7   5   7    0.16    0.21
   7   5  -7    0.34    0.22
   7  -5   7    0.40    0.22
  -7  -5  -7    0.20    0.19
  -7  -5   7    0.32    0.22
  -7   5  -7    0.50    0.23
   7   5  -8    0.38    0.20
   7  -5   8    0.27    0.22
  -7  -5  -8    0.26    0.21
  -7   5  -8    0.80    0.30
   7   5  -9   -0.08    0.20
   7  -5   9   -0.02    0.22
  -7  -5   9    0.15    0.25
  -7   5  -9    0.10    0.21
   7   7  -1   11.01    1.29
  -7  -7   1   10.21    1.21
  -7   7  -1   12.77    1.57
   7   7  -2   25.38    2.94
  -7   7  -2   19.76    2.35
   7   7  -3    0.56    0.20
  -7   7  -3    0.44    0.27
   7  -7   4    3.41    0.52
  -7   7  -4    2.87    0.46
   7   7  -5    9.86    1.25
   7  -7   5    6.28    0.83
  -7  -7   5    8.86    1.17
   7   7  -6    2.99    0.50
   7  -7   6    1.11    0.29
  -7  -7  -6    1.83    0.37
  -7   7  -6    1.60    0.39
   7   7   7    0.25    0.20
   7   7  -7    0.04    0.17
   7  -7   7    0.13    0.19
  -7  -7  -7    0.15    0.22
  -7  -7   7    0.20    0.19
  -7   7  -7    0.10    0.20
   7   7   8    0.68    0.26
   7   7  -8    0.96    0.28
   7  -7   8    0.78    0.27
  -7  -7  -8    0.91    0.25
   7   9   0    5.24    0.65
  -7  -9   0    4.62    0.59
   7   9  -1   17.89    2.08
   7  -9   1   15.59    1.88
  -7  -9   1   16.55    1.94
  -7   9  -1   13.27    1.65
   7   9  -2    1.30    0.23
   7  -9   2    1.01    0.35
  -7  -9   2    0.41    0.17
  -7   9  -2    1.14    0.37
   7   9  -3   26.74    3.10
  -7   9  -3   33.75    3.95
   7  -9   4    0.17    0.26
  -7  -9   4    0.40    0.25
  -7   9  -4    0.09    0.30
   7   9  -5   21.45    2.56
   7  -9   5   21.28    2.52
  -7  -9   5   26.04    3.09
   7   9  -6    0.20    0.25
   7  -9   6    0.37    0.24
  -7  -9   6    0.32    0.24
  -7   9  -6    0.67    0.27
   7   9  -7    2.38    0.43
   7  -9   7    2.72    0.48
  -7  -9   7    2.17    0.42
   7   9  -8    0.02    0.17
   7  -9   8    0.05    0.22
  -7  -9   8   -0.11    0.19
  -7   9  -8    0.04    0.20
   7  11   0    1.03    0.24
  -7 -11   0    0.81    0.23
   7  11  -1    4.68    0.60
  -7 -11   1    4.56    0.59
  -7  11  -1    3.36    0.53
   7  11  -2    1.71    0.31
   7 -11   2    2.73    0.48
  -7 -11   2    1.80    0.31
   7  11  -3    3.91    0.54
   7 -11   3    3.72    0.60
  -7 -11   4    0.57    0.28
  -7  11  -4    1.48    0.38
   7 -11   5    1.43    0.36
  -7 -11   5    1.62    0.36
  -7  11  -5    0.87    0.32
   7  11  -6    0.97    0.27
   7 -11   6    0.12    0.26
  -7 -11   6    0.35    0.20
  -7  11  -6    0.02    0.23
   7  11  -7    0.16    0.17
  -7 -11   7    0.18    0.20
  -7  11  -7    0.37    0.23
   7  11  -8    0.42    0.24
   7 -11   8    0.38    0.23
  -7 -11   8    0.19    0.21
  -7  11  -8    0.22    0.23
   7  13  -1    7.07    0.88
  -7 -13   1    7.07    0.89
   7 -13   2   44.77    5.22
  -7  13  -2   40.19    4.71
   7  13  -3    1.27    0.30
   7 -13   3    1.87    0.47
  -7  13  -3    2.32    0.52
   7 -13   4    2.19    0.46
  -7 -13   4    1.52    0.36
   7  13  -5    1.24    0.31
   7 -13   5    0.63    0.30
  -7 -13   5    0.81    0.27
  -7  13  -5    0.61    0.31
   7  13  -6    4.76    0.68
   7 -13   6    5.40    0.77
  -7 -13   6    4.98    0.74
   7  13  -7    0.64    0.25
   7 -13   7    0.46    0.24
  -7 -13   7    0.24    0.23
  -7  13  -7    0.43    0.24
   7  15   0   11.58    1.40
  -7 -15   0   13.72    1.66
   7  15  -1    0.35    0.30
   7 -15   1    0.18    0.31
  -7 -15   1    0.90    0.34
  -7  15  -1    0.26    0.34
   7  15  -2    0.67    0.31
  -7 -15   2    1.32    0.36
  -7  15  -2    1.33    0.44
   7  15  -3    0.49    0.27
   7 -15   3    0.51    0.34
  -7  15  -3    0.69    0.40
   7 -15   4    3.35    0.59
  -7  15  -4    3.64    0.64
   7  15  -5    1.03    0.28
  -7 -15   5    0.24    0.21
  -7  15  -5    0.10    0.28
   7  15  -6    0.34    0.20
   7 -15   6    0.06    0.19
  -7 -15   6    0.45    0.23
  -7  15  -6    0.18    0.23
   7  15  -7    0.06    0.21
   7 -15   7    0.01    0.15
  -7 -15   7    0.21    0.22
  -7  15  -7    0.02    0.20
   7  17   0    0.79    0.27
  -7 -17   0    0.20    0.25
   7  17  -1    1.96    0.39
  -7 -17   1    2.02    0.38
   7  17  -2    0.29    0.21
   7 -17   2    0.24    0.29
  -7 -17   2    0.12    0.22
  -7  17  -2    0.48    0.33
   7  17  -3    2.46    0.42
   7 -17   3    2.48    0.51
   7 -17   4    0.22    0.27
  -7  17  -4    0.24    0.29
   7  17  -5    3.82    0.59
   7 -17   5    3.75    0.67
  -7 -17   5    3.49    0.55
  -7  17  -5    3.68    0.64
   7  17  -6    0.27    0.21
   7 -17   6    0.33    0.25
  -7 -17   6    0.35    0.23
  -7  17  -6    0.35    0.24
   7  19   0   -0.01    0.20
  -7 -19   0    0.11    0.19
   7  19  -1    2.18    0.41
   7 -19   1    1.42    0.39
  -7 -19   1    1.45    0.34
  -7  19  -1    1.50    0.41
   7  19  -2    0.14    0.23
   7 -19   2    0.33    0.34
  -7  19  -2    0.20    0.30
   7  19  -3    0.70    0.22
   7 -19   3    0.96    0.36
  -7 -19   3    0.90    0.25
  -7  19  -3    0.68    0.32
   7 -19   4    0.26    0.27
  -7 -19   4    0.16    0.18
  -7  19  -4    0.13    0.28
  -7 -19   5    1.30    0.37
  -7  19  -5    1.19    0.39
   7  21  -1    0.26    0.20
   7 -21   1    0.29    0.26
  -7 -21   1    0.21    0.21
   7 -21   2    0.15    0.26
  -7  21  -2    0.19    0.30
   7  21  -3    0.68    0.26
   7 -21   3    0.90    0.35
  -7 -21   3    0.74    0.26
  -7  21  -3    0.72    0.33
   7 -21   4    0.14    0.23
  -7 -21   4    0.06    0.22
  -7 -23   0    0.75    0.29
   7  23  -1   -0.07    0.20
   7 -23   1    0.18    0.26
  -7  23  -1    0.24    0.33
   7  23  -2    0.86    0.27
   7 -23   2    0.43    0.27
  -7  23  -2    1.07    0.35
   7  23  -3    0.04    0.20
   7 -23   3    0.35    0.27
  -7 -23   3    0.13    0.22
   8   0   2    9.90    1.18
  -8   0  -2    8.07    0.97
   8   0   4   53.45    6.15
  -8   0  -4   45.75    5.28
   8   0  -8    0.50    0.23
  -8   0   8    0.41    0.20
  -8   0  -8    0.91    0.28
   8   2   1    0.49    0.14
  -8  -2  -1    0.28    0.14
   8   2   2   16.16    1.88
   8  -2   2   14.95    1.75
  -8  -2  -2   16.51    1.92
   8  -2   3    3.45    0.48
  -8  -2  -3    3.17    0.47
  -8   2  -3    2.97    0.43
   8   2   4    2.82    0.41
   8  -2   4    2.17    0.35
  -8  -2  -4    1.73    0.34
  -8   2  -4    2.48    0.39
   8   2   5    0.87    0.28
   8   2  -5    0.61    0.32
   8  -2   5    1.03    0.36
  -8  -2   5    0.50    0.29
  -8   2  -5    1.94    0.38
   8   2   6    0.67    0.29
   8   2  -6    0.59    0.29
   8  -2   6    0.33    0.24
  -8  -2  -6    0.95    0.33
  -8  -2   6    0.83    0.34
  -8   2  -6    0.34    0.27
   8   2   7    1.60    0.34
   8   2  -7    2.22    0.41
  -8  -2   7    1.25    0.28
   8   2   8    0.33    0.24
   8   2  -8    0.05    0.17
  -8  -2  -8    0.35    0.20
  -8  -2   8    0.23    0.18
  -8   2  -8    0.24    0.22
   8   2   9   -0.08    0.20
   8   2  -9   -0.05    0.19
   8  -2   9    0.10    0.19
  -8  -2  -9    0.02    0.20
  -8  -2   9    0.09    0.21
  -8   2  -9   -0.03    0.20
   8   4   0    2.07    0.25
   8   4   1   97.09   11.11
   8   4  -1   95.99   10.98
  -8  -4  -1  107.90   12.36
  -8  -4   1  104.65   11.98
  -8   4  -1  102.78   11.78
   8   4   2    0.55    0.16
   8   4  -2    0.53    0.19
   8  -4   2    0.78    0.25
  -8  -4  -2    0.83    0.21
  -8  -4   2    0.83    0.23
   8   4   3  107.09   12.27
   8   4  -3  117.75   13.49
   8  -4   3  117.09   13.43
  -8  -4  -3  110.31   12.64
  -8   4  -3  113.39   12.99
   8   4   4    0.15    0.23
   8  -4   4    0.54    0.22
  -8  -4  -4    0.40    0.24
  -8  -4   4    0.38    0.24
  -8   4  -4    0.57    0.25
   8   4   5   65.76    7.59
   8  -4   5   81.30    9.36
  -8  -4  -5   82.95    9.54
  -8  -4   5   84.56    9.74
  -8   4  -5   87.97   10.12
   8   4   6    0.35    0.27
   8   4  -6   -0.09    0.30
   8  -4   6    0.29    0.21
  -8  -4  -6    0.14    0.27
  -8  -4   6    0.07    0.28
  -8   4  -6   -0.04    0.19
   8  -4   7    4.45    0.67
  -8   4  -7    5.10    0.77
   8   4   8    0.05    0.18
   8   4  -8    0.03    0.19
  -8  -4  -8   -0.07    0.20
  -8  -4   8    0.07    0.19
  -8   4  -8    0.11    0.21
   8   6   0    0.17    0.11
  -8  -6   0    0.11    0.11
   8   6  -1    6.83    0.82
  -8  -6   1    7.07    0.85
  -8   6  -1    6.34    0.84
   8   6  -2    3.72    0.48
   8  -6   2    3.50    0.52
  -8   6  -2    3.47    0.52
   8   6  -3   19.54    2.28
   8  -6   3   25.54    2.99
  -8  -6   3   20.51    2.40
  -8   6  -3   27.70    3.24
   8   6  -4    0.33    0.20
  -8  -6   4    0.27    0.25
  -8   6  -4    0.01    0.22
   8   6   5    7.58    0.98
   8   6  -5    8.56    1.13
  -8  -6  -5    7.78    1.02
  -8  -6   5    7.40    0.99
  -8   6  -5    6.79    0.88
   8   6   6    0.30    0.26
   8   6  -6    0.35    0.24
   8  -6   6    0.51    0.27
  -8  -6  -6    0.29    0.22
  -8   6  -6    0.38    0.23
   8   6   7    1.06    0.29
   8   6  -7    0.61    0.22
   8  -6   7    1.06    0.31
  -8  -6   7    0.97    0.28
  -8   6  -7    1.17    0.35
   8   6   8    0.01    0.16
   8   6  -8   -0.03    0.17
   8  -6   8    0.28    0.22
  -8  -6  -8    0.15    0.17
  -8  -6   8    0.11    0.21
  -8   6  -8    0.19    0.22
   8   8   0   43.47    4.99
  -8  -8   0   39.22    4.50
   8   8  -1   12.22    1.43
   8  -8   1    8.08    1.02
  -8  -8   1   10.61    1.25
  -8   8  -1    8.87    1.13
   8   8  -2   90.58   10.37
   8  -8   2   99.70   11.46
  -8   8  -2   94.67   10.89
   8   8  -3    2.15    0.33
   8  -8   3    2.19    0.41
  -8  -8   3    2.06    0.33
  -8   8  -3    2.49    0.45
   8   8  -4   27.58    3.22
  -8  -8   4   33.51    3.91
  -8   8  -4   30.53    3.57
   8   8  -5    6.55    0.92
   8  -8   5    5.34    0.75
  -8  -8   5    6.38    0.87
  -8   8  -5    5.21    0.70
   8   8  -6    2.47    0.43
   8  -8   6    2.79    0.48
  -8  -8   6    2.40    0.44
   8   8  -7    0.29    0.19
  -8  -8  -7    0.19    0.19
  -8  -8   7    0.29    0.25
  -8   8  -7   -0.12    0.17
   8   8   8    0.49    0.20
   8   8  -8    0.56    0.25
   8  -8   8    0.55    0.25
  -8  -8  -8    0.55    0.24
  -8  -8   8    0.43    0.24
  -8   8  -8    0.99    0.32
   8  10   0    0.48    0.19
  -8 -10   0    0.46    0.18
   8  10  -1    0.59    0.17
   8 -10   1    0.38    0.28
  -8 -10   1    0.77    0.18
  -8  10  -1    0.15    0.28
   8  10  -2    0.69    0.21
   8 -10   2    0.60    0.28
  -8 -10   2    1.33    0.26
   8  10  -3    0.41    0.21
   8 -10   3    0.56    0.29
  -8 -10   3    0.66    0.22
  -8  10  -3    0.67    0.33
   8  10  -4    2.92    0.45
   8 -10   4    4.11    0.60
  -8  10  -4    3.31    0.52
  -8 -10   5    0.69    0.28
  -8  10  -5    0.85    0.30
   8  10  -6    0.56    0.22
   8 -10   6    0.82    0.28
  -8  10  -6    0.57    0.27
   8  10  -7    0.21    0.18
   8 -10   7    0.61    0.26
  -8  10  -7    0.30    0.23
   8 -10   8    0.10    0.23
  -8 -10   8    0.13    0.20
  -8  10  -8    0.14    0.23
   8  12  -1   10.98    1.31
  -8  12  -1    8.48    1.13
   8  12  -2    9.25    1.12
  -8 -12   2    9.26    1.13
   8  12  -3    5.00    0.66
   8 -12   3    7.33    0.98
  -8 -12   3    5.38    0.72
  -8  12  -3    7.91    1.11
   8  12  -4    0.71    0.24
   8 -12   4    0.62    0.29
  -8 -12   4    0.39    0.27
  -8  12  -4    1.19    0.38
   8 -12   5   11.42    1.45
  -8 -12   5    8.56    1.10
  -8  12  -5   10.72    1.41
   8 -12   6    0.24    0.24
  -8 -12   6    0.47    0.22
  -8  12  -6    0.13    0.21
   8  12  -7    0.96    0.29
   8 -12   7    0.46    0.26
   8  14   0    5.35    0.70
  -8 -14   0    5.31    0.70
   8  14  -1   18.10    2.14
  -8 -14   1   19.24    2.28
  -8  14  -1   12.16    1.52
   8  14  -2    1.49    0.34
  -8 -14   2    1.21    0.31
  -8  14  -2    1.75    0.46
   8  14  -3    0.56    0.27
   8 -14   3    1.55    0.43
  -8 -14   3    0.96    0.29
  -8  14  -3    1.60    0.48
   8 -14   4    0.63    0.29
  -8 -14   4    0.71    0.27
  -8  14  -4    0.77    0.37
   8 -14   5   10.71    1.40
  -8  14  -5   11.68    1.51
   8 -14   6    0.01    0.19
  -8 -14   6    0.18    0.20
  -8  14  -6    0.07    0.22
   8  14  -7   -0.11    0.16
   8 -14   7    0.11    0.19
  -8 -14   7    0.15    0.19
  -8  14  -7    0.04    0.19
   8  16   0    2.73    0.44
  -8 -16   0    2.76    0.48
   8  16  -1    0.29    0.24
   8 -16   1    0.10    0.31
  -8 -16   1    0.65    0.30
  -8  16  -1    0.39    0.34
   8  16  -2    0.61    0.25
   8 -16   2    0.52    0.30
  -8 -16   2    0.62    0.25
  -8  16  -2    0.43    0.34
   8  16  -3    1.47    0.31
   8 -16   3    1.46    0.41
  -8 -16   3    1.30    0.30
   8  16  -4    0.54    0.22
   8 -16   4    0.85    0.33
  -8 -16   4    0.79    0.25
  -8  16  -4    0.53    0.35
  -8  16  -5    0.37    0.29
   8 -16   6    0.15    0.20
  -8 -16   6    0.08    0.22
  -8  16  -6   -0.01    0.20
   8  18  -1    0.66    0.23
   8 -18   1    0.18    0.28
  -8 -18   1    0.71    0.24
   8  18  -2    2.12    0.39
   8 -18   2    1.94    0.47
  -8 -18   2    3.07    0.51
  -8  18  -2    2.33    0.51
   8  18  -3   -0.05    0.17
   8 -18   3    0.17    0.29
  -8 -18   3    0.08    0.18
  -8  18  -3    0.31    0.26
   8  18  -4    0.05    0.18
   8 -18   4    0.05    0.25
  -8 -18   4    0.22    0.18
  -8  18  -4    0.17    0.36
  -8 -18   5   -0.06    0.15
  -8  18  -5    0.24    0.26
   8  18  -6    0.09    0.18
   8 -18   6    0.35    0.23
  -8 -18   6    0.18    0.21
  -8  18  -6    0.26    0.23
   8  20   0    1.52    0.31
  -8 -20   0    1.60    0.32
   8  20  -1    0.43    0.22
   8 -20   1    0.13    0.23
  -8 -20   1    0.16    0.21
   8  20  -2    0.02    0.23
   8 -20   2    0.05    0.26
  -8 -20   2   -0.13    0.23
  -8  20  -2    0.09    0.31
   8  20  -3    1.09    0.28
   8 -20   3    0.95    0.33
  -8  20  -3    0.71    0.32
   8  20  -4    0.68    0.24
   8 -20   4    0.94    0.35
  -8 -20   4    1.30    0.31
   8  20  -5    0.36    0.26
   8 -20   5    0.52    0.31
  -8 -20   5    0.82    0.27
  -8  20  -5    0.66    0.34
   8  22   0    0.04    0.18
  -8 -22   0    0.10    0.18
   8  22  -1    0.49    0.24
   8 -22   1    0.06    0.25
  -8 -22   1    0.47    0.23
  -8  22  -1    0.54    0.31
   8  22  -2   -0.11    0.24
   8 -22   2    0.03    0.25
  -8 -22   2    0.09    0.25
  -8  22  -2    0.27    0.32
   8  22  -3    1.10    0.31
   8 -22   3    1.01    0.32
   8  24   0    0.15    0.22
  -8 -24   0    0.11    0.19
   8  24  -1   -0.11    0.18
   8 -24   1    0.15    0.27
  -8 -24   1    0.11    0.21
  -8  24  -1    0.03    0.29
   9   1   1   51.12    5.86
   9  -1   1   36.70    4.22
  -9  -1  -1   54.61    6.26
   9   1   2    1.27    0.23
   9  -1   2    0.96    0.24
  -9  -1  -2    0.88    0.20
  -9   1  -2    1.10    0.24
  -9  -1  -3    1.90    0.33
  -9   1  -3    2.53    0.38
   9  -1   4    0.24    0.19
  -9  -1  -4    0.27    0.19
  -9   1  -4    0.54    0.23
   9  -1   5   12.80    1.56
  -9  -1  -5   15.38    1.85
  -9   1  -5   12.62    1.57
   9   1  -6    0.21    0.25
   9  -1   6    0.05    0.23
  -9  -1  -6   -0.02    0.22
  -9   1  -6    0.06    0.23
   9   1   7    1.53    0.36
   9   1  -7    1.22    0.30
   9  -1   7    1.36    0.32
  -9  -1  -7    1.74    0.39
  -9  -1   7    0.72    0.25
  -9   1  -7    1.25    0.32
   9   1   8    0.03    0.16
   9   1  -8    0.25    0.20
   9  -1   8    0.08    0.17
  -9  -1  -8    0.05    0.17
  -9   1  -8    0.05    0.19
   9   3   1    3.06    0.37
  -9  -3  -1    2.95    0.36
   9   3   2   41.83    4.80
   9  -3   2   41.94    4.84
  -9  -3  -2   44.49    5.11
  -9   3  -2   43.86    5.06
   9   3   3    1.80    0.30
   9   3  -3    2.43    0.37
   9  -3   3    1.73    0.30
  -9  -3  -3    1.63    0.29
  -9   3  -3    1.50    0.31
   9   3   5    1.40    0.33
   9  -3   5    1.49    0.40
  -9  -3  -5    1.84    0.38
  -9  -3   5    1.56    0.42
  -9   3  -5    1.90    0.38
   9   3  -6    0.47    0.28
   9  -3   6    0.54    0.27
  -9  -3  -6    1.04    0.33
  -9  -3   6    1.46    0.35
  -9   3  -6    0.47    0.28
   9   3   7    0.23    0.20
   9   3  -7    0.23    0.20
   9  -3   7    0.42    0.21
  -9  -3  -7    0.09    0.21
  -9  -3   7    0.04    0.18
  -9   3  -7    0.19    0.20
   9   3   8    0.31    0.19
   9   3  -8    0.23    0.18
  -9  -3  -8    0.36    0.21
  -9   3  -8    0.78    0.27
   9   5   0    3.14    0.37
  -9  -5   0    4.11    0.48
   9   5  -1    0.36    0.14
   9  -5   1    0.18    0.23
  -9  -5  -1    0.58    0.10
  -9  -5   1    0.59    0.18
  -9   5  -1    0.36    0.24
   9   5   2    4.61    0.56
   9   5  -2    4.03    0.53
   9  -5   2    5.83    0.74
  -9  -5  -2    4.26    0.52
  -9  -5   2    3.13    0.43
   9   5   3    0.45    0.18
   9   5  -3    0.47    0.22
   9  -5   3    0.30    0.21
  -9  -5  -3    0.54    0.21
  -9  -5   3    0.42    0.20
  -9   5  -3   -0.02    0.23
   9  -5   4    8.52    1.06
  -9  -5  -4    6.21    0.79
  -9  -5   4    5.79    0.77
   9   5   5    0.65    0.31
   9   5  -5    0.33    0.30
   9  -5   5    0.29    0.26
  -9  -5  -5    0.06    0.24
  -9  -5   5    0.24    0.33
  -9   5  -5    0.62    0.29
   9   5  -6    1.90    0.39
   9  -5   6    2.77    0.47
  -9  -5  -6    2.27    0.43
  -9  -5   6    1.73    0.44
  -9   5  -6    3.00    0.54
   9   5   7    0.19    0.24
   9   5  -7    0.11    0.21
   9  -5   7   -0.08    0.18
  -9  -5  -7   -0.12    0.25
  -9   5  -7    0.07    0.21
   9   5   8    1.64    0.35
   9   5  -8    2.13    0.42
   9  -5   8    1.49    0.37
  -9  -5   8    2.37    0.50
  -9   5  -8    1.91    0.42
   9   7   0    4.08    0.49
  -9  -7   0    3.47    0.42
   9   7  -1    1.69    0.25
  -9   7  -1    0.99    0.31
   9   7  -2    0.29    0.17
   9  -7   2    0.47    0.27
  -9  -7   2    0.31    0.18
  -9   7  -2    0.83    0.30
   9   7  -3    2.69    0.40
  -9  -7   3    4.05    0.56
   9  -7   4    1.18    0.32
  -9   7  -4    1.56    0.37
   9   7   5    0.00    0.22
   9  -7   5    0.18    0.23
  -9  -7  -5    0.47    0.30
  -9  -7   5    0.21    0.29
  -9   7  -5   -0.10    0.22
   9   7  -6    0.31    0.21
   9  -7   6    0.33    0.22
  -9  -7  -6    0.46    0.23
  -9  -7   6    0.17    0.21
  -9   7  -6   -0.03    0.22
   9   7   7    0.26    0.18
  -9  -7  -7    0.20    0.17
  -9  -7   7    0.13    0.19
  -9   7  -7    1.12    0.32
   9   7   8    0.09    0.20
   9   7  -8    0.21    0.21
   9  -7   8    0.34    0.25
  -9  -7  -8    0.22    0.19
  -9  -7   8   -0.05    0.22
   9   9   0    5.60    0.67
  -9  -9   0    8.36    0.99
   9  -9   1   11.90    1.46
  -9   9  -1   10.54    1.34
   9   9  -2    0.24    0.14
  -9  -9   2    0.08    0.14
   9   9  -3    0.13    0.18
   9  -9   3    0.20    0.28
  -9  -9   3    0.96    0.24
  -9   9  -3    0.00    0.28
   9   9  -4    0.11    0.24
   9  -9   4    0.08    0.26
  -9   9  -4    0.29    0.32
   9  -9   5    5.47    0.75
  -9   9  -5    5.40    0.75
   9   9  -6    0.12    0.17
   9  -9   6    0.17    0.22
   9   9  -7    0.43    0.22
   9  -9   7    0.92    0.30
  -9   9  -7    0.27    0.27
   9   9  -8    0.01    0.16
   9  -9   8    0.07    0.22
  -9  -9  -8    0.15    0.16
  -9  -9   8    0.00    0.19
  -9   9  -8   -0.02    0.20
   9  11   0    2.65    0.38
  -9 -11   0    2.12    0.32
   9  11  -1    1.75    0.29
   9 -11   1    1.06    0.32
  -9 -11   1    1.51    0.26
  -9  11  -1    2.16    0.42
   9  11  -2    0.91    0.23
  -9 -11   2    0.13    0.21
   9 -11   3    1.33    0.38
  -9 -11   3    0.75    0.30
   9  11  -4    1.19    0.29
   9 -11   4    0.38    0.33
  -9  11  -4    0.40    0.28
   9  11  -5    0.69    0.24
   9 -11   5    0.47    0.27
  -9 -11   5    0.93    0.27
  -9  11  -5    0.28    0.28
   9  11  -6    0.05    0.15
   9 -11   6    0.21    0.21
  -9 -11   6    0.17    0.20
  -9  11  -6   -0.15    0.19
   9  11  -7   -0.03    0.17
   9 -11   7   -0.01    0.23
  -9 -11   7   -0.06    0.19
  -9  11  -7   -0.05    0.20
   9  13  -1    0.53    0.24
  -9 -13   1    0.14    0.25
  -9  13  -1    0.50    0.33
   9  13  -2   24.23    2.84
  -9 -13   2   25.81    3.02
  -9  13  -2   20.23    2.43
   9  13  -3    0.32    0.26
   9 -13   3   -0.07    0.31
  -9 -13   3    0.47    0.27
   9  13  -4    0.07    0.22
   9 -13   4    0.22    0.25
   9 -13   5    0.31    0.27
  -9 -13   5    0.11    0.21
  -9  13  -5    0.17    0.27
   9  13  -6    0.64    0.23
   9 -13   6    0.55    0.25
  -9 -13   6    0.92    0.26
   9  13  -7    0.07    0.16
   9 -13   7    0.17    0.20
  -9 -13   7   -0.01    0.19
   9  15   0    1.70    0.33
  -9 -15   0    2.39    0.39
   9  15  -1    0.20    0.25
   9 -15   1    0.19    0.29
  -9 -15   1    0.35    0.27
  -9  15  -1   -0.06    0.30
   9  15  -2    0.04    0.19
   9 -15   2    0.17    0.30
  -9 -15   2    0.08    0.20
  -9  15  -2    0.35    0.31
   9  15  -3    0.11    0.18
   9 -15   3    0.34    0.27
  -9 -15   3    0.09    0.17
   9  15  -4    0.35    0.21
   9 -15   4    0.28    0.29
   9  15  -5    0.15    0.16
   9 -15   5    0.20    0.24
  -9 -15   5    0.28    0.18
  -9  15  -5    0.03    0.25
   9  15  -6    0.21    0.18
   9 -15   6    0.15    0.21
  -9 -15   6    0.52    0.22
  -9  15  -6    0.22    0.24
   9  17   0    5.07    0.66
  -9 -17   0    3.33    0.49
   9  17  -1    0.67    0.23
   9 -17   1    0.63    0.30
  -9 -17   1    1.79    0.36
   9  17  -2    0.03    0.17
   9 -17   2    0.05    0.27
  -9 -17   2    0.10    0.18
  -9  17  -2    0.14    0.29
   9  17  -3    0.07    0.16
   9 -17   3   -0.14    0.27
  -9 -17   3    0.16    0.17
  -9  17  -3    0.13    0.25
   9  17  -4    0.09    0.14
   9 -17   4    0.17    0.26
   9  17  -5    0.28    0.20
   9 -17   5    0.54    0.28
  -9 -17   5    0.26    0.19
  -9  17  -5    0.96    0.35
   9  17  -6    0.08    0.16
   9 -17   6    0.20    0.20
  -9 -17   6    0.12    0.17
  -9  17  -6   -0.02    0.20
   9  19   0    0.19    0.17
  -9 -19   0    0.25    0.23
   9  19  -1    0.66    0.22
   9 -19   1    0.26    0.25
  -9 -19   1    1.10    0.27
  -9  19  -1    0.51    0.35
   9  19  -2    0.31    0.23
   9 -19   2   -0.01    0.23
  -9 -19   2   -0.16    0.21
  -9  19  -2    0.16    0.28
   9  19  -3    0.07    0.16
   9 -19   3    0.12    0.25
  -9 -19   3    0.14    0.17
  -9  19  -3    0.10    0.25
   9  19  -4    0.12    0.16
   9 -19   4   -0.28    0.28
  -9  19  -4   -0.13    0.30
   9 -19   5    0.15    0.22
  -9  19  -5    0.11    0.24
   9  21   0    1.85    0.33
  -9 -21   0    1.36    0.30
   9  21  -1    0.26    0.21
   9 -21   1    0.05    0.23
  -9 -21   1    0.14    0.20
  -9  21  -1    0.27    0.28
   9  21  -2    0.76    0.28
   9 -21   2    0.00    0.29
  -9 -21   2    0.05    0.21
  -9  21  -2    0.12    0.29
   9  21  -3    0.12    0.17
   9 -21   3    0.38    0.24
  -9 -21   3    0.30    0.19
   9 -21   4    0.25    0.28
  -9  21  -4    0.28    0.30
   9  23   0    0.27    0.18
  -9 -23   0    0.34    0.18
   9  23  -1    0.16    0.18
   9 -23   1    0.15    0.22
  -9 -23   1    0.10    0.17
  -9  23  -1   -0.01    0.24
   9  23  -2    0.23    0.22
   9 -23   2    0.27    0.28
  -9 -23   2    0.52    0.27
  10   0   2    0.91    0.22
 -10   0  -2    1.02    0.22
  10   0   4   45.63    5.27
 -10   0  -4   37.17    4.30
 -10   0  -6    8.26    1.09
  10   0  -8    1.03    0.28
  10   0   8    1.14    0.31
  10   2   1    5.89    0.70
  10  -2   1    4.17    0.56
 -10  -2  -1    6.16    0.73
 -10   2  -1    4.81    0.63
  10   2   2   26.89    3.10
 -10  -2  -2   28.66    3.30
  10   2   3    4.07    0.54
 -10  -2  -3    3.34    0.48
 -10   2  -3    2.87    0.42
  10  -2   4    5.91    0.77
 -10   2  -4    5.23    0.70
  10   2   5    0.86    0.28
  10   2  -5    0.34    0.26
  10  -2   5    0.58    0.28
 -10   2  -5    1.23    0.33
  10   2   6    2.14    0.40
  10   2  -6    1.91    0.40
  10  -2   6    1.43    0.33
 -10  -2   6    1.98    0.40
 -10   2  -6    1.35    0.33
  10   2   7    0.14    0.20
  10   2  -7    0.27    0.20
  10  -2   7    0.28    0.22
 -10  -2  -7    0.76    0.26
  10   2  -8    0.12    0.18
  10  -2   8    0.27    0.23
 -10  -2  -8    0.17    0.19
 -10  -2   8    0.19    0.21
  10  -4   1    0.38    0.21
 -10   4  -1    0.88    0.27
  10   4   2    0.41    0.13
  10   4  -2    0.39    0.18
  10  -4   2    0.50    0.20
 -10  -4  -2    0.29    0.13
 -10   4  -2    0.61    0.26
  10   4   3   53.11    6.11
  10   4  -3   40.47    4.66
  10  -4   3   49.77    5.75
 -10  -4  -3   47.95    5.52
 -10  -4   3   44.22    5.10
 -10   4  -3   52.33    6.03
  10   4   4    1.40    0.30
 -10  -4  -4    0.56    0.28
 -10   4  -4    0.31    0.23
  10   4   5    9.84    1.22
  10  -4   5    6.05    0.85
 -10  -4  -5    9.69    1.22
 -10  -4   5   10.12    1.28
 -10   4  -5    7.18    0.95
  10   4   6    0.14    0.20
  10   4  -6    0.16    0.20
 -10  -4  -6   -0.12    0.23
 -10  -4   6    0.00    0.24
 -10   4  -6    0.32    0.22
  10  -4   7    8.35    1.10
 -10  -4  -7   10.93    1.40
 -10  -4   7    7.08    0.95
 -10   4  -7    9.07    1.22
  10   4   8   -0.01    0.17
  10   4  -8    0.12    0.20
 -10  -4  -8    0.17    0.20
 -10  -4   8    0.23    0.22
 -10   4  -8    0.44    0.25
  10   6   0   17.15    1.97
 -10  -6   0   18.03    2.07
  10   6  -1    4.75    0.58
  10  -6   1    3.02    0.49
 -10   6  -1    3.75    0.53
  10   6  -2    1.93    0.31
  10  -6   2    2.03    0.41
 -10  -6  -2    1.64    0.24
 -10  -6   2    1.85    0.30
 -10   6  -2    1.39    0.31
  10   6   3   14.96    1.75
  10   6  -3   17.23    2.02
  10  -6   3   19.92    2.36
 -10  -6  -3   15.57    1.82
 -10  -6   3   19.05    2.23
 -10   6  -3   26.07    3.05
  10   6   4    0.28    0.19
  10   6  -4    0.28    0.24
  10  -6   4    0.26    0.28
 -10  -6  -4    0.44    0.22
  10  -6   5    0.36    0.25
 -10  -6   5    0.74    0.34
  10   6   6    0.47    0.22
  10   6  -6    0.54    0.22
 -10  -6  -6    0.65    0.26
 -10  -6   6    0.78    0.26
 -10   6  -6    0.73    0.26
  10   6   7    2.35    0.39
  10   6  -7    2.20    0.41
  10  -6   7    1.92    0.39
 -10  -6  -7    1.68    0.33
 -10  -6   7    2.14    0.40
  10   6   8    0.08    0.17
  10   6  -8    0.18    0.23
  10  -6   8    0.22    0.23
 -10  -6  -8   -0.04    0.17
 -10  -6   8    0.01    0.22
 -10   6  -8    0.11    0.19
  10   8   0  111.25   12.73
 -10  -8   0  103.01   11.79
  10  -8   1    0.92    0.30
 -10  -8   1    0.30    0.14
  10   8  -2   92.80   10.63
  10  -8   2   87.07   10.02
 -10  -8   2   84.74    9.71
 -10   8  -2   67.85    7.84
  10   8  -3    0.40    0.23
  10  -8   3    0.53    0.37
 -10   8  -3    0.58    0.32
  10   8  -4    9.95    1.22
  10  -8   4   11.84    1.46
 -10  -8   4   10.70    1.32
 -10   8  -4   11.22    1.42
  10   8  -5    0.54    0.23
  10  -8   5    0.97    0.29
 -10  -8   5    0.73    0.28
  10   8   6    0.34    0.19
 -10  -8  -6    0.41    0.21
 -10  -8   6    0.37    0.19
 -10   8  -6    0.68    0.27
  10   8   7    0.13    0.17
  10   8  -7    0.05    0.17
 -10  -8  -7   -0.04    0.17
 -10  -8   7    0.04    0.18
 -10   8  -7   -0.02    0.21
  10   8   8    1.51    0.32
  10   8  -8    2.18    0.47
  10  -8   8    1.52    0.39
 -10  -8  -8    1.50    0.33
 -10  -8   8    1.82    0.41
 -10   8  -8    1.61    0.41
  10  10   0   32.92    3.78
 -10 -10   0   26.90    3.10
  10  10  -1   -0.04    0.11
 -10 -10   1    0.02    0.12
 -10  10  -1   -0.14    0.25
  10  10  -2    7.56    0.91
  10 -10   2    9.02    1.15
 -10  10  -2   11.57    1.46
  10  10  -3    0.21    0.24
  10 -10   3    0.50    0.32
 -10  10  -3    0.14    0.37
  10  10  -4    7.73    1.00
  10 -10   4   10.28    1.30
 -10 -10   4    7.43    0.98
 -10  10  -4    9.63    1.21
  10  10  -5    0.07    0.18
 -10 -10   5    0.02    0.19
 -10  10  -5    0.06    0.23
  10  10  -6    0.14    0.17
  10 -10   6    0.31    0.21
 -10 -10   6    0.32    0.19
 -10  10  -6    0.43    0.22
  10  10  -7    0.38    0.19
  10 -10   7    0.43    0.25
 -10 -10   7    0.35    0.20
 -10  10  -7    0.12    0.21
  10  12   0    0.26    0.18
 -10 -12   0    0.00    0.16
  10  12  -1    5.11    0.64
  10 -12   1    3.69    0.58
 -10 -12   1    5.61    0.70
 -10  12  -1    4.42    0.66
  10  12  -2   14.33    1.69
 -10 -12   2   20.73    2.42
 -10  12  -2   18.51    2.22
  10  12  -3    2.72    0.42
  10 -12   3    2.10    0.44
 -10 -12   3    3.05    0.47
  10  12  -4    0.68    0.27
  10 -12   4    0.37    0.28
 -10 -12   4    0.24    0.25
 -10  12  -4    0.43    0.29
  10  12  -5    9.39    1.20
  10 -12   5    8.69    1.16
 -10 -12   5   13.95    1.72
 -10 -12   6    0.71    0.26
 -10  12  -6    0.73    0.29
  10  12  -7    1.29    0.32
 -10 -12   7    2.00    0.42
 -10  12  -7    1.25    0.39
  10  14   0    2.93    0.41
 -10 -14   0    2.75    0.40
  10  14  -1    2.69    0.42
  10 -14   1    1.51    0.36
 -10 -14   1    1.99    0.36
  10  14  -2    1.37    0.28
  10 -14   2    1.19    0.36
 -10 -14   2    1.01    0.26
 -10  14  -2    1.25    0.37
  10 -14   3    1.52    0.38
 -10 -14   3    0.69    0.23
  10  14  -4    1.06    0.25
  10 -14   4    0.45    0.27
 -10 -14   4    0.54    0.23
  10  14  -5    1.54    0.31
  10 -14   5    1.75    0.42
 -10  14  -5    1.42    0.40
  10 -14   6    0.09    0.21
 -10  14  -6    0.16    0.28
  10  16   0    1.62    0.30
 -10 -16   0    1.29    0.28
  10  16  -1    0.22    0.20
  10 -16   1    0.04    0.25
 -10 -16   1    0.12    0.21
 -10  16  -1   -0.14    0.32
  10  16  -2    2.29    0.40
  10 -16   2    1.62    0.40
 -10 -16   2    1.80    0.34
 -10  16  -2    1.36    0.40
  10  16  -3    0.89    0.28
 -10 -16   3    0.40    0.24
 -10  16  -3    0.30    0.27
  10 -16   4    0.27    0.26
 -10 -16   4    0.25    0.20
  10  16  -5    0.52    0.20
  10 -16   5    0.51    0.27
 -10  16  -5    0.16    0.28
  10 -16   6    0.10    0.22
 -10  16  -6   -0.02    0.20
  10  18   0    0.58    0.19
 -10 -18   0    0.93    0.23
  10  18  -1    0.04    0.14
  10 -18   1    0.05    0.23
 -10 -18   1    0.31    0.20
 -10  18  -1   -0.12    0.26
  10  18  -2    3.14    0.47
  10 -18   2    2.18    0.45
 -10 -18   2    2.85    0.44
 -10  18  -2    2.61    0.54
  10 -18   3    0.21    0.27
 -10 -18   3    0.19    0.19
 -10  18  -3    0.35    0.28
  10  18  -4    0.08    0.19
 -10  18  -4   -0.01    0.24
  10  18  -5    0.09    0.17
  10 -18   5    0.00    0.22
 -10 -18   5    0.03    0.18
 -10  18  -5    0.23    0.26
  10  20   0    1.00    0.24
 -10 -20   0    1.12    0.27
  10  20  -1    0.22    0.18
  10 -20   1    0.01    0.23
 -10 -20   1    0.18    0.18
 -10  20  -1   -0.19    0.27
  10  20  -2    0.46    0.22
 -10 -20   2    0.28    0.24
 -10  20  -2    0.15    0.29
  10  20  -3    1.19    0.28
  10 -20   3    0.71    0.31
 -10 -20   3    0.81    0.24
  10  20  -4    0.07    0.16
  10 -20   4    0.25    0.23
 -10 -20   4    0.21    0.18
 -10  20  -4    0.25    0.27
  10  22   0    0.23    0.15
 -10 -22   0    0.15    0.17
  10  22  -1    0.14    0.16
  10 -22   1   -0.05    0.23
 -10 -22   1    0.16    0.18
 -10  22  -1    0.08    0.26
  10  22  -2    0.00    0.16
  10 -22   2    0.07    0.19
 -10 -22   2    0.10    0.18
 -10  22  -3    0.30    0.30
  11   1   1    7.64    0.90
  11  -1   1    8.50    1.02
 -11  -1  -1    6.31    0.75
 -11   1  -1    8.80    1.06
  11   1   2    1.67    0.27
  11  -1   2    1.26    0.26
 -11  -1  -2    1.42    0.26
 -11   1  -2    1.32    0.31
  11   1   3   69.25    7.95
 -11  -1  -3   67.36    7.75
  11  -1   4    5.83    0.76
 -11   1  -4    6.31    0.82
  11   1   5    0.46    0.27
  11  -1   5    1.60    0.39
 -11  -1  -5    0.39    0.24
  11   1   6    0.44    0.23
 -11  -1  -6    0.83    0.28
 -11   1  -6    0.73    0.28
  11   1   7    1.66    0.33
  11  -1   7    3.20    0.51
 -11  -1  -7    2.52    0.44
 -11   1  -7    1.90    0.36
  11   1   8    0.02    0.16
  11   1  -8    0.01    0.17
  11  -1   8    0.28    0.20
 -11  -1  -8    0.13    0.19
 -11   1  -8    0.09    0.20
  11   3   1    5.28    0.62
 -11  -3  -1    4.68    0.55
  11   3   2    1.44    0.21
 -11  -3  -2    1.11    0.19
  11   3   3    0.52    0.21
  11  -3   3    0.50    0.23
 -11  -3  -3    0.83    0.23
 -11   3  -3    0.75    0.26
  11   3   4    1.83    0.33
  11   3  -4    0.73    0.23
  11  -3   4    0.81    0.29
 -11  -3  -4    0.58    0.25
 -11   3  -4    0.36    0.26
  11   3   5    2.10    0.37
 -11  -3  -5    1.57    0.35
 -11  -3   5    2.61    0.45
 -11   3  -5    2.10    0.40
  11   3   6    0.51    0.23
  11   3  -6    0.34    0.22
  11  -3   6    0.47    0.22
 -11  -3   6    0.18    0.23
 -11   3  -6    0.29    0.22
  11   3   7    0.06    0.20
  11   3  -7    0.33    0.19
  11  -3   7    0.13    0.21
 -11  -3  -7    0.17    0.18
 -11  -3   7    0.19    0.19
 -11   3  -7    0.52    0.22
  11   3   8    0.41    0.20
  11   3  -8    0.32    0.22
  11  -3   8    0.27    0.20
 -11  -3  -8    1.07    0.29
 -11  -3   8    1.27    0.39
 -11   3  -8    0.24    0.22
  11   5   1    0.27    0.06
  11   5  -1    0.14    0.11
  11  -5   1   -0.01    0.22
 -11   5  -1    0.16    0.22
  11   5   2    1.89    0.26
  11   5  -2    2.65    0.37
 -11  -5  -2    2.31    0.31
 -11   5  -2    1.73    0.34
  11   5   3    0.24    0.17
  11   5  -3    0.56    0.19
  11  -5   3   -0.09    0.24
 -11  -5  -3    1.11    0.25
 -11  -5   3    0.51    0.23
 -11   5  -3    0.14    0.24
  11   5   4   55.32    6.39
 -11  -5  -4   59.75    6.90
 -11  -5   4   52.52    6.06
 -11   5  -4   58.26    6.73
  11   5  -5    0.40    0.23
 -11  -5   5    0.10    0.22
 -11   5  -5    0.31    0.24
  11   5   6    1.25    0.27
  11   5  -6    1.77    0.33
  11  -5   6    1.42    0.33
 -11  -5  -6    0.92    0.25
 -11  -5   6    1.41    0.29
 -11   5  -6    1.92    0.39
  11   5   7    0.26    0.19
  11   5  -7    0.17    0.18
  11  -5   7    0.24    0.21
 -11  -5  -7    0.22    0.20
 -11  -5   7    0.00    0.16
 -11   5  -7    0.13    0.19
  11   5   8    1.50    0.34
  11   5  -8    1.37    0.35
  11  -5   8    1.23    0.33
 -11  -5  -8    1.85    0.40
 -11  -5   8    2.23    0.48
 -11   5  -8    0.99    0.31
  11   7  -1    8.57    1.01
  11  -7   1    5.28    0.70
 -11  -7   1    8.03    0.96
 -11   7  -1    5.62    0.74
  11   7  -2   14.36    1.68
  11  -7   2   17.57    2.10
 -11  -7   2   13.24    1.56
 -11   7  -2   14.81    1.80
  11   7  -3    0.46    0.19
  11  -7   3   -0.03    0.27
 -11  -7  -3    0.73    0.22
 -11  -7   3    0.64    0.22
 -11   7  -3    0.03    0.31
  11   7   4    1.29    0.29
  11   7  -4    1.09    0.29
  11  -7   4    1.01    0.39
 -11  -7  -4    0.96    0.29
 -11  -7   4    0.68    0.34
 -11   7  -4    0.51    0.29
  11   7  -5    5.00    0.68
 -11  -7  -5    3.96    0.59
 -11  -7   5    4.95    0.70
 -11   7  -5    4.66    0.68
  11   7   6    0.95    0.23
  11  -7   6    1.02    0.29
 -11  -7  -6    1.05    0.24
 -11  -7   6    1.25    0.29
 -11   7  -6    1.47    0.34
  11   7   7    0.36    0.19
  11   7  -7    0.29    0.20
  11  -7   7    0.49    0.23
 -11  -7  -7    0.12    0.16
 -11   7  -7   -0.04    0.19
  11   7  -8    0.61    0.27
  11  -7   8    0.85    0.34
 -11  -7   8    0.74    0.32
  11   9   0    0.39    0.13
 -11  -9   0    0.19    0.12
  11   9  -1    5.97    0.72
 -11  -9   1    4.92    0.60
  11   9  -2    0.29    0.15
 -11  -9   2    0.39    0.15
  11   9  -3   10.64    1.30
  11  -9   3   14.65    1.82
 -11  -9   3   10.35    1.29
 -11   9  -3   13.53    1.69
  11   9  -4    0.34    0.22
  11  -9   4   -0.04    0.24
 -11  -9   4    0.21    0.22
 -11   9  -4    0.09    0.27
  11   9  -5    7.03    0.91
  11  -9   5    8.31    1.08
 -11   9  -5    8.35    1.09
  11  -9   6    0.03    0.18
 -11  -9  -6    0.09    0.15
 -11  -9   6   -0.07    0.16
  11  -9   7    0.01    0.18
 -11  -9  -7    0.71    0.23
 -11  -9   7    0.25    0.20
 -11   9  -7    0.12    0.25
  11  11  -1   10.05    1.18
  11 -11   1    8.99    1.15
 -11 -11   1   10.65    1.25
 -11  11  -1    7.40    1.01
  11 -11   2    6.60    0.93
 -11 -11   2    4.86    0.62
 -11  11  -2    4.83    0.72
  11  11  -3    5.94    0.78
  11 -11   3    6.51    0.89
 -11 -11   3    7.61    0.98
  11  11  -4    1.19    0.27
 -11 -11   4    2.17    0.39
  11  11  -5    1.80    0.35
  11 -11   5    2.51    0.50
 -11  11  -5    2.55    0.53
  11 -11   6    0.33    0.23
 -11  11  -6    0.16    0.24
  11  11  -7    0.09    0.19
  11 -11   7    0.15    0.22
 -11 -11   7    0.23    0.21
 -11  11  -7   -0.03    0.21
  11  13   0    2.55    0.36
 -11 -13   0    2.08    0.31
  11  13  -1    3.14    0.44
  11 -13   1    3.21    0.52
 -11 -13   1    3.70    0.49
  11  13  -2    2.66    0.40
  11 -13   2    2.82    0.49
 -11 -13   2    2.41    0.39
 -11  13  -2    2.16    0.44
  11  13  -3    0.57    0.22
  11 -13   3    0.50    0.28
 -11 -13   3    0.97    0.27
 -11  13  -3    0.61    0.36
  11 -13   4    0.65    0.31
 -11  13  -4    0.96    0.34
  11  13  -5    0.62    0.19
  11 -13   5    0.90    0.32
 -11  13  -5    0.61    0.33
  11  13  -6    0.28    0.18
  11 -13   6    0.27    0.30
 -11 -13   6    0.16    0.17
 -11  13  -6    0.08    0.27
  11  15   0    0.73    0.18
 -11 -15   0    1.29    0.24
  11  15  -1    0.43    0.18
  11 -15   1    0.01    0.25
 -11 -15   1    0.07    0.16
 -11  15  -1    0.02    0.26
  11  15  -2    0.22    0.19
  11 -15   2    0.23    0.25
 -11 -15   2    0.16    0.17
 -11  15  -2   -0.22    0.32
  11  15  -3    0.18    0.21
 -11  15  -3    0.15    0.25
  11  15  -4    0.22    0.16
  11 -15   4    0.35    0.30
 -11 -15   4    0.06    0.16
 -11  15  -4    0.40    0.33
  11 -15   5    0.01    0.22
 -11  15  -5    0.14    0.27
  11  15  -6    0.39    0.19
  11 -15   6    0.39    0.24
 -11 -15   6    0.41    0.19
  11  17   0    0.44    0.18
 -11 -17   0    0.48    0.17
  11  17  -1    1.30    0.27
  11 -17   1    0.42    0.27
 -11  17  -1    0.47    0.32
  11  17  -2    0.14    0.15
  11 -17   2    0.13    0.25
 -11 -17   2    0.25    0.17
 -11  17  -2   -0.05    0.26
  11  17  -3    1.09    0.24
  11 -17   3    0.76    0.33
 -11 -17   3    1.03    0.25
 -11  17  -3    0.47    0.31
  11  17  -4   -0.08    0.13
 -11 -17   4    0.06    0.15
 -11  17  -4   -0.20    0.25
  11  17  -5    1.96    0.40
  11 -17   5    2.43    0.50
 -11  17  -5    1.89    0.47
  11  19   0    0.07    0.15
 -11 -19   0    0.35    0.19
  11  19  -1    0.12    0.15
 -11 -19   1    0.90    0.25
 -11  19  -1    0.16    0.32
  11  19  -2   -0.08    0.18
 -11 -19   2    0.06    0.16
 -11  19  -2    0.00    0.29
  11  19  -3    0.19    0.17
  11 -19   3    0.34    0.26
 -11 -19   3    0.36    0.19
  11  19  -4    0.02    0.15
  11 -19   4    0.08    0.22
 -11 -19   4    0.14    0.16
 -11  19  -4    0.03    0.24
  11  21  -1    0.23    0.16
 -11 -21   1    0.22    0.18
 -11  21  -1   -0.01    0.30
  11  21  -2    2.35    0.38
 -11 -21   2    2.07    0.37
  11  21  -3    0.38    0.22
  11 -21   3    0.24    0.26
 -11 -21   3    0.31    0.19
 -11  21  -3    0.21    0.27
  12   0   2  209.50   23.97
 -12   0  -2  226.95   25.95
  12   0   6    2.12    0.38
 -12   0  -6    1.50    0.32
  12   0   8   10.54    1.36
 -12   0  -8    9.42    1.28
  12  -2   1    2.97    0.42
 -12   2  -1    2.47    0.38
  12   2   2   10.58    1.25
  12  -2   2   14.66    1.74
 -12  -2  -2   12.85    1.50
 -12   2  -2   11.68    1.40
  12   2   3    7.64    0.94
 -12  -2  -3    9.95    1.20
  12   2   4    9.52    1.19
  12  -2   4    8.11    1.06
 -12  -2  -4    8.21    1.05
 -12   2  -4    8.19    1.03
  12   2   5    1.25    0.34
  12  -2   5    1.14    0.34
 -12   2  -5    0.47    0.27
  12   2   6    0.22    0.16
 -12  -2  -6    0.32    0.19
 -12   2  -6    0.92    0.29
  12   2   7    0.27    0.17
  12   2  -7    0.15    0.18
  12  -2   7    0.55    0.21
 -12  -2  -7    0.22    0.17
 -12   2  -7    0.57    0.21
  12   2   8    0.52    0.24
  12   2  -8    0.49    0.24
  12  -2   8    0.89    0.28
 -12  -2   8    0.50    0.25
 -12   2  -8    0.66    0.29
  12   4   1    0.68    0.12
  12  -4   1    0.98    0.26
  12   4   2    0.84    0.16
  12  -4   2    0.97    0.30
 -12  -4  -2    1.11    0.20
 -12   4  -2    0.84    0.29
  12   4   3    1.79    0.30
  12  -4   3    1.37    0.31
 -12  -4  -3    1.87    0.32
 -12   4  -3    1.39    0.34
  12   4   4    1.23    0.27
  12   4  -4    0.80    0.26
  12  -4   4    1.12    0.32
 -12  -4  -4    1.09    0.29
 -12  -4   4    0.73    0.27
 -12   4  -4    0.87    0.31
  12  -4   5    2.21    0.42
 -12  -4   5    1.55    0.32
 -12   4  -5    2.22    0.43
  12   4   6    0.06    0.16
  12   4  -6    0.18    0.15
  12  -4   6    0.19    0.20
 -12  -4  -6    0.13    0.16
 -12  -4   6    0.11    0.16
  12   4   7    1.43    0.31
  12  -4   7    1.66    0.34
 -12  -4   7    1.32    0.35
 -12   4  -7    1.83    0.37
  12   4   8    0.06    0.20
  12   4  -8    0.12    0.18
  12  -4   8    0.05    0.22
 -12  -4  -8    0.19    0.24
 -12  -4   8   -0.01    0.20
  12   6   0    6.66    0.77
  12   6   1    8.40    0.97
  12   6  -1   11.54    1.34
 -12  -6  -1    8.23    0.96
 -12  -6   1    6.53    0.78
 -12   6  -1    7.78    0.98
  12   6   2    1.57    0.23
  12   6  -2    1.68    0.28
  12  -6   2    1.97    0.43
 -12  -6  -2    0.86    0.17
 -12  -6   2    1.30    0.23
  12   6   3   11.55    1.37
  12   6  -3    9.89    1.21
  12  -6   3   14.39    1.76
 -12  -6  -3   14.71    1.74
 -12  -6   3   10.83    1.33
 -12   6  -3   15.11    1.86
  12   6   4    3.38    0.50
  12  -6   4    3.16    0.52
 -12  -6  -4    2.28    0.43
 -12  -6   4    2.25    0.44
 -12   6  -4    2.62    0.46
  12  -6   5    3.89    0.59
 -12  -6  -5    2.89    0.47
 -12   6  -5    3.59    0.56
  12   6   6    0.68    0.22
  12  -6   6    0.21    0.19
 -12  -6  -6    0.19    0.19
 -12  -6   6    0.41    0.21
  12   6   7    1.04    0.26
  12   6  -7    0.85    0.28
  12  -6   7    0.65    0.23
 -12  -6  -7    0.49    0.23
 -12  -6   7    0.60    0.25
 -12   6  -7    0.38    0.23
  12   8   0   44.85    5.14
 -12  -8   0   44.56    5.11
  12   8  -1    2.01    0.27
  12  -8   1    1.58    0.38
 -12  -8   1    1.90    0.26
 -12   8  -1    1.32    0.35
  12   8  -2   26.68    3.08
  12  -8   2   19.84    2.38
 -12  -8   2   22.20    2.58
  12   8  -3    0.52    0.20
 -12  -8   3    1.56    0.31
 -12   8  -3    0.78    0.38
  12   8  -4    2.60    0.42
  12  -8   4    3.17    0.53
 -12  -8  -4    1.66    0.34
 -12  -8   4    2.73    0.46
 -12   8  -4    2.55    0.53
  12   8   5    0.66    0.20
  12  -8   5    0.54    0.25
 -12  -8  -5    0.71    0.23
 -12   8  -5    0.57    0.31
  12   8   6    0.34    0.17
  12   8  -6    0.36    0.18
 -12  -8   6    0.37    0.19
 -12   8  -6    0.47    0.23
  12   8   7    0.65    0.23
  12   8  -7    0.58    0.22
 -12  -8  -7    0.33    0.21
 -12  -8   7    0.62    0.25
 -12   8  -7    0.56    0.28
  12  10   0    3.39    0.43
 -12 -10   0    3.33    0.42
  12  10  -1    0.40    0.12
  12 -10   1    0.15    0.33
 -12 -10   1    0.17    0.13
  12  10  -2   28.04    3.24
  12 -10   2   23.26    2.80
  12  10  -3   -0.01    0.19
  12 -10   3   -0.23    0.28
 -12 -10   3    0.26    0.22
 -12  10  -3   -0.50    0.39
  12  10  -4    1.24    0.31
  12 -10   4    1.82    0.41
 -12 -10   4    1.18    0.32
 -12  10  -4    1.41    0.37
  12 -10   5   -0.10    0.26
 -12  10  -5    0.01    0.22
  12  10  -6    0.39    0.19
  12 -10   6    0.29    0.21
 -12 -10   6    0.43    0.19
 -12  10  -6    0.09    0.20
  12  10  -7   -0.06    0.15
  12 -10   7    0.02    0.19
 -12 -10  -7   -0.04    0.15
 -12 -10   7   -0.04    0.18
 -12  10  -7    0.03    0.20
  12  12   0   11.95    1.39
 -12 -12   0   12.22    1.42
  12  12  -1    4.64    0.57
  12 -12   1    3.89    0.60
 -12 -12   1    4.75    0.58
 -12  12  -1    4.17    0.65
  12  12  -2    1.10    0.22
  12 -12   2    1.21    0.35
 -12 -12   2    1.31    0.26
 -12  12  -2    1.22    0.36
  12  12  -3    7.53    0.94
  12 -12   3    6.90    0.96
 -12 -12   3    4.44    0.61
 -12  12  -3    5.87    0.86
  12  12  -4    2.48    0.40
 -12 -12   4    2.32    0.39
 -12  12  -4    2.21    0.47
  12  12  -5    0.15    0.13
  12 -12   5    0.30    0.24
 -12 -12   5    0.17    0.16
 -12  12  -5    0.55    0.34
  12  12  -6    0.61    0.20
  12 -12   6    0.65    0.36
 -12 -12   6    0.74    0.23
 -12  12  -6    0.44    0.26
  12  14   0    0.04    0.14
 -12 -14   0    0.01    0.11
  12  14  -1    5.04    0.63
  12 -14   1    4.10    0.61
 -12 -14   1    5.06    0.64
 -12  14  -1    4.07    0.63
  12  14  -2    0.87    0.20
  12 -14   2    1.14    0.35
 -12 -14   2    1.00    0.21
  12  14  -3    0.89    0.24
 -12 -14   3    2.21    0.38
 -12  14  -3    1.16    0.36
  12  14  -4    0.11    0.16
 -12 -14   4   -0.06    0.16
 -12  14  -4    0.27    0.27
  12  14  -5    1.19    0.28
  12 -14   5    1.54    0.42
 -12 -14   5    0.85    0.24
 -12  14  -5    0.90    0.39
  12  14  -6    0.30    0.17
  12 -14   6    0.24    0.26
 -12 -14   6    0.14    0.18
  12  16  -1    0.00    0.14
 -12 -16   1    0.02    0.13
 -12  16  -1    0.02    0.27
  12  16  -2    1.03    0.22
  12 -16   2    0.72    0.32
 -12 -16   2    0.62    0.18
 -12  16  -2    1.01    0.36
  12  16  -3    0.44    0.16
  12 -16   3    0.23    0.29
 -12 -16   3    0.25    0.15
 -12  16  -3    0.20    0.26
  12  16  -4    0.02    0.12
  12 -16   4   -0.02    0.33
 -12 -16   4   -0.09    0.14
 -12  16  -4   -0.05    0.32
  12  16  -5   -0.04    0.15
  12 -16   5    0.12    0.25
 -12 -16   5   -0.07    0.15
 -12  16  -5    0.22    0.27
  12  18   0    1.51    0.30
 -12 -18   0    2.33    0.36
  12  18  -1    0.39    0.16
 -12 -18   1    0.22    0.18
 -12  18  -1    0.17    0.33
  12  18  -2    0.17    0.13
 -12 -18   2    0.22    0.15
 -12  18  -2    0.17    0.29
  12  18  -3   -0.02    0.14
  12 -18   3    0.43    0.29
 -12 -18   3   -0.05    0.13
  12  18  -4    0.26    0.17
  12 -18   4    0.02    0.22
 -12 -18   4    0.16    0.16
 -12  18  -4   -0.21    0.25
  12  20   0    0.30    0.16
 -12 -20   0    0.10    0.16
  12  20  -1    0.24    0.14
 -12 -20   1    0.10    0.17
 -12  20  -1   -0.29    0.31
  12  20  -2    0.14    0.16
  12 -20   2    0.10    0.21
 -12 -20   2    0.27    0.17
 -12  20  -2    0.13    0.29
  12  20  -3    0.21    0.16
  12 -20   3    0.13    0.25
 -12 -20   3    0.15    0.15
 -12  20  -3    0.08    0.25
  12  22   0    0.06    0.13
 -12 -22   0    0.09    0.14
  12  22  -1    0.01    0.13
  13   1   1   20.18    2.34
  13  -1   1   18.79    2.19
 -13  -1  -1   19.44    2.25
 -13   1  -1   18.06    2.12
  13   1   2   12.62    1.50
  13  -1   2   13.79    1.64
 -13  -1  -2   13.04    1.54
 -13   1  -2   12.93    1.55
  13   1   3    5.42    0.71
  13  -1   3    5.90    0.76
 -13  -1  -3    6.76    0.86
 -13   1  -3    6.70    0.86
  13   1   4    0.35    0.24
 -13  -1  -4    1.20    0.31
  13   1   5   10.75    1.32
  13  -1   5   13.50    1.64
 -13  -1  -5   11.07    1.37
 -13   1  -5   13.93    1.70
  13   1   6    0.13    0.18
  13  -1   6    0.32    0.18
 -13  -1  -6    0.12    0.17
 -13   1  -6    0.22    0.18
  13   1   7    0.08    0.16
 -13  -1  -7    0.08    0.16
 -13   1  -7    0.58    0.24
  13   3   1    0.33    0.12
  13  -3   1   -0.04    0.21
 -13  -3  -1    0.48    0.13
 -13   3  -1    0.00    0.22
  13   3   2    6.35    0.76
 -13  -3  -2    8.60    1.02
 -13   3  -2    8.86    1.12
  13   3   3    0.76    0.23
  13  -3   3    0.59    0.28
 -13  -3  -3    0.55    0.22
  13   3   4    0.58    0.23
 -13   3  -4    0.02    0.25
 -13  -3  -5    0.21    0.21
 -13   3  -5    0.32    0.23
  13   3   6    0.84    0.26
  13   3  -6    0.40    0.19
 -13   3  -6    1.19    0.28
  13   3   7    0.42    0.19
  13   3  -7    0.07    0.17
 -13  -3  -7    0.57    0.23
 -13  -3   7    0.15    0.20
  13   5   1    0.12    0.07
  13  -5   1    0.13    0.29
 -13  -5  -1    0.24    0.09
 -13   5  -1    0.23    0.25
  13   5   2  119.52   13.67
  13  -5   2  168.54   19.33
 -13  -5  -2  139.59   15.96
  13   5   3    0.26    0.18
  13   5  -3    0.11    0.19
  13  -5   3    0.15    0.30
 -13  -5  -3    0.21    0.19
 -13  -5   3    0.68    0.23
 -13   5  -3    0.50    0.41
  13   5   4    0.86    0.23
  13   5  -4    0.13    0.21
  13  -5   4    0.06    0.24
 -13  -5  -4    0.92    0.25
 -13  -5   4    0.19    0.21
 -13   5  -4    0.15    0.28
  13   5   5    0.58    0.18
  13   5  -5    0.81    0.23
  13  -5   5    0.65    0.25
 -13  -5  -5    0.41    0.19
  13   5   6    0.65    0.23
  13  -5   6    0.83    0.27
 -13  -5   6    0.88    0.23
 -13   5  -6    1.31    0.30
  13   5   7    0.14    0.16
  13   5  -7    0.21    0.17
 -13  -5  -7    0.05    0.16
 -13  -5   7    0.04    0.17
 -13   5  -7    0.07    0.17
  13   7   0   11.75    1.36
 -13  -7   0   12.98    1.50
  13   7  -1    1.52    0.22
  13  -7   1    0.98    0.36
 -13  -7  -1    1.63    0.20
 -13  -7   1    1.97    0.27
  13   7   2    0.68    0.15
  13   7  -2    0.77    0.19
 -13  -7  -2    0.92    0.19
 -13  -7   2    0.82    0.21
  13   7   3    6.06    0.75
  13   7  -3    6.62    0.85
  13  -7   3    6.56    0.93
 -13  -7  -3    5.89    0.74
 -13  -7   3    5.67    0.75
 -13   7  -3    7.33    1.01
  13   7   4    3.08    0.43
  13   7  -4    3.67    0.57
  13  -7   4    4.30    0.68
 -13  -7  -4    3.49    0.52
 -13   7  -4    3.51    0.59
  13   7   5    0.57    0.17
  13   7  -5    0.18    0.17
  13  -7   5    0.58    0.29
 -13  -7  -5    0.59    0.22
 -13  -7   5    0.85    0.27
 -13   7  -5    0.33    0.29
  13   7  -6    1.05    0.25
  13  -7   6    0.75    0.24
 -13  -7   6    1.36    0.30
 -13   7  -6    0.84    0.26
  13   7   7    1.89    0.38
  13   7  -7    1.97    0.40
  13  -7   7    2.37    0.44
 -13  -7  -7    2.28    0.45
 -13  -7   7    2.19    0.43
 -13   7  -7    1.71    0.38
  13   9   0    0.10    0.10
 -13  -9   0    0.19    0.09
  13  -9   1    0.96    0.37
 -13  -9   1    1.03    0.18
  13   9  -2    0.13    0.14
 -13  -9   2    0.19    0.16
 -13   9  -2    0.74    0.36
  13   9  -3    1.25    0.25
  13  -9   3    1.24    0.42
 -13  -9   3    1.67    0.30
 -13   9  -3    0.70    0.36
  13   9  -4    0.03    0.16
  13  -9   4    0.16    0.23
 -13  -9   4   -0.01    0.17
 -13   9  -4    0.32    0.26
  13   9  -5    2.23    0.36
  13  -9   5    2.39    0.43
 -13  -9  -5    2.06    0.36
 -13  -9   5    2.48    0.42
 -13   9  -5    4.57    0.67
  13   9   6    0.12    0.14
  13   9  -6    0.11    0.15
  13  -9   6   -0.09    0.15
 -13  -9  -6    0.27    0.18
 -13  -9   6   -0.05    0.15
 -13   9  -6    0.02    0.23
  13   9   7    1.46    0.32
  13  -9   7    2.08    0.43
 -13  -9  -7    1.74    0.35
 -13   9  -7    1.23    0.40
  13  11   0    4.63    0.56
 -13 -11   0    4.01    0.49
  13  11  -1    3.14    0.39
  13 -11   1    2.73    0.53
 -13 -11   1    2.86    0.37
 -13  11  -1    2.03    0.46
  13 -11   2    0.14    0.27
 -13  11  -2   -0.05    0.29
  13  11  -3    6.96    0.87
  13 -11   3    6.92    0.99
 -13 -11   3    6.68    0.84
 -13  11  -3    6.34    0.92
  13  11  -4    1.08    0.25
  13 -11   4    0.54    0.33
 -13 -11   4    1.45    0.30
 -13  11  -4    0.78    0.32
  13  11  -5    0.06    0.13
 -13 -11   5    0.16    0.14
 -13  11  -5    0.26    0.24
  13  11  -6    0.37    0.17
  13 -11   6    0.09    0.19
 -13  11  -6    0.14    0.21
  13  13   0    4.25    0.53
 -13 -13   0    4.63    0.57
  13  13  -1    1.15    0.20
 -13 -13   1    0.99    0.19
 -13  13  -1    0.42    0.29
  13  13  -2    1.11    0.22
  13 -13   2    1.05    0.33
 -13 -13   2    1.03    0.20
  13  13  -3    0.27    0.15
 -13 -13   3    0.16    0.16
 -13  13  -3    0.14    0.24
  13  13  -4    0.95    0.25
 -13 -13   4    0.81    0.22
 -13  13  -4    1.32    0.39
  13  13  -5    0.53    0.18
  13 -13   5    0.96    0.33
 -13 -13   5    0.70    0.22
  13  13  -6    1.58    0.35
  13 -13   6    1.82    0.49
 -13  13  -6    1.52    0.43
  13  15   0    0.26    0.14
 -13 -15   0    0.37    0.13
  13  15  -1    0.00    0.12
 -13 -15   1    0.08    0.13
 -13  15  -1    0.13    0.29
  13  15  -2    0.31    0.13
  13 -15   2    0.21    0.26
 -13 -15   2    0.07    0.13
 -13  15  -2   -0.08    0.25
  13  15  -3    0.09    0.12
  13 -15   3    0.13    0.27
 -13 -15   3    0.26    0.15
 -13  15  -3    0.16    0.27
  13  15  -4    0.41    0.16
  13 -15   4    0.28    0.31
 -13 -15   4   -0.02    0.13
 -13  15  -4    0.07    0.31
  13  15  -5    0.10    0.15
  13 -15   5   -0.06    0.23
 -13 -15   5    0.12    0.15
 -13  15  -5    0.04    0.29
  13  17   0    0.18    0.14
 -13 -17   0    0.64    0.19
  13  17  -1    0.33    0.17
  13 -17   1   -0.04    0.32
 -13 -17   1    0.20    0.14
 -13  17  -1    0.07    0.33
  13  17  -2    0.26    0.14
  13 -17   2   -0.13    0.30
 -13 -17   2    0.05    0.11
 -13  17  -2    0.03    0.29
  13  17  -3    2.82    0.43
  13 -17   3    1.88    0.48
 -13 -17   3    2.71    0.41
  13  17  -4    0.16    0.16
  13 -17   4    0.21    0.28
 -13 -17   4    0.14    0.17
 -13  17  -4    0.16    0.26
  13  19   0    0.41    0.19
 -13 -19   0    0.21    0.16
  13  19  -1    0.34    0.18
  13 -19   1    0.27    0.30
 -13 -19   1    0.09    0.16
  13  19  -2    0.04    0.12
  13 -19   2    0.13    0.25
 -13 -19   2    0.02    0.11
 -13  19  -2   -0.11    0.28
  13  19  -3    0.22    0.16
  13 -19   3    0.32    0.26
 -13 -19   3    0.13    0.15
 -13  19  -3   -0.01    0.24
  13  21   0    1.99    0.33
 -13 -21   0    2.20    0.36
  13  21  -1    0.03    0.12
  13 -21   1    0.11    0.24
 -13 -21   1    0.28    0.17
  14   0   2   12.13    1.46
 -14   0  -2   11.98    1.46
  14   0   4    0.61    0.22
 -14   0  -4    0.39    0.21
  14   0   6    0.16    0.17
 -14   0  -6    0.76    0.26
  14  -2   1    0.94    0.29
 -14  -2  -1    1.20    0.26
 -14   2  -1    0.68    0.26
  14   2   2    3.16    0.43
  14  -2   2    3.58    0.53
 -14  -2  -2    2.67    0.39
 -14   2  -2    3.38    0.53
  14   2   3    0.56    0.23
  14  -2   3    0.14    0.23
 -14  -2  -3    0.26    0.22
 -14   2  -3    0.36    0.23
  14   2   4    0.37    0.20
  14  -2   4    0.34    0.20
 -14  -2  -4    0.05    0.20
 -14   2  -4    0.32    0.23
  14  -2   5    0.29    0.19
 -14   2  -5    0.71    0.24
  14   2   6    0.50    0.19
  14  -2   6    0.79    0.24
 -14  -2  -6    0.53    0.19
 -14   2  -6    1.08    0.28
  14  -2   7   -0.09    0.16
 -14  -2  -7    0.07    0.21
 -14   2  -7   -0.15    0.16
  14   4   1    7.94    0.93
 -14  -4  -1    8.48    1.00
  14   4   2    1.05    0.20
 -14  -4  -2    1.00    0.20
  14   4   3    4.44    0.58
 -14  -4  -3    5.31    0.68
 -14   4  -3    6.16    0.85
  14   4   4    0.41    0.20
 -14  -4  -4    0.26    0.19
 -14   4  -4    0.17    0.22
  14   4   5    0.90    0.19
  14   4  -5    0.71    0.20
  14  -4   5    1.15    0.31
 -14  -4  -5    1.07    0.24
 -14   4  -5    0.99    0.28
  14   4  -6    0.12    0.14
  14  -4   6   -0.06    0.15
 -14  -4   6    0.13    0.16
 -14   4  -6    0.31    0.19
  14   4   7    1.57    0.32
  14   4  -7    1.00    0.29
  14  -4   7    2.43    0.42
 -14  -4  -7    1.12    0.29
 -14   4  -7    1.79    0.37
  14   6   1    5.31    0.62
  14  -6   1    5.18    0.74
 -14  -6  -1    6.62    0.77
  14   6   2    4.08    0.50
  14   6  -2    4.03    0.50
  14  -6   2    4.79    0.71
 -14  -6   2    3.25    0.42
  14   6   3    4.79    0.61
  14   6  -3    5.40    0.69
  14  -6   3    4.81    0.71
 -14  -6  -3    4.62    0.60
 -14  -6   3    4.42    0.59
 -14   6  -3    6.72    0.93
  14   6   4    0.03    0.14
  14   6  -4    0.23    0.17
  14  -6   4    0.37    0.26
 -14  -6  -4    0.14    0.17
 -14  -6   4    0.10    0.18
 -14   6  -4    0.12    0.21
  14   6   5    0.53    0.16
  14   6  -5    0.40    0.16
 -14  -6  -5    0.94    0.24
 -14  -6   5    0.57    0.19
 -14   6  -5    1.25    0.31
  14   6  -6    0.13    0.14
  14  -6   6    0.23    0.17
 -14  -6  -6    0.70    0.22
 -14   6  -6    0.06    0.15
  14   6   7    1.47    0.36
  14  -6   7    0.89    0.26
 -14  -6  -7    1.52    0.38
 -14  -6   7    1.30    0.34
 -14   6  -7    1.57    0.35
  14   8   0    1.10    0.16
 -14  -8   0    0.99    0.15
  14   8  -1    0.39    0.12
  14  -8   1   -0.09    0.32
 -14  -8   1    0.14    0.12
 -14   8  -1    0.42    0.39
  14   8  -2    0.95    0.20
  14  -8   2    2.78    0.56
 -14  -8  -2    1.52    0.22
 -14  -8   2    1.36    0.24
 -14   8  -2    0.85    0.40
  14   8   3    0.10    0.12
  14   8  -3    0.11    0.17
 -14  -8  -3    0.11    0.14
 -14  -8   3    0.21    0.21
 -14   8  -3    0.28    0.29
  14   8   4    0.31    0.13
  14   8  -4    0.47    0.20
  14  -8   4    0.04    0.23
 -14  -8  -4    0.76    0.20
 -14  -8   4    0.33    0.20
 -14   8  -4    0.31    0.26
  14   8   5    0.05    0.11
  14   8  -5    0.06    0.14
  14  -8   5    0.16    0.19
 -14  -8  -5   -0.05    0.16
 -14  -8   5   -0.02    0.16
 -14   8  -5    0.09    0.18
  14   8   6    1.12    0.24
  14   8  -6    0.89    0.24
 -14  -8  -6    0.52    0.20
 -14   8  -6    0.58    0.24
 -14  -8  -7    0.08    0.18
 -14  -8   7    0.27    0.21
 -14   8  -7   -0.01    0.21
  14  10   0    2.86    0.36
 -14 -10   0    2.94    0.36
  14  10  -1    0.12    0.09
 -14 -10   1    0.49    0.13
 -14  10  -1   -0.11    0.37
  14  10  -2    0.54    0.16
  14 -10   2    0.39    0.32
 -14 -10   2    0.39    0.14
 -14  10  -2    0.44    0.31
  14  10  -3    0.12    0.15
 -14 -10   3    0.15    0.13
 -14  10  -3    0.40    0.33
  14  10  -4    0.58    0.18
  14 -10   4    0.55    0.26
 -14 -10   4    0.40    0.17
 -14  10  -4    0.56    0.29
  14  10  -5    0.02    0.11
  14 -10   5    0.29    0.21
 -14 -10  -5    0.16    0.14
 -14 -10   5    0.04    0.14
 -14  10  -5   -0.08    0.19
  14  10  -6    0.34    0.19
  14 -10   6    0.16    0.20
 -14 -10  -6    0.40    0.20
 -14 -10   6    0.04    0.17
 -14  10  -6    0.01    0.18
  14  12   0    1.28    0.20
 -14 -12   0    1.40    0.21
  14  12  -1    0.14    0.10
 -14  12  -1    0.10    0.29
  14  12  -2    0.45    0.14
  14 -12   2   -0.02    0.28
 -14 -12   2    0.23    0.12
 -14  12  -2    0.16    0.34
  14  12  -3    0.13    0.12
  14 -12   3    0.57    0.36
 -14 -12   3    0.21    0.13
 -14  12  -3    0.56    0.28
  14  12  -4    0.22    0.12
  14 -12   4    0.69    0.32
 -14 -12   4    0.31    0.15
 -14  12  -4    0.50    0.32
  14  12  -5    0.21    0.15
  14 -12   5    0.24    0.25
 -14 -12   5   -0.07    0.15
  14  12  -6    0.25    0.18
  14 -12   6    0.26    0.23
 -14 -12   6    0.17    0.17
 -14  12  -6    0.42    0.28
  14  14   0    0.27    0.12
 -14 -14   0    0.50    0.14
  14  14  -1    0.19    0.12
  14 -14   1   -0.01    0.26
 -14 -14   1    0.15    0.11
 -14  14  -1    0.05    0.30
  14  14  -2    0.12    0.12
  14 -14   2    0.13    0.26
 -14 -14   2    0.04    0.11
 -14  14  -2    0.14    0.28
  14  14  -3    0.12    0.13
  14 -14   3    0.11    0.26
 -14 -14   3    0.06    0.12
 -14  14  -3    0.33    0.27
  14  14  -4    0.15    0.12
  14 -14   4    0.15    0.26
 -14 -14   4    0.02    0.12
 -14  14  -4    0.23    0.30
  14  14  -5    0.19    0.16
  14 -14   5    0.06    0.26
 -14 -14   5    0.10    0.15
  14  16   0    0.39    0.17
 -14 -16   0    0.16    0.13
  14  16  -1    0.17    0.15
  14 -16   1    0.14    0.29
 -14 -16   1    0.09    0.13
  14  16  -2    0.10    0.12
  14 -16   2    0.07    0.28
 -14 -16   2    0.09    0.11
 -14  16  -2    0.18    0.37
  14  16  -3    0.24    0.15
  14 -16   3    0.86    0.37
 -14 -16   3    0.28    0.13
  14  16  -4    0.01    0.12
  14 -16   4    0.08    0.25
 -14 -16   4    0.19    0.16
 -14  16  -4    0.09    0.25
  14  18   0    0.69    0.20
 -14 -18   0    1.07    0.24
  14  18  -1    0.13    0.16
  14 -18   1    0.05    0.26
 -14 -18   1    0.10    0.13
  14  18  -2    0.19    0.14
  14 -18   2   -0.18    0.23
 -14 -18   2    0.11    0.12
 -14  18  -2   -0.02    0.28
  14  18  -3    0.01    0.10
  14 -18   3    0.42    0.29
 -14 -18   3    0.01    0.14
 -14  18  -3   -0.13    0.24
  14  20   0    0.13    0.14
 -14 -20   0    0.18    0.15
  14  20  -1    0.00    0.14
  14 -20   1    0.06    0.22
 -14 -20   1    0.07    0.16
 -14  20  -1   -0.05    0.34
  15   1   1    0.51    0.24
  15  -1   1    1.04    0.34
 -15  -1  -1    0.92    0.25
  15   1   2    2.25    0.37
  15  -1   2    1.92    0.37
 -15  -1  -2    1.74    0.37
 -15   1  -2    2.22    0.41
  15   1   3    1.79    0.32
  15  -1   3    1.72    0.31
 -15  -1  -3    1.74    0.32
 -15   1  -3    2.39    0.39
  15   1   4    0.82    0.23
 -15  -1  -4    0.29    0.20
 -15   1  -4    0.14    0.20
 -15  -1  -5    1.33    0.29
  15   1   6    0.09    0.12
  15  -1   6   -0.06    0.15
 -15  -1  -6    0.12    0.14
 -15   1  -6   -0.02    0.15
  15   1   7    4.40    0.68
  15  -1   7    2.86    0.51
  15   3   1    0.59    0.20
  15  -3   1    0.65    0.29
 -15  -3  -1    1.06    0.24
  15   3   2    3.63    0.47
  15  -3   2    3.35    0.57
 -15  -3  -2    3.16    0.42
 -15   3  -2    3.20    0.53
  15   3   3    1.03    0.24
 -15  -3  -3    1.07    0.24
  15   3   4    0.40    0.15
  15  -3   4    0.13    0.17
 -15   3  -4    0.12    0.18
  15   3   5    0.15    0.15
  15  -3   5    0.08    0.15
 -15  -3  -5    0.07    0.16
 -15   3  -5    0.04    0.15
  15   3   7    0.18    0.17
  15   3  -7    0.20    0.17
  15  -3   7    0.35    0.22
 -15  -3  -7    0.26    0.20
 -15   3  -7    0.47    0.25
  15   5   1    0.25    0.13
  15  -5   1    0.11    0.28
 -15  -5  -1    0.19    0.13
  15   5   2   20.68    2.38
  15  -5   2   15.35    1.86
 -15  -5  -2   17.60    2.04
  15   5   3    0.37    0.14
  15  -5   3    0.17    0.24
 -15  -5  -3    0.23    0.16
 -15   5  -3    0.74    0.30
  15   5   4    1.36    0.26
  15  -5   4    1.52    0.32
 -15  -5  -4    1.72    0.31
 -15   5  -4    1.73    0.35
  15   5   5    0.10    0.11
  15   5  -5    0.04    0.14
  15  -5   5    0.11    0.15
 -15  -5  -5    0.16    0.16
 -15  -5   5    0.14    0.16
 -15   5  -5    0.05    0.16
  15   5   6    0.48    0.17
 -15  -5  -6    0.52    0.20
 -15   5  -6   -0.07    0.17
 -15  -5  -7   -0.02    0.18
 -15  -5   7    0.18    0.19
  15   7   1    0.72    0.10
  15   7  -1    0.41    0.11
 -15  -7  -1    0.84    0.12
 -15   7  -1    0.14    0.36
  15   7   2    0.50    0.12
  15   7  -2    0.39    0.13
 -15  -7  -2    0.42    0.12
 -15  -7   2    0.39    0.15
  15   7   3    1.61    0.24
  15   7  -3    1.33    0.26
  15  -7   3    1.51    0.39
 -15  -7  -3    1.30    0.22
 -15  -7   3    2.28    0.34
 -15   7  -3    1.86    0.41
  15   7   4    0.62    0.16
  15   7  -4    0.14    0.16
 -15  -7  -4    0.06    0.13
  15   7   5    0.93    0.20
  15   7  -5    0.79    0.20
  15  -7   5    1.11    0.29
 -15  -7  -5    1.51    0.31
 -15  -7   5    0.56    0.19
 -15   7  -5    0.61    0.27
  15   7   6    0.07    0.12
  15   7  -6    0.04    0.13
  15  -7   6    0.25    0.16
 -15  -7  -6    0.16    0.16
 -15  -7   6    0.12    0.17
 -15   7  -6    0.23    0.18
  15   9   0    0.54    0.11
 -15  -9   0    0.84    0.13
  15   9  -1    0.86    0.16
 -15  -9   1    0.94    0.16
 -15   9  -1    0.44    0.35
  15   9  -2   -0.03    0.10
  15  -9   2    0.24    0.31
 -15  -9   2   -0.06    0.12
 -15   9  -2   -0.03    0.26
  15   9  -3    4.16    0.54
 -15  -9  -3    3.56    0.45
 -15  -9   3    3.83    0.52
 -15   9  -3    4.99    0.77
  15   9   4    0.03    0.11
  15   9  -4    0.05    0.12
  15  -9   4    0.12    0.21
 -15  -9  -4   -0.03    0.12
 -15  -9   4    0.01    0.14
 -15   9  -4   -0.08    0.22
  15   9   5    1.27    0.24
  15   9  -5    1.21    0.26
  15  -9   5    0.97    0.27
 -15  -9  -5    1.36    0.29
 -15  -9   5    0.98    0.26
 -15   9  -5    1.11    0.30
  15   9   6    0.17    0.12
  15  -9   6    0.06    0.17
 -15  -9  -6   -0.01    0.15
  15  11   0    1.44    0.21
 -15 -11   0    1.27    0.18
  15  11  -1    0.27    0.11
 -15 -11   1    0.09    0.10
 -15  11  -1   -0.15    0.40
  15  11  -2    1.44    0.24
  15 -11   2    0.41    0.29
 -15  11  -2    1.06    0.37
  15  11  -3    0.37    0.15
  15 -11   3    0.80    0.35
 -15 -11   3    0.35    0.15
 -15  11  -3    0.25    0.25
  15  11  -4    0.98    0.23
  15 -11   4    0.58    0.27
 -15 -11   4    0.51    0.18
 -15  11  -4    0.23    0.27
  15  11  -5    0.15    0.15
  15 -11   5    0.37    0.25
 -15 -11   5    0.45    0.22
 -15  11  -5    0.48    0.27
  15  11  -6    0.06    0.14
  15 -11   6    0.08    0.19
 -15 -11  -6    0.12    0.15
 -15 -11   6    0.20    0.17
 -15  11  -6   -0.06    0.20
  15  13   0    4.05    0.51
 -15 -13   0    4.45    0.55
  15  13  -1    0.44    0.13
 -15 -13   1    0.27    0.12
  15  13  -2    1.25    0.22
  15 -13   2    0.97    0.35
 -15 -13   2    1.59    0.26
 -15  13  -2    1.05    0.37
  15  13  -3    0.02    0.10
  15 -13   3    0.01    0.27
 -15 -13   3    0.09    0.12
 -15  13  -3    0.37    0.30
  15  13  -4    0.47    0.15
  15 -13   4    0.26    0.27
 -15 -13   4    0.93    0.22
 -15  13  -4   -0.01    0.28
  15  13  -5    0.05    0.15
 -15 -13   5    0.09    0.15
 -15  13  -5   -0.12    0.24
  15  15   0    1.07    0.22
 -15 -15   0    1.65    0.27
  15  15  -1    0.19    0.13
  15 -15   1   -0.01    0.24
 -15 -15   1   -0.03    0.11
 -15  15  -1   -0.04    0.39
  15 -15   2    0.18    0.28
 -15 -15   2    0.55    0.16
  15  15  -3    0.17    0.12
  15 -15   3    0.17    0.27
 -15 -15   3    0.05    0.11
  15 -15   4    0.08    0.22
 -15 -15   4    0.17    0.15
 -15  15  -4    0.14    0.26
  15  17   0    0.45    0.19
 -15 -17   0    0.32    0.16
  15  17  -1    0.32    0.17
  15 -17   1    0.08    0.27
 -15 -17   1    0.34    0.15
 -15  17  -1    0.53    0.41
  15  17  -2   -0.01    0.11
  15 -17   2   -0.07    0.25
 -15 -17   2    0.06    0.11
 -15  17  -2    0.03    0.28
  15  17  -3    1.36    0.25
  15 -17   3    0.52    0.29
 -15 -17   3    1.22    0.26
 -15  17  -3    0.90    0.38
  15  19   0    0.16    0.15
 -15 -19   0    0.25    0.16
  15  19  -1    0.13    0.15
  15 -19   1    0.23    0.24
 -15 -19   1    0.18    0.14
 -15  19  -1    0.20    0.31
  15 -19   2   -0.05    0.20
 -15  19  -2    0.02    0.29
  16   0   2   29.02    3.38
 -16   0  -2   32.86    3.82
  16   0   4    0.61    0.19
 -16   0  -4    0.77    0.22
  16   0   6    0.74    0.21
 -16   0  -6    0.41    0.20
  16   2   1    0.42    0.18
  16  -2   1    0.48    0.25
 -16   2  -1    0.58    0.33
  16   2   2    6.81    0.84
  16  -2   2    6.96    0.90
 -16  -2  -2    5.87    0.74
  16  -2   3    0.05    0.17
 -16  -2  -3    0.32    0.19
 -16   2  -3    0.20    0.21
  16   2   5    0.12    0.12
  16  -2   5    0.40    0.21
 -16  -2  -5    0.89    0.24
  16  -2   6    0.41    0.18
 -16   2  -6    0.51    0.21
 -16  -4  -1    0.85    0.19
 -16   4  -1    0.67    0.36
  16   4   2    0.22    0.11
 -16  -4  -2    0.27    0.12
  16   4   4    0.04    0.11
  16  -4   4    0.10    0.17
 -16  -4  -4    0.51    0.19
 -16   4  -4    0.07    0.19
  16   4   5    1.24    0.24
 -16  -4  -5    0.98    0.23
  16   4   6   -0.01    0.12
  16   4  -6   -0.01    0.15
  16  -4   6    0.16    0.17
 -16  -4  -6   -0.05    0.17
 -16   4  -6    0.10    0.16
  16   6   1    0.40    0.10
 -16  -6  -1    0.54    0.12
 -16   6  -1    0.24    0.33
  16   6   2    1.34    0.19
  16  -6   2    2.41    0.45
 -16  -6  -2    1.31    0.19
  16   6   3    1.29    0.21
  16   6  -3    1.28    0.23
  16  -6   3    1.75    0.38
 -16  -6  -3    1.16    0.20
 -16   6  -3    1.47    0.36
  16   6   4    0.17    0.12
  16   6  -4    0.26    0.15
  16  -6   4    0.10    0.21
 -16  -6  -4    0.21    0.14
 -16   6  -4    0.11    0.22
  16   6   5    0.38    0.15
  16   6  -5   -0.06    0.14
  16  -6   5   -0.08    0.17
 -16  -6  -5    0.75    0.24
 -16  -6   5    0.02    0.17
 -16   6  -5   -0.02    0.17
  16   6   6    0.08    0.14
  16   6  -6    0.08    0.14
  16  -6   6    0.08    0.14
 -16  -6  -6    0.35    0.20
 -16  -6   6    0.13    0.17
 -16   6  -6    0.16    0.17
  16   8   0   11.69    1.36
  16   8  -1    0.15    0.10
 -16  -8   1    0.23    0.10
 -16   8  -1   -0.01    0.36
  16   8   2    3.43    0.41
  16   8  -2    3.19    0.42
  16  -8   2    2.01    0.46
 -16  -8  -2    2.96    0.37
 -16  -8   2    2.78    0.37
 -16   8  -2    2.54    0.49
  16   8   3    0.22    0.09
  16   8  -3    0.20    0.14
  16  -8   3    0.41    0.30
 -16  -8  -3    0.06    0.10
 -16  -8   3    0.17    0.12
 -16   8  -3    0.57    0.28
  16  -8   4    0.47    0.24
 -16  -8  -4    0.72    0.19
 -16  -8   4    1.18    0.24
 -16   8  -4    0.55    0.27
  16   8   5   -0.04    0.12
  16   8  -5    0.13    0.16
  16  -8   5    0.00    0.16
 -16  -8  -5    0.13    0.17
 -16   8  -5   -0.10    0.17
  16   8   6    1.39    0.28
  16   8  -6    1.32    0.31
  16  -8   6    1.84    0.41
 -16  -8  -6    1.08    0.31
 -16   8  -6    1.51    0.38
  16  10   0    1.10    0.16
 -16 -10   0    0.96    0.15
  16  10  -1    0.12    0.09
  16 -10   1    0.28    0.31
 -16 -10   1    0.04    0.09
 -16  10  -1    0.05    0.34
  16  10  -2    0.41    0.13
  16 -10   2    0.42    0.28
 -16 -10   2    0.36    0.12
 -16  10  -2    0.31    0.27
  16  10  -3    0.16    0.11
  16 -10   3    0.18    0.26
 -16 -10   3    0.05    0.13
 -16  10  -3    0.12    0.23
  16  10  -4    0.21    0.12
  16 -10   4    0.60    0.26
 -16 -10  -4    0.43    0.15
 -16 -10   4    0.28    0.14
 -16  10  -4    0.61    0.29
  16  10   5    0.17    0.12
  16 -10   5    0.15    0.19
 -16 -10  -5    0.26    0.16
 -16 -10   5    0.31    0.17
 -16  10  -5    0.10    0.20
  16  12   0    2.68    0.35
 -16 -12   0    2.54    0.32
  16  12  -1    0.79    0.15
  16 -12   1    0.25    0.28
 -16 -12   1    0.31    0.11
 -16  12  -1    0.60    0.35
  16  12  -2    0.24    0.12
  16 -12   2    0.12    0.28
 -16 -12   2    0.13    0.10
 -16  12  -2    0.02    0.27
  16  12  -3    2.10    0.32
  16 -12   3    2.39    0.49
 -16 -12   3    2.45    0.37
 -16  12  -3    1.31    0.38
  16  12  -4    0.43    0.16
  16 -12   4    0.56    0.29
 -16 -12   4    0.27    0.13
 -16  12  -4    0.27    0.28
  16  12  -5    0.16    0.15
  16 -12   5    0.37    0.25
 -16 -12   5    0.48    0.17
 -16  12  -5    0.40    0.24
  16  14   0    0.21    0.13
 -16 -14   0    0.21    0.13
  16  14  -1    2.27    0.33
 -16 -14   1    2.04    0.30
  16  14  -2    0.25    0.12
  16 -14   2   -0.13    0.24
 -16 -14   2    0.10    0.11
 -16  14  -2   -0.16    0.33
  16  14  -3    1.77    0.29
  16 -14   3    1.01    0.37
 -16 -14   3    1.24    0.23
  16  14  -4    0.03    0.13
  16 -14   4    0.12    0.22
 -16 -14   4    0.17    0.12
 -16  14  -4    0.15    0.25
  16  16   0    0.38    0.17
 -16 -16   0    0.56    0.18
  16  16  -1    0.38    0.16
  16 -16   1    0.13    0.25
 -16 -16   1    0.28    0.13
 -16  16  -1    0.31    0.34
  16  16  -2    1.35    0.26
  16 -16   2    0.23    0.25
 -16 -16   2    0.83    0.19
 -16  16  -2    0.57    0.32
  16  16  -3    0.06    0.11
  16 -16   3    0.11    0.24
 -16 -16   3   -0.03    0.11
 -16  16  -3    0.19    0.28
  16  18   0    1.82    0.32
 -16 -18   0    1.63    0.28
  16  18  -1    0.10    0.15
  16 -18   1   -0.18    0.20
 -16 -18   1    0.11    0.12
 -16  18  -1   -0.19    0.28
  17   1   1    1.14    0.23
  17  -1   1    1.81    0.34
 -17   1  -1    0.64    0.28
  17   1   2    0.13    0.16
  17  -1   2    0.02    0.19
 -17  -1  -2    0.43    0.20
  17   1   3   14.38    1.71
  17  -1   3   18.56    2.20
 -17  -1  -3   14.07    1.69
  17   1   4    0.34    0.17
  17  -1   4    0.38    0.14
 -17  -1  -4    0.35    0.17
 -17   1  -4    0.32    0.20
  17   1   5    1.17    0.26
 -17  -1  -5    0.47    0.20
  17  -1   6    0.14    0.17
 -17   1  -6    0.05    0.16
  17   3   1    0.09    0.12
 -17  -3  -1    0.25    0.15
 -17   3  -1    0.12    0.25
  17   3   2    1.48    0.23
  17  -3   2    1.30    0.29
 -17  -3  -2    1.70    0.26
 -17   3  -2    1.30    0.30
  17   3   3    0.03    0.12
  17  -3   3    0.27    0.21
 -17  -3  -3    0.08    0.14
 -17   3  -3    0.12    0.24
  17   3   4    1.03    0.20
 -17  -3  -4    0.76    0.21
  17   3   5    0.05    0.13
  17  -3   5    0.08    0.14
 -17  -3  -5    0.18    0.16
 -17   3  -5    0.10    0.15
  17   3   6    0.39    0.18
  17  -3   6    0.40    0.21
 -17  -3  -6    0.20    0.17
 -17   3  -6    0.29    0.20
  17   5   2    1.32    0.19
 -17  -5  -2    0.76    0.14
  17   5   3    0.18    0.10
  17  -5   3    0.12    0.19
 -17  -5  -3    0.04    0.11
 -17   5  -3   -0.01    0.21
  17   5   4    2.22    0.33
  17  -5   4    1.31    0.30
 -17   5  -4    1.94    0.39
  17   5   5    0.07    0.12
  17  -5   5    0.09    0.16
 -17  -5  -5    0.01    0.15
 -17   5  -5    0.00    0.18
  17   5  -6    0.84    0.24
 -17  -5  -6    0.52    0.21
  17   7   1    1.21    0.17
 -17   7  -1    0.82    0.33
  17   7   2    0.73    0.12
  17   7  -2    0.86    0.16
  17  -7   2    0.54    0.29
 -17  -7  -2    0.78    0.14
 -17   7  -2    0.58    0.28
  17   7   3    0.18    0.09
  17   7  -3    0.12    0.12
  17  -7   3    0.05    0.21
 -17  -7  -3    0.27    0.12
 -17  -7   3    0.43    0.15
 -17   7  -3    0.33    0.24
  17   7   4    0.31    0.12
  17   7  -4    0.61    0.16
  17  -7   4    1.52    0.37
 -17  -7  -4    0.45    0.15
 -17  -7   4    0.42    0.16
  17   7   5    2.39    0.36
  17   7  -5    1.94    0.35
  17  -7   5    1.69    0.37
 -17  -7  -5    1.34    0.29
 -17  -7   5    2.31    0.38
 -17   7  -5    1.41    0.37
  17   7  -6    0.38    0.19
  17  -7   6    0.70    0.24
 -17  -7  -6    0.67    0.25
 -17  -7   6    0.63    0.24
 -17   7  -6    0.32    0.24
  17   9   0    0.10    0.06
 -17  -9   0   -0.02    0.05
  17   9  -1    0.91    0.16
 -17  -9   1    0.78    0.14
 -17   9  -1    0.29    0.31
  17   9   2    0.09    0.07
  17   9  -2    0.26    0.13
  17  -9   2    0.37    0.27
 -17  -9  -2    0.11    0.08
 -17  -9   2    0.07    0.11
 -17   9  -2    0.16    0.26
  17   9   3    1.85    0.25
  17   9  -3    2.43    0.36
  17  -9   3    1.87    0.44
 -17  -9  -3    1.55    0.23
 -17  -9   3    1.55    0.25
 -17   9  -3    0.97    0.33
  17   9   4    0.09    0.10
  17   9  -4    0.20    0.15
  17  -9   4    0.25    0.23
 -17  -9  -4   -0.01    0.12
 -17  -9   4    0.09    0.12
 -17   9  -4   -0.03    0.23
  17   9   5    2.60    0.39
  17   9  -5    2.66    0.44
  17  -9   5    2.26    0.42
 -17  -9  -5    2.76    0.45
 -17  -9   5    2.54    0.41
 -17   9  -5    3.68    0.59
  17  11   0    0.23    0.07
 -17 -11   0    0.18    0.08
  17  11  -1    0.65    0.14
  17 -11   1    0.27    0.27
 -17 -11   1    1.10    0.18
 -17  11  -1    0.40    0.32
  17  11  -2    0.95    0.19
  17 -11   2    0.61    0.36
 -17 -11   2    0.88    0.18
 -17  11  -2    0.41    0.30
  17  11  -3    0.85    0.18
  17 -11   3    0.98    0.32
 -17 -11   3    0.63    0.17
 -17  11  -3    0.45    0.27
  17  11  -4    0.17    0.11
  17 -11   4    0.22    0.22
 -17 -11   4    0.00    0.13
 -17  11  -4   -0.08    0.24
  17  11  -5    0.12    0.13
  17 -11   5    0.06    0.18
 -17 -11  -5    0.17    0.16
 -17 -11   5   -0.03    0.14
 -17  11  -5    0.15    0.23
  17  13   0    4.38    0.55
 -17 -13   0    4.42    0.54
  17  13  -1    0.73    0.15
  17 -13   1    0.03    0.24
 -17 -13   1    0.81    0.17
 -17  13  -1    0.97    0.38
  17 -13   2    1.52    0.41
 -17 -13   2    1.44    0.24
 -17  13  -2    1.36    0.44
  17  13  -3    0.42    0.14
  17 -13   3    0.74    0.31
 -17 -13   3    0.43    0.15
  17  13  -4    0.96    0.21
  17 -13   4    0.91    0.32
 -17 -13   4    0.96    0.23
 -17  13  -4    1.16    0.39
  17  15   0    1.70    0.28
 -17 -15   0    2.43    0.36
  17  15  -1    0.08    0.12
  17 -15   1   -0.09    0.20
 -17 -15   1   -0.12    0.10
 -17  15  -1   -0.05    0.27
  17  15  -2    0.54    0.15
  17 -15   2    0.28    0.21
 -17 -15   2    0.81    0.19
 -17  15  -2    0.57    0.29
  17  15  -3    0.24    0.15
  17 -15   3    0.27    0.25
 -17 -15   3    0.38    0.15
 -17  15  -3   -0.25    0.24
  17  17   0    0.25    0.15
 -17 -17   0    0.25    0.14
  17  17  -1    0.10    0.14
  17 -17   1   -0.05    0.21
 -17 -17   1    0.15    0.12
 -17  17  -1    0.11    0.29
  18   0   2    1.49    0.27
 -18   0  -2    2.79    0.44
  18   0   4    2.41    0.38
 -18   0  -4    2.77    0.43
  18   2   1    0.21    0.13
 -18  -2  -1    0.27    0.15
 -18   2  -1    0.31    0.22
  18   2   2    0.16    0.13
  18  -2   2    0.42    0.20
 -18  -2  -2    0.15    0.14
 -18   2  -2    0.21    0.19
  18   2   3    0.18    0.13
  18  -2   3    0.36    0.18
 -18  -2  -3    0.24    0.15
 -18   2  -3    0.29    0.24
  18   2   4    0.97    0.22
  18  -2   4    0.95    0.22
 -18  -2  -4    1.70    0.31
 -18   2  -4    0.97    0.25
  18   2   5    0.40    0.16
 -18  -2  -5    0.49    0.19
 -18  -2  -6    0.92    0.28
  18   4   1    0.00    0.10
  18  -4   1    0.08    0.21
 -18   4  -1    0.16    0.22
  18   4   2    0.18    0.09
  18  -4   2    0.57    0.22
 -18  -4  -2    0.14    0.11
 -18   4  -2    0.24    0.20
  18   4   3    8.56    1.03
 -18  -4  -3    6.17    0.76
 -18   4  -3    6.87    0.91
  18   4   4    0.08    0.11
  18  -4   4   -0.03    0.15
 -18  -4  -4    0.15    0.14
  18   4   5    3.62    0.52
  18  -4   5    3.46    0.53
 -18  -4  -5    2.60    0.42
 -18   4  -5    3.52    0.56
  18  -6   1    0.07    0.21
 -18   6  -1    0.58    0.28
  18  -6   2    0.33    0.25
 -18  -6  -2    0.05    0.08
 -18   6  -2    0.08    0.26
  18   6   3    2.06    0.28
  18  -6   3    2.34    0.45
 -18  -6  -3    2.53    0.35
 -18   6  -3    2.59    0.49
  18   6   4    0.67    0.17
 -18  -6  -4    0.39    0.15
 -18   6  -4    0.25    0.29
  18   6   5    0.44    0.15
  18   6  -5    0.39    0.17
  18  -6   5    0.03    0.19
 -18  -6  -5    0.16    0.19
  18   8   1    0.40    0.07
  18   8  -1    0.43    0.12
  18  -8   1   -0.12    0.22
 -18   8  -1    0.21    0.29
  18   8   2    9.89    1.15
  18   8  -2    6.35    0.78
  18  -8   2    7.51    1.03
 -18  -8  -2    7.57    0.89
 -18   8  -2    8.13    1.10
  18   8   3    0.04    0.08
  18   8  -3    0.16    0.12
  18  -8   3    0.30    0.24
 -18  -8  -3    0.12    0.09
 -18  -8   3   -0.02    0.11
 -18   8  -3    0.13    0.23
  18   8   4    0.22    0.11
  18   8  -4    0.15    0.11
  18  -8   4    0.26    0.22
 -18  -8  -4    0.51    0.16
 -18  -8   4    0.40    0.16
 -18   8  -4    0.17    0.26
  18   8   5    0.65    0.17
  18   8  -5    0.63    0.18
  18  -8   5    0.77    0.25
 -18  -8  -5    0.86    0.24
 -18  -8   5    0.60    0.19
 -18   8  -5    0.68    0.28
  18  10   0    0.19    0.06
 -18 -10   0    0.20    0.06
  18  10  -1   -0.02    0.07
  18 -10   1   -0.13    0.23
 -18 -10   1    0.05    0.08
 -18  10  -1    0.07    0.31
  18  10  -2    0.12    0.11
 -18 -10  -2    0.13    0.07
 -18 -10   2    0.15    0.13
 -18  10  -2    0.01    0.29
  18  10   3    0.15    0.08
  18  10  -3    0.25    0.13
  18 -10   3    0.22    0.24
 -18 -10  -3    0.20    0.10
 -18 -10   3    0.18    0.13
 -18  10  -3    0.16    0.23
  18  10   4    0.27    0.11
  18  10  -4    0.12    0.13
  18 -10   4    0.60    0.23
 -18 -10  -4    0.24    0.13
 -18 -10   4    0.16    0.13
 -18  10  -4    0.21    0.20
  18  12   0    0.75    0.13
 -18 -12   0    0.65    0.11
  18  12  -1    1.68    0.25
 -18 -12   1    1.42    0.22
 -18  12  -1    0.70    0.35
  18  12  -2    2.25    0.33
  18 -12   2    1.28    0.37
 -18 -12   2    2.02    0.31
 -18  12  -2    1.17    0.39
  18  12  -3    0.21    0.13
  18 -12   3    0.50    0.24
 -18 -12   3    0.36    0.15
  18  12  -4    0.33    0.16
  18 -12   4    0.29    0.24
 -18 -12   4    0.47    0.16
 -18  12  -4    0.17    0.31
  18  14   0    0.12    0.11
 -18 -14   0    0.21    0.10
  18  14  -1    2.03    0.30
 -18 -14   1    2.99    0.41
  18  14  -2    0.16    0.12
  18 -14   2   -0.11    0.18
 -18 -14   2    0.41    0.15
 -18  14  -2    0.11    0.24
  18  14  -3    0.06    0.13
  18 -14   3    0.02    0.20
 -18 -14   3    0.30    0.15
 -18  14  -3    0.14    0.24
  18  16   0    1.53    0.26
 -18 -16   0    1.50    0.27
  18 -16   1   -0.05    0.19
 -18  16  -1    0.00    0.28
  19  -1   1    0.24    0.18
  19   1   2    0.10    0.13
  19  -1   2    0.04    0.16
 -19  -1  -2    0.64    0.20
 -19   1  -2    0.19    0.17
  19   1   3    0.22    0.16
  19  -1   3    0.40    0.18
 -19  -1  -3    0.81    0.24
 -19   1  -3    0.44    0.24
  19   1   4   -0.01    0.12
  19  -1   4    0.06    0.15
 -19  -1  -4    0.09    0.17
 -19   1  -4    0.03    0.15
  19   1   5    0.16    0.12
  19  -1   5    0.21    0.15
 -19  -1  -5    0.35    0.19
 -19   1  -5    0.05    0.17
  19  -3   1    0.03    0.18
 -19  -3  -1    0.02    0.11
 -19   3  -1    0.03    0.23
  19   3   2    0.59    0.15
  19  -3   2    0.62    0.22
 -19  -3  -2    0.93    0.20
 -19   3  -2    0.49    0.22
  19   3   3    0.11    0.12
  19  -3   3   -0.15    0.18
 -19  -3  -3    0.01    0.13
 -19   3  -3    0.14    0.21
  19   3   4    0.10    0.12
 -19  -3  -4    0.16    0.17
 -19   3  -4    0.65    0.23
  19   3   5    0.24    0.14
 -19  -3  -5    0.05    0.18
  19   5   1   -0.01    0.09
 -19  -5  -1    0.01    0.09
 -19   5  -1    0.03    0.23
  19   5   2    0.48    0.12
 -19  -5  -2    0.74    0.16
  19   5   3    0.09    0.10
 -19  -5  -3    0.09    0.11
  19   5   4    0.20    0.12
  19  -5   4    0.45    0.22
 -19  -5  -4    0.20    0.15
 -19   5  -4    0.32    0.27
  19   5   5   -0.10    0.12
 -19  -5  -5   -0.01    0.18
 -19   5  -5    0.14    0.19
  19   7   1    0.26    0.10
  19  -7   1   -0.11    0.21
 -19   7  -1    0.25    0.27
  19   7   2    1.29    0.19
  19  -7   2    1.45    0.37
 -19  -7  -2    1.39    0.20
 -19   7  -2    1.22    0.34
  19   7   3    0.73    0.15
  19  -7   3    0.68    0.28
 -19   7  -3    0.44    0.26
  19   7   4    0.26    0.12
  19   7  -4    0.30    0.15
  19  -7   4    0.44    0.25
 -19  -7  -4    0.18    0.13
 -19   7  -4    0.53    0.28
  19   9  -1    0.26    0.09
  19  -9   1   -0.01    0.23
 -19   9  -1   -0.06    0.24
  19   9   2    0.00    0.06
  19   9  -2    0.11    0.11
 -19  -9  -2    0.25    0.08
 -19  -9   2    0.09    0.10
  19   9   3    0.43    0.11
  19   9  -3    0.55    0.16
  19  -9   3    0.54    0.26
 -19  -9  -3    0.39    0.11
 -19  -9   3    0.13    0.12
 -19   9  -3    0.53    0.26
  19   9   4    0.10    0.10
  19   9  -4    0.02    0.10
  19  -9   4    0.14    0.22
 -19  -9  -4    0.04    0.12
 -19  -9   4    0.09    0.11
 -19   9  -4    0.04    0.23
  19  11   0    0.09    0.05
 -19 -11   0    0.09    0.06
  19  11  -1    0.31    0.10
  19 -11   1   -0.08    0.23
 -19 -11   1    0.50    0.12
 -19  11  -1    0.41    0.29
  19  11  -2    0.11    0.11
  19 -11   2   -0.06    0.19
 -19 -11   2    0.10    0.12
 -19  11  -2    0.40    0.26
  19  11  -3    0.06    0.12
  19 -11   3    0.23    0.22
 -19 -11  -3    0.01    0.09
 -19 -11   3   -0.04    0.13
  19  13  -1    0.39    0.12
  19 -13   1   -0.10    0.18
 -19 -13   1    0.35    0.11
 -19  13  -1    0.10    0.24
  19  13  -2    2.30    0.36
 -19 -13   2    2.07    0.32
 -19  13  -2    1.10    0.35
  20   0   2    2.46    0.41
 -20   0  -2    2.06    0.35
  20   0   4    0.64    0.19
 -20   0  -4    0.39    0.21
  20   2   1    0.06    0.13
  20  -2   1    0.12    0.18
  20   2   2    0.51    0.17
  20  -2   2    0.28    0.18
 -20  -2  -2    1.13    0.23
 -20   2  -2    0.28    0.21
  20   2   3    0.14    0.13
  20  -2   3    0.32    0.22
 -20  -2  -3    0.17    0.15
 -20   2  -3    0.10    0.22
  20   2   4    0.15    0.15
  20  -2   4    0.15    0.15
 -20  -2  -4    0.13    0.15
 -20   2  -4    0.21    0.18
  20   4   1    0.05    0.10
  20  -4   1   -0.01    0.17
  20   4   2    0.07    0.10
  20  -4   2    0.48    0.24
 -20  -4  -2    0.06    0.13
 -20   4  -2    0.00    0.22
  20   4   3    4.13    0.54
  20  -4   3    5.84    0.80
 -20  -4  -3    5.35    0.68
 -20   4  -3    4.88    0.73
  20   4   4    0.14    0.12
 -20  -4  -4    0.03    0.13
  20   6   1    0.26    0.10
  20   6   2    0.17    0.09
 -20  -6  -2    0.19    0.11
  20   6   3    0.41    0.12
  20  -6   3    0.34    0.22
 -20   6  -3    0.13    0.21
  20   6   4    0.11    0.10
 -20  -6  -4    0.62    0.19
 -20   6  -4   -0.10    0.25
  20   8   1    0.14    0.08
  20  -8   1   -0.11    0.23
  20  -8   2    0.24    0.27
 -20  -8  -2    0.78    0.14
 -20   8  -2    0.51    0.31
  20   8   3    0.34    0.11
  20   8  -3    0.22    0.13
  20  -8   3    0.33    0.22
 -20  -8  -3    0.43    0.13
 -20   8  -3    0.14    0.21
  20  10   0    0.34    0.07
  20  10  -1    0.05    0.09
  20 -10   1   -0.09    0.18
 -20 -10   1    0.11    0.08
  20  10   2    0.18    0.07
  20  10  -2    0.31    0.14
  20 -10   2   -0.01    0.17
 -20 -10  -2    0.30    0.09
 -20 -10   2    0.05    0.11
 -20  10  -2    0.32    0.24
  20  10   3    0.03    0.09
  20  10  -3   -0.01    0.13
 -20 -10  -3    0.07    0.11
 -20 -10   3    0.05    0.12
  20  12   0    0.06    0.06
 -20 -12   0    0.18    0.06
  20  12  -1    0.14    0.09
  20 -12   1    0.20    0.22
 -20 -12  -1    0.10    0.04
 -20 -12   1    0.18    0.09
  21  -1   1   -0.08    0.14
  21   1   2    0.00    0.13
  21  -1   2    0.23    0.18
 -21  -1  -2    0.04    0.15
 -21   1  -2    0.02    0.19
  21   1   3    3.39    0.49
  21  -1   3    3.48    0.51
 -21  -1  -3    4.44    0.62
 -21   1  -3    3.64    0.56
 -21  -1  -4    0.07    0.17
 -21   1  -4    0.09    0.20
  21  -3   1    0.02    0.15
  21   3   2    0.42    0.16
  21  -3   2    0.76    0.28
 -21  -3  -2    0.80    0.20
 -21   3  -2    0.34    0.23
  21   3   3    0.07    0.11
  21  -3   3   -0.11    0.14
 -21  -3  -3    0.12    0.13
 -21   3  -3    0.18    0.19
  21   5   1   -0.08    0.10
  21  -5   1    0.03    0.18
  21   5   2    0.07    0.10
  21  -5   2    0.24    0.17
 -21  -5  -2    0.05    0.12
 -21   5  -2    0.09    0.20
  21   5   3    0.19    0.10
 -21  -5  -3   -0.09    0.12
 -21   5  -3    0.07    0.19
  21   7   1    0.04    0.08
  21  -7   1    0.08    0.16
  21   7   2    0.50    0.12
  21  -7   2    0.19    0.21
 -21  -7  -2    0.32    0.11
 -21   7  -2    0.32    0.23
  21   7   3    0.18    0.10
 -21  -7  -3    0.30    0.13
 -21   7  -3    0.24    0.21
  21   9   1    0.18    0.07
  21  -9   1    0.03    0.20
  21   9   2    0.13    0.08
  21   9  -2    0.03    0.12
 -21  -9  -2    0.15    0.08
 -21   9  -2    0.13    0.24
  22   2   1   -0.06    0.10
  22  -2   1   -0.09    0.12
  22   2   2    1.35    0.24
  22  -2   2    0.53    0.22
 -22  -2  -2    1.06    0.23
 -22   2  -2    0.93    0.27
  22  -4   1    0.07    0.14
  22   4   2   -0.03    0.11
 -22  -4  -2    0.23    0.14
 -22   4  -2   -0.02    0.22
   0   0   0    0.00    0.00
;
_shelx_hkl_checksum              52645
loop_
_space_group_symop_operation_xyz
'x, y, z'
'-x, -y, z+1/2'
'-x, y, -z+1/2'
'x, -y, -z'
'x+1/2, y+1/2, z'
'-x+1/2, -y+1/2, z+1/2'
'-x+1/2, y+1/2, -z+1/2'
'x+1/2, -y+1/2, -z'
'-x, -y, -z'
'x, y, -z-1/2'
'x, -y, z-1/2'
'-x, y, z'
'-x+1/2, -y+1/2, -z'
'x+1/2, y+1/2, -z-1/2'
'x+1/2, -y+1/2, z-1/2'
'-x+1/2, y+1/2, z'
loop_
_atom_site_label
_atom_site_type_symbol
_atom_site_fract_x
_atom_site_fract_y
_atom_site_fract_z
_atom_site_U_iso_or_equiv
_atom_site_adp_type
_atom_site_occupancy
_atom_site_site_symmetry_order
_atom_site_calc_flag
_atom_site_refinement_flags_posn
_atom_site_refinement_flags_adp
_atom_site_refinement_flags_occupancy
Si1 Si 0.19435(17) 0.42591(15) 0.5431(4) 0.0421(10) Uani 1 1 d . . .
Si2 Si 0.19691(17) 0.18957(14) 0.5440(4) 0.0404(10) Uani 1 1 d . . .
Si3 Si 0.0843(2) 0.3795(2) 0.2500 0.0379(11) Uani 1 2 d S T P
Si4 Si 0.08476(19) 0.2225(2) 0.2500 0.0368(11) Uani 1 2 d S T P
O1 O 0.1220(4) 0.4100(4) 0.4267(8) 0.085(2) Uani 1 1 d . . .
O2 O 0.1233(3) 0.1914(3) 0.4237(9) 0.0715(19) Uani 1 1 d . . .
O3 O 0.2623(4) 0.3780(3) 0.4946(9) 0.0775(19) Uani 1 1 d . . .
O4 O 0.0914(6) 0.2998(4) 0.2500 0.092(4) Uani 1 2 d S T P
O5 O 0.1723(5) 0.1920(5) 0.7500 0.075(3) Uani 1 2 d S T P
O6 O 0.1728(5) 0.4191(5) 0.7500 0.070(2) Uani 1 2 d S T P
O7 O 0.2227(5) 0.5000 0.5000 0.066(2) Uani 1 2 d S T P
O8 O 0.2500 0.2500 0.5000 0.088(3) Uani 1 2 d S . P
O9 O 0.0000 0.4035(6) 0.2500 0.060(3) Uani 1 4 d S T P
O10 O 0.0000 0.1982(5) 0.2500 0.055(3) Uani 1 4 d S T P
loop_
_atom_site_aniso_label
_atom_site_aniso_U_11
_atom_site_aniso_U_22
_atom_site_aniso_U_33
_atom_site_aniso_U_23
_atom_site_aniso_U_13
_atom_site_aniso_U_12
Si1 0.0500(19) 0.045(2) 0.0313(16) -0.0013(12) -0.0066(11) 0.0029(12)
Si2 0.0413(19) 0.050(2) 0.0299(16) 0.0014(12) -0.0026(11) 0.0056(11)
Si3 0.033(2) 0.048(3) 0.033(2) 0.000 0.000 -0.0017(15)
Si4 0.0279(19) 0.052(3) 0.0309(19) 0.000 0.000 0.0027(16)
O1 0.068(4) 0.130(6) 0.058(4) -0.010(4) -0.023(3) -0.009(4)
O2 0.047(3) 0.114(6) 0.053(3) 0.018(3) -0.020(2) -0.002(3)
O3 0.079(4) 0.070(5) 0.083(4) -0.014(3) 0.002(3) 0.030(3)
O4 0.062(5) 0.060(6) 0.152(12) 0.000 0.000 -0.004(4)
O5 0.057(5) 0.135(9) 0.031(3) 0.000 0.000 0.008(4)
O6 0.077(5) 0.096(7) 0.036(3) 0.000 0.000 -0.013(4)
O7 0.070(5) 0.056(5) 0.072(5) 0.013(4) 0.000 0.000
O8 0.058(5) 0.087(7) 0.119(8) 0.031(6) -0.018(5) -0.015(4)
O9 0.033(4) 0.064(6) 0.083(7) 0.000 0.000 0.000
O10 0.028(4) 0.071(7) 0.066(6) 0.000 0.000 0.000
loop_
_atom_type_symbol
_atom_type_description
_atom_type_scat_dispersion_real
_atom_type_scat_dispersion_imag
_atom_type_scat_source
O O 0.0000 0.0000 'International Tables Vol C Tables 4.2.6.8 and 6.1.1.4'
Si Si 0.0000 0.0000 'International Tables Vol C Tables 4.2.6.8 and 6.1.1.4'
loop_
_geom_angle_atom_site_label_1
_geom_angle_atom_site_label_2
_geom_angle_atom_site_label_3
_geom_angle
_geom_angle_site_symmetry_1
_geom_angle_site_symmetry_3
_geom_angle_publ_flag
O1 Si1 O6 108.1(4) . . y
O1 Si1 O3 111.9(4) . . y
O6 Si1 O3 110.5(5) . . y
O1 Si1 O7 109.6(4) . . y
O6 Si1 O7 110.4(4) . . y
O3 Si1 O7 106.4(4) . . y
O3 Si2 O8 110.9(3) 13_556 . y
O3 Si2 O2 107.5(4) 13_556 . y
O8 Si2 O2 111.2(3) . . y
O3 Si2 O5 109.2(5) 13_556 . y
O8 Si2 O5 109.8(4) . . y
O2 Si2 O5 108.1(4) . . y
O9 Si3 O1 106.3(4) . . y
O9 Si3 O1 106.3(4) . 10_556 y
O1 Si3 O1 110.3(6) . 10_556 y
O9 Si3 O4 112.4(6) . . y
O1 Si3 O4 110.7(4) . . y
O1 Si3 O4 110.7(4) 10_556 . y
O4 Si4 O2 111.2(4) . . y
O4 Si4 O2 111.2(4) . 10_556 y
O2 Si4 O2 108.3(6) . 10_556 y
O4 Si4 O10 112.3(6) . . y
O2 Si4 O10 106.9(4) . . y
O2 Si4 O10 106.9(4) 10_556 . y
Si1 O1 Si3 150.2(6) . . y
Si2 O2 Si4 145.3(5) . . y
Si2 O3 Si1 157.0(6) 13_556 . y
Si4 O4 Si3 171.2(7) . . y
Si2 O5 Si2 147.7(7) 10_557 . y
Si1 O6 Si1 150.2(6) . 10_557 y
Si1 O7 Si1 143.5(6) 4_566 . y
Si2 O8 Si2 180.0 13_556 . y
Si3 O9 Si3 144.2(9) 3 . y
Si4 O10 Si4 144.1(8) . 3 y
loop_
_geom_bond_atom_site_label_1
_geom_bond_atom_site_label_2
_geom_bond_distance
_geom_bond_site_symmetry_2
_geom_bond_publ_flag
Si1 O1 1.610(6) . y
Si1 O6 1.612(4) . y
Si1 O3 1.617(6) . y
Si1 O7 1.638(4) . y
Si2 O3 1.599(6) 13_556 y
Si2 O8 1.604(3) . y
Si2 O2 1.612(6) . y
Si2 O5 1.615(4) . y
Si3 O9 1.605(5) . y
Si3 O1 1.621(6) . y
Si3 O1 1.621(6) 10_556 y
Si3 O4 1.642(10) . y
Si4 O4 1.592(10) . y
Si4 O2 1.613(6) . y
Si4 O2 1.613(6) 10_556 y
Si4 O10 1.614(5) . y
O3 Si2 1.599(6) 13_556 y
O5 Si2 1.615(4) 10_557 y
O6 Si1 1.612(4) 10_557 y
O7 Si1 1.638(4) 4_566 y
O8 Si2 1.604(3) 13_556 y
O9 Si3 1.605(5) 3 y
O10 Si4 1.614(5) 3 y

_cod_database_fobs_code 2300645
