#------------------------------------------------------------------------------
#$Date: 2021-04-26 21:28:36 +0300 (Mon, 26 Apr 2021) $
#$Revision: 264551 $
#$URL: file:///home/coder/svn-repositories/cod/cif/2/30/04/2300457.cif $
#------------------------------------------------------------------------------
#
# This file is available in the Crystallography Open Database (COD),
# http://www.crystallography.net/. The original data for this entry
# were provided by IUCr Journals, http://journals.iucr.org/.
#
# The file may be used within the scientific community so long as
# proper attribution is given to the journal article from which the
# data were obtained.
#
data_2300457
loop_
_publ_author_name
'Nogueira, I. C.'
'Cavalcante, L. S.'
'Pereira, P. F. S.'
'de Jesus, M. M.'
'Rivas Mercury, J. M.'
'Batista, N. C.'
'Li, M. Siu'
'Longo, E.'
_publ_section_title
;
 Rietveld refinement, morphology and optical properties of
 (Ba~1{-~<i>x</i>}Sr<i>~x~</i>)MoO~4~ crystals
;
_journal_coeditor_code           aj5215
_journal_issue                   5
_journal_name_full               'Journal of Applied Crystallography'
_journal_page_first              1434
_journal_page_last               1446
_journal_paper_doi               10.1107/S0021889813020335
_journal_volume                  46
_journal_year                    2013
_chemical_compound_source        Scheelite
_chemical_formula_analytical     'Ba0.41 Sr0.59 Mo O4'
_chemical_formula_moiety         'Ba0.41 Sr0.59 O4 Mo1'
_chemical_formula_structural     'Ba0.41 Sr0.59 (MoO4)'
_chemical_formula_sum            'Ba0.41 Mo O4 Sr0.59'
_chemical_formula_weight         267.86
_chemical_melting_point          1761
_chemical_name_common            'Barium strontium molybdate'
_space_group_IT_number           88
_symmetry_cell_setting           tetragonal
_symmetry_space_group_name_Hall  '-I 4ad'
_symmetry_space_group_name_H-M   'I 41/a :2'
_audit_creation_date             2012-10-01T00:00
_audit_creation_method           'from EXP file using GSAS2CIF'
_audit_update_record
' 2012-10-01T00:00  Initial CIF as created by GSAS2CIF'
_cell_angle_alpha                90.0
_cell_angle_beta                 90.0
_cell_angle_gamma                90.0
_cell_formula_units_Z            4
_cell_length_a                   5.50729(9)
_cell_length_b                   5.50729
_cell_length_c                   12.4789(4)
_cell_measurement_temperature    298
_cell_volume                     378.488(14)
_computing_data_collection       Jade
_computing_data_reduction        Jade
_computing_structure_refinement  GSAS
_computing_structure_solution    xx
_diffrn_ambient_temperature      298
_diffrn_detector                 scintillation
_diffrn_detector_type            scintillation
_diffrn_measurement_device_type  'Rigaku AFC-7R'
_diffrn_radiation_monochromator  Jade
_diffrn_radiation_polarisn_ratio 0.5
_diffrn_radiation_probe          x-ray
_diffrn_source                   Cu
_diffrn_source_target            Cu
_diffrn_source_type              Copper
_exptl_absorpt_correction_T_max  0.98579
_exptl_absorpt_correction_T_min  0.63469
_exptl_absorpt_process_details
;   GSAS Absorption/surface roughness correction: function number 3
 Surface roughness abs. correction (Suortti)
Terms =     0.68532E-01    0.90624E-01
Correction is refined.
;
_exptl_crystal_density_diffrn    4.934
_exptl_crystal_density_method    'not measured'
_exptl_crystal_F_000             276
_pd_calc_method                  'Rietveld Refinement'
_pd_char_colour                  white
_pd_char_particle_morphology     irregular
_pd_instr_location               ' ?'
_pd_meas_2theta_range_inc        0.02
_pd_meas_2theta_range_max        110.0
_pd_meas_2theta_range_min        10.0
_pd_meas_number_of_points        5001
_pd_meas_scan_method             disp
_pd_phase_name
'from C:/BSMO_dip_cp/Ba0.50_dip_cp/BaMoO4.cif'
_pd_prep_cool_rate               1
_pd_prep_pressure                100
_pd_prep_temperature             298
_pd_proc_2theta_range_inc        0.02
_pd_proc_2theta_range_max        110.0
_pd_proc_2theta_range_min        10.0
_pd_proc_info_data_reduction     Jade
_pd_proc_info_datetime           2012-10-01T00:00:51
_pd_proc_info_excluded_regions   ' ?'
_pd_proc_ls_background_function
;   GSAS Background function number 1 with 11 terms.
 Shifted Chebyshev function of 1st kind
      1:    138.847     2:   -41.3540     3:    48.4253     4:   -23.0435    
      5:    26.7642     6:   -6.69454     7:    11.7230     8:   -6.70952    
      9:    5.36933    10:   -7.97504    11:    9.20943    
;
_pd_proc_ls_peak_cutoff          0.00030
_pd_proc_ls_profile_function
;
 CW Profile function number 4 with  17 terms
 Pseudovoigt profile coefficients as parameterized in
 P. Thompson, D.E. Cox & J.B. Hastings (1987). J. Appl. Cryst.,20,79-83.
 Asymmetry correction of L.W. Finger, D.E. Cox & A. P. Jephcoat (1994).
 J. Appl. Cryst.,27,892-900.
 Microstrain broadening by P.W. Stephens,  (1999). J. Appl. Cryst.,32,281-289.
 Peak tails are ignored  where the intensity is below 0.0003 times the peak
   Aniso. broadening axis   0.0   0.0   1.0
;
_pd_proc_number_of_points        5001
_pd_spec_mounting                ' ?'
_refine_ls_goodness_of_fit_all   1.72
_refine_ls_goodness_of_fit_ref   1.37
_refine_ls_matrix_type           full
_refine_ls_number_parameters     20
_refine_ls_number_restraints     0
_refine_ls_R_factor_all          0.0609
_refine_ls_R_factor_gt           0.0485
_refine_ls_R_Fsqd_factor         0.03355
_refine_ls_shift/su_max          0.02
_refine_ls_shift/su_mean         0.00
_refine_ls_wR_factor_gt          0.0835
_reflns_d_resolution_high        0.946
_reflns_d_resolution_low         5.038
_reflns_limit_h_max              5
_reflns_limit_h_min              0
_reflns_limit_k_max              6
_reflns_limit_k_min              0
_reflns_limit_l_max              13
_reflns_limit_l_min              0
_reflns_number_total             238
_cod_data_source_file            aj5215sup3.cif
_cod_data_source_block           BA050_DIP_CP_publ
_cod_depositor_comments
;
The following automatic conversions were performed:

'_geom_bond_publ_flag' value 'N' changed to 'n' according to
/usr/data/users/saulius/crontab/automatic-downloads/rss-feeds/IUCr/lib/dictionaries/cif_core.dic
dictionary named 'cif_core.dic' version 2.4.2 from 2011-04-26 (40
times).

'_geom_angle_publ_flag' value 'N' changed to 'n' according
to
/usr/data/users/saulius/crontab/automatic-downloads/rss-feeds/IUCr/lib/dictionaries/cif_core.dic
dictionary named 'cif_core.dic' version 2.4.2 from 2011-04-26 (64
times).

Automatic conversion script
Id: cif_fix_values 2281 2013-09-26 08:29:07Z andrius 

 Removed the _chemical_name_systematic data item since
 it had an incorrect value 'xx'.

 Antanas Vaitkus,
 2021-04-26
;
_cod_original_cell_volume        378.486(14)
_cod_original_sg_symbol_Hall     -I4ad
_cod_original_sg_symbol_H-M      'I 41/a'
_cod_database_code               2300457
loop_
_symmetry_equiv_pos_site_id
_symmetry_equiv_pos_as_xyz
1 +x,+y,+z
2 -y+3/4,+x+1/4,+z+1/4
3 -x+1/2,-y,+z+1/2
4 +y+3/4,-x+3/4,+z+3/4
-1 -x,-y,-z
-2 +y+1/4,-x+3/4,-z+3/4
-3 +x+1/2,+y,-z+1/2
-4 -y+1/4,+x+1/4,-z+1/4
101 +x+1/2,+y+1/2,+z+1/2
102 -y+1/4,+x+3/4,+z+3/4
103 -x,-y+1/2,+z
104 +y+1/4,-x+1/4,+z+1/4
-101 -x+1/2,-y+1/2,-z+1/2
-102 +y+3/4,-x+1/4,-z+1/4
-103 +x,+y+1/2,-z
-104 -y+3/4,+x+3/4,-z+3/4
loop_
_atom_site_type_symbol
_atom_site_label
_atom_site_fract_x
_atom_site_fract_y
_atom_site_fract_z
_atom_site_occupancy
_atom_site_thermal_displace_type
_atom_site_U_iso_or_equiv
_atom_site_symmetry_multiplicity
Ba Ba1 0.0 0.25 0.625 0.40845 Uiso 0.01691 4
Mo Mo1 0.0 0.25 0.125 1.0 Uiso 0.02176 4
O O1 0.22856 0.12659 0.05165 1.0 Uiso 0.0271 16
Sr Sr1 0.0 0.25 0.625 0.59155 Uiso 0.01484 4
loop_
_atom_type_symbol
_atom_type_number_in_cell
_atom_type_scat_dispersion_real
_atom_type_scat_dispersion_imag
_atom_type_scat_Cromer_Mann_a1
_atom_type_scat_Cromer_Mann_a2
_atom_type_scat_Cromer_Mann_a3
_atom_type_scat_Cromer_Mann_a4
_atom_type_scat_Cromer_Mann_b1
_atom_type_scat_Cromer_Mann_b2
_atom_type_scat_Cromer_Mann_b3
_atom_type_scat_Cromer_Mann_b4
_atom_type_scat_Cromer_Mann_c
_atom_type_scat_source
Ba 1.634 0.000 0.000 20.1807 3.21367 19.1136 0.28331 10.9054 20.0558 0.77363
51.7460 3.02902 International_Tables_Vol_C
Mo 4.0 0.000 0.000 17.8871 1.03649 11.1750 8.48061 6.57891 0.05888 0.0000
0.0000 0.34494 International_Tables_Vol_C
O 16.0 0.000 0.000 3.76936 15.0797 2.53342 6.30430 1.91579 40.3445 1.55094
0.31291 0.22789 International_Tables_Vol_C
Sr 2.366 0.000 0.000 18.0874 1.49070 8.13730 12.6963 2.56540 24.5651 -34.193
-0.0138 41.4025 International_Tables_Vol_C
loop_
_diffrn_radiation_wavelength
_diffrn_radiation_wavelength_wt
_diffrn_radiation_type
_diffrn_radiation_wavelength_id
1.540500 1.000 'Cu K\a' 1
1.544300 0.500 'Cu K\a' 2
loop_
_geom_angle_atom_site_label_1
_geom_angle_atom_site_label_2
_geom_angle_atom_site_label_3
_geom_angle
_geom_angle_site_symmetry_1
_geom_angle_site_symmetry_3
_geom_angle_publ_flag
Ba1 Ba1 Ba1 82.8670(22) 2_455 2_555 n
Ba1 Ba1 Ba1 124.2002(13) 2_455 4_444 n
Ba1 Ba1 Ba1 124.2002(13) 2_455 4_454 n
Ba1 Ba1 O1 128.09720(20) 2_455 3_555 n
Ba1 Ba1 O1 40.1056(10) 2_455 4_455 n
Ba1 Ba1 O1 104.6387(15) 2_455 -2_555 n
Ba1 Ba1 O1 103.9671(21) 2_455 -3_445 n
Ba1 Ba1 O1 83.5922(13) 2_455 101_455 n
Ba1 Ba1 O1 64.0477(17) 2_455 102_334 n
Ba1 Ba1 O1 163.9699(4) 2_455 -101_444 n
Ba1 Ba1 O1 40.7015 2_455 -104_445 n
Ba1 Ba1 Sr1 0.0 2_455 2_455 n
Ba1 Ba1 Sr1 82.8670(22) 2_455 2_555 n
Ba1 Ba1 Sr1 124.2002(13) 2_455 4_444 n
Ba1 Ba1 Sr1 124.2002(13) 2_455 4_454 n
O1 Ba1 O1 145.26199(30) 3_555 4_455 n
O1 Ba1 O1 96.5232(4) 3_555 -2_555 n
O1 Ba1 O1 140.6051(14) 3_555 101_455 n
O1 Ba1 O1 96.5232(4) 3_555 -104_445 n
O1 Ba1 O1 67.6143(6) 4_455 -2_555 n
O1 Ba1 O1 80.8071(9) 4_455 -104_445 n
O1 Ba1 O1 96.5232(4) -2_555 101_455 n
O1 Ba1 O1 140.6051(14) -2_555 -104_445 n
O1 Ba1 O1 96.5232(4) 101_455 -104_445 n
O1 Ba1 Sr1 128.09720(20) 3_555 2_455 n
O1 Ba1 Sr1 83.5922(13) 3_555 2_555 n
O1 Ba1 Sr1 163.9699(4) -3_656 2_555 n
Ba1 Sr1 O1 128.09720(20) 4_454 -104_445 n
Ba1 Sr1 Sr1 124.2002(13) 4_454 2_455 n
Ba1 Sr1 Sr1 124.2002(13) 4_454 2_555 n
Ba1 Sr1 Sr1 82.8670(22) 4_454 4_444 n
Ba1 Sr1 Sr1 0.0 4_454 4_454 n
Ba1 Sr1 O1 103.9671(21) 4_454 4_455 n
Ba1 Sr1 O1 83.5922(13) 4_454 -2_555 n
Ba1 Sr1 O1 40.7015 4_454 101_455 n
O1 Sr1 Sr1 163.9699(4) -3_656 2_555 n
O1 Sr1 O1 145.26199(30) 3_555 4_455 n
O1 Sr1 O1 96.5232(4) 3_555 -2_555 n
O1 Sr1 O1 140.6051(14) 3_555 101_455 n
O1 Sr1 O1 96.5232(4) 3_555 -104_445 n
O1 Sr1 O1 67.6143(6) 4_455 -2_555 n
O1 Sr1 O1 80.8071(9) 4_455 -104_445 n
O1 Sr1 O1 96.5232(4) -2_555 101_455 n
O1 Sr1 O1 140.6051(14) -2_555 -104_445 n
O1 Sr1 O1 96.5232(4) 101_455 -104_445 n
O1 Sr1 Sr1 64.0477(17) 102_545 2_455 n
O1 Sr1 Sr1 40.1056(10) 102_545 2_555 n
O1 Sr1 Sr1 103.9671(21) 102_545 4_444 n
O1 Sr1 Sr1 163.9699(4) 102_545 4_454 n
O1 Sr1 O1 145.26199(30) -101_444 -104_445 n
O1 Sr1 Sr1 163.9699(4) -101_655 2_455 n
O1 Sr1 Sr1 103.9671(21) -101_655 2_555 n
O1 Sr1 Sr1 64.0477(17) -101_655 4_444 n
O1 Sr1 Sr1 40.1056(10) -101_655 4_454 n
O1 Sr1 Sr1 40.7015 -104_656 2_455 n
O1 Sr1 Sr1 104.6387(15) -104_656 2_555 n
O1 Sr1 Sr1 83.5922(13) -104_656 4_444 n
O1 Sr1 Sr1 128.09720(20) -104_656 4_454 n
Sr1 Sr1 Sr1 82.8670(22) 2_455 2_555 n
Sr1 Sr1 Sr1 124.2002(13) 2_455 4_444 n
Sr1 Sr1 Sr1 124.2002(13) 2_455 4_454 n
Sr1 Sr1 Sr1 124.2002(13) 2_555 4_444 n
Sr1 Sr1 Sr1 124.2002(13) 2_555 4_454 n
Sr1 Sr1 Sr1 82.8670(22) 4_444 4_454 n
loop_
_geom_bond_atom_site_label_1
_geom_bond_atom_site_label_2
_geom_bond_distance
_geom_bond_site_symmetry_2
_geom_bond_publ_flag
Ba1 Ba1 4.16115(9) 2_455 n
Ba1 Ba1 4.16115(9) 2_555 n
Ba1 Ba1 4.16115(9) 4_444 n
Ba1 Ba1 4.16115(9) 4_454 n
Ba1 Mo1 3.89424(6) 3_455 n
Ba1 Mo1 3.89424(6) 3_465 n
Ba1 Mo1 3.89424(6) 3_555 n
Ba1 Mo1 3.89424(6) 3_565 n
Ba1 O1 2.71548(4) 3_555 n
Ba1 O1 2.74887(6) 4_455 n
Ba1 O1 2.71548(4) -2_555 n
Ba1 O1 2.74887(6) -3_455 n
Ba1 O1 2.71548(4) 101_455 n
Ba1 O1 2.74887(6) 102_545 n
Ba1 O1 2.74887(6) -101_444 n
Ba1 O1 2.71548(4) -104_334 n
Ba1 Sr1 4.16115(9) 2_555 n
Mo1 Ba1 3.89424(6) 3_554 n
Mo1 O1 1.698250(30) 1_555 n
Mo1 O1 1.698250(30) -4_555 n
Mo1 O1 1.698250(30) 103_555 n
Mo1 Sr1 3.89424(6) 3_454 n
O1 Ba1 2.74887(6) 2_554 n
O1 Ba1 2.71548(4) 3_554 n
O1 Mo1 1.698250(30) 1_555 n
O1 Sr1 2.74887(6) 2_554 n
O1 Sr1 2.71548(4) 3_554 n
Sr1 Ba1 4.16115(9) 4_444 n
Sr1 O1 2.71548(4) 3_555 n
Sr1 O1 2.74887(6) 4_455 n
Sr1 O1 2.71548(4) -2_555 n
Sr1 O1 2.74887(6) -3_455 n
Sr1 O1 2.71548(4) 101_455 n
Sr1 O1 2.74887(6) 102_545 n
Sr1 O1 2.74887(6) -101_444 n
Sr1 O1 2.71548(4) -104_334 n
Sr1 Sr1 4.16115(9) 2_455 n
Sr1 Sr1 4.16115(9) 2_555 n
Sr1 Sr1 4.16115(9) 4_444 n
Sr1 Sr1 4.16115(9) 4_454 n
loop_
_pd_meas_counts_total
_pd_proc_ls_weight
_pd_proc_intensity_bkg_calc
_pd_calc_intensity_total
327.0 0.003058 326.11490 326.11655
297.0 0.003367 324.64035 324.64197
306.0 0.003268 323.17688 323.17844
284.0 0.00352 321.72427 321.72583
323.0 0.003096 320.28259 320.28412
307.0 0.003257 318.85181 318.85318
297.0 0.003367 317.43176 317.43314
293.0 0.003413 316.02228 316.02365
277.0 0.00361 314.62354 314.62485
284.0 0.00352 313.23538 313.23663
294.0 0.003401 311.85773 311.85892
299.0 0.003344 310.49045 310.49155
310.0 0.003226 309.13361 309.13474
301.0 0.003322 307.78702 307.78809
275.0 0.00364 306.45074 306.45178
294.0 0.003401 305.12463 305.12561
312.0 0.003205 303.80872 303.80960
287.0 0.003484 302.50275 302.50366
316.0 0.003165 301.20688 301.20776
278.0 0.00360 299.92096 299.92175
292.0 0.003425 298.64487 298.64572
279.0 0.00358 297.37866 297.37939
270.0 0.00370 296.12219 296.12292
287.0 0.003484 294.87546 294.87610
306.0 0.003268 293.63837 293.63895
242.0 0.00413 292.41080 292.41138
271.0 0.00369 291.19281 291.19333
293.0 0.003413 289.98428 289.98483
289.0 0.003460 288.78519 288.78564
278.0 0.00360 287.59546 287.59592
238.0 0.00420 286.41498 286.41544
289.0 0.003460 285.24384 285.24411
291.0 0.003436 284.08182 284.08209
284.0 0.00352 282.92889 282.92920
270.0 0.00370 281.78503 281.78528
259.0 0.00386 280.65027 280.65045
260.0 0.00385 279.52435 279.52457
256.0 0.00391 278.40744 278.40765
289.0 0.003460 277.29932 277.29944
271.0 0.00369 276.19998 276.20010
258.0 0.00388 275.10944 275.10941
255.0 0.00392 274.02756 274.02762
274.0 0.00365 272.95422 272.95416
258.0 0.00388 271.88956 271.88950
250.0 0.00400 270.83334 270.83328
285.0 0.00351 269.78561 269.78555
260.0 0.00385 268.74628 268.74619
277.0 0.00361 267.71530 267.71518
259.0 0.00386 266.69257 266.69244
244.0 0.00410 265.67825 265.67804
230.0 0.00435 264.67200 264.67175
254.0 0.00394 263.67392 263.67368
263.0 0.00380 262.68402 262.68375
243.0 0.00412 261.70203 261.70172
261.0 0.00383 260.72812 260.72775
267.0 0.00375 259.76205 259.76166
267.0 0.00375 258.80396 258.80365
267.0 0.00375 257.85367 257.85324
263.0 0.00380 256.91122 256.91080
262.0 0.00382 255.97644 255.97592
271.0 0.00369 255.04935 255.04892
268.0 0.00373 254.12990 254.12939
236.0 0.00424 253.21808 253.21753
272.0 0.00368 252.31381 252.31323
244.0 0.00410 251.41693 251.41637
260.0 0.00385 250.52748 250.52692
281.0 0.00356 249.64557 249.64490
232.0 0.00431 248.77089 248.77017
205.0 0.00488 247.90352 247.90285
220.0 0.00455 247.04338 247.04263
261.0 0.00383 246.19044 246.18971
252.0 0.00397 245.34467 245.34392
256.0 0.00391 244.50603 244.50523
229.0 0.00437 243.67438 243.67352
245.0 0.00408 242.84972 242.84892
222.0 0.00450 242.03206 242.03127
237.0 0.00422 241.22128 241.22044
244.0 0.00410 240.41742 240.41656
243.0 0.00412 239.62035 239.61949
254.0 0.00394 238.83009 238.82918
257.0 0.00389 238.04654 238.04564
281.0 0.00356 237.26968 237.26877
243.0 0.00412 236.49945 236.49850
239.0 0.00418 235.73581 235.73488
216.0 0.00463 234.97873 234.97777
225.0 0.00444 234.22818 234.22719
223.0 0.00448 233.48404 233.48302
248.0 0.00403 232.74638 232.74533
240.0 0.00417 232.01506 232.01401
273.0 0.00366 231.29007 231.28900
230.0 0.00435 230.57135 230.57028
231.0 0.00433 229.85889 229.85783
214.0 0.00467 229.15262 229.15154
269.0 0.00372 228.45255 228.45142
234.0 0.00427 227.75851 227.75739
214.0 0.00467 227.07065 227.06947
204.0 0.00490 226.38876 226.38759
220.0 0.00455 225.71286 225.71170
254.0 0.00394 225.04294 225.04175
243.0 0.00412 224.37894 224.37772
231.0 0.00433 223.72070 223.71950
223.0 0.00448 223.06837 223.06714
235.0 0.00426 222.42184 222.42055
239.0 0.00418 221.78096 221.77971
193.0 0.00518 221.14586 221.14461
230.0 0.00435 220.51640 220.51511
215.0 0.00465 219.89258 219.89128
238.0 0.00420 219.27431 219.27298
249.0 0.00402 218.66162 218.66028
235.0 0.00426 218.05434 218.05305
223.0 0.00448 217.45264 217.45131
231.0 0.00433 216.85629 216.85497
237.0 0.00422 216.26541 216.26401
226.0 0.00442 215.67978 215.67845
205.0 0.00488 215.09953 215.09814
224.0 0.00446 214.52451 214.52310
231.0 0.00433 213.95473 213.95332
205.0 0.00488 213.39012 213.38873
259.0 0.00386 212.83067 212.82928
206.0 0.00485 212.27643 212.27496
205.0 0.00488 211.72719 211.72574
201.0 0.00498 211.18298 211.18155
227.0 0.00441 210.64380 210.64236
251.0 0.00398 210.10960 210.10814
186.0 0.00538 209.58037 209.57889
223.0 0.00448 209.05598 209.05450
220.0 0.00455 208.53647 208.53497
224.0 0.00446 208.02182 208.02029
234.0 0.00427 207.51192 207.51042
221.0 0.00452 207.00679 207.00526
238.0 0.00420 206.50636 206.50485
224.0 0.00446 206.01062 206.00911
220.0 0.00455 205.51953 205.51802
207.0 0.00483 205.03313 205.03159
214.0 0.00467 204.55119 204.54965
237.0 0.00422 204.07385 204.07231
213.0 0.00469 203.60104 203.59949
239.0 0.00418 203.13271 203.13115
191.0 0.00524 202.66875 202.66719
228.0 0.00439 202.20929 202.20772
235.0 0.00426 201.75420 201.75258
190.0 0.00526 201.30339 201.30182
221.0 0.00452 200.85692 200.85532
212.0 0.00472 200.41475 200.41316
201.0 0.00498 199.97678 199.97514
203.0 0.00493 199.54305 199.54143
213.0 0.00469 199.11348 199.11185
194.0 0.00515 198.68810 198.68648
178.0 0.00562 198.26678 198.26517
220.0 0.00455 197.84955 197.84793
206.0 0.00485 197.43640 197.43477
206.0 0.00485 197.02721 197.02557
215.0 0.00465 196.62206 196.62044
209.0 0.00478 196.22084 196.21919
209.0 0.00478 195.82359 195.82195
214.0 0.00467 195.43013 195.42853
213.0 0.00469 195.04063 195.03899
216.0 0.00463 194.65494 194.65327
199.0 0.00503 194.27304 194.27142
204.0 0.00490 193.89496 193.89330
210.0 0.00476 193.52052 193.51889
212.0 0.00472 193.14986 193.14821
201.0 0.00498 192.78288 192.78123
207.0 0.00483 192.41957 192.41788
204.0 0.00490 192.05986 192.05818
194.0 0.00515 191.70372 191.70206
195.0 0.00513 191.35117 191.34950
214.0 0.00467 191.00214 191.00047
208.0 0.00481 190.65663 190.65495
204.0 0.00490 190.31456 190.31293
202.0 0.00495 189.97600 189.97430
221.0 0.00452 189.64081 189.63914
220.0 0.00455 189.30902 189.30734
199.0 0.00503 188.98062 188.99399
210.0 0.00476 188.65556 188.66910
188.0 0.00532 188.33377 188.35495
179.0 0.00559 188.01527 188.03668
212.0 0.00472 187.70007 187.72169
200.0 0.00500 187.38803 187.40993
174.0 0.00575 187.07922 187.10130
200.0 0.00500 186.77359 186.79590
199.0 0.00503 186.47113 186.49364
203.0 0.00493 186.17171 186.19447
194.0 0.00515 185.87544 185.89844
194.0 0.00515 185.58224 185.60548
195.0 0.00513 185.29207 185.31558
219.0 0.00457 185.00488 185.02866
207.0 0.00483 184.72072 184.74472
189.0 0.00529 184.43948 184.46379
180.0 0.00556 184.16124 184.18578
195.0 0.00513 183.88586 183.91066
200.0 0.00500 183.61337 183.63847
191.0 0.00524 183.34380 183.36909
184.0 0.00543 183.07698 183.10262
208.0 0.00481 182.81302 182.83893
191.0 0.00524 182.55185 182.57805
207.0 0.00483 182.29340 182.31992
183.0 0.00546 182.03772 182.06450
168.0 0.00595 181.78471 181.81187
209.0 0.00478 181.53447 181.56189
193.0 0.00518 181.28682 181.31456
186.0 0.00538 181.04184 181.06990
188.0 0.00532 180.79950 180.82787
200.0 0.00500 180.55969 180.58842
213.0 0.00469 180.32251 180.35153
197.0 0.00508 180.08784 180.11723
167.0 0.00599 179.85574 179.88545
196.0 0.00510 179.62610 179.65616
187.0 0.00535 179.39893 179.42935
195.0 0.00513 179.17422 179.20503
199.0 0.00503 178.95195 178.98311
186.0 0.00538 178.73212 178.76363
214.0 0.00467 178.51460 178.54654
178.0 0.00562 178.29953 178.33183
182.0 0.00549 178.08675 178.11945
186.0 0.00538 177.87630 177.90938
190.0 0.00526 177.66818 177.70169
173.0 0.00578 177.46227 177.49625
202.0 0.00495 177.25868 177.29300
181.0 0.00552 177.05730 177.09209
209.0 0.00478 176.85815 176.89336
183.0 0.00546 176.66113 176.69682
194.0 0.00515 176.46635 176.50250
164.0 0.00610 176.27368 176.31029
180.0 0.00556 176.08315 176.12025
190.0 0.00526 175.89474 175.93231
184.0 0.00543 175.70840 175.74646
183.0 0.00546 175.52415 175.56270
199.0 0.00503 175.34193 175.38103
161.0 0.00621 175.16179 175.20131
197.0 0.00508 174.98357 175.02370
200.0 0.00500 174.80737 174.84802
194.0 0.00515 174.63313 174.67433
172.0 0.00581 174.46086 174.50262
181.0 0.00552 174.29050 174.33282
172.0 0.00581 174.12202 174.16498
179.0 0.00559 173.95547 173.99899
194.0 0.00515 173.79082 173.83493
186.0 0.00538 173.62794 173.67271
158.0 0.00633 173.46693 173.51233
198.0 0.00505 173.30777 173.35374
179.0 0.00559 173.15036 173.19701
188.0 0.00532 172.99474 173.04210
178.0 0.00562 172.84087 172.88889
181.0 0.00552 172.68874 172.73746
182.0 0.00549 172.53835 172.58780
150.0 0.00667 172.38963 172.43977
176.0 0.00568 172.24261 172.29353
176.0 0.00568 172.09724 172.14894
194.0 0.00515 171.95355 172.00600
215.0 0.00465 171.81149 171.86473
176.0 0.00568 171.67104 171.72507
164.0 0.00610 171.53215 171.58707
163.0 0.00613 171.39487 171.45059
183.0 0.00546 171.25914 171.31577
157.0 0.00637 171.12495 171.18246
164.0 0.00610 170.99231 171.05072
155.0 0.00645 170.86118 170.92052
160.0 0.00625 170.73151 170.79181
183.0 0.00546 170.60335 170.66461
161.0 0.00621 170.47665 170.53889
165.0 0.00606 170.35138 170.41463
186.0 0.00538 170.22754 170.29187
169.0 0.00592 170.10512 170.17050
167.0 0.00599 169.98413 170.05058
178.0 0.00562 169.86444 169.93204
183.0 0.00546 169.74612 169.81488
195.0 0.00513 169.62921 169.69914
192.0 0.00521 169.51363 169.58476
179.0 0.00559 169.39931 169.47169
185.0 0.00541 169.28633 169.36002
188.0 0.00532 169.17462 169.24959
167.0 0.00599 169.06421 169.14049
173.0 0.00578 168.95502 169.03273
196.0 0.00510 168.84709 168.92616
160.0 0.00625 168.74036 168.82089
143.0 0.00699 168.63490 168.71690
168.0 0.00595 168.53058 168.61412
170.0 0.00588 168.42744 168.51257
157.0 0.00637 168.32550 168.41219
160.0 0.00625 168.22470 168.31308
187.0 0.00535 168.12503 168.21515
189.0 0.00529 168.02646 168.11832
160.0 0.00625 167.92905 168.02272
179.0 0.00559 167.83272 167.92822
164.0 0.00610 167.73749 167.83492
167.0 0.00599 167.64330 167.74265
181.0 0.00552 167.55011 167.65155
163.0 0.00613 167.45805 167.56158
159.0 0.00629 167.36696 167.47264
157.0 0.00637 167.27693 167.38478
173.0 0.00578 167.18787 167.29803
154.0 0.00649 167.09979 167.21233
166.0 0.00602 167.01273 167.12767
158.0 0.00633 166.92659 167.04407
206.0 0.00485 166.84137 166.96150
173.0 0.00578 166.75713 166.87990
165.0 0.00606 166.67378 166.79935
150.0 0.00667 166.59138 166.71980
159.0 0.00629 166.50986 166.64125
181.0 0.00552 166.42921 166.56364
168.0 0.00595 166.34943 166.48705
169.0 0.00592 166.27049 166.41145
166.0 0.00602 166.19247 166.33681
168.0 0.00595 166.11522 166.26309
154.0 0.00649 166.03880 166.19032
151.0 0.00662 165.96320 166.11852
165.0 0.00606 165.88843 166.04768
160.0 0.00625 165.81436 165.97772
142.0 0.00704 165.74115 165.90874
182.0 0.00549 165.66867 165.84067
147.0 0.00680 165.59694 165.77351
157.0 0.00637 165.52597 165.70734
172.0 0.00581 165.45570 165.64201
163.0 0.00613 165.38618 165.57762
143.0 0.00699 165.31737 165.51418
160.0 0.00625 165.24922 165.45163
149.0 0.00671 165.18175 165.39005
128.0 0.00781 165.11497 165.32935
144.0 0.00694 165.04887 165.26962
154.0 0.00649 164.98341 165.21083
149.0 0.00671 164.91862 165.15295
165.0 0.00606 164.85439 165.09602
148.0 0.00676 164.79082 165.04005
160.0 0.00625 164.72786 164.98511
169.0 0.00592 164.66550 164.93106
144.0 0.00694 164.60371 164.87807
149.0 0.00671 164.54251 164.82607
171.0 0.00585 164.48189 164.77516
172.0 0.00581 164.42180 164.72527
138.0 0.00725 164.36227 164.67645
157.0 0.00637 164.30333 164.62874
149.0 0.00671 164.24484 164.58218
175.0 0.00571 164.18692 164.53682
161.0 0.00621 164.12949 164.49266
134.0 0.00746 164.07253 164.44980
141.0 0.00709 164.01610 164.40814
166.0 0.00602 163.96016 164.36794
147.0 0.00680 163.90468 164.32915
151.0 0.00662 163.84967 164.29187
177.0 0.00565 163.79510 164.25616
185.0 0.00541 163.74094 164.22208
151.0 0.00662 163.68727 164.18977
129.0 0.00775 163.63397 164.15936
156.0 0.00641 163.58115 164.13091
158.0 0.00633 163.52867 164.10461
147.0 0.00680 163.47662 164.08057
156.0 0.00641 163.42497 164.05902
160.0 0.00625 163.37373 164.04012
139.0 0.00719 163.32280 164.02409
161.0 0.00621 163.27226 164.01122
145.0 0.00690 163.22211 164.00180
139.0 0.00719 163.17229 163.99614
161.0 0.00621 163.12277 163.99460
136.0 0.00735 163.07364 163.99773
153.0 0.00654 163.02481 164.00601
155.0 0.00645 162.97629 164.02010
145.0 0.00690 162.92809 164.04088
158.0 0.00633 162.88017 164.06935
169.0 0.00592 162.83257 164.10707
160.0 0.00625 162.78520 164.15599
165.0 0.00606 162.73816 164.21904
151.0 0.00662 162.69138 164.30013
149.0 0.00671 162.64487 164.40535
170.0 0.00588 162.59857 164.54314
152.0 0.00658 162.55255 164.72551
184.0 0.00543 162.50676 164.96919
167.0 0.00599 162.46118 165.29700
177.0 0.00565 162.41586 165.73900
152.0 0.00658 162.37074 166.33389
164.0 0.00610 162.32584 167.12929
172.0 0.00581 162.28110 168.18173
199.0 0.00503 162.23663 169.55515
158.0 0.00633 162.19229 171.31752
162.0 0.00617 162.14818 173.53586
181.0 0.00552 162.10419 176.26894
180.0 0.00556 162.06046 179.55858
187.0 0.00535 162.01680 183.41896
201.0 0.00498 161.97334 187.82588
189.0 0.00529 161.92999 192.70622
190.0 0.00526 161.88683 197.92982
200.0 0.00500 161.84378 203.30569
205.0 0.00488 161.80086 208.58603
221.0 0.00452 161.75807 213.47845
207.0 0.00483 161.71538 217.66565
231.0 0.00433 161.67284 220.83098
242.0 0.00413 161.63039 222.69444
216.0 0.00463 161.58804 223.06091
180.0 0.00556 161.54576 221.86797
190.0 0.00526 161.50360 219.20905
220.0 0.00455 161.46150 215.31660
224.0 0.00446 161.41949 210.51437
166.0 0.00602 161.37753 205.15826
180.0 0.00556 161.33566 199.58574
184.0 0.00543 161.29381 194.08388
178.0 0.00562 161.25204 188.87552
192.0 0.00521 161.21031 184.11716
213.0 0.00469 161.16862 179.90393
173.0 0.00578 161.12700 176.27734
173.0 0.00578 161.08540 173.23531
145.0 0.00690 161.04378 170.74271
158.0 0.00633 161.00223 168.74258
188.0 0.00532 160.96065 167.16602
167.0 0.00599 160.91913 165.94067
153.0 0.00654 160.87759 164.99710
145.0 0.00690 160.83603 164.27309
145.0 0.00690 160.79451 163.71561
150.0 0.00667 160.75298 163.28192
155.0 0.00645 160.71138 162.93855
146.0 0.00685 160.66978 162.66028
142.0 0.00704 160.62819 162.42879
164.0 0.00610 160.58655 162.23111
155.0 0.00645 160.54488 162.05804
143.0 0.00699 160.50317 161.90338
158.0 0.00633 160.46141 161.76283
154.0 0.00649 160.41962 161.63339
139.0 0.00719 160.37775 161.51309
148.0 0.00676 160.33586 161.40033
135.0 0.00741 160.29388 161.29405
147.0 0.00680 160.25186 161.19342
187.0 0.00535 160.20978 161.09766
139.0 0.00719 160.16760 161.00626
171.0 0.00585 160.12535 160.91875
164.0 0.00610 160.08301 160.83469
139.0 0.00719 160.04059 160.75366
141.0 0.00709 159.99809 160.67546
152.0 0.00658 159.95549 160.59972
162.0 0.00617 159.91280 160.52625
151.0 0.00662 159.87000 160.45482
144.0 0.00694 159.82709 160.38519
144.0 0.00694 159.78409 160.31728
152.0 0.00658 159.74097 160.25082
154.0 0.00649 159.69774 160.18575
163.0 0.00613 159.65439 160.12192
157.0 0.00637 159.61090 160.05922
161.0 0.00621 159.56728 159.99757
156.0 0.00641 159.52354 159.93681
146.0 0.00685 159.47968 159.87689
127.0 0.00787 159.43570 159.81778
139.0 0.00719 159.39154 159.75934
160.0 0.00625 159.34724 159.70157
148.0 0.00676 159.30280 159.64433
167.0 0.00599 159.25819 159.58765
134.0 0.00746 159.21346 159.53143
158.0 0.00633 159.16858 159.47566
156.0 0.00641 159.12352 159.42023
149.0 0.00671 159.07829 159.36517
131.0 0.00763 159.03290 159.31042
131.0 0.00763 158.98735 159.25595
141.0 0.00709 158.94160 159.20175
141.0 0.00709 158.89575 159.14775
147.0 0.00680 158.84966 159.09392
159.0 0.00629 158.80339 159.04030
150.0 0.00667 158.75696 158.98682
154.0 0.00649 158.71033 158.93344
165.0 0.00606 158.66351 158.88017
155.0 0.00645 158.61649 158.82697
147.0 0.00680 158.56931 158.77386
151.0 0.00662 158.52193 158.72076
161.0 0.00621 158.47435 158.66772
128.0 0.00781 158.42654 158.61470
150.0 0.00667 158.37852 158.56171
136.0 0.00735 158.33032 158.50867
144.0 0.00694 158.28192 158.45560
132.0 0.00758 158.23331 158.40256
158.0 0.00633 158.18448 158.34941
144.0 0.00694 158.13541 158.29623
143.0 0.00699 158.08617 158.24300
146.0 0.00685 158.03665 158.18965
145.0 0.00690 157.98697 158.13626
145.0 0.00690 157.93704 158.08278
168.0 0.00595 157.88689 158.02914
147.0 0.00680 157.83649 157.97546
153.0 0.00654 157.78590 157.92165
122.0 0.00820 157.73506 157.86769
163.0 0.00613 157.68398 157.81361
156.0 0.00641 157.63266 157.75940
135.0 0.00741 157.58110 157.70506
159.0 0.00629 157.52934 157.65057
157.0 0.00637 157.47729 157.59590
147.0 0.00680 157.42503 157.54109
159.0 0.00629 157.37251 157.48610
140.0 0.00714 157.31973 157.43095
144.0 0.00694 157.26674 157.37564
152.0 0.00658 157.21344 157.32011
145.0 0.00690 157.15996 157.26445
147.0 0.00680 157.10620 157.20857
141.0 0.00709 157.05219 157.15253
144.0 0.00694 156.99789 157.09624
133.0 0.00752 156.94337 157.03979
138.0 0.00725 156.88858 156.98314
158.0 0.00633 156.83354 156.92625
154.0 0.00649 156.77821 156.86922
153.0 0.00654 156.72264 156.81190
151.0 0.00662 156.66681 156.75439
140.0 0.00714 156.61072 156.69667
156.0 0.00641 156.55435 156.63872
160.0 0.00625 156.49774 156.58055
143.0 0.00699 156.44084 156.52213
164.0 0.00610 156.38365 156.46352
145.0 0.00690 156.32620 156.40466
143.0 0.00699 156.26851 156.34555
139.0 0.00719 156.21054 156.28624
143.0 0.00699 156.15227 156.22664
137.0 0.00730 156.09373 156.16684
154.0 0.00649 156.03490 156.10681
148.0 0.00676 155.97585 156.04645
168.0 0.00595 155.91647 155.98593
183.0 0.00546 155.85683 155.92511
174.0 0.00575 155.79692 155.86409
137.0 0.00730 155.73669 155.80278
169.0 0.00592 155.67624 155.74121
149.0 0.00671 155.61546 155.67940
158.0 0.00633 155.55444 155.61734
158.0 0.00633 155.49309 155.55501
124.0 0.00806 155.43150 155.49240
141.0 0.00709 155.36958 155.42953
163.0 0.00613 155.30739 155.36646
155.0 0.00645 155.24495 155.30305
145.0 0.00690 155.18219 155.23943
156.0 0.00641 155.11914 155.17548
173.0 0.00578 155.05583 155.11134
135.0 0.00741 154.99219 155.04686
129.0 0.00775 154.92831 154.98216
147.0 0.00680 154.86411 154.91716
148.0 0.00676 154.79962 154.85190
145.0 0.00690 154.73486 154.78638
123.0 0.00813 154.66978 154.72055
159.0 0.00629 154.60446 154.65446
141.0 0.00709 154.53882 154.58810
150.0 0.00667 154.47290 154.52151
142.0 0.00704 154.40665 154.45459
150.0 0.00667 154.34016 154.38742
167.0 0.00599 154.27336 154.31993
154.0 0.00649 154.20627 154.25218
144.0 0.00694 154.13890 154.18419
169.0 0.00592 154.07120 154.11588
149.0 0.00671 154.00323 154.04729
133.0 0.00752 153.93498 153.97845
156.0 0.00641 153.86644 153.90930
133.0 0.00752 153.79758 153.83987
156.0 0.00641 153.72844 153.77019
143.0 0.00699 153.65901 153.70018
155.0 0.00645 153.58926 153.62993
163.0 0.00613 153.51929 153.55939
161.0 0.00621 153.44896 153.48854
135.0 0.00741 153.37836 153.41743
152.0 0.00658 153.30748 153.34604
126.0 0.00794 153.23628 153.27435
155.0 0.00645 153.16483 153.20242
145.0 0.00690 153.09305 153.13017
176.0 0.00568 153.02100 153.05762
150.0 0.00667 152.94864 152.98480
132.0 0.00758 152.87601 152.91176
135.0 0.00741 152.80307 152.83839
151.0 0.00662 152.72984 152.76472
144.0 0.00694 152.65637 152.69078
155.0 0.00645 152.58253 152.61655
149.0 0.00671 152.50845 152.54204
149.0 0.00671 152.43405 152.46725
170.0 0.00588 152.35941 152.39223
167.0 0.00599 152.28445 152.31683
158.0 0.00633 152.20921 152.24123
153.0 0.00654 152.13370 152.16528
141.0 0.00709 152.05785 152.08910
164.0 0.00610 151.98174 152.01265
153.0 0.00654 151.90535 151.93590
149.0 0.00671 151.82869 151.85886
137.0 0.00730 151.75169 151.78156
133.0 0.00752 151.67444 151.70395
156.0 0.00641 151.59694 151.62610
150.0 0.00667 151.51910 151.54794
179.0 0.00559 151.44099 151.46951
155.0 0.00645 151.36259 151.39081
159.0 0.00629 151.28395 151.31183
159.0 0.00629 151.20502 151.23257
160.0 0.00625 151.12579 151.15306
159.0 0.00629 151.04628 151.07323
144.0 0.00694 150.96648 150.99313
150.0 0.00667 150.88644 150.91277
151.0 0.00662 150.80609 150.83215
164.0 0.00610 150.72546 150.75127
149.0 0.00671 150.64458 150.67006
171.0 0.00585 150.56342 150.58864
171.0 0.00585 150.48196 150.50690
165.0 0.00606 150.40025 150.42491
118.0 0.00847 150.31827 150.34268
164.0 0.00610 150.23598 150.26016
151.0 0.00662 150.15343 150.17734
168.0 0.00595 150.07063 150.09427
138.0 0.00725 149.98755 150.01094
171.0 0.00585 149.90421 149.92737
166.0 0.00602 149.82060 149.84351
143.0 0.00699 149.73669 149.75938
150.0 0.00667 149.65254 149.67499
160.0 0.00625 149.56813 149.59038
146.0 0.00685 149.48346 149.50548
141.0 0.00709 149.39853 149.42029
164.0 0.00610 149.31331 149.33487
166.0 0.00602 149.22784 149.24919
155.0 0.00645 149.14211 149.16321
167.0 0.00599 149.05612 149.06226
140.0 0.00714 148.96988 148.97591
154.0 0.00649 148.88338 148.88934
147.0 0.00680 148.79659 148.79520
175.0 0.00571 148.70959 148.70818
174.0 0.00575 148.62233 148.62088
141.0 0.00709 148.53481 148.53337
148.0 0.00676 148.44701 148.44557
161.0 0.00621 148.35899 148.35756
189.0 0.00529 148.27071 148.26927
168.0 0.00595 148.18219 148.18076
187.0 0.00535 148.09338 148.09195
162.0 0.00617 148.00438 148.00293
163.0 0.00613 147.91512 147.91368
173.0 0.00578 147.82561 147.82417
139.0 0.00719 147.73586 147.73439
154.0 0.00649 147.64587 147.64444
150.0 0.00667 147.55560 147.55418
156.0 0.00641 147.46515 147.46370
153.0 0.00654 147.37444 147.37297
136.0 0.00735 147.28349 147.28198
161.0 0.00621 147.19229 147.19083
148.0 0.00676 147.10086 147.09943
157.0 0.00637 147.00923 147.00775
162.0 0.00617 146.91733 146.91582
149.0 0.00671 146.82521 146.82375
166.0 0.00602 146.73285 146.73141
156.0 0.00641 146.64032 146.63882
155.0 0.00645 146.54750 146.54601
171.0 0.00585 146.45450 146.45297
151.0 0.00662 146.36121 146.35971
190.0 0.00526 146.26776 146.26628
131.0 0.00763 146.17407 146.17256
143.0 0.00699 146.08017 146.12230
149.0 0.00671 145.98601 146.02858
175.0 0.00571 145.89166 145.93465
162.0 0.00617 145.79710 145.86223
152.0 0.00658 145.70235 145.76804
167.0 0.00599 145.60736 145.67369
171.0 0.00585 145.51213 145.57916
155.0 0.00645 145.41672 154.26875
141.0 0.00709 145.32108 154.25642
169.0 0.00592 145.22527 154.24512
161.0 0.00621 145.12924 154.23480
163.0 0.00613 145.03299 158.63266
187.0 0.00535 144.93652 158.66595
169.0 0.00592 144.83989 158.70096
158.0 0.00633 144.74306 158.73770
183.0 0.00546 144.64601 158.77617
157.0 0.00637 144.54875 158.81639
173.0 0.00578 144.45135 158.85843
175.0 0.00571 144.35371 158.90236
150.0 0.00667 144.25587 158.94817
165.0 0.00606 144.15788 158.99591
176.0 0.00568 144.05968 159.04565
168.0 0.00595 143.96130 159.09746
173.0 0.00578 143.86273 159.15132
186.0 0.00538 143.76398 159.20735
171.0 0.00585 143.66501 159.26549
184.0 0.00543 143.56587 159.32590
163.0 0.00613 143.46660 159.38857
166.0 0.00602 143.36711 159.45357
173.0 0.00578 143.26746 159.52092
149.0 0.00671 143.16763 159.59077
189.0 0.00529 143.06761 159.66309
142.0 0.00704 142.96745 159.73796
171.0 0.00585 142.86707 159.81544
165.0 0.00606 142.76659 159.89560
173.0 0.00578 142.66589 159.97850
153.0 0.00654 142.56502 160.06421
168.0 0.00595 142.46400 160.15276
186.0 0.00538 142.36284 160.24422
163.0 0.00613 142.26149 160.33875
156.0 0.00641 142.15999 160.43629
158.0 0.00633 142.05835 160.53699
178.0 0.00562 141.95651 160.64091
170.0 0.00588 141.85455 160.74814
176.0 0.00568 141.75246 160.85875
181.0 0.00552 141.65016 160.97285
187.0 0.00535 141.54774 161.09042
184.0 0.00543 141.44519 161.21164
209.0 0.00478 141.34248 161.33659
162.0 0.00617 141.23965 161.46538
158.0 0.00633 141.13661 161.59801
180.0 0.00556 141.03348 161.73465
184.0 0.00543 140.93022 161.87543
173.0 0.00578 140.82678 162.02039
161.0 0.00621 140.72321 162.16965
191.0 0.00524 140.61955 162.32333
205.0 0.00488 140.51576 162.48151
181.0 0.00552 140.41179 162.64432
203.0 0.00493 140.30771 162.81194
187.0 0.00535 140.20351 162.98438
183.0 0.00546 140.09918 163.16185
160.0 0.00625 139.99472 163.34445
201.0 0.00498 139.89014 163.53232
175.0 0.00571 139.78545 163.72557
188.0 0.00532 139.68065 163.92435
198.0 0.00505 139.57570 164.12886
155.0 0.00645 139.47066 164.33922
182.0 0.00549 139.36549 164.55553
191.0 0.00524 139.26022 164.77800
206.0 0.00485 139.15485 165.00682
197.0 0.00508 139.04935 165.24214
196.0 0.00510 138.94374 165.48410
168.0 0.00595 138.83804 165.73289
176.0 0.00568 138.73225 165.98877
179.0 0.00559 138.62633 166.25186
194.0 0.00515 138.52032 166.52238
182.0 0.00549 138.41422 166.80060
190.0 0.00526 138.30803 167.08659
173.0 0.00578 138.20172 167.38072
192.0 0.00521 138.09535 167.68311
202.0 0.00495 137.98888 167.99409
196.0 0.00510 137.88229 168.31387
199.0 0.00503 137.77563 168.64267
185.0 0.00541 137.66891 168.98080
187.0 0.00535 137.56209 169.32854
187.0 0.00535 137.45517 169.68613
197.0 0.00508 137.34821 172.87170
182.0 0.00549 137.24112 173.27612
215.0 0.00465 137.13397 173.69174
201.0 0.00498 137.02675 175.51680
194.0 0.00515 136.91949 175.96869
198.0 0.00505 136.81212 176.43295
192.0 0.00521 136.70468 176.90999
218.0 0.00459 136.59718 177.40013
212.0 0.00472 136.48962 177.90390
192.0 0.00521 136.38199 178.42155
199.0 0.00503 136.27429 178.95366
201.0 0.00498 136.16655 179.50063
186.0 0.00538 136.05875 180.06297
205.0 0.00488 135.95087 180.64116
214.0 0.00467 135.84297 181.23567
203.0 0.00493 135.73499 181.84711
201.0 0.00498 135.62695 182.47598
210.0 0.00476 135.51889 183.12286
227.0 0.00441 135.41075 183.78838
220.0 0.00455 135.30258 184.47311
219.0 0.00457 135.19435 185.17781
199.0 0.00503 135.08611 185.90306
192.0 0.00521 134.97778 186.64957
211.0 0.00474 134.86945 187.41820
211.0 0.00474 134.76108 188.20966
197.0 0.00508 134.65266 189.02470
227.0 0.00441 134.54419 189.86424
213.0 0.00469 134.43570 190.72914
246.0 0.00407 134.32721 191.62030
228.0 0.00439 134.21867 192.53874
225.0 0.00444 134.11008 193.48546
207.0 0.00483 134.00148 194.46149
225.0 0.00444 133.89287 195.46797
232.0 0.00431 133.78424 196.50600
246.0 0.00407 133.67557 197.57689
199.0 0.00503 133.56688 198.68185
245.0 0.00408 133.45819 199.82225
255.0 0.00392 133.34949 200.99951
243.0 0.00412 133.24075 202.21507
264.0 0.00379 133.13203 203.47050
254.0 0.00394 133.02328 204.76741
227.0 0.00441 132.91454 206.10759
230.0 0.00435 132.80577 207.49278
236.0 0.00424 132.69701 208.92484
236.0 0.00424 132.58823 210.40591
217.0 0.00461 132.47948 211.93796
235.0 0.00426 132.37073 213.52328
267.0 0.00375 132.26195 215.16425
232.0 0.00431 132.15317 216.86330
249.0 0.00402 132.04442 218.62306
255.0 0.00392 131.93570 220.44629
234.0 0.00427 131.82693 222.33594
279.0 0.00358 131.71822 224.29506
296.0 0.003378 131.60951 226.32704
259.0 0.00386 131.50082 228.43527
280.0 0.00357 131.39214 230.62347
235.0 0.00426 131.28346 232.89549
272.0 0.00368 131.17484 235.25560
263.0 0.00380 131.06621 237.70815
247.0 0.00405 130.95761 240.25784
284.0 0.00352 130.84903 242.90970
250.0 0.00400 130.74048 245.66899
264.0 0.00379 130.63196 248.54147
308.0 0.003247 130.52348 251.53320
242.0 0.00413 130.41505 254.65056
255.0 0.00392 130.30659 257.90054
261.0 0.00383 130.19821 261.29050
291.0 0.003436 130.08987 264.82837
285.0 0.00351 129.98157 268.52271
294.0 0.003401 129.87328 272.38239
253.0 0.00395 129.76505 276.41748
264.0 0.00379 129.65686 280.63818
300.0 0.003333 129.54871 285.05603
310.0 0.003226 129.44063 289.68298
292.0 0.003425 129.33258 294.53235
270.0 0.00370 129.22456 299.61816
300.0 0.003333 129.11662 304.95569
305.0 0.003279 129.00874 310.56149
304.0 0.003289 128.90091 316.45358
316.0 0.003165 128.79311 322.65121
301.0 0.003322 128.68542 329.17560
297.0 0.003367 128.57776 336.04956
288.0 0.003472 128.47012 343.29822
284.0 0.00352 128.36258 350.94864
317.0 0.003155 128.25513 359.03067
338.0 0.002959 128.14775 367.57669
327.0 0.003058 128.04039 376.62241
334.0 0.002994 127.93312 386.20691
338.0 0.002959 127.82594 396.37308
286.0 0.003497 127.71882 407.16833
344.0 0.002907 127.61177 418.64496
322.0 0.003106 127.50481 430.86105
329.0 0.003040 127.39790 443.88092
325.0 0.003077 127.29108 457.77673
318.0 0.003145 127.18436 472.62961
357.0 0.002801 127.07773 488.53137
374.0 0.002674 126.97115 505.58722
385.0 0.002597 126.86466 523.91907
363.0 0.002755 126.75828 543.67053
370.0 0.002703 126.65199 565.01434
401.0 0.002494 126.54575 588.16138
410.0 0.002439 126.43965 613.37610
432.0 0.002315 126.33362 640.99579
470.0 0.002128 126.22770 671.45862
509.0 0.001965 126.12185 705.34155
557.0 0.001795 126.01612 743.41113
596.0 0.001678 125.91049 786.68884
663.0 0.001508 125.80495 836.53455
694.0 0.001441 125.69955 894.74884
819.0 0.001221 125.59422 963.69232
899.0 0.001112 125.48900 1046.42285
1072.0 0.000933 125.38387 1146.83813
1213.0 0.000824 125.27885 1269.81885
1432.0 0.000698 125.17399 1421.35266
1734.0 0.000577 125.06918 1608.61816
1955.0 0.000512 124.96454 1840.00574
2309.0 0.000433 124.85999 2125.04321
2956.0 0.0003383 124.75552 2474.20068
3323.0 0.0003009 124.65121 2898.55298
3949.0 0.0002532 124.54701 3409.27661
4571.0 0.0002188 124.44296 4016.98364
5286.0 0.0001892 124.33900 4730.90674
5995.0 0.0001668 124.23515 5557.95703
6779.0 0.0001475 124.13148 6501.71045
7725.0 0.0001294 124.02788 7561.36377
8515.0 0.0001174 123.92443 8730.72754
9592.0 0.0001043 123.82111 9997.27539
10794.0 0.0000926 123.71793 11341.29590
11987.0 0.0000834 123.61485 12735.15137
13033.0 0.0000767 123.51196 14142.69727
14761.0 0.0000677 123.40918 15519.09375
16199.0 0.0000617 123.30653 16811.42969
17735.0 0.0000564 123.20400 17960.84375
18943.0 0.0000528 123.10165 18906.82422
20247.0 0.0000494 122.99940 19593.74219
20586.0 0.0000486 122.89733 19978.47852
20992.0 0.0000476 122.79537 20036.90039
20785.0 0.0000481 122.69359 19767.14258
20353.0 0.0000491 122.59195 19188.98047
18985.0 0.0000527 122.49044 18340.12109
18002.0 0.0000555 122.38911 17270.76367
16625.0 0.0000602 122.28790 16037.62988
14796.0 0.0000676 122.18684 14698.34668
13263.0 0.0000754 122.08595 13306.97852
11849.0 0.0000844 121.98521 11911.07324
10377.0 0.0000964 121.88463 10550.17383
8809.0 0.0001135 121.78419 9255.39453
7544.0 0.0001326 121.68394 8049.69482
6397.0 0.0001563 121.58381 6948.49023
5628.0 0.0001777 121.48388 5960.47900
5009.0 0.0001996 121.38411 5088.57910
4301.0 0.0002325 121.28448 4330.94141
3615.0 0.0002766 121.18503 3681.99536
3197.0 0.0003128 121.08577 3133.47656
2705.0 0.000370 120.98664 2675.39307
2556.0 0.000391 120.88770 2296.87549
2192.0 0.000456 120.78893 1986.89624
1952.0 0.000512 120.69032 1734.82324
1737.0 0.000576 120.59189 1530.81812
1559.0 0.000641 120.49362 1366.08423
1434.0 0.000697 120.39556 1232.98901
1212.0 0.000825 120.29765 1125.08301
1184.0 0.000845 120.19993 1037.04504
1066.0 0.000938 120.10239 964.57690
1006.0 0.000994 120.00503 904.27448
932.0 0.001073 119.90784 853.48596
844.0 0.001185 119.81084 810.17651
852.0 0.001174 119.71404 772.80304
793.0 0.001261 119.61742 740.20660
728.0 0.001374 119.52098 711.52179
728.0 0.001374 119.42472 686.10431
703.0 0.001422 119.32867 663.47443
609.0 0.001642 119.23280 643.27411
548.0 0.001825 119.13711 625.23547
548.0 0.001825 119.04164 609.15796
508.0 0.001969 118.94635 594.89246
496.0 0.002016 118.85124 582.33130
532.0 0.001880 118.75636 571.40070
495.0 0.002020 118.66164 562.05731
444.0 0.002252 118.56715 554.28662
449.0 0.002227 118.47285 548.10156
474.0 0.002110 118.37875 543.54443
443.0 0.002257 118.28485 540.68695
463.0 0.002160 118.19115 539.63312
480.0 0.002083 118.09765 540.52063
487.0 0.002053 118.00437 543.52307
521.0 0.001919 117.91131 548.85150
538.0 0.001859 117.81844 556.75562
545.0 0.001835 117.72576 567.52405
596.0 0.001678 117.63332 581.48334
625.0 0.001600 117.54108 598.99542
655.0 0.001527 117.44908 620.45361
654.0 0.001529 117.35725 646.27637
762.0 0.001312 117.26566 676.89905
771.0 0.001297 117.17427 712.76288
800.0 0.001250 117.08310 754.30219
837.0 0.001195 116.99216 801.92889
893.0 0.001120 116.90141 858.16937
990.0 0.001010 116.81090 919.04999
985.0 0.001015 116.72063 986.93835
1067.0 0.000937 116.63055 1061.96655
1145.0 0.000873 116.54070 1145.21460
1247.0 0.000802 116.45108 1234.40344
1276.0 0.000784 116.36169 1330.27637
1380.0 0.000725 116.27251 1432.30823
1487.0 0.000672 116.18359 1539.73694
1547.0 0.000646 116.09485 1651.52771
1781.0 0.000561 116.00638 1766.33777
1863.0 0.000537 115.91811 1882.47827
2044.0 0.000489 115.83008 1997.88574
2145.0 0.000466 115.74229 2110.11279
2318.0 0.000431 115.65472 2216.35059
2462.0 0.000406 115.56741 2313.50513
2553.0 0.000392 115.48031 2398.34155
2682.0 0.000373 115.39346 2467.69043
2632.0 0.000380 115.30682 2518.71143
2686.0 0.000372 115.22044 2549.16553
2754.0 0.000363 115.13428 2557.64819
2734.0 0.000366 115.04838 2543.73755
2576.0 0.000388 114.96271 2508.02563
2642.0 0.000379 114.87730 2452.03442
2354.0 0.000425 114.79212 2378.03979
2332.0 0.000429 114.70715 2288.84204
2170.0 0.000461 114.62246 2187.51685
2044.0 0.000489 114.53801 2077.19189
1902.0 0.000526 114.45379 1960.86145
1783.0 0.000561 114.36984 1841.26050
1716.0 0.000583 114.28610 1720.78931
1590.0 0.000629 114.20267 1601.48572
1448.0 0.000691 114.11942 1485.02673
1307.0 0.000765 114.03645 1372.75171
1170.0 0.000855 113.95375 1265.69348
1141.0 0.000876 113.87124 1164.61243
1039.0 0.000962 113.78905 1070.03003
947.0 0.001056 113.70710 982.26007
874.0 0.001144 113.62540 901.43835
827.0 0.001209 113.54391 827.54858
753.0 0.001328 113.46274 760.44757
708.0 0.001412 113.38180 699.88959
591.0 0.001692 113.30109 645.54810
650.0 0.001538 113.22067 597.03638
576.0 0.001736 113.14052 553.92688
492.0 0.002033 113.06058 515.76813
499.0 0.002004 112.98091 482.10004
487.0 0.002053 112.90155 452.46622
467.0 0.002141 112.82241 426.42477
417.0 0.002398 112.74353 403.55612
407.0 0.002457 112.66492 383.46875
359.0 0.002786 112.58659 365.80365
364.0 0.002747 112.50852 350.23563
301.0 0.003322 112.43069 336.47452
370.0 0.002703 112.35313 324.26434
280.0 0.00357 112.27585 313.38165
301.0 0.003322 112.19884 303.63339
277.0 0.00361 112.12209 294.85431
287.0 0.003484 112.04561 286.90405
279.0 0.00358 111.96941 279.66418
279.0 0.00358 111.89346 273.03525
259.0 0.00386 111.81778 266.93439
282.0 0.00355 111.74241 261.29239
252.0 0.00397 111.66724 256.05176
261.0 0.00383 111.59238 251.16469
308.0 0.003247 111.51781 246.59129
249.0 0.00402 111.44348 242.29825
249.0 0.00402 111.36947 238.25754
231.0 0.00433 111.29571 234.44550
242.0 0.00413 111.22222 230.84184
245.0 0.00408 111.14900 227.42926
231.0 0.00433 111.07606 224.19269
233.0 0.00429 111.00341 221.11900
219.0 0.00457 110.93105 218.19649
216.0 0.00463 110.85894 215.41489
183.0 0.00546 110.78709 212.76494
230.0 0.00435 110.71555 210.23820
218.0 0.00459 110.64429 207.82718
194.0 0.00515 110.57331 205.52492
219.0 0.00457 110.50261 203.32510
198.0 0.00505 110.43217 201.22192
216.0 0.00463 110.36204 199.21001
219.0 0.00457 110.29219 197.28442
213.0 0.00469 110.22260 195.44061
196.0 0.00510 110.15333 193.67429
213.0 0.00469 110.08431 191.98152
202.0 0.00495 110.01559 190.35869
219.0 0.00457 109.94714 188.80241
201.0 0.00498 109.87901 187.30946
173.0 0.00578 109.81113 185.87692
195.0 0.00513 109.74355 184.50206
187.0 0.00535 109.67625 183.18227
188.0 0.00532 109.60925 181.91516
167.0 0.00599 109.54253 180.69858
183.0 0.00546 109.47608 179.53035
197.0 0.00508 109.40996 178.40858
186.0 0.00538 109.34409 177.33142
200.0 0.00500 109.27854 176.29721
195.0 0.00513 109.21324 175.30434
180.0 0.00556 109.14827 174.35130
181.0 0.00552 109.08356 173.43680
179.0 0.00559 109.01915 172.55945
200.0 0.00500 108.95506 171.71814
180.0 0.00556 108.89124 170.91165
167.0 0.00599 108.82773 170.13899
163.0 0.00613 108.76447 169.39925
186.0 0.00538 108.70152 168.69145
199.0 0.00503 108.63888 168.01483
201.0 0.00498 108.57653 167.36853
188.0 0.00532 108.51447 166.75194
164.0 0.00610 108.45269 166.16435
173.0 0.00578 108.39123 165.60526
187.0 0.00535 108.33003 165.07399
175.0 0.00571 108.26915 164.57016
164.0 0.00610 108.20857 164.09334
174.0 0.00575 108.14825 163.64313
172.0 0.00581 108.08826 163.21912
160.0 0.00625 108.02858 162.82111
196.0 0.00510 107.96918 162.44882
176.0 0.00568 107.91007 162.10207
193.0 0.00518 107.85127 161.78073
179.0 0.00559 107.79276 161.48463
189.0 0.00529 107.73452 161.21373
184.0 0.00543 107.67662 160.96809
174.0 0.00575 107.61900 160.74767
196.0 0.00510 107.56168 160.55251
175.0 0.00571 107.50464 160.38283
179.0 0.00559 107.44794 160.23874
158.0 0.00633 107.39151 160.12048
185.0 0.00541 107.33538 160.02831
165.0 0.00606 107.27955 159.96259
182.0 0.00549 107.22404 159.92365
170.0 0.00588 107.16884 159.91193
182.0 0.00549 107.11388 159.92796
163.0 0.00613 107.05927 159.97221
182.0 0.00549 107.00495 160.04541
159.0 0.00629 106.95093 160.14813
166.0 0.00602 106.89722 160.28120
185.0 0.00541 106.84380 160.44543
192.0 0.00521 106.79066 160.64168
172.0 0.00581 106.73785 160.87102
170.0 0.00588 106.68533 161.13443
139.0 0.00719 106.63313 161.43315
173.0 0.00578 106.58120 161.76846
190.0 0.00526 106.52961 162.14168
159.0 0.00629 106.47830 162.55438
157.0 0.00637 106.42730 162.96478
176.0 0.00568 106.37659 163.46179
162.0 0.00617 106.32619 164.00354
156.0 0.00641 106.27608 164.57034
168.0 0.00595 106.22629 165.20811
175.0 0.00571 106.17680 165.89735
178.0 0.00562 106.12760 166.64064
168.0 0.00595 106.07874 158.80191
143.0 0.00699 106.03014 159.74161
175.0 0.00571 105.98186 160.85602
171.0 0.00585 105.93389 157.59949
184.0 0.00543 105.88619 158.77805
172.0 0.00581 105.83881 160.03020
186.0 0.00538 105.79176 161.36061
185.0 0.00541 105.74500 162.83070
196.0 0.00510 105.69853 164.33392
165.0 0.00606 105.65236 165.93207
196.0 0.00510 105.60654 167.63176
177.0 0.00565 105.56097 169.44028
164.0 0.00610 105.51572 171.36546
146.0 0.00685 105.47078 173.41606
181.0 0.00552 105.42612 175.60164
171.0 0.00585 105.38180 177.93279
190.0 0.00526 105.33776 180.42128
175.0 0.00571 105.29404 183.08020
184.0 0.00543 105.25059 185.92438
162.0 0.00617 105.20746 188.97058
167.0 0.00599 105.16467 192.23804
178.0 0.00562 105.12215 195.74930
170.0 0.00588 105.07991 199.53110
156.0 0.00641 105.03801 203.61557
207.0 0.00483 104.99639 208.04236
179.0 0.00559 104.95508 212.86096
188.0 0.00532 104.91409 218.13434
191.0 0.00524 104.87337 223.94342
207.0 0.00483 104.83298 230.39307
197.0 0.00508 104.79288 237.62003
194.0 0.00515 104.75309 245.80231
209.0 0.00478 104.71358 255.17116
227.0 0.00441 104.67440 266.02518
219.0 0.00457 104.63552 278.74622
262.0 0.00382 104.59694 293.81729
288.0 0.003472 104.55867 311.84119
312.0 0.003205 104.52066 333.55869
358.0 0.002793 104.48298 359.86475
361.0 0.002770 104.44562 391.82043
414.0 0.002415 104.40852 430.65799
454.0 0.002203 104.37175 477.77557
518.0 0.001931 104.33529 534.71985
617.0 0.001621 104.29910 603.15186
681.0 0.001468 104.26322 684.79663
820.0 0.001220 104.22766 781.37146
906.0 0.001104 104.19239 894.49756
1004.0 0.000996 104.15742 1025.59338
1185.0 0.000844 104.12276 1175.75427
1335.0 0.000749 104.08838 1345.62354
1587.0 0.000630 104.05428 1535.25867
1710.0 0.000585 104.02053 1744.00195
1871.0 0.000534 103.98705 1970.35400
2105.0 0.000475 103.95389 2211.85840
2358.0 0.000424 103.92100 2464.99561
2543.0 0.000393 103.88843 2725.09473
2859.0 0.0003498 103.85615 2986.26636
3134.0 0.0003191 103.82416 3241.40088
3430.0 0.0002915 103.79250 3482.27515
3812.0 0.0002623 103.76112 3699.85425
4058.0 0.0002464 103.73000 3884.85303
4348.0 0.0002300 103.69923 4028.55615
4595.0 0.0002176 103.66872 4123.77881
4608.0 0.0002170 103.63854 4165.73535
4612.0 0.0002168 103.60864 4152.56641
4590.0 0.0002179 103.57904 4085.42285
4397.0 0.0002274 103.54971 3968.55737
4172.0 0.0002397 103.52072 3807.25269
3845.0 0.0002601 103.49200 3609.48926
3469.0 0.0002883 103.46358 3383.74390
3145.0 0.0003180 103.43547 3138.71753
2789.0 0.000359 103.40762 2882.95679
2346.0 0.000426 103.38009 2623.65820
2060.0 0.000485 103.35284 2367.55591
1793.0 0.000558 103.32588 2120.04004
1642.0 0.000609 103.29922 1885.33215
1357.0 0.000737 103.27286 1666.54004
1204.0 0.000831 103.24680 1465.74695
992.0 0.001008 103.22099 1284.12195
921.0 0.001086 103.19552 1119.12939
832.0 0.001202 103.17033 976.34686
762.0 0.001312 103.14542 852.02673
648.0 0.001543 103.12082 745.22906
591.0 0.001692 103.09647 652.51959
525.0 0.001905 103.07245 575.43970
526.0 0.001901 103.04870 510.83875
494.0 0.002024 103.02525 457.04800
427.0 0.002342 103.00208 412.60785
393.0 0.002545 102.97920 375.79370
399.0 0.002506 102.95660 345.41718
352.0 0.002841 102.93430 320.32376
304.0 0.003289 102.91232 299.52301
321.0 0.003115 102.89056 282.18176
266.0 0.00376 102.86913 267.61133
283.0 0.00353 102.84800 255.25154
263.0 0.00380 102.82711 244.65340
247.0 0.00405 102.80651 235.46132
245.0 0.00408 102.78623 227.39680
219.0 0.00457 102.76622 220.24352
214.0 0.00467 102.74648 213.83417
239.0 0.00418 102.72704 208.03989
226.0 0.00442 102.70788 202.76140
242.0 0.00413 102.68899 197.92160
190.0 0.00526 102.67039 193.46039
178.0 0.00562 102.65208 189.33014
202.0 0.00495 102.63406 185.49277
178.0 0.00562 102.61629 181.91705
197.0 0.00508 102.59884 178.57721
182.0 0.00549 102.58164 175.45131
164.0 0.00610 102.56471 172.52065
176.0 0.00568 102.54810 169.76886
168.0 0.00595 102.53174 167.18155
164.0 0.00610 102.51566 164.74593
165.0 0.00606 102.49986 162.45050
166.0 0.00602 102.48434 160.28496
177.0 0.00565 102.46911 158.23997
157.0 0.00637 102.45413 156.30696
173.0 0.00578 102.43943 154.47820
145.0 0.00690 102.42503 152.74664
148.0 0.00676 102.41089 151.10574
173.0 0.00578 102.39700 149.54961
148.0 0.00676 102.38341 148.07277
130.0 0.00769 102.37010 146.67017
154.0 0.00649 102.35705 145.33727
158.0 0.00633 102.34427 144.06972
154.0 0.00649 102.33176 142.86362
148.0 0.00676 102.31953 141.71533
160.0 0.00625 102.30756 140.62155
143.0 0.00699 102.29588 139.57912
133.0 0.00752 102.28446 138.58514
135.0 0.00741 102.27332 137.63699
135.0 0.00741 102.26241 136.73212
134.0 0.00746 102.25179 135.86835
136.0 0.00735 102.24145 135.04341
131.0 0.00763 102.23135 134.25542
138.0 0.00725 102.22153 133.50240
165.0 0.00606 102.21199 132.78268
136.0 0.00735 102.20271 132.09473
169.0 0.00592 102.19366 131.43697
144.0 0.00694 102.18492 130.80801
128.0 0.00781 102.17643 130.20659
125.0 0.00800 102.16817 129.63150
152.0 0.00658 102.16022 129.08153
138.0 0.00725 102.15249 128.55566
138.0 0.00725 102.14506 128.05296
129.0 0.00775 102.13786 127.57249
143.0 0.00699 102.13091 127.11336
93.0 0.01075 102.12425 126.67480
144.0 0.00694 102.11784 126.25608
150.0 0.00667 102.11166 125.85652
127.0 0.00787 102.10577 125.47546
135.0 0.00741 102.10013 125.11238
132.0 0.00758 102.09473 124.76665
129.0 0.00775 102.08962 124.43786
150.0 0.00667 102.08475 124.12551
149.0 0.00671 102.08011 123.82922
121.0 0.00826 102.07574 123.54860
124.0 0.00806 102.07161 123.28331
111.0 0.00901 102.06775 123.03310
137.0 0.00730 102.06413 122.79768
128.0 0.00781 102.06078 122.57683
127.0 0.00787 102.05767 122.37038
119.0 0.00840 102.05479 122.17826
130.0 0.00769 102.05217 122.00027
130.0 0.00769 102.04984 121.83643
125.0 0.00800 102.04768 121.68665
128.0 0.00781 102.04581 121.55100
111.0 0.00901 102.04419 121.42955
130.0 0.00769 102.04281 121.32240
113.0 0.00885 102.04166 121.22972
142.0 0.00704 102.04079 121.15171
129.0 0.00775 102.04013 121.08871
116.0 0.00862 102.03970 121.04108
113.0 0.00885 102.03954 121.00923
144.0 0.00694 102.03960 120.99375
106.0 0.00943 102.03992 120.99527
132.0 0.00758 102.04048 121.01467
137.0 0.00730 102.04128 121.05292
124.0 0.00806 102.04231 121.11129
129.0 0.00775 102.04356 121.19147
129.0 0.00775 102.04508 121.29536
137.0 0.00730 102.04681 121.42560
116.0 0.00862 102.04879 121.58542
145.0 0.00690 102.05099 121.77893
120.0 0.00833 102.05345 122.01149
129.0 0.00775 102.05611 122.28981
136.0 0.00735 102.05902 122.62240
116.0 0.00862 102.06216 123.01995
129.0 0.00775 102.06556 123.49577
143.0 0.00699 102.06915 124.06622
131.0 0.00763 102.07298 124.75127
124.0 0.00806 102.07705 125.57488
120.0 0.00833 102.08133 126.56540
135.0 0.00741 102.08585 127.75588
125.0 0.00800 102.09061 129.18416
129.0 0.00775 102.09557 130.89282
152.0 0.00658 102.10078 132.92863
139.0 0.00719 102.10616 135.34190
156.0 0.00641 102.11181 138.18523
172.0 0.00581 102.11769 141.51193
141.0 0.00709 102.12376 145.37392
170.0 0.00588 102.13007 149.81927
163.0 0.00613 102.13660 155.08119
160.0 0.00625 102.14335 160.80949
178.0 0.00562 102.15029 167.21249
182.0 0.00549 102.15748 174.29198
183.0 0.00546 102.16489 182.02957
182.0 0.00549 102.17249 190.47916
203.0 0.00493 102.18034 199.38216
213.0 0.00469 102.18840 208.73520
212.0 0.00472 102.19664 218.40746
224.0 0.00446 102.20511 228.23283
237.0 0.00422 102.21380 238.00854
243.0 0.00412 102.22271 247.49551
256.0 0.00391 102.23180 256.42297
255.0 0.00392 102.24113 264.49857
324.0 0.003086 102.25068 271.42599
315.0 0.003175 102.26040 276.92902
285.0 0.00351 102.27035 280.77853
290.0 0.003448 102.28050 282.81656
281.0 0.00356 102.29086 282.97153
281.0 0.00356 102.30141 281.26199
265.0 0.00377 102.31219 277.78946
302.0 0.003311 102.32315 272.72522
281.0 0.00356 102.33433 266.29361
254.0 0.00394 102.34570 258.75366
227.0 0.00441 102.35729 250.38136
232.0 0.00431 102.36906 241.45210
253.0 0.00395 102.38102 232.22655
202.0 0.00495 102.39320 222.93980
192.0 0.00521 102.40556 213.79555
165.0 0.00606 102.41817 204.96318
158.0 0.00633 102.43092 196.57787
190.0 0.00526 102.44386 188.74237
181.0 0.00552 102.45703 181.52972
162.0 0.00617 102.47037 174.98637
155.0 0.00645 102.48390 169.13530
148.0 0.00676 102.49766 163.98000
146.0 0.00685 102.51157 159.50789
152.0 0.00658 102.52568 155.69368
139.0 0.00719 102.53999 152.50330
128.0 0.00781 102.55449 149.89690
131.0 0.00763 102.56916 147.83183
134.0 0.00746 102.58403 146.26547
143.0 0.00699 102.59906 145.15753
140.0 0.00714 102.61430 144.47185
145.0 0.00690 102.62972 144.17802
136.0 0.00735 102.64533 144.25243
138.0 0.00725 102.66113 144.67917
135.0 0.00741 102.67708 145.45058
131.0 0.00763 102.69324 146.56741
130.0 0.00769 102.70956 148.03903
143.0 0.00699 102.72605 149.88327
135.0 0.00741 102.74272 152.12610
135.0 0.00741 102.75961 154.80136
131.0 0.00763 102.77664 157.94991
154.0 0.00649 102.79386 161.61920
159.0 0.00629 102.81126 165.86214
139.0 0.00719 102.82883 170.73625
195.0 0.00513 102.84653 176.30208
153.0 0.00654 102.86446 182.62221
210.0 0.00476 102.88254 189.75954
179.0 0.00559 102.90079 197.77559
171.0 0.00585 102.91920 206.72900
180.0 0.00556 102.93778 216.67375
210.0 0.00476 102.95654 227.65750
181.0 0.00552 102.97545 239.72017
213.0 0.00469 102.99453 252.89256
230.0 0.00435 103.01379 267.19452
249.0 0.00402 103.03320 282.63428
253.0 0.00395 103.05277 299.20609
292.0 0.003425 103.07251 316.88913
298.0 0.003356 103.09243 335.64429
319.0 0.003135 103.11246 355.41217
297.0 0.003367 103.13270 376.10889
356.0 0.002809 103.15308 397.62335
364.0 0.002747 103.17360 417.66251
416.0 0.002404 103.19431 440.37946
452.0 0.002212 103.21516 463.40503
486.0 0.002058 103.23615 486.52417
493.0 0.002028 103.25729 508.44397
555.0 0.001802 103.27863 531.11749
527.0 0.001898 103.30009 553.28467
538.0 0.001859 103.32169 574.81171
641.0 0.001560 103.34346 595.61115
593.0 0.001686 103.36539 615.63483
592.0 0.001689 103.38744 634.85754
680.0 0.001471 103.40962 653.25360
669.0 0.001495 103.43201 670.76910
611.0 0.001637 103.45451 687.29285
685.0 0.001460 103.47717 702.62897
676.0 0.001479 103.49993 716.47522
678.0 0.001475 103.52288 728.41205
716.0 0.001397 103.54596 737.90973
728.0 0.001374 103.56918 744.35876
772.0 0.001295 103.59251 747.12854
739.0 0.001353 103.61603 745.64374
708.0 0.001412 103.63966 739.46887
765.0 0.001307 103.66344 728.37201
785.0 0.001274 103.68736 712.35767
709.0 0.001410 103.71140 691.66260
635.0 0.001575 103.73555 666.72668
671.0 0.001490 103.75986 638.15192
633.0 0.001580 103.78432 606.65784
582.0 0.001718 103.80891 573.03461
489.0 0.002045 103.83363 538.09454
484.0 0.002066 103.85846 502.62524
446.0 0.002242 103.88342 467.35080
402.0 0.002488 103.90853 432.90402
359.0 0.002786 103.93375 399.81146
359.0 0.002786 103.95911 368.48889
289.0 0.003460 103.98459 339.24399
271.0 0.00369 104.01018 312.28326
263.0 0.00380 104.03590 287.72232
279.0 0.00358 104.06176 265.59686
243.0 0.00412 104.08772 245.87497
198.0 0.00505 104.11382 228.46935
209.0 0.00478 104.14003 213.24979
192.0 0.00521 104.16636 200.05502
178.0 0.00562 104.19279 188.70377
190.0 0.00526 104.21938 179.00449
193.0 0.00518 104.24606 170.76390
160.0 0.00625 104.27286 163.79378
167.0 0.00599 104.29976 157.91628
148.0 0.00676 104.32680 152.96750
137.0 0.00730 104.35394 148.79988
144.0 0.00694 104.38120 145.28323
156.0 0.00641 104.40855 142.30470
170.0 0.00588 104.43600 139.76833
142.0 0.00704 104.46358 137.59340
139.0 0.00719 104.49128 135.71339
139.0 0.00719 104.51907 134.07390
135.0 0.00741 104.54697 132.63097
137.0 0.00730 104.57498 131.34947
162.0 0.00617 104.60310 130.20152
140.0 0.00714 104.63131 129.16508
138.0 0.00725 104.65961 128.22282
130.0 0.00769 104.68803 127.36109
109.0 0.00917 104.71655 126.56910
119.0 0.00840 104.74516 125.83829
114.0 0.00877 104.77388 125.16187
125.0 0.00800 104.80270 124.53426
131.0 0.00763 104.83161 123.95087
125.0 0.00800 104.86060 123.40794
107.0 0.00935 104.88969 122.90226
135.0 0.00741 104.91889 122.43111
135.0 0.00741 104.94821 121.99209
120.0 0.00833 104.97757 121.58310
134.0 0.00746 105.00703 121.20229
107.0 0.00935 105.03661 120.84807
106.0 0.00943 105.06625 120.51890
132.0 0.00758 105.09599 120.21356
125.0 0.00800 105.12582 119.93076
115.0 0.00870 105.15574 119.66952
117.0 0.00855 105.18572 119.67342
134.0 0.00746 105.21581 119.45484
114.0 0.00877 105.24596 119.25530
112.0 0.00893 105.27623 119.07417
123.0 0.00813 105.30656 118.91084
116.0 0.00862 105.33698 118.88625
115.0 0.00870 105.36746 118.75836
111.0 0.00901 105.39803 118.64716
123.0 0.00813 105.42869 118.55241
120.0 0.00833 105.45942 118.47400
127.0 0.00787 105.49020 118.41189
113.0 0.00885 105.52110 118.36616
116.0 0.00862 105.55206 118.33701
118.0 0.00847 105.58308 118.32482
109.0 0.00917 105.61418 118.32997
113.0 0.00885 105.64535 118.35318
101.0 0.00990 105.67660 118.39530
117.0 0.00855 105.70789 118.45741
106.0 0.00943 105.73928 118.54073
121.0 0.00826 105.77073 118.64696
111.0 0.00901 105.80225 118.77799
129.0 0.00775 105.83383 118.93616
118.0 0.00847 105.86549 119.12413
123.0 0.00813 105.89719 119.34516
117.0 0.00855 105.92896 119.60297
117.0 0.00855 105.96080 119.90180
119.0 0.00840 105.99271 120.24661
133.0 0.00752 106.02466 120.64301
133.0 0.00752 106.05669 121.09721
116.0 0.00862 106.08878 121.61622
120.0 0.00833 106.12093 122.20791
128.0 0.00781 106.15311 122.88073
132.0 0.00758 106.18534 123.64398
101.0 0.00990 106.21766 124.50762
121.0 0.00826 106.25002 125.48221
162.0 0.00617 106.28244 126.57892
165.0 0.00606 106.31490 127.80921
134.0 0.00746 106.34743 129.18488
121.0 0.00826 106.37999 130.71770
134.0 0.00746 106.41262 132.41933
148.0 0.00676 106.44529 134.30096
143.0 0.00699 106.47798 136.37299
168.0 0.00595 106.51076 138.64484
141.0 0.00709 106.54357 141.12454
177.0 0.00565 106.57643 143.81830
166.0 0.00602 106.60932 146.73013
174.0 0.00575 106.64227 149.86160
161.0 0.00621 106.67525 153.21112
180.0 0.00556 106.70827 156.77377
176.0 0.00568 106.74135 160.54060
176.0 0.00568 106.77445 164.49818
182.0 0.00549 106.80760 168.62802
213.0 0.00469 106.84078 172.90593
214.0 0.00467 106.87400 177.30127
219.0 0.00457 106.90728 181.77646
229.0 0.00437 106.94057 186.28610
229.0 0.00437 106.97389 190.77687
218.0 0.00459 107.00724 195.18690
212.0 0.00472 107.04065 199.44658
243.0 0.00412 107.07407 208.42918
220.0 0.00455 107.10754 212.19969
248.0 0.00403 107.14104 215.57942
243.0 0.00412 107.17455 218.48737
220.0 0.00455 107.20810 220.84911
260.0 0.00385 107.24167 225.05447
239.0 0.00418 107.27527 226.17358
247.0 0.00405 107.30889 226.60828
253.0 0.00395 107.34254 226.35071
229.0 0.00437 107.37621 225.41354
238.0 0.00420 107.40991 223.82875
228.0 0.00439 107.44365 221.64491
214.0 0.00467 107.47740 218.92407
211.0 0.00474 107.51114 215.73749
217.0 0.00461 107.54492 212.16226
220.0 0.00455 107.57873 208.27740
205.0 0.00488 107.61256 204.16060
194.0 0.00515 107.64639 199.88574
175.0 0.00571 107.68025 195.52109
194.0 0.00515 107.71412 191.01418
184.0 0.00543 107.74799 186.64705
188.0 0.00532 107.78189 182.35106
179.0 0.00559 107.81581 178.16489
167.0 0.00599 107.84973 174.06334
161.0 0.00621 107.88364 170.18608
156.0 0.00641 107.91759 166.49519
152.0 0.00658 107.95156 163.00508
144.0 0.00694 107.98551 159.72543
148.0 0.00676 108.01948 156.66185
133.0 0.00752 108.05347 153.81647
120.0 0.00833 108.08746 151.18829
153.0 0.00654 108.12141 148.77362
141.0 0.00709 108.15540 146.56668
139.0 0.00719 108.18941 144.55974
140.0 0.00714 108.22340 142.74368
135.0 0.00741 108.25739 141.10823
125.0 0.00800 108.29140 139.64249
135.0 0.00741 108.32542 138.33492
133.0 0.00752 108.35941 137.17374
135.0 0.00741 108.39340 136.14735
120.0 0.00833 108.42740 135.24423
109.0 0.00917 108.46139 134.45326
130.0 0.00769 108.49538 133.76384
103.0 0.00971 108.52937 133.16588
118.0 0.00847 108.56335 132.65004
144.0 0.00694 108.59732 132.20769
130.0 0.00769 108.63129 131.83086
106.0 0.00943 108.66526 131.51241
105.0 0.00952 108.69920 131.24583
134.0 0.00746 108.73312 131.02531
123.0 0.00813 108.76705 130.84581
101.0 0.00990 108.80097 130.70274
129.0 0.00775 108.83485 130.59221
117.0 0.00855 108.86877 130.51071
133.0 0.00752 108.90265 130.45532
124.0 0.00806 108.93649 130.42348
111.0 0.00901 108.97035 130.41299
124.0 0.00806 109.00418 130.42194
111.0 0.00901 109.03801 130.44878
108.0 0.00926 109.07180 130.49216
99.0 0.01010 109.10558 130.55093
126.0 0.00794 109.13934 130.62413
133.0 0.00752 109.17308 130.71094
131.0 0.00763 109.20679 130.81070
106.0 0.00943 109.24049 130.92284
149.0 0.00671 109.27418 131.04692
125.0 0.00800 109.30782 131.18248
115.0 0.00870 109.34144 131.32928
151.0 0.00662 109.37505 131.48703
125.0 0.00800 109.40861 131.65552
131.0 0.00763 109.44216 131.83456
100.0 0.01000 109.47570 132.02409
117.0 0.00855 109.50918 132.22400
128.0 0.00781 109.54266 132.43419
127.0 0.00787 109.57610 132.65471
136.0 0.00735 109.60950 132.88551
130.0 0.00769 109.64287 133.12665
142.0 0.00704 109.67622 133.37819
123.0 0.00813 109.70953 133.64017
126.0 0.00794 109.74279 133.91269
133.0 0.00752 109.77605 134.19592
124.0 0.00806 109.80925 134.48997
131.0 0.00763 109.84243 134.39845
112.0 0.00893 109.87556 134.71835
137.0 0.00730 109.90867 135.04959
138.0 0.00725 109.94173 135.39243
132.0 0.00758 109.97478 135.54796
143.0 0.00699 110.00775 135.91656
149.0 0.00671 110.04070 136.29758
135.0 0.00741 110.07359 136.69128
122.0 0.00820 110.10646 137.09814
127.0 0.00787 110.13927 137.51846
136.0 0.00735 110.17207 137.95265
133.0 0.00752 110.20480 138.40120
132.0 0.00758 110.23748 138.86458
139.0 0.00719 110.27013 139.34332
115.0 0.00870 110.30275 139.83795
134.0 0.00746 110.33528 140.34911
119.0 0.00840 110.36779 140.61751
122.0 0.00820 110.40025 141.16603
156.0 0.00641 110.43267 141.73309
146.0 0.00685 110.46500 142.31947
138.0 0.00725 110.49733 142.92607
130.0 0.00769 110.52959 143.42453
129.0 0.00775 110.56181 144.07559
131.0 0.00763 110.59394 144.74988
118.0 0.00847 110.62605 145.44865
115.0 0.00870 110.65811 146.17323
115.0 0.00870 110.69009 146.92514
155.0 0.00645 110.72205 147.70607
131.0 0.00763 110.75393 148.51794
141.0 0.00709 110.78574 149.36304
143.0 0.00699 110.81752 150.24388
132.0 0.00758 110.84924 151.16356
152.0 0.00658 110.88089 152.12564
134.0 0.00746 110.91248 153.13448
138.0 0.00725 110.94402 154.19518
138.0 0.00725 110.97550 155.31398
150.0 0.00667 111.00690 156.49835
160.0 0.00625 111.03827 157.75740
180.0 0.00556 111.06956 159.10204
159.0 0.00629 111.10077 160.54535
148.0 0.00676 111.13194 162.10300
168.0 0.00595 111.16304 163.79362
141.0 0.00709 111.19407 165.63919
161.0 0.00621 111.22504 167.66527
156.0 0.00641 111.25595 169.90152
184.0 0.00543 111.28679 172.38182
153.0 0.00654 111.31754 175.14455
166.0 0.00602 111.34825 178.23244
183.0 0.00546 111.37889 181.69244
160.0 0.00625 111.40943 185.57549
199.0 0.00503 111.43992 189.93555
188.0 0.00532 111.47035 194.82904
210.0 0.00476 111.50070 200.31325
179.0 0.00559 111.53098 206.44505
202.0 0.00495 111.56116 213.27888
231.0 0.00433 111.59130 220.86475
226.0 0.00442 111.62137 229.24579
207.0 0.00483 111.65132 238.45570
224.0 0.00446 111.68124 249.62794
272.0 0.00368 111.71107 260.55618
254.0 0.00394 111.74084 272.33105
284.0 0.00352 111.77051 284.92133
281.0 0.00356 111.80010 298.27267
297.0 0.003367 111.82964 312.30466
275.0 0.00364 111.85906 326.90814
330.0 0.003030 111.88843 342.50171
288.0 0.003472 111.91770 357.79834
345.0 0.002899 111.94692 373.14224
332.0 0.003012 111.97603 388.28867
382.0 0.002618 112.00508 402.96072
368.0 0.002717 112.03403 416.85605
397.0 0.002519 112.06289 429.66031
430.0 0.002326 112.09170 441.06454
403.0 0.002481 112.12041 450.78799
421.0 0.002375 112.14902 458.60089
458.0 0.002183 112.17754 464.34384
457.0 0.002188 112.20599 467.93961
433.0 0.002309 112.23437 469.39609
411.0 0.002433 112.26262 468.80096
427.0 0.002342 112.29082 466.31198
398.0 0.002513 112.31892 462.14417
399.0 0.002506 112.34692 456.55685
400.0 0.002500 112.37486 449.84052
368.0 0.002717 112.40269 442.30341
383.0 0.002611 112.43043 434.25824
366.0 0.002732 112.45807 426.01108
332.0 0.003012 112.48564 417.85156
335.0 0.002985 112.51311 410.04749
365.0 0.002740 112.54047 402.84167
332.0 0.003012 112.56776 396.45224
323.0 0.003096 112.59495 391.07449
311.0 0.003215 112.62204 386.88449
341.0 0.002933 112.64902 384.04367
327.0 0.003058 112.67594 382.70377
340.0 0.002941 112.70276 383.01230
345.0 0.002899 112.72945 385.11816
359.0 0.002786 112.75607 389.17783
333.0 0.003003 112.78260 395.36069
411.0 0.002433 112.80901 403.85519
408.0 0.002451 112.83532 414.87427
438.0 0.002283 112.86156 428.66010
524.0 0.001908 112.88768 445.48801
521.0 0.001919 112.91368 465.67065
565.0 0.001770 112.93962 489.55872
644.0 0.001553 112.96546 517.54205
669.0 0.001495 112.99116 550.04834
729.0 0.001372 113.01678 587.53943
767.0 0.001304 113.04230 630.50616
814.0 0.001229 113.06771 679.46069
911.0 0.001098 113.09303 734.92596
918.0 0.001089 113.11823 797.42419
1001.0 0.000999 113.14333 867.46124
1095.0 0.000913 113.16831 945.51086
1105.0 0.000905 113.19322 1031.99561
1230.0 0.000813 113.21802 1127.26672
1222.0 0.000818 113.24269 1231.58313
1349.0 0.000741 113.26726 1345.08911
1339.0 0.000747 113.29171 1467.79126
1488.0 0.000672 113.31609 1599.53369
1674.0 0.000597 113.34034 1739.97559
1777.0 0.000563 113.36448 1888.56384
1833.0 0.000546 113.38853 2044.50806
2071.0 0.000483 113.41245 2206.75146
2197.0 0.000455 113.43625 2373.94336
2426.0 0.000412 113.45995 2544.41040
2575.0 0.000388 113.48354 2716.13232
2804.0 0.000357 113.50705 2886.72729
2998.0 0.0003336 113.53041 3053.45093
3212.0 0.0003113 113.55366 3213.22998
3219.0 0.0003107 113.57681 3362.73022
3472.0 0.0002880 113.59984 3498.46973
3656.0 0.0002735 113.62277 3616.98926
3777.0 0.0002648 113.64557 3715.05298
3966.0 0.0002521 113.66827 3789.86377
4006.0 0.0002496 113.69086 3839.26416
3963.0 0.0002523 113.71330 3861.67993
4142.0 0.0002414 113.73566 3857.00171
3892.0 0.0002569 113.75789 3825.37085
3963.0 0.0002523 113.78001 3767.92603
3776.0 0.0002648 113.80201 3686.49170
3663.0 0.0002730 113.82388 3583.34863
3505.0 0.0002853 113.84566 3461.49365
3383.0 0.0002956 113.86730 3323.89380
3102.0 0.0003224 113.88884 3173.74683
2991.0 0.0003343 113.91024 3014.24731
2796.0 0.000358 113.93153 2848.46973
2640.0 0.000379 113.95273 2679.27612
2386.0 0.000419 113.97376 2509.25073
2255.0 0.000443 113.99471 2340.66504
2161.0 0.000463 114.01553 2175.45972
1915.0 0.000522 114.03621 2015.25122
1827.0 0.000547 114.05679 1861.34521
1634.0 0.000612 114.07724 1714.76025
1492.0 0.000670 114.09756 1576.25134
1454.0 0.000688 114.11776 1446.33691
1342.0 0.000745 114.13786 1325.32568
1147.0 0.000872 114.15782 1213.34216
1167.0 0.000857 114.17765 1110.35071
1011.0 0.000989 114.19736 1016.18085
928.0 0.001078 114.21695 930.54974
890.0 0.001124 114.23643 853.08472
877.0 0.001140 114.25576 783.34302
774.0 0.001292 114.27499 720.83191
765.0 0.001307 114.29408 665.02618
681.0 0.001468 114.31306 615.38324
675.0 0.001481 114.33190 571.35718
603.0 0.001658 114.35059 532.41077
585.0 0.001709 114.36919 498.02390
551.0 0.001815 114.38763 467.70200
522.0 0.001916 114.40598 440.98105
505.0 0.001980 114.42419 417.43149
493.0 0.002028 114.44228 396.66028
419.0 0.002387 114.46022 378.31192
424.0 0.002358 114.47803 362.06793
398.0 0.002513 114.49573 347.64581
399.0 0.002506 114.51331 334.79715
431.0 0.002320 114.53074 323.31421
380.0 0.002632 114.54804 312.99167
385.0 0.002597 114.56523 303.67712
342.0 0.002924 114.58226 295.23248
332.0 0.003012 114.59917 287.54047
336.0 0.002976 114.61597 280.50183
310.0 0.003226 114.63262 274.03702
336.0 0.002976 114.64913 268.06696
292.0 0.003425 114.66553 262.53635
298.0 0.003356 114.68179 257.39548
311.0 0.003215 114.69791 252.60242
288.0 0.003472 114.71391 248.12180
255.0 0.00392 114.72978 243.92358
284.0 0.00352 114.74549 239.98241
284.0 0.00352 114.76111 236.27654
290.0 0.003448 114.77657 232.78728
263.0 0.00380 114.79190 229.49852
248.0 0.00403 114.80708 226.39609
240.0 0.00417 114.82215 223.46774
255.0 0.00392 114.83709 220.70255
221.0 0.00452 114.85187 218.09071
222.0 0.00450 114.86654 215.62366
234.0 0.00427 114.88106 213.29362
192.0 0.00521 114.89545 211.09357
192.0 0.00521 114.90971 209.01715
199.0 0.00503 114.92382 207.05869
222.0 0.00450 114.93781 205.21286
211.0 0.00474 114.95165 203.47502
240.0 0.00417 114.96535 201.84094
233.0 0.00429 114.97893 200.30666
202.0 0.00495 114.99236 198.86876
178.0 0.00562 115.00566 197.52405
187.0 0.00535 115.01881 200.48312
209.0 0.00478 115.03187 199.35559
200.0 0.00500 115.04474 198.31442
193.0 0.00518 115.05750 197.35780
194.0 0.00515 115.07010 196.48410
182.0 0.00549 115.08256 195.69215
205.0 0.00488 115.09491 197.07147
194.0 0.00515 115.10712 196.45944
201.0 0.00498 115.11917 195.92737
195.0 0.00513 115.13107 195.47507
193.0 0.00518 115.14287 195.10284
203.0 0.00493 115.15451 194.81111
207.0 0.00483 115.16601 194.60077
204.0 0.00490 115.17738 194.47305
183.0 0.00546 115.18861 194.42960
191.0 0.00524 115.19968 194.47238
196.0 0.00510 115.21063 194.60408
184.0 0.00543 115.22143 194.82784
195.0 0.00513 115.23210 195.14754
200.0 0.00500 115.24263 195.56796
186.0 0.00538 115.25301 196.09499
181.0 0.00552 115.26324 196.73596
196.0 0.00510 115.27335 197.49991
178.0 0.00562 115.28329 198.39828
181.0 0.00552 115.29314 199.44548
158.0 0.00633 115.30282 200.65962
173.0 0.00578 115.31234 202.06393
195.0 0.00513 115.32174 203.68794
185.0 0.00541 115.33099 205.56911
193.0 0.00518 115.34010 207.79874
178.0 0.00562 115.34908 210.34964
198.0 0.00505 115.35791 213.34042
211.0 0.00474 115.36660 216.86461
223.0 0.00448 115.37514 221.03781
248.0 0.00403 115.38354 226.00085
233.0 0.00429 115.39182 231.92412
240.0 0.00417 115.39992 239.03253
298.0 0.003356 115.40788 247.52158
299.0 0.003344 115.41573 257.69046
331.0 0.003021 115.42342 269.85632
357.0 0.002801 115.43097 284.37573
361.0 0.002770 115.43836 301.64215
393.0 0.002545 115.44563 322.08130
430.0 0.002326 115.45276 346.14349
502.0 0.001992 115.45972 374.29279
479.0 0.002088 115.46657 406.99332
514.0 0.001946 115.47326 444.69159
583.0 0.001715 115.47981 487.79669
571.0 0.001751 115.48621 536.65747
632.0 0.001582 115.49246 591.53729
621.0 0.001610 115.49860 652.58923
671.0 0.001490 115.50455 719.82880
768.0 0.001302 115.51038 793.10962
844.0 0.001185 115.51608 872.09784
895.0 0.001117 115.52161 956.25073
1036.0 0.000965 115.52701 1044.79639
1022.0 0.000978 115.53227 1136.71521
1098.0 0.000911 115.53737 1230.72742
1215.0 0.000823 115.54234 1325.28455
1293.0 0.000773 115.54718 1418.57227
1376.0 0.000727 115.55186 1508.53235
1469.0 0.000681 115.55639 1592.91321
1597.0 0.000626 115.56078 1669.35632
1702.0 0.000588 115.56503 1735.53040
1734.0 0.000577 115.56915 1789.29492
1841.0 0.000543 115.57309 1828.87317
1826.0 0.000548 115.57692 1852.99890
1897.0 0.000527 115.58059 1860.99988
1990.0 0.000503 115.58411 1852.80676
1948.0 0.000513 115.58750 1828.90198
1891.0 0.000529 115.59075 1790.23462
1765.0 0.000567 115.59385 1738.13733
1650.0 0.000606 115.59679 1674.24756
1619.0 0.000618 115.59960 1600.44031
1537.0 0.000651 115.60227 1518.74854
1407.0 0.000711 115.60477 1431.27710
1371.0 0.000729 115.60716 1340.10657
1271.0 0.000787 115.60938 1247.20886
1037.0 0.000964 115.61150 1154.37781
1044.0 0.000958 115.61343 1062.93286
966.0 0.001035 115.61523 974.69543
854.0 0.001171 115.61690 890.48047
790.0 0.001266 115.61840 811.10693
724.0 0.001381 115.61978 737.16150
662.0 0.001511 115.62100 669.01904
620.0 0.001613 115.62209 606.74213
566.0 0.001767 115.62302 550.60217
569.0 0.001757 115.62382 500.35953
498.0 0.002008 115.62448 455.78738
450.0 0.002222 115.62498 416.57272
449.0 0.002227 115.62535 382.33948
423.0 0.002364 115.62557 352.67123
391.0 0.002558 115.62566 327.12952
343.0 0.002915 115.62559 305.27151
369.0 0.002710 115.62538 286.66290
359.0 0.002786 115.62502 270.88934
344.0 0.002907 115.62453 257.56375
325.0 0.003077 115.62388 246.33180
261.0 0.00383 115.62312 236.87480
319.0 0.003135 115.62222 228.91092
308.0 0.003247 115.62113 222.19437
271.0 0.00369 115.61991 216.51404
289.0 0.003460 115.61857 211.69064
260.0 0.00385 115.61707 207.57388
248.0 0.00403 115.61544 204.03908
265.0 0.00377 115.61368 200.98398
220.0 0.00455 115.61175 198.32527
233.0 0.00429 115.60968 195.99556
249.0 0.00402 115.60748 193.94107
247.0 0.00405 115.60515 192.11856
201.0 0.00498 115.60265 190.49382
222.0 0.00450 115.60001 189.03970
224.0 0.00446 115.59725 187.73445
212.0 0.00472 115.59433 186.56085
186.0 0.00538 115.59129 185.50516
212.0 0.00472 115.58809 184.55623
196.0 0.00510 115.58477 183.70497
223.0 0.00448 115.58126 182.94397
202.0 0.00495 115.57765 182.26707
213.0 0.00469 115.57391 181.66911
201.0 0.00498 115.57001 181.14574
198.0 0.00505 115.56596 180.69316
173.0 0.00578 115.56178 180.30817
187.0 0.00535 115.55747 179.98804
168.0 0.00595 115.55298 179.73038
195.0 0.00513 115.54840 179.56424
195.0 0.00513 115.54366 179.42578
140.0 0.00714 115.53879 179.34442
166.0 0.00602 115.53376 179.31877
163.0 0.00613 115.52859 179.34779
156.0 0.00641 115.52332 179.43062
199.0 0.00503 115.51787 179.58199
174.0 0.00575 115.51230 179.77066
165.0 0.00606 115.50658 180.01161
189.0 0.00529 115.50072 180.30461
165.0 0.00606 115.49473 180.64977
187.0 0.00535 115.48860 181.04720
174.0 0.00575 115.48234 181.49728
167.0 0.00599 115.47592 176.90594
187.0 0.00535 115.46938 177.51039
175.0 0.00571 115.46272 178.16884
172.0 0.00581 115.45589 178.88239
170.0 0.00588 115.44894 179.65228
188.0 0.00532 115.44185 180.48003
174.0 0.00575 115.43462 178.83447
167.0 0.00599 115.42723 179.80693
184.0 0.00543 115.41975 180.84288
166.0 0.00602 115.41211 181.94499
174.0 0.00575 115.40434 183.11629
150.0 0.00667 115.39642 184.36008
166.0 0.00602 115.38839 185.68031
174.0 0.00575 115.38021 187.08139
164.0 0.00610 115.37188 188.56831
156.0 0.00641 115.36345 190.14674
180.0 0.00556 115.35486 191.82321
184.0 0.00543 115.34614 193.60481
173.0 0.00578 115.33729 195.49995
182.0 0.00549 115.32830 197.51788
174.0 0.00575 115.31918 199.66902
202.0 0.00495 115.30991 201.96516
182.0 0.00549 115.30053 204.41951
205.0 0.00488 115.29102 207.04672
184.0 0.00543 115.28136 209.86324
198.0 0.00505 115.27157 212.88734
210.0 0.00476 115.26167 216.13931
212.0 0.00472 115.25159 219.64178
231.0 0.00433 115.24142 223.41945
208.0 0.00481 115.23111 227.50002
231.0 0.00433 115.22066 231.91368
249.0 0.00402 115.21007 236.69391
236.0 0.00424 115.19937 241.87724
283.0 0.00353 115.18854 247.50395
266.0 0.00376 115.17758 253.61778
293.0 0.003413 115.16647 260.26669
287.0 0.003484 115.15523 267.50253
368.0 0.002717 115.14388 275.38150
355.0 0.002817 115.13238 283.96423
375.0 0.002667 115.12077 293.31586
367.0 0.002725 115.10902 303.50592
377.0 0.002653 115.09715 314.60907
395.0 0.002532 115.08516 326.70462
422.0 0.002370 115.07302 339.87735
450.0 0.002222 115.06076 354.21750
445.0 0.002247 115.04837 369.82089
475.0 0.002105 115.03586 386.78882
476.0 0.002101 115.02322 405.22678
509.0 0.001965 115.01045 425.24405
517.0 0.001934 114.99755 446.95126
522.0 0.001916 114.98452 470.45892
537.0 0.001862 114.97140 495.87479
571.0 0.001751 114.95811 523.30151
606.0 0.001650 114.94472 552.83466
598.0 0.001672 114.93119 584.55975
657.0 0.001522 114.91756 618.54938
637.0 0.001570 114.90377 654.91473
697.0 0.001435 114.88988 693.58600
720.0 0.001389 114.87586 734.63330
734.0 0.001362 114.86171 778.04742
763.0 0.001311 114.84746 823.79083
819.0 0.001221 114.83307 871.79419
849.0 0.001178 114.81857 921.95245
877.0 0.001140 114.80392 974.14844
1001.0 0.000999 114.78918 1028.13989
1037.0 0.000964 114.77431 1083.71777
1076.0 0.000929 114.75930 1140.59253
1174.0 0.000852 114.74419 1198.41821
1232.0 0.000812 114.72895 1256.78638
1274.0 0.000785 114.71358 1315.22449
1354.0 0.000739 114.69811 1373.19299
1435.0 0.000697 114.68252 1430.08618
1497.0 0.000668 114.66680 1485.23828
1554.0 0.000644 114.65096 1537.93079
1639.0 0.000610 114.63501 1587.40881
1657.0 0.000604 114.61894 1632.90063
1759.0 0.000569 114.60276 1673.64380
1745.0 0.000573 114.58644 1708.91443
1773.0 0.000564 114.57002 1738.06091
1861.0 0.000537 114.55349 1760.53174
1839.0 0.000544 114.53682 1775.90210
1794.0 0.000557 114.52004 1783.89587
1839.0 0.000544 114.50316 1784.39307
1724.0 0.000580 114.48617 1777.43433
1771.0 0.000565 114.46903 1763.21423
1747.0 0.000572 114.45179 1742.06677
1720.0 0.000581 114.43447 1714.44824
1682.0 0.000595 114.41698 1680.93152
1633.0 0.000612 114.39941 1642.11816
1515.0 0.000660 114.38172 1598.71118
1458.0 0.000686 114.36392 1551.42419
1458.0 0.000686 114.34600 1504.20984
1359.0 0.000736 114.32798 1451.34106
1334.0 0.000750 114.30984 1396.69983
1236.0 0.000809 114.29160 1340.91846
1212.0 0.000825 114.27325 1284.58435
1164.0 0.000859 114.25478 1228.20239
1067.0 0.000937 114.23618 1172.23596
1066.0 0.000938 114.21748 1117.07874
967.0 0.001034 114.19869 1064.68103
941.0 0.001063 114.17979 1012.08838
985.0 0.001015 114.16075 961.12384
895.0 0.001117 114.14163 911.95422
815.0 0.001227 114.12241 864.70166
832.0 0.001202 114.10307 819.45038
692.0 0.001445 114.08361 776.25128
746.0 0.001340 114.06405 735.12976
725.0 0.001379 114.04440 696.08966
628.0 0.001592 114.02461 659.11841
608.0 0.001645 114.00476 624.19012
627.0 0.001595 113.98478 591.26770
592.0 0.001689 113.96470 560.30579
574.0 0.001742 113.94450 531.25079
501.0 0.001996 113.92422 504.04337
525.0 0.001905 113.90382 478.61893
473.0 0.002114 113.88333 454.90924
450.0 0.002222 113.86273 432.84296
460.0 0.002174 113.84203 412.34641
443.0 0.002257 113.82121 393.34427
394.0 0.002538 113.80031 375.75980
402.0 0.002488 113.77930 359.51517
405.0 0.002469 113.75819 344.53806
338.0 0.002959 113.73698 330.73807
345.0 0.002899 113.71568 318.04376
329.0 0.003040 113.69428 306.37888
316.0 0.003165 113.67276 295.66891
297.0 0.003367 113.65118 285.84219
312.0 0.003205 113.62946 276.82935
304.0 0.003289 113.60767 268.56754
291.0 0.003436 113.58576 260.98816
269.0 0.00372 113.56378 254.03523
253.0 0.00395 113.54169 247.65347
271.0 0.00369 113.51950 241.79124
240.0 0.00417 113.49723 236.40071
251.0 0.00398 113.47485 231.43748
244.0 0.00410 113.45238 226.86087
281.0 0.00356 113.42982 222.63373
238.0 0.00420 113.40717 220.48434
207.0 0.00483 113.38442 216.87173
229.0 0.00437 113.36156 213.51582
215.0 0.00465 113.33863 210.39157
229.0 0.00437 113.31561 206.35156
217.0 0.00461 113.29250 203.63579
210.0 0.00476 113.26926 201.09090
231.0 0.00433 113.24598 199.57651
207.0 0.00483 113.22260 197.33478
191.0 0.00524 113.19912 195.22151
215.0 0.00465 113.17553 192.66435
211.0 0.00474 113.15189 190.78151
197.0 0.00508 113.12815 188.99777
176.0 0.00568 113.10431 187.30571
202.0 0.00495 113.08040 185.69876
178.0 0.00562 113.05640 184.17105
176.0 0.00568 113.03230 182.71751
181.0 0.00552 113.00811 181.33359
197.0 0.00508 112.98386 180.01540
206.0 0.00485 112.95951 178.75948
195.0 0.00513 112.93507 177.56267
161.0 0.00621 112.91055 176.42230
173.0 0.00578 112.88596 175.33614
184.0 0.00543 112.86127 174.30200
189.0 0.00529 112.83651 173.31815
189.0 0.00529 112.81167 172.38307
183.0 0.00546 112.78675 171.49547
186.0 0.00538 112.76172 170.65439
173.0 0.00578 112.73663 169.85895
148.0 0.00676 112.71147 169.10851
181.0 0.00552 112.68621 168.40257
152.0 0.00658 112.66089 167.74098
169.0 0.00592 112.63547 167.12366
166.0 0.00602 112.60999 166.55064
176.0 0.00568 112.58443 166.02223
150.0 0.00667 112.55878 165.53867
165.0 0.00606 112.53308 165.10048
169.0 0.00592 112.50727 164.70818
155.0 0.00645 112.48141 164.36238
149.0 0.00671 112.45546 164.06367
175.0 0.00571 112.42944 163.81281
145.0 0.00690 112.40335 163.61020
150.0 0.00667 112.37720 163.45651
170.0 0.00588 112.35096 163.35202
174.0 0.00575 112.32463 163.29713
146.0 0.00685 112.29824 163.29179
142.0 0.00704 112.27180 163.33578
166.0 0.00602 112.24525 163.42871
173.0 0.00578 112.21867 163.56963
180.0 0.00556 112.19199 163.75734
160.0 0.00625 112.16526 163.99020
173.0 0.00578 112.13845 164.26604
169.0 0.00592 112.11157 164.58208
154.0 0.00649 112.08463 164.93500
155.0 0.00645 112.05761 165.32066
161.0 0.00621 112.03053 165.73430
179.0 0.00559 112.00340 166.17030
160.0 0.00625 111.97619 166.62212
152.0 0.00658 111.94891 167.08241
166.0 0.00602 111.92157 167.54300
160.0 0.00625 111.89417 167.99492
156.0 0.00641 111.86669 168.42862
154.0 0.00649 111.83916 168.83429
157.0 0.00637 111.81156 169.20213
161.0 0.00621 111.78391 169.52290
191.0 0.00524 111.75617 169.78815
175.0 0.00571 111.72839 169.99077
168.0 0.00595 111.70055 170.12552
169.0 0.00592 111.67265 170.18903
167.0 0.00599 111.64468 170.17998
162.0 0.00617 111.61667 170.09912
161.0 0.00621 111.58858 169.94910
147.0 0.00680 111.56044 169.73433
172.0 0.00581 111.53223 169.46057
170.0 0.00588 111.50399 169.13484
138.0 0.00725 111.47570 168.76497
136.0 0.00735 111.44731 168.35948
191.0 0.00524 111.41888 167.92720
166.0 0.00602 111.39041 167.47701
152.0 0.00658 111.36187 167.01776
184.0 0.00543 111.33329 166.55772
166.0 0.00602 111.30464 166.10483
151.0 0.00662 111.27594 165.66617
159.0 0.00629 111.24720 165.24829
156.0 0.00641 111.21841 164.85681
143.0 0.00699 111.18957 164.49660
165.0 0.00606 111.16065 164.17191
155.0 0.00645 111.13171 163.88622
135.0 0.00741 111.10271 163.64233
159.0 0.00629 111.07365 163.44260
139.0 0.00719 111.04456 163.28886
161.0 0.00621 111.01541 163.18228
177.0 0.00565 110.98623 163.12390
155.0 0.00645 110.95699 163.11417
154.0 0.00649 110.92770 163.15341
139.0 0.00719 110.89838 163.24167
170.0 0.00588 110.86898 163.37869
167.0 0.00599 110.83956 163.56424
172.0 0.00581 110.81010 163.79778
164.0 0.00610 110.78059 164.07880
161.0 0.00621 110.75103 164.40683
163.0 0.00613 110.72145 164.78125
160.0 0.00625 110.69180 165.20161
165.0 0.00606 110.66211 165.66742
153.0 0.00654 110.63239 166.17833
160.0 0.00625 110.60265 166.73418
166.0 0.00602 110.57282 167.33478
174.0 0.00575 110.54300 167.98019
167.0 0.00599 110.51312 168.67068
185.0 0.00541 110.48320 169.40652
148.0 0.00676 110.45325 170.18842
169.0 0.00592 110.42325 171.01701
164.0 0.00610 110.39323 171.89328
166.0 0.00602 110.36316 172.81839
161.0 0.00621 110.33305 173.79370
186.0 0.00538 110.30293 174.82077
180.0 0.00556 110.27275 175.90134
162.0 0.00617 110.24252 177.03740
164.0 0.00610 110.21231 178.23102
167.0 0.00599 110.18203 179.48468
189.0 0.00529 110.15173 180.80092
170.0 0.00588 110.12140 182.18253
191.0 0.00524 110.09104 183.62355
183.0 0.00546 110.06064 185.14514
169.0 0.00592 110.03022 186.74171
187.0 0.00535 109.99975 188.41682
187.0 0.00535 109.96928 190.17442
191.0 0.00524 109.93877 192.01849
183.0 0.00546 109.90822 193.94891
162.0 0.00617 109.87766 195.97916
186.0 0.00538 109.84706 198.10963
176.0 0.00568 109.81644 200.34540
217.0 0.00461 109.78579 202.69189
183.0 0.00546 109.75513 205.15494
188.0 0.00532 109.72444 207.74072
191.0 0.00524 109.69370 210.45586
211.0 0.00474 109.66298 213.30779
229.0 0.00437 109.63222 216.30428
191.0 0.00524 109.60142 219.45418
215.0 0.00465 109.57061 222.76727
184.0 0.00543 109.53979 226.25456
216.0 0.00463 109.50896 229.92860
213.0 0.00469 109.47807 233.80388
214.0 0.00467 109.44719 237.89725
211.0 0.00474 109.41628 242.22849
218.0 0.00459 109.38533 246.82086
266.0 0.00376 109.35442 251.70224
248.0 0.00403 109.32346 256.90582
254.0 0.00394 109.29247 262.47128
256.0 0.00391 109.26150 268.44635
276.0 0.00362 109.23047 274.88821
278.0 0.00360 109.19946 281.86523
278.0 0.00360 109.16841 289.45917
311.0 0.003215 109.13736 297.76709
306.0 0.003268 109.10632 302.45560
357.0 0.002801 109.07523 312.59839
338.0 0.002959 109.04412 323.86343
379.0 0.002639 109.01304 336.43427
383.0 0.002611 108.98193 350.52274
455.0 0.002198 108.95080 366.37036
463.0 0.002160 108.91967 382.02106
533.0 0.001876 108.88855 402.26044
602.0 0.001661 108.85738 425.17697
635.0 0.001575 108.82623 451.14139
661.0 0.001513 108.79507 480.55490
696.0 0.001437 108.76392 513.84491
785.0 0.001274 108.73272 551.46045
822.0 0.001217 108.70153 593.86572
795.0 0.001258 108.67036 641.53107
910.0 0.001099 108.63917 694.92371
934.0 0.001071 108.60796 754.49530
997.0 0.001003 108.57677 820.66901
997.0 0.001003 108.54557 893.82446
1118.0 0.000894 108.51436 974.28210
1095.0 0.000913 108.48314 1062.28674
1213.0 0.000824 108.45195 1157.98889
1307.0 0.000765 108.42074 1261.86719
1406.0 0.000711 108.38953 1372.95972
1429.0 0.000700 108.35831 1491.46509
1514.0 0.000661 108.32710 1616.98291
1606.0 0.000623 108.29591 1748.92920
1763.0 0.000567 108.26469 1886.51978
1814.0 0.000551 108.23350 2028.75171
2030.0 0.000493 108.20232 2174.34229
2109.0 0.000474 108.17110 2322.11108
2266.0 0.000441 108.13992 2469.83105
2396.0 0.000417 108.10873 2615.71216
2605.0 0.000384 108.07755 2757.50586
2771.0 0.000361 108.04637 2892.75879
3003.0 0.0003330 108.01521 3018.88330
3108.0 0.0003218 107.98403 3133.22900
3198.0 0.0003127 107.95289 3233.30811
3288.0 0.0003041 107.92177 3316.80054
3377.0 0.0002961 107.89062 3381.79126
3420.0 0.0002924 107.85947 3426.86157
3405.0 0.0002937 107.82837 3451.16553
3476.0 0.0002877 107.79726 3454.44189
3509.0 0.0002850 107.76615 3436.99219
3432.0 0.0002914 107.73507 3399.60791
3434.0 0.0002912 107.70403 3343.50537
3314.0 0.0003018 107.67296 3270.24585
3261.0 0.0003067 107.64190 3181.67847
3178.0 0.0003147 107.61088 3079.88306
2961.0 0.0003377 107.57986 2967.11279
2771.0 0.000361 107.54885 2845.73218
2736.0 0.000365 107.51788 2718.14771
2623.0 0.000381 107.48690 2586.73535
2364.0 0.000423 107.45594 2453.77466
2328.0 0.000430 107.42501 2321.39233
2226.0 0.000449 107.39410 2191.52344
2044.0 0.000489 107.36320 2065.88574
1897.0 0.000527 107.33231 1945.96887
1880.0 0.000532 107.30145 1833.03455
1731.0 0.000578 107.27061 1728.12231
1633.0 0.000612 107.23978 1632.06116
1627.0 0.000615 107.20897 1545.48218
1523.0 0.000657 107.17821 1468.83374
1451.0 0.000689 107.14747 1402.39514
1338.0 0.000747 107.11672 1346.28955
1321.0 0.000757 107.08601 1300.50049
1249.0 0.000801 107.05532 1264.88196
1299.0 0.000770 107.02465 1239.17053
1320.0 0.000758 106.99401 1222.99792
1367.0 0.000732 106.96340 1215.89868
1285.0 0.000778 106.93282 1217.32043
1274.0 0.000785 106.90226 1226.62952
1238.0 0.000808 106.87171 1243.11609
1234.0 0.000810 106.84122 1265.99890
1283.0 0.000779 106.81075 1294.42566
1413.0 0.000708 106.78029 1327.47363
1388.0 0.000720 106.74986 1364.15112
1406.0 0.000711 106.71948 1403.39783
1486.0 0.000673 106.68912 1444.08838
1480.0 0.000676 106.65879 1485.04211
1490.0 0.000671 106.62850 1525.03760
1548.0 0.000646 106.59823 1562.84033
1645.0 0.000608 106.56799 1597.23608
1659.0 0.000603 106.53781 1627.07556
1716.0 0.000583 106.50763 1651.32178
1713.0 0.000584 106.47749 1669.09766
1684.0 0.000594 106.44740 1679.72290
1771.0 0.000565 106.41734 1682.73853
1703.0 0.000587 106.38733 1677.91235
1637.0 0.000611 106.35733 1665.22974
1704.0 0.000587 106.32738 1644.87341
1674.0 0.000597 106.29747 1617.19531
1612.0 0.000620 106.26757 1582.69006
1556.0 0.000643 106.23773 1541.96948
1477.0 0.000677 106.20795 1495.73914
1426.0 0.000701 106.17820 1444.77502
1443.0 0.000693 106.14845 1389.90051
1356.0 0.000737 106.11877 1331.96130
1241.0 0.000806 106.08914 1271.79871
1165.0 0.000858 106.05952 1210.22681
1126.0 0.000888 106.02999 1148.01074
1094.0 0.000914 106.00046 1085.85181
976.0 0.001025 105.97100 1024.37573
965.0 0.001036 105.94156 964.12762
889.0 0.001125 105.91219 905.57068
869.0 0.001151 105.88286 849.08771
804.0 0.001244 105.85356 794.98535
756.0 0.001323 105.82431 743.49921
696.0 0.001437 105.79512 694.79956
684.0 0.001462 105.76595 648.99976
627.0 0.001595 105.73685 606.15521
562.0 0.001779 105.70780 566.28046
552.0 0.001812 105.67879 529.34772
540.0 0.001852 105.64983 495.29523
509.0 0.001965 105.62091 464.03223
445.0 0.002247 105.59204 435.44470
467.0 0.002141 105.56322 409.40036
477.0 0.002096 105.53447 385.75418
412.0 0.002427 105.50577 364.34937
419.0 0.002387 105.47712 345.02637
345.0 0.002899 105.44850 327.65353
394.0 0.002538 105.41996 312.00854
389.0 0.002571 105.39145 297.96429
354.0 0.002825 105.36302 285.36890
332.0 0.003012 105.33462 274.04523
337.0 0.002967 105.30628 263.92288
333.0 0.003003 105.27801 254.84222
291.0 0.003436 105.24978 246.68651
268.0 0.00373 105.22161 239.36438
281.0 0.00356 105.19350 232.74878
288.0 0.003472 105.16547 226.76775
287.0 0.003484 105.13746 221.32761
248.0 0.00403 105.10953 216.39211
263.0 0.00380 105.08165 211.88435
250.0 0.00400 105.05382 207.75114
263.0 0.00380 105.02608 203.94638
261.0 0.00383 104.99837 200.42982
237.0 0.00422 104.97075 197.16695
235.0 0.00426 104.94317 194.12787
244.0 0.00410 104.91566 191.28702
205.0 0.00488 104.88820 188.62245
219.0 0.00457 104.86082 186.11542
227.0 0.00441 104.83348 183.74979
210.0 0.00476 104.80623 181.51183
204.0 0.00490 104.77904 179.38963
198.0 0.00505 104.75191 177.37323
215.0 0.00465 104.72483 175.45369
203.0 0.00493 104.69784 173.62344
203.0 0.00493 104.67091 171.87593
193.0 0.00518 104.64404 170.20522
196.0 0.00510 104.61725 168.60626
181.0 0.00552 104.59051 167.07449
173.0 0.00578 104.56384 165.60583
218.0 0.00459 104.53725 164.19666
176.0 0.00568 104.51074 162.84367
186.0 0.00538 104.48427 161.54381
196.0 0.00510 104.45789 160.29439
198.0 0.00505 104.43158 159.09285
185.0 0.00541 104.40533 157.93695
152.0 0.00658 104.37915 156.82437
157.0 0.00637 104.35307 155.75331
177.0 0.00565 104.32703 154.72173
189.0 0.00529 104.30107 153.72800
158.0 0.00633 104.27520 152.77051
143.0 0.00699 104.24939 151.84772
140.0 0.00714 104.22365 150.95819
155.0 0.00645 104.19801 150.10065
154.0 0.00649 104.17242 149.27377
168.0 0.00595 104.14691 148.47646
170.0 0.00588 104.12147 147.70760
142.0 0.00704 104.09615 146.96608
170.0 0.00588 104.07085 146.25104
139.0 0.00719 104.04565 145.56155
161.0 0.00621 104.02052 144.89679
139.0 0.00719 103.99548 144.25587
145.0 0.00690 103.97053 143.63808
143.0 0.00699 103.94563 143.04282
143.0 0.00699 103.92083 142.46939
157.0 0.00637 103.89610 141.91721
159.0 0.00629 103.87145 141.38574
145.0 0.00690 103.84690 140.87437
155.0 0.00645 103.82241 140.38283
145.0 0.00690 103.79803 139.91057
154.0 0.00649 103.77370 139.45726
137.0 0.00730 103.74947 139.02264
153.0 0.00654 103.72530 138.60632
143.0 0.00699 103.70123 138.20816
141.0 0.00709 103.67725 137.82793
132.0 0.00758 103.65337 137.46550
122.0 0.00820 103.62955 137.12086
148.0 0.00676 103.60581 136.79382
117.0 0.00855 103.58218 136.48459
160.0 0.00625 103.55862 136.19312
134.0 0.00746 103.53514 135.91956
150.0 0.00667 103.51176 135.66415
128.0 0.00781 103.48846 135.42722
138.0 0.00725 103.46527 135.20900
151.0 0.00662 103.44213 135.00998
112.0 0.00893 103.41913 134.83069
151.0 0.00662 103.39617 134.67166
112.0 0.00893 103.37331 134.53360
148.0 0.00676 103.35056 134.41728
125.0 0.00800 103.32790 134.32358
152.0 0.00658 103.30531 134.25349
143.0 0.00699 103.28281 134.21132
144.0 0.00694 103.26042 134.19176
124.0 0.00806 103.23813 134.19942
130.0 0.00769 103.21591 134.23570
136.0 0.00735 103.19379 134.30217
136.0 0.00735 103.17177 134.40059
126.0 0.00794 103.14983 134.53265
130.0 0.00769 103.12798 134.70039
151.0 0.00662 103.10625 134.90587
133.0 0.00752 103.08460 135.15294
134.0 0.00746 103.06303 135.44055
150.0 0.00667 103.04160 135.77289
125.0 0.00800 103.02023 136.15251
145.0 0.00690 102.99895 136.58202
150.0 0.00667 102.97780 137.06422
136.0 0.00735 102.95673 137.60188
158.0 0.00633 102.93575 138.19794
136.0 0.00735 102.91486 138.85536
135.0 0.00741 102.89410 139.57710
149.0 0.00671 102.87341 140.36620
149.0 0.00671 102.85282 141.22565
125.0 0.00800 102.83234 142.15834
155.0 0.00645 102.81197 143.16721
161.0 0.00621 102.79169 144.25510
140.0 0.00714 102.77151 145.42456
143.0 0.00699 102.75143 146.67836
137.0 0.00730 102.73144 148.01862
162.0 0.00617 102.71158 149.44757
142.0 0.00704 102.69179 150.96698
148.0 0.00676 102.67213 152.57849
152.0 0.00658 102.65256 154.28328
145.0 0.00690 102.63307 156.08211
165.0 0.00606 102.61372 157.97530
174.0 0.00575 102.59446 159.96283
148.0 0.00676 102.57532 162.04401
160.0 0.00625 102.55625 164.21751
173.0 0.00578 102.53732 166.48151
163.0 0.00613 102.51846 168.77551
152.0 0.00658 102.49973 171.21205
162.0 0.00617 102.48112 173.72844
181.0 0.00552 102.46259 176.31944
165.0 0.00606 102.44419 178.97874
196.0 0.00510 102.42586 181.69872
181.0 0.00552 102.40765 184.47072
194.0 0.00515 102.38957 187.25575
200.0 0.00500 102.37157 190.10013
203.0 0.00493 102.35371 192.96184
179.0 0.00559 102.33595 195.82622
209.0 0.00478 102.31826 198.67708
196.0 0.00510 102.30072 201.49652
204.0 0.00490 102.28327 204.26524
208.0 0.00481 102.26595 206.96240
226.0 0.00442 102.24873 209.56593
227.0 0.00441 102.23161 212.05275
203.0 0.00493 102.21461 214.39923
211.0 0.00474 102.19773 216.58148
210.0 0.00476 102.18094 218.57590
208.0 0.00481 102.16429 220.35979
218.0 0.00459 102.14774 221.91182
210.0 0.00476 102.13128 223.21272
188.0 0.00532 102.11497 224.24585
250.0 0.00400 102.09875 224.99750
235.0 0.00426 102.08263 225.45757
246.0 0.00407 102.06665 225.61949
235.0 0.00426 102.05078 225.48076
196.0 0.00510 102.03500 225.04256
205.0 0.00488 102.01936 224.31000
225.0 0.00444 102.00384 223.29166
212.0 0.00472 101.98843 221.99945
220.0 0.00455 101.97311 220.43237
209.0 0.00478 101.95794 218.63919
221.0 0.00452 101.94287 216.62323
212.0 0.00472 101.92793 214.42090
195.0 0.00513 101.91307 208.74802
199.0 0.00503 101.89836 206.21924
188.0 0.00532 101.88376 203.55467
184.0 0.00543 101.86926 200.76877
195.0 0.00513 101.85491 197.89909
179.0 0.00559 101.84065 194.95853
182.0 0.00549 101.82653 191.96695
200.0 0.00500 101.81249 187.30591
171.0 0.00585 101.79862 184.28802
158.0 0.00633 101.78484 181.26271
158.0 0.00633 101.77117 178.26826
168.0 0.00595 101.75764 175.28513
159.0 0.00629 101.74422 172.34094
183.0 0.00546 101.73094 169.44568
153.0 0.00654 101.71775 166.60822
148.0 0.00676 101.70470 163.83606
165.0 0.00606 101.69179 161.13568
151.0 0.00662 101.67896 158.51242
190.0 0.00526 101.66627 155.97078
150.0 0.00667 101.65369 153.52240
143.0 0.00699 101.64125 151.15372
149.0 0.00671 101.62891 148.87494
139.0 0.00719 101.61671 146.68736
149.0 0.00671 101.60464 144.59164
148.0 0.00676 101.59267 142.58809
132.0 0.00758 101.58084 140.67616
140.0 0.00714 101.56912 138.85541
130.0 0.00769 101.55755 137.12447
127.0 0.00787 101.54607 135.48199
139.0 0.00719 101.53473 133.91975
120.0 0.00833 101.52352 132.44872
140.0 0.00714 101.51241 131.06032
118.0 0.00847 101.50144 129.75189
126.0 0.00794 101.49060 128.52124
149.0 0.00671 101.47988 127.36582
106.0 0.00943 101.46929 126.28300
114.0 0.00877 101.45882 125.26706
117.0 0.00855 101.44849 124.32192
134.0 0.00746 101.43826 123.44791
107.0 0.00935 101.42818 122.63081
101.0 0.00990 101.41821 121.87440
118.0 0.00847 101.40837 121.17677
110.0 0.00909 101.39865 120.53621
110.0 0.00909 101.38908 119.95127
135.0 0.00741 101.37963 119.42076
124.0 0.00806 101.37029 117.14059
98.0 0.01020 101.36109 116.73203
113.0 0.00885 101.35201 116.37942
122.0 0.00820 101.34307 116.07707
121.0 0.00826 101.33424 115.82866
115.0 0.00870 101.32556 115.63534
119.0 0.00840 101.31701 115.49854
87.0 0.01149 101.30857 114.51765
121.0 0.00826 101.30026 114.50754
113.0 0.00885 101.29210 114.56049
108.0 0.00926 101.28403 114.67921
120.0 0.00833 101.27613 114.86662
120.0 0.00833 101.26835 115.12558
110.0 0.00909 101.26069 115.45899
105.0 0.00952 101.25314 115.86948
114.0 0.00877 101.24575 116.35935
105.0 0.00952 101.23849 116.93059
111.0 0.00901 101.23136 117.58427
98.0 0.01020 101.22433 118.32091
115.0 0.00870 101.21747 119.13993
128.0 0.00781 101.21072 120.03970
109.0 0.00917 101.20411 121.01733
115.0 0.00870 101.19763 122.06840
121.0 0.00826 101.19126 123.18710
135.0 0.00741 101.18506 124.36655
116.0 0.00862 101.17896 125.59586
113.0 0.00885 101.17301 126.86452
110.0 0.00909 101.16718 128.15916
119.0 0.00840 101.16148 129.46442
110.0 0.00909 101.15593 130.76271
120.0 0.00833 101.15050 132.03450
141.0 0.00709 101.14519 133.25833
121.0 0.00826 101.14002 134.41145
123.0 0.00813 101.13499 135.47054
142.0 0.00704 101.13010 136.41162
113.0 0.00885 101.12533 137.21274
137.0 0.00730 101.12069 137.85448
138.0 0.00725 101.11620 138.32094
143.0 0.00699 101.11182 138.60077
125.0 0.00800 101.10759 138.68762
118.0 0.00847 101.10350 138.58012
126.0 0.00794 101.09953 138.28142
132.0 0.00758 101.09570 137.79852
124.0 0.00806 101.09200 137.14148
105.0 0.00952 101.08845 136.32291
112.0 0.00893 101.08498 135.35748
122.0 0.00820 101.08170 134.26160
128.0 0.00781 101.07854 133.05328
116.0 0.00862 101.07552 131.75160
127.0 0.00787 101.07260 130.37634
125.0 0.00800 101.06986 128.94757
138.0 0.00725 101.06724 127.48498
124.0 0.00806 101.06474 126.00724
99.0 0.01010 101.06239 124.53174
98.0 0.01020 101.06017 123.07407
103.0 0.00971 101.05806 121.64783
100.0 0.01000 101.05612 120.26468
115.0 0.00870 101.05431 118.93413
120.0 0.00833 101.05263 117.66382
109.0 0.00917 101.05108 116.45953
104.0 0.00962 101.04967 115.32522
111.0 0.00901 101.04839 114.26355
111.0 0.00901 101.04725 113.27557
99.0 0.01010 101.04625 112.36132
109.0 0.00917 101.04539 111.51971
128.0 0.00781 101.04465 110.74878
113.0 0.00885 101.04404 110.04591
116.0 0.00862 101.04358 109.40788
112.0 0.00893 101.04327 108.83104
115.0 0.00870 101.04308 108.31153
95.0 0.01053 101.04300 107.84512
105.0 0.00952 101.04309 107.42770
106.0 0.00943 101.04331 107.05510
89.0 0.01124 101.04365 106.72317
102.0 0.00980 101.04414 106.42801
94.0 0.01064 101.04478 106.16592
84.0 0.01190 101.04554 105.93327
100.0 0.01000 101.04642 105.72688
101.0 0.00990 101.04746 105.54376
101.0 0.00990 101.04865 105.38126
108.0 0.00926 101.04993 105.23685
90.0 0.01111 101.05137 105.10852
110.0 0.00909 101.05297 104.99427
97.0 0.01031 101.05467 104.89249
103.0 0.00971 101.05653 104.80173
97.0 0.01031 101.05852 104.72081
100.0 0.01000 101.06064 104.64870
95.0 0.01053 101.06289 104.58453
86.0 0.01163 101.06529 104.52755
108.0 0.00926 101.06783 104.47722
98.0 0.01020 101.07050 104.43298
91.0 0.01099 101.07329 104.39451
85.0 0.01176 101.07623 104.36150
91.0 0.01099 101.07931 104.33366
105.0 0.00952 101.08253 104.31082
103.0 0.00971 101.08589 104.29279
85.0 0.01176 101.08938 104.27948
86.0 0.01163 101.09299 104.27078
93.0 0.01075 101.09675 104.26659
95.0 0.01053 101.10065 104.26682
102.0 0.00980 101.10468 104.27137
108.0 0.00926 101.10885 104.28017
99.0 0.01010 101.11315 104.29313
85.0 0.01176 101.11761 104.31011
93.0 0.01075 101.12217 104.33092
101.0 0.00990 101.12690 104.35545
88.0 0.01136 101.13174 104.38345
80.0 0.01250 101.13673 104.41475
106.0 0.00943 101.14184 104.44902
88.0 0.01136 101.14709 104.48592
88.0 0.01136 101.15250 104.52508
98.0 0.01020 101.15801 104.56616
80.0 0.01250 101.16368 104.60860
89.0 0.01124 101.16949 104.65188
99.0 0.01010 101.17544 104.69534
108.0 0.00926 101.18150 104.73845
102.0 0.00980 101.18772 104.78046
89.0 0.01124 101.19407 104.82061
89.0 0.01124 101.20052 104.85821
106.0 0.00943 101.20715 104.89250
73.0 0.01370 101.21391 104.92281
107.0 0.00935 101.22079 104.94850
97.0 0.01031 101.22782 104.96899
113.0 0.00885 101.23499 104.98388
100.0 0.01000 101.24228 104.99281
94.0 0.01064 101.24970 104.99571
105.0 0.00952 101.25726 104.99245
92.0 0.01087 101.26496 104.98313
95.0 0.01053 101.27281 104.96800
102.0 0.00980 101.28076 104.94736
91.0 0.01099 101.28887 104.92160
88.0 0.01136 101.29710 104.89124
85.0 0.01176 101.30548 104.85677
100.0 0.01000 101.31399 104.81887
94.0 0.01064 101.32264 104.77818
98.0 0.01020 101.33141 104.73531
100.0 0.01000 101.34031 104.69090
99.0 0.01010 101.34937 104.64575
93.0 0.01075 101.35855 104.60049
97.0 0.01031 101.36785 104.55580
102.0 0.00980 101.37730 104.51228
101.0 0.00990 101.38688 104.47047
94.0 0.01064 101.39660 104.43098
97.0 0.01031 101.40644 104.39427
94.0 0.01064 101.41641 104.36082
94.0 0.01064 101.42654 104.33101
127.0 0.00787 101.43678 104.83398
93.0 0.01075 101.44717 104.81702
117.0 0.00855 101.45769 104.80479
113.0 0.00885 101.46834 104.79761
88.0 0.01136 101.47910 104.79567
99.0 0.01010 101.49001 104.79926
112.0 0.00893 101.50108 104.80853
99.0 0.01010 101.51225 104.82372
110.0 0.00909 101.52356 104.84497
110.0 0.00909 101.53501 104.87249
99.0 0.01010 101.54658 105.17126
93.0 0.01075 101.55828 105.21402
106.0 0.00943 101.57011 105.26355
92.0 0.01087 101.58210 105.31994
118.0 0.00847 101.59418 105.38347
106.0 0.00943 101.60642 105.45419
88.0 0.01136 101.61880 105.53229
111.0 0.00901 101.63125 105.61787
100.0 0.01000 101.64390 105.71115
102.0 0.00980 101.65665 105.81221
101.0 0.00990 101.66954 105.92120
76.0 0.01316 101.68256 106.03828
104.0 0.00962 101.69571 106.16360
93.0 0.01075 101.70898 106.29721
95.0 0.01053 101.72240 106.43925
113.0 0.00885 101.73593 106.58983
86.0 0.01163 101.74960 106.74899
119.0 0.00840 101.76340 106.91679
92.0 0.01087 101.77729 107.09326
102.0 0.00980 101.79135 107.27835
105.0 0.00952 101.80555 106.99713
108.0 0.00926 101.81987 107.20329
90.0 0.01111 101.83428 107.41772
99.0 0.01010 101.84887 107.64021
92.0 0.01087 101.86356 107.87049
111.0 0.00901 101.87838 108.10816
104.0 0.00962 101.89333 108.35291
99.0 0.01010 101.90842 108.60419
113.0 0.00885 101.92364 108.62454
102.0 0.00980 101.93896 108.88900
102.0 0.00980 101.95443 109.15794
102.0 0.00980 101.97001 109.43054
109.0 0.00917 101.98572 109.70575
106.0 0.00943 102.00155 109.98265
123.0 0.00813 102.01753 110.26003
105.0 0.00952 102.03364 110.53671
100.0 0.01000 102.04984 110.81142
117.0 0.00855 102.06616 111.08290
116.0 0.00862 102.08264 111.34974
113.0 0.00885 102.09923 111.61066
117.0 0.00855 102.11596 111.86419
113.0 0.00885 102.13281 112.10908
107.0 0.00935 102.14977 114.30788
116.0 0.00862 102.16687 114.54757
108.0 0.00926 102.18409 114.77507
90.0 0.01111 102.20141 114.98927
119.0 0.00840 102.21887 115.18935
130.0 0.00769 102.23647 115.37447
124.0 0.00806 102.25419 115.54412
133.0 0.00752 102.27202 115.69795
124.0 0.00806 102.28996 115.83577
120.0 0.00833 102.30804 115.95781
118.0 0.00847 102.32624 117.04636
125.0 0.00800 102.34455 117.14596
99.0 0.01010 102.36301 117.23163
112.0 0.00893 102.38158 117.30435
112.0 0.00893 102.40025 117.36530
120.0 0.00833 102.41906 117.41572
100.0 0.01000 102.43798 117.45702
92.0 0.01087 102.45705 117.49055
124.0 0.00806 102.47619 117.51770
141.0 0.00709 102.49549 117.53983
104.0 0.00962 102.51491 117.55811
121.0 0.00826 102.53442 117.57349
95.0 0.01053 102.55408 117.58691
112.0 0.00893 102.57382 117.59895
96.0 0.01042 102.59373 117.60997
112.0 0.00893 102.61370 117.61997
103.0 0.00971 102.63384 117.62864
117.0 0.00855 102.65406 117.63541
106.0 0.00943 102.67442 117.63932
117.0 0.00855 102.69489 117.63907
115.0 0.00870 102.71548 117.63316
111.0 0.00901 102.73621 117.62002
114.0 0.00877 102.75698 117.59781
108.0 0.00926 102.77795 117.56488
117.0 0.00855 102.79899 117.51986
114.0 0.00877 102.82014 117.46143
111.0 0.00901 102.84144 117.39337
131.0 0.00763 102.86285 117.30638
129.0 0.00775 102.88435 117.20490
125.0 0.00800 102.90596 117.08945
104.0 0.00962 102.92771 116.96087
107.0 0.00935 102.94958 116.84855
129.0 0.00775 102.97153 116.69742
110.0 0.00909 102.99360 116.53699
118.0 0.00847 103.01581 116.36897
106.0 0.00943 103.03812 116.19516
112.0 0.00893 103.06051 116.01962
127.0 0.00787 103.08306 115.83984
125.0 0.00800 103.10569 115.66008
125.0 0.00800 103.12844 115.48228
113.0 0.00885 103.15130 115.30834
108.0 0.00926 103.17429 115.15417
108.0 0.00926 103.19736 114.99329
112.0 0.00893 103.22057 114.84120
130.0 0.00769 103.24386 114.69907
112.0 0.00893 103.26727 114.56799
137.0 0.00730 103.29078 114.44877
119.0 0.00840 103.31441 114.34203
113.0 0.00885 103.33817 114.24818
118.0 0.00847 103.36200 114.16747
111.0 0.00901 103.38595 114.09995
116.0 0.00862 103.41001 114.04562
113.0 0.00885 103.43417 114.00431
119.0 0.00840 103.45844 113.97569
109.0 0.00917 103.48281 113.95934
112.0 0.00893 103.50730 113.95313
115.0 0.00870 103.53190 113.96017
113.0 0.00885 103.55659 116.62399
114.0 0.00877 103.58139 116.67417
122.0 0.00820 103.60632 116.73451
123.0 0.00813 103.63129 116.80444
108.0 0.00926 103.65641 116.88344
102.0 0.00980 103.68163 116.97112
105.0 0.00952 103.70695 117.06692
95.0 0.01053 103.73238 117.16959
104.0 0.00962 103.75789 117.28053
122.0 0.00820 103.78354 117.36724
112.0 0.00893 103.80923 118.81281
114.0 0.00877 103.83507 118.95507
118.0 0.00847 103.86100 119.10374
116.0 0.00862 103.88702 119.25861
116.0 0.00862 103.91315 119.41947
109.0 0.00917 103.93938 119.58625
108.0 0.00926 103.96573 119.75887
112.0 0.00893 103.99213 119.93726
106.0 0.00943 104.01868 120.10587
131.0 0.00763 104.04530 120.29584
120.0 0.00833 104.07201 120.49158
111.0 0.00901 104.09882 120.69308
127.0 0.00787 104.12574 120.90042
113.0 0.00885 104.15276 121.11363
119.0 0.00840 104.17986 121.33734
122.0 0.00820 104.20707 121.56259
119.0 0.00840 104.23437 121.79402
105.0 0.00952 104.26176 122.03176
110.0 0.00909 104.28924 122.27583
117.0 0.00855 104.31683 122.52645
120.0 0.00833 104.34452 122.78374
111.0 0.00901 104.37228 123.04781
118.0 0.00847 104.40014 123.31887
137.0 0.00730 104.42809 123.59710
118.0 0.00847 104.45615 123.88493
126.0 0.00794 104.48430 124.17803
113.0 0.00885 104.51254 124.47886
115.0 0.00870 104.54086 124.78761
123.0 0.00813 104.56927 125.10458
130.0 0.00769 104.59776 125.42994
115.0 0.00870 104.62637 125.76395
108.0 0.00926 104.65503 126.10696
117.0 0.00855 104.68380 126.45917
127.0 0.00787 104.71268 126.82095
118.0 0.00847 104.74162 127.19256
106.0 0.00943 104.77067 127.57439
116.0 0.00862 104.79977 127.96683
128.0 0.00781 104.82899 128.37021
141.0 0.00709 104.85828 128.78503
121.0 0.00826 104.88765 129.21176
116.0 0.00862 104.91714 129.65085
122.0 0.00820 104.94669 130.10278
125.0 0.00800 104.97633 130.56822
142.0 0.00704 105.00605 131.04779
136.0 0.00735 105.03586 131.54218
115.0 0.00870 105.06573 132.05211
131.0 0.00763 105.09571 132.57848
125.0 0.00800 105.12578 133.12222
137.0 0.00730 105.15591 133.68431
119.0 0.00840 105.18613 134.26607
132.0 0.00758 105.21642 134.86871
146.0 0.00685 105.24681 135.49380
122.0 0.00820 105.27726 136.14297
152.0 0.00658 105.30779 136.81821
143.0 0.00699 105.33841 137.52174
104.0 0.00962 105.36912 138.25607
132.0 0.00758 105.39989 139.02419
130.0 0.00769 105.43074 139.82930
147.0 0.00680 105.46169 140.67526
145.0 0.00690 105.49268 141.56648
130.0 0.00769 105.52377 142.50792
127.0 0.00787 105.55494 143.50517
134.0 0.00746 105.58617 144.56480
127.0 0.00787 105.61749 145.69417
128.0 0.00781 105.64886 146.90144
154.0 0.00649 105.68033 148.19600
147.0 0.00680 105.71188 149.58827
142.0 0.00704 105.74348 151.11319
182.0 0.00549 105.77515 152.73724
160.0 0.00625 105.80691 154.49791
157.0 0.00637 105.83875 156.41075
165.0 0.00606 105.87062 158.49275
173.0 0.00578 105.90262 160.76236
174.0 0.00575 105.93465 163.23949
175.0 0.00571 105.96676 165.94514
174.0 0.00575 105.99892 168.90169
200.0 0.00500 106.03117 172.13266
201.0 0.00498 106.06348 175.67384
181.0 0.00552 106.09587 179.52728
213.0 0.00469 106.12834 183.72993
207.0 0.00483 106.16085 188.30721
208.0 0.00481 106.19343 193.28447
227.0 0.00441 106.22607 198.68613
182.0 0.00549 106.25880 204.53223
214.0 0.00467 106.29158 210.85135
208.0 0.00481 106.32444 217.65964
220.0 0.00455 106.35735 224.97385
221.0 0.00452 106.39030 232.80751
252.0 0.00397 106.42335 241.17004
240.0 0.00417 106.45645 250.06656
254.0 0.00394 106.48961 259.49680
272.0 0.00368 106.52283 269.45462
282.0 0.00355 106.55614 279.92581
263.0 0.00380 106.58945 290.89383
290.0 0.003448 106.62287 302.32947
290.0 0.003448 106.65633 314.19601
346.0 0.002890 106.68987 326.44785
339.0 0.002950 106.72344 339.02884
351.0 0.002849 106.75709 351.87225
373.0 0.002681 106.79080 364.89914
391.0 0.002558 106.82455 378.01938
394.0 0.002538 106.85837 391.13010
385.0 0.002597 106.89224 404.11688
369.0 0.002710 106.92616 416.85443
463.0 0.002160 106.96013 429.20868
449.0 0.002227 106.99417 441.03995
467.0 0.002141 107.02828 452.20673
437.0 0.002288 107.06243 462.57101
497.0 0.002012 107.09663 472.00400
512.0 0.001953 107.13087 480.39185
515.0 0.001942 107.16518 487.64105
486.0 0.002058 107.19952 493.68271
529.0 0.001890 107.23390 498.47528
549.0 0.001821 107.26838 502.00394
560.0 0.001786 107.30289 504.28113
569.0 0.001757 107.33743 505.34250
545.0 0.001835 107.37203 505.24457
530.0 0.001887 107.40670 504.06076
552.0 0.001812 107.44138 501.87912
528.0 0.001894 107.47611 498.79947
475.0 0.002105 107.51093 494.93192
518.0 0.001931 107.54575 490.39539
499.0 0.002004 107.58063 485.31577
473.0 0.002114 107.61558 479.82425
505.0 0.001980 107.65055 474.05515
467.0 0.002141 107.68557 468.14334
486.0 0.002058 107.72063 462.22165
451.0 0.002217 107.75573 456.41772
464.0 0.002155 107.79088 450.85275
429.0 0.002331 107.82605 445.63831
437.0 0.002288 107.86129 440.87607
437.0 0.002288 107.89657 436.65637
431.0 0.002320 107.93188 433.05777
433.0 0.002309 107.96724 430.14771
427.0 0.002342 108.00262 427.98151
461.0 0.002169 108.03806 426.60406
398.0 0.002513 108.07352 426.04929
437.0 0.002288 108.10902 426.34155
385.0 0.002597 108.14458 427.49542
406.0 0.002463 108.18016 429.51682
401.0 0.002494 108.21576 432.40332
435.0 0.002299 108.25140 436.14465
446.0 0.002242 108.28710 440.72321
410.0 0.002439 108.32280 446.11417
426.0 0.002347 108.35856 452.28836
452.0 0.002212 108.39436 459.20416
504.0 0.001984 108.43018 466.81982
434.0 0.002304 108.46604 475.08551
496.0 0.002016 108.50192 483.94614
443.0 0.002257 108.53783 493.34048
449.0 0.002227 108.57377 503.20200
502.0 0.001992 108.60975 513.45868
525.0 0.001905 108.64576 524.03326
471.0 0.002123 108.68179 534.84302
568.0 0.001761 108.71783 545.80042
562.0 0.001779 108.75394 556.79797
528.0 0.001894 108.79003 567.77130
578.0 0.001730 108.82619 578.60553
604.0 0.001656 108.86237 589.19873
637.0 0.001570 108.89856 599.44934
612.0 0.001634 108.93478 609.25482
609.0 0.001642 108.97102 618.51563
622.0 0.001608 109.00726 627.13684
619.0 0.001616 109.04359 635.02832
658.0 0.001520 109.07988 642.10083
625.0 0.001600 109.11622 648.29999
610.0 0.001639 109.15258 653.54016
662.0 0.001511 109.18896 657.80969
613.0 0.001631 109.22535 661.05829
662.0 0.001511 109.26177 663.26807
662.0 0.001511 109.29823 664.43573
655.0 0.001527 109.33465 664.57526
606.0 0.001650 109.37114 663.70740
681.0 0.001468 109.40762 661.87323
683.0 0.001464 109.44414 659.69385
637.0 0.001570 109.48064 656.08771
639.0 0.001565 109.51721 651.71008
646.0 0.001548 109.55376 646.63348
682.0 0.001466 109.59032 640.94592
649.0 0.001541 109.62691 634.74213
638.0 0.001567 109.66351 628.12183
681.0 0.001468 109.70011 621.18799
613.0 0.001631 109.73673 614.04675
724.0 0.001381 109.77339 606.80273
625.0 0.001600 109.81003 599.56348
615.0 0.001626 109.84669 592.72028
608.0 0.001645 109.88336 585.80908
653.0 0.001531 109.92001 579.21527
639.0 0.001565 109.95670 573.03723
575.0 0.001739 109.99339 567.37103
598.0 0.001672 110.03011 562.30859
618.0 0.001618 110.06681 557.93738
662.0 0.001511 110.10352 554.34131
616.0 0.001623 110.14024 551.59955
592.0 0.001689 110.17697 549.78619
581.0 0.001721 110.21369 548.96515
571.0 0.001751 110.25044 549.21344
625.0 0.001600 110.28719 550.58472
590.0 0.001695 110.32393 553.13361
610.0 0.001639 110.36066 556.90942
607.0 0.001647 110.39742 561.95551
646.0 0.001548 110.43416 568.31073
631.0 0.001585 110.47090 576.00763
576.0 0.001736 110.50765 585.07178
638.0 0.001567 110.54443 595.52026
686.0 0.001458 110.58115 607.37244
635.0 0.001575 110.61790 620.63037
641.0 0.001560 110.65465 635.29163
671.0 0.001490 110.69138 651.34503
675.0 0.001481 110.72813 668.76837
693.0 0.001443 110.76487 687.53003
723.0 0.001383 110.80160 707.58527
712.0 0.001404 110.83831 728.87732
730.0 0.001370 110.87503 752.09015
759.0 0.001318 110.91174 775.63116
804.0 0.001244 110.94848 800.14691
858.0 0.001166 110.98516 825.51587
863.0 0.001159 111.02185 851.59717
827.0 0.001209 111.05853 878.22974
921.0 0.001086 111.09521 905.23071
884.0 0.001131 111.13187 932.39581
935.0 0.001070 111.16852 959.49719
980.0 0.001020 111.20518 986.28674
942.0 0.001062 111.24178 1012.49670
1008.0 0.000992 111.27841 1038.22058
1034.0 0.000967 111.31503 1062.40845
1108.0 0.000903 111.35162 1085.13391
1195.0 0.000837 111.38819 1106.09534
1057.0 0.000946 111.42476 1125.00122
1136.0 0.000880 111.46132 1141.57813
1135.0 0.000881 111.49784 1155.57983
1104.0 0.000906 111.53438 1166.79529
1124.0 0.000890 111.57087 1175.05444
1172.0 0.000853 111.60735 1180.23364
1168.0 0.000856 111.64382 1182.25586
1103.0 0.000907 111.68029 1181.09424
1168.0 0.000856 111.71671 1176.76550
1138.0 0.000879 111.75311 1169.32983
1073.0 0.000932 111.78951 1158.88342
1114.0 0.000898 111.82586 1145.55762
1077.0 0.000929 111.86222 1129.51135
1093.0 0.000915 111.89854 1110.92822
1023.0 0.000978 111.93484 1090.01245
1047.0 0.000955 111.97112 1066.98425
1018.0 0.000982 112.00736 1042.07764
979.0 0.001021 112.04360 1015.53558
931.0 0.001074 112.07981 987.60577
900.0 0.001111 112.11600 958.53760
915.0 0.001093 112.15214 928.57623
865.0 0.001156 112.18828 897.96082
762.0 0.001312 112.22438 866.92004
786.0 0.001272 112.26044 835.66913
770.0 0.001299 112.29648 804.40735
791.0 0.001264 112.33249 773.31763
766.0 0.001305 112.36848 742.56476
648.0 0.001543 112.40443 712.29523
656.0 0.001524 112.44037 682.63727
621.0 0.001610 112.47625 653.70129
654.0 0.001529 112.51212 625.58203
614.0 0.001629 112.54794 598.35736
547.0 0.001828 112.58376 572.09088
567.0 0.001764 112.61949 546.83197
535.0 0.001869 112.65520 522.61798
525.0 0.001905 112.69093 499.47470
471.0 0.002123 112.72659 477.41730
518.0 0.001931 112.76218 456.45197
463.0 0.002160 112.79778 436.57608
440.0 0.002273 112.83333 417.77997
481.0 0.002079 112.86881 400.04715
448.0 0.002232 112.90430 383.35568
398.0 0.002513 112.93973 367.67859
398.0 0.002513 112.97512 352.98468
396.0 0.002525 113.01046 339.23932
403.0 0.002481 113.04578 326.40512
347.0 0.002882 113.08106 314.44263
356.0 0.002809 113.11629 303.31064
340.0 0.002941 113.15147 292.96686
352.0 0.002841 113.18660 283.36877
326.0 0.003067 113.22171 274.47333
327.0 0.003058 113.25675 266.23813
340.0 0.002941 113.29176 258.62119
312.0 0.003205 113.32673 251.58176
332.0 0.003012 113.36163 245.08011
302.0 0.003311 113.39651 239.07780
277.0 0.00361 113.43136 233.53844
271.0 0.00369 113.46611 228.42696
274.0 0.00365 113.50084 223.71042
252.0 0.00397 113.53551 219.35770
280.0 0.00357 113.57016 215.33958
275.0 0.00364 113.60472 211.62897
226.0 0.00442 113.63926 208.20064
249.0 0.00402 113.67374 205.03102
269.0 0.00372 113.70817 202.09886
246.0 0.00407 113.74254 199.38446
246.0 0.00407 113.77684 196.86974
248.0 0.00403 113.81113 194.53848
212.0 0.00472 113.84534 192.37584
207.0 0.00483 113.87950 190.36836
217.0 0.00461 113.91359 188.50420
208.0 0.00481 113.94765 186.77231
213.0 0.00469 113.98164 185.16309
216.0 0.00463 114.01559 183.66791
193.0 0.00518 114.04946 182.27901
203.0 0.00493 114.08327 180.98943
181.0 0.00552 114.11703 179.79294
181.0 0.00552 114.15073 178.68408
195.0 0.00513 114.18436 177.65782
195.0 0.00513 114.21796 176.70961
189.0 0.00529 114.25149 175.83534
165.0 0.00606 114.28493 175.03133
209.0 0.00478 114.31834 174.29391
195.0 0.00513 114.35165 173.61987
218.0 0.00459 114.38494 173.00603
236.0 0.00424 114.41813 172.44942
188.0 0.00532 114.45128 171.94684
188.0 0.00532 114.48437 171.49536
221.0 0.00452 114.51739 171.75633
199.0 0.00503 114.55033 171.40269
189.0 0.00529 114.58321 171.09056
185.0 0.00541 114.61600 170.81653
190.0 0.00526 114.64875 170.57680
185.0 0.00541 114.68144 170.36740
200.0 0.00500 114.71405 170.18417
166.0 0.00602 114.74659 170.02260
178.0 0.00562 114.77905 169.87801
175.0 0.00571 114.81145 169.74533
189.0 0.00529 114.84379 169.61942
170.0 0.00588 114.87605 169.82611
171.0 0.00585 114.90822 169.70032
195.0 0.00513 114.94036 169.56554
158.0 0.00633 114.97239 169.41698
185.0 0.00541 115.00435 169.25011
176.0 0.00568 115.03625 169.06100
214.0 0.00467 115.06808 168.84647
186.0 0.00538 115.09979 168.60402
182.0 0.00549 115.13148 168.33202
178.0 0.00562 115.16307 168.02959
165.0 0.00606 115.19457 167.69659
168.0 0.00595 115.22602 167.33365
192.0 0.00521 115.25735 166.94191
153.0 0.00654 115.28865 166.52293
180.0 0.00556 115.31984 166.07889
151.0 0.00662 115.35096 165.61224
161.0 0.00621 115.38200 165.12579
179.0 0.00559 115.41296 164.62251
158.0 0.00633 115.44385 164.10564
174.0 0.00575 115.47463 163.57884
155.0 0.00645 115.50536 162.50443
171.0 0.00585 115.53598 161.97285
174.0 0.00575 115.56653 161.44220
186.0 0.00538 115.59700 160.91600
146.0 0.00685 115.62737 160.39789
159.0 0.00629 115.65766 159.89113
150.0 0.00667 115.68787 159.39885
151.0 0.00662 115.71799 158.92400
156.0 0.00641 115.74803 158.46915
148.0 0.00676 115.77798 158.03668
171.0 0.00585 115.80785 157.35971
125.0 0.00800 115.83763 156.98006
147.0 0.00680 115.86731 156.62819
139.0 0.00719 115.89690 156.30527
133.0 0.00752 115.92640 156.01253
166.0 0.00602 115.95580 155.75084
181.0 0.00552 115.98515 155.52101
148.0 0.00676 116.01437 155.32349
179.0 0.00559 116.04353 156.06960
142.0 0.00704 116.07257 155.94473
128.0 0.00781 116.10153 155.85333
164.0 0.00610 116.13039 155.79555
150.0 0.00667 116.15916 155.77156
132.0 0.00758 116.18783 155.78142
167.0 0.00599 116.21641 155.82527
152.0 0.00658 116.24490 155.90320
165.0 0.00606 116.27328 156.01549
147.0 0.00680 116.30157 156.16222
157.0 0.00637 116.32978 156.34373
161.0 0.00621 116.35787 157.01382
157.0 0.00637 116.38587 157.26984
160.0 0.00625 116.41376 157.56241
162.0 0.00617 116.44159 157.89275
136.0 0.00735 116.46926 158.26190
158.0 0.00633 116.49689 158.67166
149.0 0.00671 116.52439 159.12375
151.0 0.00662 116.55179 159.62071
144.0 0.00694 116.57909 160.16533
159.0 0.00629 116.60629 160.76123
159.0 0.00629 116.63338 161.41240
176.0 0.00568 116.66037 162.12386
184.0 0.00543 116.68728 162.90140
194.0 0.00515 116.71406 163.75175
173.0 0.00578 116.74074 164.68288
175.0 0.00571 116.76732 165.70383
174.0 0.00575 116.79379 166.82536
187.0 0.00535 116.82014 168.05956
210.0 0.00476 116.84642 169.42004
186.0 0.00538 116.87257 170.92271
223.0 0.00448 116.89861 172.58507
224.0 0.00446 116.92456 174.42690
196.0 0.00510 116.95038 176.47014
209.0 0.00478 116.97611 176.62260
250.0 0.00400 117.00172 179.16226
235.0 0.00426 117.02724 181.98296
231.0 0.00433 117.05263 185.11615
259.0 0.00386 117.07790 188.59543
239.0 0.00418 117.10310 192.46471
254.0 0.00394 117.12813 196.74536
248.0 0.00403 117.15308 201.48491
225.0 0.00444 117.17793 206.72372
270.0 0.00370 117.20265 212.50319
246.0 0.00407 117.22726 217.79550
263.0 0.00380 117.25175 224.78975
255.0 0.00392 117.27615 232.46326
279.0 0.00358 117.30040 240.82315
288.0 0.003472 117.32457 249.92081
327.0 0.003058 117.34859 259.78824
298.0 0.003356 117.37252 270.45331
286.0 0.003497 117.39633 281.94196
335.0 0.002985 117.42001 294.26212
298.0 0.003356 117.44358 307.42566
351.0 0.002849 117.46703 321.43253
360.0 0.002778 117.49037 336.27255
361.0 0.002770 117.51360 351.92502
338.0 0.002959 117.53670 368.35806
380.0 0.002632 117.55967 385.52631
382.0 0.002618 117.58253 403.37143
438.0 0.002283 117.60526 421.81970
439.0 0.002278 117.62788 440.78204
480.0 0.002083 117.65038 460.15213
450.0 0.002222 117.67273 479.80667
521.0 0.001919 117.69498 499.60373
473.0 0.002114 117.71712 519.38403
554.0 0.001805 117.73914 538.97089
525.0 0.001905 117.76102 558.17255
581.0 0.001721 117.78278 576.78558
600.0 0.001667 117.80441 594.59949
567.0 0.001764 117.82594 611.39874
612.0 0.001634 117.84730 626.99146
661.0 0.001513 117.86855 641.18640
619.0 0.001616 117.88971 653.82336
654.0 0.001529 117.91071 664.77698
704.0 0.001420 117.93159 673.95905
656.0 0.001524 117.95234 681.29535
698.0 0.001433 117.97298 686.84882
703.0 0.001422 117.99346 690.60553
696.0 0.001437 118.01382 692.63983
691.0 0.001447 118.03407 693.04065
693.0 0.001443 118.05418 691.92365
708.0 0.001412 118.07417 689.41248
700.0 0.001429 118.09402 685.64471
638.0 0.001567 118.11375 680.76782
697.0 0.001435 118.13333 674.92358
618.0 0.001618 118.15279 668.30560
608.0 0.001645 118.17211 661.07092
637.0 0.001570 118.19132 653.39655
612.0 0.001634 118.21038 645.46533
642.0 0.001558 118.22932 637.44562
634.0 0.001577 118.24812 629.51251
598.0 0.001672 118.26678 621.82635
596.0 0.001678 118.28532 614.53253
542.0 0.001845 118.30373 607.75879
604.0 0.001656 118.32198 601.61212
584.0 0.001712 118.34010 596.17755
579.0 0.001727 118.35809 591.51617
578.0 0.001730 118.37595 587.66656
637.0 0.001570 118.39368 584.64233
536.0 0.001866 118.41125 582.43420
568.0 0.001761 118.42872 578.20044
570.0 0.001754 118.44602 577.53015
541.0 0.001848 118.46320 577.51538
545.0 0.001835 118.48023 578.06238
573.0 0.001745 118.49713 579.06042
611.0 0.001637 118.51389 580.38470
594.0 0.001684 118.53051 581.89862
589.0 0.001698 118.54697 583.45831
587.0 0.001704 118.56332 584.91675
569.0 0.001757 118.57954 586.12738
608.0 0.001645 118.59560 585.54865
600.0 0.001667 118.61150 585.86688
616.0 0.001623 118.62730 586.63489
581.0 0.001721 118.64294 585.59973
571.0 0.001751 118.65842 583.75739
622.0 0.001608 118.67380 581.05011
586.0 0.001706 118.68900 577.44073
587.0 0.001704 118.70407 572.90979
553.0 0.001808 118.71899 567.45557
571.0 0.001751 118.73378 561.09119
519.0 0.001927 118.74842 553.84265
575.0 0.001739 118.76291 545.74756
531.0 0.001883 118.77726 536.85327
533.0 0.001876 118.79146 527.21649
527.0 0.001898 118.80554 517.43774
520.0 0.001923 118.81945 506.52081
503.0 0.001988 118.83324 495.07581
473.0 0.002114 118.84686 483.18503
486.0 0.002058 118.86032 470.93451
487.0 0.002053 118.87367 458.41135
452.0 0.002212 118.88686 445.70255
431.0 0.002320 118.89989 432.89334
438.0 0.002283 118.91280 420.06497
423.0 0.002364 118.92553 407.29465
386.0 0.002591 118.93812 394.65054
378.0 0.002646 118.95058 382.20197
340.0 0.002941 118.96289 370.00421
321.0 0.003115 118.97502 358.10779
317.0 0.003155 118.98704 346.55627
332.0 0.003012 118.99889 335.38669
338.0 0.002959 119.01059 324.62933
324.0 0.003086 119.02215 314.30859
317.0 0.003155 119.03356 304.44333
297.0 0.003367 119.04481 295.04694
322.0 0.003106 119.05592 286.12833
295.0 0.003390 119.06686 277.69226
285.0 0.00351 119.07767 269.73941
269.0 0.00372 119.08832 262.26743
245.0 0.00408 119.09881 255.27037
279.0 0.00358 119.10917 248.74069
274.0 0.00365 119.11935 242.66779
260.0 0.00385 119.12940 237.04001
250.0 0.00400 119.13927 231.84373
226.0 0.00442 119.14902 227.06468
258.0 0.00388 119.15860 222.68765
224.0 0.00446 119.16802 218.69702
205.0 0.00488 119.17730 215.07719
225.0 0.00444 119.18642 211.81268
240.0 0.00417 119.19539 208.88844
243.0 0.00412 119.20421 206.29016
242.0 0.00413 119.21285 204.00450
205.0 0.00488 119.22135 202.03812
236.0 0.00424 119.22971 200.34261
218.0 0.00459 119.23790 198.92744
235.0 0.00426 119.24593 197.78513
226.0 0.00442 119.25383 196.91014
272.0 0.00368 119.26153 196.29897
256.0 0.00391 119.26910 195.95018
241.0 0.00415 119.27650 195.86490
229.0 0.00437 119.28376 196.04633
232.0 0.00431 119.29086 196.50038
231.0 0.00433 119.29781 197.23541
261.0 0.00383 119.30459 198.26221
280.0 0.00357 119.31121 199.60361
252.0 0.00397 119.31767 201.25656
261.0 0.00383 119.32397 203.24872
251.0 0.00398 119.33014 205.60057
281.0 0.00356 119.33611 208.33461
271.0 0.00369 119.34195 211.47552
269.0 0.00372 119.34763 215.04941
290.0 0.003448 119.35315 219.08359
320.0 0.003125 119.35851 223.60663
311.0 0.003215 119.36369 228.64761
271.0 0.00369 119.36874 234.23546
309.0 0.003236 119.37361 240.39896
293.0 0.003413 119.37833 247.16568
296.0 0.003378 119.38287 254.56177
304.0 0.003289 119.38728 262.61084
332.0 0.003012 119.39152 271.33398
293.0 0.003413 119.39561 280.74835
318.0 0.003145 119.39951 290.86679
377.0 0.002653 119.40326 301.69733
310.0 0.003226 119.40685 313.24176
338.0 0.002959 119.41029 325.49539
359.0 0.002786 119.41356 338.44623
370.0 0.002703 119.41667 352.07413
391.0 0.002558 119.41962 366.35001
414.0 0.002415 119.42241 381.23474
394.0 0.002538 119.42503 396.67899
447.0 0.002237 119.42750 412.62164
446.0 0.002242 119.42977 428.98956
471.0 0.002123 119.43192 445.69629
459.0 0.002179 119.43389 462.64185
484.0 0.002066 119.43571 479.71167
505.0 0.001980 119.43735 496.77692
473.0 0.002114 119.43883 513.69470
542.0 0.001845 119.44016 530.30853
552.0 0.001812 119.44131 546.45148
562.0 0.001779 119.44233 561.94794
576.0 0.001736 119.44315 576.61853
600.0 0.001667 119.44382 590.28571
607.0 0.001647 119.44431 602.77856
615.0 0.001626 119.44467 613.94232
629.0 0.001590 119.44484 623.64117
647.0 0.001546 119.44486 631.76697
640.0 0.001563 119.44469 638.24103
725.0 0.001379 119.44440 643.01733
639.0 0.001565 119.44392 646.08118
660.0 0.001515 119.44326 647.44659
670.0 0.001493 119.44246 647.15417
658.0 0.001520 119.44148 645.26410
652.0 0.001534 119.44035 641.85406
681.0 0.001468 119.43903 637.01392
658.0 0.001520 119.43758 630.84436
577.0 0.001733 119.43594 623.45441
594.0 0.001684 119.43414 614.96143
641.0 0.001560 119.43218 605.49066
580.0 0.001724 119.43005 595.14996
593.0 0.001686 119.42775 584.12756
590.0 0.001695 119.42529 572.54315
570.0 0.001754 119.42268 560.54340
609.0 0.001642 119.41988 548.27539
516.0 0.001938 119.41694 535.88330
538.0 0.001859 119.41380 523.50635
496.0 0.002016 119.41054 511.27432
520.0 0.001923 119.40707 499.32990
533.0 0.001876 119.40346 487.73685
428.0 0.002336 119.39967 476.61298
494.0 0.002024 119.39572 466.02875
486.0 0.002058 119.39161 456.07736
433.0 0.002309 119.38733 446.80310
420.0 0.002381 119.38288 438.25012
456.0 0.002193 119.37826 430.45016
447.0 0.002237 119.37349 423.42447
424.0 0.002358 119.36855 417.18375
417.0 0.002398 119.36344 411.72919
405.0 0.002469 119.35816 407.05307
385.0 0.002597 119.35271 403.13953
406.0 0.002463 119.34711 399.97635
414.0 0.002415 119.34132 397.51089
410.0 0.002439 119.33537 395.71786
410.0 0.002439 119.32928 394.55490
419.0 0.002387 119.32301 393.97473
402.0 0.002488 119.31657 393.92526
425.0 0.002353 119.30996 394.35052
403.0 0.002481 119.30319 395.19098
457.0 0.002188 119.29624 396.38443
391.0 0.002558 119.28914 397.86609
407.0 0.002457 119.28187 399.56982
404.0 0.002475 119.27443 401.42877
369.0 0.002710 119.26682 403.37576
436.0 0.002294 119.25906 405.34482
446.0 0.002242 119.25112 407.27133
412.0 0.002427 119.24301 409.09344
398.0 0.002513 119.23475 410.75296
417.0 0.002398 119.22633 412.19574
395.0 0.002532 119.21774 413.37299
406.0 0.002463 119.20896 414.24164
422.0 0.002370 119.20004 414.76474
416.0 0.002404 119.19093 414.91190
413.0 0.002421 119.18167 414.65958
434.0 0.002304 119.17223 413.99060
406.0 0.002463 119.16264 412.89447
403.0 0.002481 119.15289 411.36685
401.0 0.002494 119.14294 409.40918
439.0 0.002278 119.13286 407.02783
433.0 0.002309 119.12260 404.23444
408.0 0.002451 119.11218 401.04453
397.0 0.002519 119.10159 397.47733
369.0 0.002710 119.09085 393.55551
372.0 0.002688 119.07991 389.30438
369.0 0.002710 119.06883 384.75143
395.0 0.002532 119.05759 379.92596
345.0 0.002899 119.04617 374.85840
389.0 0.002571 119.03460 369.58017
335.0 0.002985 119.02283 364.12305
360.0 0.002778 119.01093 358.51849
338.0 0.002959 118.99886 352.79776
368.0 0.002717 118.98661 346.99091
337.0 0.002967 118.97422 341.12970
317.0 0.003155 118.96165 335.23611
329.0 0.003040 118.94891 329.33847
302.0 0.003311 118.93602 323.46088
305.0 0.003279 118.92296 317.62500
302.0 0.003311 118.90973 311.85062
312.0 0.003205 118.89635 306.15564
320.0 0.003125 118.88279 300.55539
275.0 0.00364 118.86907 295.06387
279.0 0.00358 118.85518 289.69305
284.0 0.00352 118.84115 284.45294
295.0 0.003390 118.82693 279.35257
306.0 0.003268 118.81257 274.39929
246.0 0.00407 118.79803 270.59149
280.0 0.00357 118.78333 265.95801
265.0 0.00377 118.76847 261.48782
263.0 0.00380 118.75345 257.18274
261.0 0.00383 118.73827 253.05008
270.0 0.00370 118.72292 249.09039
227.0 0.00441 118.70741 245.30576
270.0 0.00370 118.69173 241.69785
268.0 0.00373 118.67591 238.26797
239.0 0.00418 118.65991 235.01685
233.0 0.00429 118.64375 231.94495
240.0 0.00417 118.62744 229.05234
227.0 0.00441 118.61095 226.33893
236.0 0.00424 118.59430 224.29929
233.0 0.00429 118.57751 221.94633
268.0 0.00373 118.56054 219.77052
215.0 0.00465 118.54342 217.77097
244.0 0.00410 118.52612 215.94643
201.0 0.00498 118.50868 214.29559
234.0 0.00427 118.49109 212.81717
227.0 0.00441 118.47332 211.50943
230.0 0.00435 118.45539 210.37074
245.0 0.00408 118.43729 209.39905
195.0 0.00513 118.41905 208.59247
226.0 0.00442 118.40065 207.94861
206.0 0.00485 118.38209 207.46503
213.0 0.00469 118.36337 207.13927
225.0 0.00444 118.34449 206.96835
237.0 0.00422 118.32545 206.94963
227.0 0.00441 118.30624 207.07707
211.0 0.00474 118.28688 207.35291
233.0 0.00429 118.26737 207.77106
216.0 0.00463 118.24770 208.32793
221.0 0.00452 118.22787 208.43538
209.0 0.00478 118.20789 209.26343
230.0 0.00435 118.18773 210.22757
197.0 0.00508 118.16744 211.30772
203.0 0.00493 118.14697 212.50864
228.0 0.00439 118.12637 213.82681
209.0 0.00478 118.10561 215.25912
215.0 0.00465 118.08469 216.80119
202.0 0.00495 118.06360 218.45282
195.0 0.00513 118.04236 220.20985
221.0 0.00452 118.02097 221.77646
222.0 0.00450 117.99942 223.73952
246.0 0.00407 117.97773 225.80092
220.0 0.00455 117.95587 227.95833
201.0 0.00498 117.93387 230.20927
246.0 0.00407 117.91171 232.55553
221.0 0.00452 117.88938 234.98595
230.0 0.00435 117.86692 237.50183
233.0 0.00429 117.84430 240.09987
254.0 0.00394 117.82152 242.77666
260.0 0.00385 117.79858 245.52811
217.0 0.00461 117.77551 248.35023
234.0 0.00427 117.75228 251.23804
248.0 0.00403 117.72890 254.18636
230.0 0.00435 117.70536 257.18948
267.0 0.00375 117.68167 260.24066
259.0 0.00386 117.65784 263.33313
230.0 0.00435 117.63383 266.45862
260.0 0.00385 117.60971 269.60852
288.0 0.003472 117.58543 272.77328
255.0 0.00392 117.56097 275.94229
270.0 0.00370 117.53639 279.10422
295.0 0.003390 117.51165 282.24716
258.0 0.00388 117.48677 285.35773
255.0 0.00392 117.46172 288.42227
282.0 0.00355 117.43655 291.42621
265.0 0.00377 117.41124 294.35458
275.0 0.00364 117.38574 297.19150
290.0 0.003448 117.36013 299.13846
295.0 0.003390 117.33437 301.75098
283.0 0.00353 117.30843 304.22394
282.0 0.00355 117.28236 306.54156
309.0 0.003236 117.25616 308.68869
280.0 0.00357 117.22982 310.65021
306.0 0.003268 117.20330 312.41263
284.0 0.00352 117.17668 313.96301
321.0 0.003115 117.14987 315.29004
289.0 0.003460 117.12294 316.38382
276.0 0.00362 117.09586 317.23602
307.0 0.003257 117.06865 317.44931
285.0 0.00351 117.04128 317.80344
274.0 0.00365 117.01379 317.90170
284.0 0.00352 116.98612 317.74326
279.0 0.00358 116.95833 317.32901
308.0 0.003247 116.93040 316.66159
270.0 0.00370 116.90232 315.74564
305.0 0.003279 116.87411 314.58710
275.0 0.00364 116.84574 313.19370
295.0 0.003390 116.81726 311.57452
264.0 0.00379 116.78861 309.73978
286.0 0.003497 116.75983 307.70062
277.0 0.00361 116.73093 305.46960
275.0 0.00364 116.70187 303.05960
281.0 0.00356 116.67268 300.48428
281.0 0.00356 116.64336 297.75772
262.0 0.00382 116.61388 294.89438
261.0 0.00383 116.58429 291.90884
272.0 0.00368 116.55454 288.81543
285.0 0.00351 116.52467 285.62860
239.0 0.00418 116.49466 282.36252
242.0 0.00413 116.46452 279.03085
240.0 0.00417 116.43421 275.64682
245.0 0.00408 116.40380 272.22308
260.0 0.00385 116.37324 268.77176
244.0 0.00410 116.34256 265.30399
229.0 0.00437 116.31174 261.83029
239.0 0.00418 116.28079 258.36053
210.0 0.00476 116.24970 254.90338
217.0 0.00461 116.21849 251.46696
211.0 0.00474 116.18713 248.05862
245.0 0.00408 116.15565 244.68456
207.0 0.00483 116.12404 241.35039
225.0 0.00444 116.09229 238.06082
202.0 0.00495 116.06043 234.82002
199.0 0.00503 116.02841 231.63112
194.0 0.00515 115.99629 228.49704
207.0 0.00483 115.96403 225.41966
220.0 0.00455 115.93164 222.40067
180.0 0.00556 115.89912 219.44128
209.0 0.00478 115.86647 216.54225
163.0 0.00613 115.83372 213.70416
184.0 0.00543 115.80081 210.92735
202.0 0.00495 115.76778 208.21213
201.0 0.00498 115.73464 205.55864
178.0 0.00562 115.70137 202.96698
181.0 0.00552 115.66798 200.43732
184.0 0.00543 115.63446 197.96974
206.0 0.00485 115.60081 195.56935
185.0 0.00541 115.56703 193.22635
142.0 0.00704 115.53313 190.94572
169.0 0.00592 115.49912 188.72762
165.0 0.00606 115.46499 186.57191
185.0 0.00541 115.43073 184.47876
149.0 0.00671 115.39635 182.44807
162.0 0.00617 115.36186 180.47964
155.0 0.00645 115.32724 178.57343
160.0 0.00625 115.29250 176.72937
152.0 0.00658 115.25763 174.94713
134.0 0.00746 115.22266 173.22667
164.0 0.00610 115.18755 171.56775
163.0 0.00613 115.15237 169.97009
167.0 0.00599 115.11704 168.43582
148.0 0.00676 115.08159 166.95972
144.0 0.00694 115.04604 165.54385
147.0 0.00680 115.01036 164.18762
145.0 0.00690 114.97456 162.89059
173.0 0.00578 114.93866 161.65204
153.0 0.00654 114.90264 160.47127
153.0 0.00654 114.86653 159.34744
168.0 0.00595 114.83028 158.27966
156.0 0.00641 114.79394 157.26707
144.0 0.00694 114.75746 156.30852
114.0 0.00877 114.72089 155.40305
133.0 0.00752 114.68418 154.55075
149.0 0.00671 114.64738 153.74792
170.0 0.00588 114.61048 152.99477
131.0 0.00763 114.57347 152.29004
130.0 0.00769 114.53635 151.63252
151.0 0.00662 114.49911 151.02104
147.0 0.00680 114.46176 150.45439
144.0 0.00694 114.42432 149.93132
135.0 0.00741 114.38678 149.45073
124.0 0.00806 114.34911 149.01144
136.0 0.00735 114.31135 148.61227
118.0 0.00847 114.27348 148.25212
127.0 0.00787 114.23550 147.92989
125.0 0.00800 114.19743 147.64449
121.0 0.00826 114.15923 147.39543
135.0 0.00741 114.12097 147.18056
134.0 0.00746 114.08257 146.99939
154.0 0.00649 114.04410 146.85095
131.0 0.00763 114.00550 146.05830
138.0 0.00725 113.96684 145.97771
109.0 0.00917 113.92806 145.92700
141.0 0.00709 113.88916 145.90535
158.0 0.00633 113.85020 145.91187
121.0 0.00826 113.81110 145.94574
139.0 0.00719 113.77193 146.00609
132.0 0.00758 113.73265 146.09210
140.0 0.00714 113.69330 146.20297
129.0 0.00775 113.65382 146.33786
136.0 0.00735 113.61427 146.49609
150.0 0.00667 113.57463 146.73885
163.0 0.00613 113.53487 146.94647
133.0 0.00752 113.49503 147.17497
132.0 0.00758 113.45510 147.42357
119.0 0.00840 113.41508 147.69156
132.0 0.00758 113.37496 147.97820
114.0 0.00877 113.33475 148.28275
126.0 0.00794 113.29446 148.60477
171.0 0.00585 113.25407 148.94354
126.0 0.00794 113.21362 149.29878
135.0 0.00741 113.17305 149.67021
140.0 0.00714 113.13241 150.05791
136.0 0.00735 113.09167 150.46199
140.0 0.00714 113.05086 150.88289
120.0 0.00833 113.00994 151.52248
149.0 0.00671 112.96895 151.98146
162.0 0.00617 112.92789 152.46111
153.0 0.00654 112.88672 152.96358
146.0 0.00685 112.84548 153.49162
169.0 0.00592 112.80415 154.04846
151.0 0.00662 112.76276 154.63814
145.0 0.00690 112.72128 155.26511
180.0 0.00556 112.67970 155.93697
173.0 0.00578 112.63803 156.65500
178.0 0.00562 112.59632 157.42825
153.0 0.00654 112.55453 158.26413
163.0 0.00613 112.51263 159.17084
172.0 0.00581 112.47069 160.15767
174.0 0.00575 112.42863 161.23427
176.0 0.00568 112.38652 162.41168
190.0 0.00526 112.34432 163.70158
157.0 0.00637 112.30207 165.11665
172.0 0.00581 112.25974 166.67039
194.0 0.00515 112.21735 168.37759
196.0 0.00510 112.17486 170.25352
191.0 0.00524 112.13230 172.31448
207.0 0.00483 112.08968 174.57881
202.0 0.00495 112.04696 177.06241
224.0 0.00446 112.00421 178.79636
221.0 0.00452 111.96136 181.78467
202.0 0.00495 111.91848 185.05115
202.0 0.00495 111.87552 188.61584
249.0 0.00402 111.83247 192.49930
230.0 0.00435 111.78938 196.72208
226.0 0.00442 111.74619 201.30460
244.0 0.00410 111.70294 206.26701
209.0 0.00478 111.65965 211.62898
251.0 0.00398 111.61629 217.40921
239.0 0.00418 111.57287 223.62556
244.0 0.00410 111.52938 230.29456
244.0 0.00410 111.48586 236.93867
252.0 0.00397 111.44221 244.55925
255.0 0.00392 111.39854 252.67102
257.0 0.00389 111.35480 261.28207
254.0 0.00394 111.31102 270.39780
284.0 0.00352 111.26716 280.02029
293.0 0.003413 111.22328 290.14801
286.0 0.003497 111.17930 300.77539
323.0 0.003096 111.13528 311.89273
317.0 0.003155 111.09120 323.48526
337.0 0.002967 111.04708 335.53339
354.0 0.002825 111.00291 348.01181
383.0 0.002611 110.95865 360.88889
363.0 0.002755 110.91438 374.12686
345.0 0.002899 110.87002 387.68060
375.0 0.002667 110.82564 401.49783
398.0 0.002513 110.78120 415.51813
388.0 0.002577 110.73669 429.67279
432.0 0.002315 110.69217 443.88437
458.0 0.002183 110.64757 458.06683
406.0 0.002463 110.60293 472.12570
478.0 0.002092 110.55824 485.95786
420.0 0.002381 110.51353 499.45337
480.0 0.002083 110.46874 512.46143
482.0 0.002075 110.42393 524.93115
505.0 0.001980 110.37907 536.70636
529.0 0.001890 110.33415 547.66608
532.0 0.001880 110.28922 557.68610
528.0 0.001894 110.24422 566.67517
545.0 0.001835 110.19919 574.52875
543.0 0.001842 110.15411 581.16425
556.0 0.001799 110.10899 586.51715
550.0 0.001818 110.06385 590.53967
535.0 0.001869 110.01866 593.20367
520.0 0.001923 109.97345 594.48187
547.0 0.001828 109.92817 594.41595
610.0 0.001639 109.88288 593.01044
560.0 0.001786 109.83755 590.29938
580.0 0.001724 109.79221 586.32813
557.0 0.001795 109.74679 581.14569
503.0 0.001988 109.70137 574.82031
465.0 0.002151 109.65590 567.41302
469.0 0.002132 109.61040 558.99445
535.0 0.001869 109.56488 549.63959
517.0 0.001934 109.51929 539.42792
512.0 0.001953 109.47374 528.44281
506.0 0.001976 109.42810 516.77179
483.0 0.002070 109.38246 504.50558
453.0 0.002208 109.33681 491.73727
437.0 0.002288 109.29111 478.56070
456.0 0.002193 109.24541 465.06989
407.0 0.002457 109.19965 451.35666
434.0 0.002304 109.15390 437.51038
415.0 0.002410 109.10809 423.61539
372.0 0.002688 109.06229 409.75116
350.0 0.002857 109.01644 395.99075
351.0 0.002849 108.97060 382.40057
355.0 0.002817 108.92471 369.04004
348.0 0.002874 108.87883 355.96140
335.0 0.002985 108.83294 343.20999
347.0 0.002882 108.78699 330.82422
295.0 0.003390 108.74107 318.83606
292.0 0.003425 108.69508 307.27164
293.0 0.003413 108.64912 296.15085
282.0 0.00355 108.60311 285.48914
303.0 0.003300 108.55713 275.28717
286.0 0.003497 108.51114 265.56958
254.0 0.00394 108.46509 256.32901
268.0 0.00373 108.41905 247.56398
277.0 0.00361 108.37301 239.26968
219.0 0.00457 108.32693 231.43878
238.0 0.00420 108.28085 224.06169
204.0 0.00490 108.23479 217.12639
229.0 0.00437 108.18870 210.61938
205.0 0.00488 108.14263 204.52571
211.0 0.00474 108.09653 198.82924
205.0 0.00488 108.05042 193.51288
209.0 0.00478 108.00433 188.55429
204.0 0.00490 107.95821 183.94473
198.0 0.00505 107.91211 179.66107
168.0 0.00595 107.86597 175.68495
191.0 0.00524 107.81989 171.99803
185.0 0.00541 107.77377 168.58215
164.0 0.00610 107.72765 165.41982
169.0 0.00592 107.68154 162.49368
202.0 0.00495 107.63542 159.78719
186.0 0.00538 107.58932 157.28418
142.0 0.00704 107.54321 154.96951
182.0 0.00549 107.49712 152.82870
182.0 0.00549 107.45103 150.84793
154.0 0.00649 107.40493 149.01424
150.0 0.00667 107.35886 147.31541
155.0 0.00645 107.31278 145.74023
150.0 0.00667 107.26673 144.27809
132.0 0.00758 107.22066 142.91905
149.0 0.00671 107.17463 141.65443
156.0 0.00641 107.12860 140.47563
150.0 0.00667 107.08258 139.37514
146.0 0.00685 107.03654 138.34592
144.0 0.00694 106.99057 137.38177
150.0 0.00667 106.94460 136.47681
150.0 0.00667 106.89863 134.41287
153.0 0.00654 106.85268 133.62045
130.0 0.00769 106.80674 132.87289
139.0 0.00719 106.76083 132.16646
146.0 0.00685 106.71494 131.49759
156.0 0.00641 106.66905 130.86328
146.0 0.00685 106.62318 130.26065
134.0 0.00746 106.57735 129.68735
135.0 0.00741 106.53156 129.14110
126.0 0.00794 106.48574 128.61983
124.0 0.00806 106.43996 128.12192
131.0 0.00763 106.39423 127.64565
135.0 0.00741 106.34850 126.58313
122.0 0.00820 106.30280 126.15079
137.0 0.00730 106.25713 125.73629
135.0 0.00741 106.21149 125.33861
142.0 0.00704 106.16588 124.95679
112.0 0.00893 106.12029 124.59002
134.0 0.00746 106.07474 124.23756
129.0 0.00775 106.02921 123.90891
136.0 0.00735 105.98370 123.58315
114.0 0.00877 105.93824 123.26987
108.0 0.00926 105.89281 122.96861
126.0 0.00794 105.84742 122.67879
131.0 0.00763 105.80206 122.40010
118.0 0.00847 105.75673 122.13210
136.0 0.00735 105.71144 121.87443
92.0 0.01087 105.66618 121.62678
98.0 0.01020 105.62096 121.38881
99.0 0.01010 105.57577 121.16024
117.0 0.00855 105.53065 120.94090
114.0 0.00877 105.48553 120.73044
128.0 0.00781 105.44049 120.52871
113.0 0.00885 105.39547 120.33547
122.0 0.00820 105.35049 120.15561
123.0 0.00813 105.30556 119.97881
125.0 0.00800 105.26067 119.80999
106.0 0.00943 105.21584 119.64900
124.0 0.00806 105.17104 119.49567
123.0 0.00813 105.12629 119.34991
116.0 0.00862 105.08160 119.21158
115.0 0.00870 105.03693 119.08059
109.0 0.00917 104.99232 118.95684
105.0 0.00952 104.94776 118.84026
103.0 0.00971 104.90327 118.73080
89.0 0.01124 104.85882 118.64898
111.0 0.00901 104.81441 118.55370
109.0 0.00917 104.77006 118.46535
102.0 0.00980 104.72578 118.38398
127.0 0.00787 104.68154 119.14658
115.0 0.00870 104.63734 119.08508
118.0 0.00847 104.59322 119.03055
108.0 0.00926 104.54916 118.98308
91.0 0.01099 104.50514 118.94273
129.0 0.00775 104.46119 118.90944
112.0 0.00893 104.41730 118.88337
109.0 0.00917 104.37346 118.86463
115.0 0.00870 104.32971 118.85328
99.0 0.01010 104.28599 118.84952
123.0 0.00813 104.24234 118.85341
110.0 0.00909 104.19877 118.87554
114.0 0.00877 104.15523 118.88554
123.0 0.00813 104.11179 118.91392
112.0 0.00893 104.06839 119.37838
98.0 0.01020 104.02506 119.42720
98.0 0.01020 103.98182 119.48532
87.0 0.01149 103.93864 119.55310
127.0 0.00787 103.89552 119.63107
98.0 0.01020 103.85248 119.71965
104.0 0.00962 103.80950 119.81947
102.0 0.00980 103.76661 119.93112
116.0 0.00862 103.72377 120.05531
122.0 0.00820 103.68100 120.19279
123.0 0.00813 103.63832 120.34557
142.0 0.00704 103.59573 120.51246
125.0 0.00800 103.55318 120.69549
121.0 0.00826 103.51073 120.89594
123.0 0.00813 103.46835 121.11510
119.0 0.00840 103.42606 121.35436
116.0 0.00862 103.38383 121.61528
133.0 0.00752 103.34169 121.89960
127.0 0.00787 103.29961 122.20909
142.0 0.00704 103.25765 122.54588
129.0 0.00775 103.21576 122.91212
133.0 0.00752 103.17392 123.31014
127.0 0.00787 103.13222 123.74247
131.0 0.00763 103.09055 124.21196
127.0 0.00787 103.04899 124.72146
127.0 0.00787 103.00751 125.27467
145.0 0.00690 102.96614 125.87384
135.0 0.00741 102.92484 126.52296
133.0 0.00752 102.88361 127.22586
144.0 0.00694 102.84250 127.98634
124.0 0.00806 102.80145 128.80850
139.0 0.00719 102.76051 129.69659
123.0 0.00813 102.71967 130.65497
128.0 0.00781 102.67890 131.68828
125.0 0.00800 102.63823 132.80103
140.0 0.00714 102.59767 133.99806
153.0 0.00654 102.55719 135.28416
120.0 0.00833 102.51681 136.66409
126.0 0.00794 102.47653 138.14275
171.0 0.00585 102.43633 139.72488
139.0 0.00719 102.39623 141.41522
172.0 0.00581 102.35624 143.21832
143.0 0.00699 102.31636 145.13858
152.0 0.00658 102.27654 147.18018
143.0 0.00699 102.23685 149.34708
151.0 0.00662 102.19728 151.64282
148.0 0.00676 102.15778 154.07048
142.0 0.00704 102.11839 156.63284
165.0 0.00606 102.07911 159.33212
150.0 0.00667 102.03993 162.16992
157.0 0.00637 102.00087 165.14719
182.0 0.00549 101.96190 168.26402
167.0 0.00599 101.92306 171.52025
172.0 0.00581 101.88431 174.91417
159.0 0.00629 101.84566 178.44351
176.0 0.00568 101.80712 182.10484
174.0 0.00575 101.76870 185.89355
177.0 0.00565 101.73036 189.80391
199.0 0.00503 101.69218 193.83032
180.0 0.00556 101.65409 197.96127
194.0 0.00515 101.61612 202.18826
178.0 0.00562 101.57827 206.47543
196.0 0.00510 101.54050 210.85777
206.0 0.00485 101.50288 215.29553
215.0 0.00465 101.46535 219.77161
223.0 0.00448 101.42796 224.26669
246.0 0.00407 101.39068 228.75943
221.0 0.00452 101.35350 233.22644
240.0 0.00417 101.31646 237.64240
237.0 0.00422 101.27955 241.98016
241.0 0.00415 101.24274 246.21091
221.0 0.00452 101.20605 250.30444
241.0 0.00415 101.16949 254.23012
241.0 0.00415 101.13305 257.94522
264.0 0.00379 101.09675 261.44156
226.0 0.00442 101.06054 264.67776
263.0 0.00380 101.02448 267.62573
273.0 0.00366 100.98853 270.25937
228.0 0.00439 100.95271 272.55603
251.0 0.00398 100.91705 274.49643
277.0 0.00361 100.88146 276.06549
259.0 0.00386 100.84604 277.25220
257.0 0.00389 100.81075 278.04993
265.0 0.00377 100.77557 278.45618
253.0 0.00395 100.74052 278.47250
256.0 0.00391 100.70562 278.10373
269.0 0.00372 100.67085 277.35809
257.0 0.00389 100.63618 276.24603
266.0 0.00376 100.60168 274.78082
235.0 0.00426 100.56730 272.97675
259.0 0.00386 100.53305 270.85031
266.0 0.00376 100.49895 268.41895
260.0 0.00385 100.46497 265.70132
264.0 0.00379 100.43112 262.71762
242.0 0.00413 100.39744 259.48853
246.0 0.00407 100.36389 256.03583
238.0 0.00420 100.33044 252.38228
237.0 0.00422 100.29720 248.55136
233.0 0.00429 100.26404 244.56694
204.0 0.00490 100.23103 240.45308
219.0 0.00457 100.19817 236.23419
205.0 0.00488 100.16547 231.93388
205.0 0.00488 100.13290 227.57558
221.0 0.00452 100.10047 223.18179
186.0 0.00538 100.06818 218.77388
224.0 0.00446 100.03604 214.37192
187.0 0.00535 100.00404 209.99472
203.0 0.00493 99.97219 205.65939
187.0 0.00535 99.94049 201.38153
182.0 0.00549 99.90894 197.17500
191.0 0.00524 99.87754 193.05226
180.0 0.00556 99.84631 189.02400
171.0 0.00585 99.81518 185.09953
182.0 0.00549 99.78423 181.28670
170.0 0.00588 99.75340 177.58902
177.0 0.00565 99.72277 174.01770
195.0 0.00513 99.69225 170.57391
179.0 0.00559 99.66191 167.26067
153.0 0.00654 99.63171 164.08000
168.0 0.00595 99.60169 161.27853
144.0 0.00694 99.57181 158.36729
149.0 0.00671 99.54207 155.58968
146.0 0.00685 99.51250 152.94485
150.0 0.00667 99.48308 150.43098
147.0 0.00680 99.45383 148.04593
147.0 0.00680 99.42473 145.78706
136.0 0.00735 99.39579 143.65137
135.0 0.00741 99.36701 140.60068
154.0 0.00649 99.33838 138.70860
157.0 0.00637 99.30992 136.92850
136.0 0.00735 99.28162 135.25630
141.0 0.00709 99.25348 133.68768
128.0 0.00781 99.22549 132.21834
140.0 0.00714 99.19769 130.84378
130.0 0.00769 99.17004 129.55948
139.0 0.00719 99.14256 128.48463
131.0 0.00763 99.11522 127.36837
138.0 0.00725 99.08806 126.32908
147.0 0.00680 99.06110 125.36254
135.0 0.00741 99.03424 124.46452
114.0 0.00877 99.00760 123.11461
124.0 0.00806 98.98109 122.34551
129.0 0.00775 98.95479 121.63309
150.0 0.00667 98.92861 120.97373
135.0 0.00741 98.90264 120.36398
111.0 0.00901 98.87684 119.80058
123.0 0.00813 98.85117 119.28039
135.0 0.00741 98.82572 118.80043
126.0 0.00794 98.80042 118.35796
103.0 0.00971 98.77528 117.95033
121.0 0.00826 98.75033 117.57521
138.0 0.00725 98.72556 117.23027
106.0 0.00943 98.70094 116.91348
107.0 0.00935 98.67651 116.62286
119.0 0.00840 98.65225 116.35655
121.0 0.00826 98.62817 116.11295
112.0 0.00893 98.60426 115.89059
118.0 0.00847 98.58052 115.68803
114.0 0.00877 98.55698 115.50401
102.0 0.00980 98.53358 115.33739
132.0 0.00758 98.51039 115.18711
94.0 0.01064 98.48740 115.05225
114.0 0.00877 98.46455 114.93191
113.0 0.00885 98.44189 114.81617
98.0 0.01020 98.41940 114.72279
122.0 0.00820 98.39711 114.64196
128.0 0.00781 98.37498 114.57307
101.0 0.00990 98.35305 114.51566
101.0 0.00990 98.33128 114.46927
118.0 0.00847 98.30972 114.43367
118.0 0.00847 98.28835 114.40837
97.0 0.01031 98.26714 114.91859
101.0 0.00990 98.24612 114.91689
104.0 0.00962 98.22527 114.92493
101.0 0.00990 98.20462 114.94256
101.0 0.00990 98.18415 114.96970
116.0 0.00862 98.16389 115.00160
131.0 0.00763 98.14381 115.04753
115.0 0.00870 98.12389 115.10283
113.0 0.00885 98.10417 115.18053
118.0 0.00847 98.08465 115.25466
104.0 0.00962 98.06532 115.33824
107.0 0.00935 98.04616 115.43131
110.0 0.00909 98.02720 115.53409
122.0 0.00820 98.00842 115.64664
123.0 0.00813 97.98985 115.76915
124.0 0.00806 97.97147 115.90186
118.0 0.00847 97.95325 116.30919
120.0 0.00833 97.93525 116.46475
128.0 0.00781 97.91743 116.63124
116.0 0.00862 97.89982 116.80909
99.0 0.01010 97.88237 116.99854
127.0 0.00787 97.86516 117.20013
115.0 0.00870 97.84811 117.41422
113.0 0.00885 97.83126 117.64142
102.0 0.00980 97.81460 117.88882
104.0 0.00962 97.79816 118.14388
121.0 0.00826 97.78188 118.41393
130.0 0.00769 97.76581 118.69966
116.0 0.00862 97.74992 119.00204
112.0 0.00893 97.73426 119.32190
112.0 0.00893 97.71880 119.66033
134.0 0.00746 97.70351 120.01849
125.0 0.00800 97.68842 120.39763
128.0 0.00781 97.67354 120.79926
133.0 0.00752 97.65884 121.23446
120.0 0.00833 97.64436 121.68591
129.0 0.00775 97.63010 122.16501
137.0 0.00730 97.61599 122.67399
120.0 0.00833 97.60211 123.21506
127.0 0.00787 97.58841 123.79081
134.0 0.00746 97.57494 124.40411
133.0 0.00752 97.56165 125.05797
144.0 0.00694 97.54857 125.75586
138.0 0.00725 97.53568 126.50149
143.0 0.00699 97.52300 127.29881
139.0 0.00719 97.51051 128.15227
146.0 0.00685 97.49825 129.06659
145.0 0.00690 97.48618 130.04686
159.0 0.00629 97.47431 131.09885
150.0 0.00667 97.46266 132.22972
154.0 0.00649 97.45119 133.44786
179.0 0.00559 97.43993 134.75204
143.0 0.00699 97.42887 136.15422
135.0 0.00741 97.41803 137.66222
156.0 0.00641 97.40739 139.28419
164.0 0.00610 97.39697 141.02876
168.0 0.00595 97.38674 142.90491
182.0 0.00549 97.37670 144.92218
166.0 0.00602 97.36687 147.09029
179.0 0.00559 97.35727 149.42386
178.0 0.00562 97.34789 151.92456
177.0 0.00565 97.33869 154.60741
225.0 0.00444 97.32967 157.48332
211.0 0.00474 97.32090 160.56337
190.0 0.00526 97.31233 163.85863
202.0 0.00495 97.30398 167.38089
191.0 0.00524 97.29581 171.13959
213.0 0.00469 97.28787 175.14609
225.0 0.00444 97.28013 179.41095
238.0 0.00420 97.27260 183.94405
245.0 0.00408 97.26527 188.75485
211.0 0.00474 97.25817 193.85202
229.0 0.00437 97.25129 199.24355
234.0 0.00427 97.24460 204.93654
224.0 0.00446 97.23811 210.93678
249.0 0.00402 97.23184 217.25125
248.0 0.00403 97.22579 223.87898
255.0 0.00392 97.21995 230.82401
246.0 0.00407 97.21430 238.08658
244.0 0.00410 97.20890 245.66486
263.0 0.00380 97.20368 253.55537
257.0 0.00389 97.19868 261.75204
278.0 0.00360 97.19390 270.24704
263.0 0.00380 97.18932 279.02917
274.0 0.00365 97.18495 288.08487
276.0 0.00362 97.18080 298.40778
271.0 0.00369 97.17686 307.96384
304.0 0.003289 97.17314 317.73367
326.0 0.003067 97.16963 327.69003
307.0 0.003257 97.16634 337.80164
358.0 0.002793 97.16325 348.03354
353.0 0.002833 97.16036 358.34543
359.0 0.002786 97.15772 368.69342
346.0 0.002890 97.15527 379.02792
347.0 0.002882 97.15305 389.29587
354.0 0.002825 97.15102 399.43887
391.0 0.002558 97.14924 409.39508
352.0 0.002841 97.14764 419.09888
429.0 0.002331 97.14628 428.48184
407.0 0.002457 97.14511 437.47415
428.0 0.002336 97.14417 446.00488
438.0 0.002283 97.14344 454.51111
496.0 0.002016 97.14292 461.91589
447.0 0.002237 97.14262 468.65976
447.0 0.002237 97.14254 474.68579
445.0 0.002247 97.14267 479.94370
471.0 0.002123 97.14301 484.39282
502.0 0.001992 97.14358 488.00067
493.0 0.002028 97.14436 490.74536
466.0 0.002146 97.14534 492.61435
494.0 0.002024 97.14656 493.60489
485.0 0.002062 97.14798 493.72253
480.0 0.002083 97.14962 492.98071
507.0 0.001972 97.15147 491.39920
419.0 0.002387 97.15354 489.00314
478.0 0.002092 97.15583 485.82224
482.0 0.002075 97.15834 481.88904
455.0 0.002198 97.16103 477.23953
483.0 0.002070 97.16399 471.91095
487.0 0.002053 97.16713 465.94342
419.0 0.002387 97.17050 459.37909
436.0 0.002294 97.17407 452.26160
462.0 0.002165 97.17787 444.63687
414.0 0.002415 97.18187 436.55304
393.0 0.002545 97.18612 428.05954
399.0 0.002506 97.19055 419.20807
426.0 0.002347 97.19523 410.05084
380.0 0.002632 97.20009 400.64099
375.0 0.002667 97.20518 391.03180
345.0 0.002899 97.21048 381.27557
348.0 0.002874 97.21600 371.42322
374.0 0.002674 97.22173 361.52408
356.0 0.002809 97.22768 351.62485
316.0 0.003165 97.23386 341.76904
322.0 0.003106 97.24025 331.99884
308.0 0.003247 97.24686 322.34802
305.0 0.003279 97.25366 312.85150
279.0 0.00358 97.26069 303.53894
295.0 0.003390 97.26794 294.43658
299.0 0.003344 97.27541 285.56125
299.0 0.003344 97.28308 276.94336
260.0 0.00385 97.29098 268.59351
288.0 0.003472 97.29908 260.52451
272.0 0.00368 97.30740 252.74661
233.0 0.00429 97.31593 245.26740
266.0 0.00376 97.32468 238.09222
221.0 0.00452 97.33364 231.22400
221.0 0.00452 97.34283 224.66794
202.0 0.00495 97.35222 218.41533
222.0 0.00450 97.36183 212.46794
248.0 0.00403 97.37165 206.82285
227.0 0.00441 97.38168 201.47340
200.0 0.00500 97.39193 196.41171
193.0 0.00518 97.40241 191.63625
185.0 0.00541 97.41309 187.13658
204.0 0.00490 97.42397 182.90421
179.0 0.00559 97.43507 178.92990
167.0 0.00599 97.44640 175.20432
191.0 0.00524 97.45792 171.71759
188.0 0.00532 97.46967 168.45973
185.0 0.00541 97.48162 165.42046
189.0 0.00529 97.49378 162.58960
174.0 0.00575 97.50616 159.95673
181.0 0.00552 97.51875 157.51384
179.0 0.00559 97.53156 155.24681
177.0 0.00565 97.54456 153.14636
167.0 0.00599 97.55779 151.20578
166.0 0.00602 97.57124 149.41438
181.0 0.00552 97.58488 147.76295
170.0 0.00588 97.59874 146.24300
154.0 0.00649 97.61282 144.84613
156.0 0.00641 97.62709 143.56445
167.0 0.00599 97.64159 142.39037
159.0 0.00629 97.65628 141.31689
152.0 0.00658 97.67118 140.33719
160.0 0.00625 97.68630 139.44487
152.0 0.00658 97.70164 138.63408
141.0 0.00709 97.71718 137.89914
156.0 0.00641 97.73292 137.23436
134.0 0.00746 97.74887 136.63625
148.0 0.00676 97.76502 136.09973
164.0 0.00610 97.78139 135.62062
160.0 0.00625 97.79798 135.19524
163.0 0.00613 97.81476 134.81992
174.0 0.00575 97.83175 134.49164
172.0 0.00581 97.84895 134.20746
150.0 0.00667 97.86635 133.96480
157.0 0.00637 97.88396 133.76117
133.0 0.00752 97.90177 133.59451
150.0 0.00667 97.91979 133.46269
162.0 0.00617 97.93802 133.36412
152.0 0.00658 97.95645 133.29701
144.0 0.00694 97.97508 133.26009
154.0 0.00649 97.99392 133.25201
138.0 0.00725 98.01296 132.84827
156.0 0.00641 98.03221 132.89748
134.0 0.00746 98.05166 132.97237
126.0 0.00794 98.07130 133.07222
154.0 0.00649 98.09117 133.19632
148.0 0.00676 98.11121 133.34541
144.0 0.00694 98.13147 133.51613
159.0 0.00629 98.15192 133.70935
162.0 0.00617 98.17258 133.92480
155.0 0.00645 98.19344 134.16206
143.0 0.00699 98.21452 134.42075
161.0 0.00621 98.23576 134.70062
124.0 0.00806 98.25721 135.00156
138.0 0.00725 98.27888 135.10994
141.0 0.00709 98.30074 135.45381
130.0 0.00769 98.32278 135.81819
149.0 0.00671 98.34503 136.20308
157.0 0.00637 98.36748 136.60840
165.0 0.00606 98.39014 137.03409
154.0 0.00649 98.41296 137.48012
146.0 0.00685 98.43600 137.94662
147.0 0.00680 98.45923 138.43349
158.0 0.00633 98.48267 138.93927
143.0 0.00699 98.50626 139.46733
147.0 0.00680 98.53011 140.01598
149.0 0.00671 98.55411 140.58536
159.0 0.00629 98.57831 141.17574
168.0 0.00595 98.60271 141.78720
163.0 0.00613 98.62730 142.41983
143.0 0.00699 98.65206 143.07385
170.0 0.00588 98.67704 143.74944
160.0 0.00625 98.70219 144.44678
170.0 0.00588 98.72754 145.16606
158.0 0.00633 98.75308 145.90758
155.0 0.00645 98.77882 146.67154
172.0 0.00581 98.80474 147.45827
158.0 0.00633 98.83084 148.26675
179.0 0.00559 98.85713 149.09962
150.0 0.00667 98.88361 149.95615
180.0 0.00556 98.91028 150.83655
162.0 0.00617 98.93713 151.74120
163.0 0.00613 98.96416 152.67159
153.0 0.00654 98.99140 153.62592
169.0 0.00592 99.01881 154.60564
153.0 0.00654 99.04639 155.61133
178.0 0.00562 99.07417 156.64343
161.0 0.00621 99.10213 157.70242
165.0 0.00606 99.13028 158.78899
157.0 0.00637 99.15859 159.90369
154.0 0.00649 99.18710 161.04721
189.0 0.00529 99.21579 162.22020
174.0 0.00575 99.24466 163.42340
172.0 0.00581 99.27369 164.65768
175.0 0.00571 99.30292 165.92383
174.0 0.00575 99.33232 167.22269
161.0 0.00621 99.36188 168.55501
166.0 0.00602 99.39165 169.92197
164.0 0.00610 99.42157 171.32434
188.0 0.00532 99.45168 172.76378
179.0 0.00559 99.48196 174.23994
171.0 0.00585 99.51244 175.75430
194.0 0.00515 99.54305 177.30795
169.0 0.00592 99.57384 178.90164
191.0 0.00524 99.60482 180.53610
176.0 0.00568 99.63597 182.21214
190.0 0.00526 99.66730 183.93033
176.0 0.00568 99.69878 185.69121
192.0 0.00521 99.73044 187.49513
187.0 0.00535 99.76228 189.34239
174.0 0.00575 99.79427 191.23286
195.0 0.00513 99.82644 193.16646
191.0 0.00524 99.85877 195.14273
198.0 0.00505 99.89126 197.16093
208.0 0.00481 99.92392 199.22012
194.0 0.00515 99.95676 201.31898
218.0 0.00459 99.98975 203.45590
215.0 0.00465 100.02292 205.62866
210.0 0.00476 100.05623 207.83482
252.0 0.00397 100.08972 210.07149
220.0 0.00455 100.12336 212.33519
201.0 0.00498 100.15717 214.62196
209.0 0.00478 100.19115 216.92728
197.0 0.00508 100.22527 219.24599
221.0 0.00452 100.25954 221.57233
227.0 0.00441 100.29399 223.90007
229.0 0.00437 100.32860 226.22209
199.0 0.00503 100.36335 228.53090
205.0 0.00488 100.39826 230.81819
275.0 0.00364 100.43333 233.07513
235.0 0.00426 100.46854 235.29240
222.0 0.00450 100.50393 237.46011
254.0 0.00394 100.53945 239.56793
235.0 0.00426 100.57515 241.60529
229.0 0.00437 100.61098 243.56149
242.0 0.00413 100.64696 245.42567
231.0 0.00433 100.68309 247.18712
277.0 0.00361 100.71937 248.83528
244.0 0.00410 100.75581 250.36029
258.0 0.00388 100.79236 251.75259
281.0 0.00356 100.82911 253.00354
240.0 0.00417 100.86597 254.10532
249.0 0.00402 100.90300 255.05125
239.0 0.00418 100.94015 255.83551
251.0 0.00398 100.97747 256.45386
266.0 0.00376 101.01490 256.90320
244.0 0.00410 101.05250 257.18124
209.0 0.00478 101.09023 257.28769
266.0 0.00376 101.12809 257.22281
235.0 0.00426 101.16610 256.98825
267.0 0.00375 101.20425 256.58661
261.0 0.00383 101.24254 256.02176
262.0 0.00382 101.28096 255.29807
265.0 0.00377 101.31951 254.42070
241.0 0.00415 101.35820 253.39598
255.0 0.00392 101.39702 252.23019
238.0 0.00420 101.43600 250.93066
262.0 0.00382 101.47508 249.50504
279.0 0.00358 101.51433 247.96129
247.0 0.00405 101.55367 246.30817
242.0 0.00413 101.59316 244.55421
220.0 0.00455 101.63278 242.70900
254.0 0.00394 101.67251 240.78168
225.0 0.00444 101.71239 238.78201
214.0 0.00467 101.75240 236.71971
237.0 0.00422 101.79253 234.60466
239.0 0.00418 101.83276 232.44684
224.0 0.00446 101.87315 230.25595
202.0 0.00495 101.91365 228.04201
236.0 0.00424 101.95427 225.81436
220.0 0.00455 101.99500 223.58241
218.0 0.00459 102.03585 221.35530
239.0 0.00418 102.07684 219.14174
230.0 0.00435 102.11794 216.95004
225.0 0.00444 102.15916 214.78827
240.0 0.00417 102.20049 212.66405
247.0 0.00405 102.24195 210.58447
225.0 0.00444 102.28349 208.55624
230.0 0.00435 102.32517 206.58556
247.0 0.00405 102.36697 204.67841
203.0 0.00493 102.40887 202.84004
222.0 0.00450 102.45090 201.07571
229.0 0.00437 102.49302 199.38988
240.0 0.00417 102.53526 197.78687
235.0 0.00426 102.57761 196.27048
210.0 0.00476 102.62006 194.84438
202.0 0.00495 102.66261 193.51175
216.0 0.00463 102.70526 192.27551
208.0 0.00481 102.74804 191.13844
189.0 0.00529 102.79092 190.10281
209.0 0.00478 102.83389 189.17075
215.0 0.00465 102.87696 188.34412
213.0 0.00469 102.92016 187.62466
249.0 0.00402 102.96343 187.01381
205.0 0.00488 103.00681 186.51283
204.0 0.00490 103.05026 186.12271
199.0 0.00503 103.09382 185.84456
187.0 0.00535 103.13751 185.67879
213.0 0.00469 103.18127 185.62625
216.0 0.00463 103.22514 185.68710
221.0 0.00452 103.26907 185.86169
208.0 0.00481 103.31313 186.15012
224.0 0.00446 103.35725 186.55225
205.0 0.00488 103.40149 187.06808
204.0 0.00490 103.44579 187.69717
196.0 0.00510 103.49019 188.43892
188.0 0.00532 103.53470 189.29289
187.0 0.00535 103.57926 190.25830
190.0 0.00526 103.62393 191.33420
222.0 0.00450 103.66866 192.51959
181.0 0.00552 103.71350 193.81329
209.0 0.00478 103.75841 195.20313
208.0 0.00481 103.80340 196.70953
200.0 0.00500 103.84847 198.31987
217.0 0.00461 103.89362 200.03232
219.0 0.00457 103.93886 201.84506
211.0 0.00474 103.98415 203.75597
243.0 0.00412 104.02956 205.76288
195.0 0.00513 104.07501 207.86328
199.0 0.00503 104.12055 210.05473
218.0 0.00459 104.16616 212.33447
231.0 0.00433 104.21181 214.69949
250.0 0.00400 104.25756 217.66953
233.0 0.00429 104.30338 220.19894
216.0 0.00463 104.34930 222.80391
241.0 0.00415 104.39525 225.48064
218.0 0.00459 104.44128 228.30756
210.0 0.00476 104.48736 231.11646
250.0 0.00400 104.53351 233.98460
237.0 0.00422 104.57974 236.90729
249.0 0.00402 104.62601 239.87938
220.0 0.00455 104.67237 242.89557
238.0 0.00420 104.71876 245.94992
250.0 0.00400 104.76527 249.03630
244.0 0.00410 104.81178 252.14816
254.0 0.00394 104.85838 255.27835
253.0 0.00395 104.90499 258.41934
248.0 0.00403 104.95169 261.54175
277.0 0.00361 104.99844 264.68018
282.0 0.00355 105.04526 267.80405
264.0 0.00379 105.09212 270.01752
290.0 0.003448 105.13902 273.35452
274.0 0.00365 105.18600 276.38467
264.0 0.00379 105.23301 279.36035
280.0 0.00357 105.28007 282.31479
301.0 0.003322 105.32716 285.14920
283.0 0.00353 105.37431 287.89594
315.0 0.003175 105.42153 290.54398
276.0 0.00362 105.46877 293.08200
287.0 0.003484 105.51607 295.49884
279.0 0.00358 105.56339 297.78366
293.0 0.003413 105.61076 299.92609
294.0 0.003401 105.65817 301.90500
270.0 0.00370 105.70561 303.73291
292.0 0.003425 105.75314 305.38995
265.0 0.00377 105.80064 306.42386
295.0 0.003390 105.84823 307.71915
270.0 0.00370 105.89581 308.82245
353.0 0.002833 105.94345 309.72827
296.0 0.003378 105.99112 310.43256
279.0 0.00358 106.03883 310.93253
262.0 0.00382 106.08655 311.22589
282.0 0.00355 106.13430 311.31174
306.0 0.003268 106.18211 311.19025
269.0 0.00372 106.22993 310.86151
285.0 0.00351 106.27777 310.32986
295.0 0.003390 106.32565 309.59720
269.0 0.00372 106.37354 308.66757
293.0 0.003413 106.42147 307.54532
259.0 0.00386 106.46942 306.23602
272.0 0.00368 106.51739 304.74588
285.0 0.00351 106.56537 303.08142
289.0 0.003460 106.61340 301.24991
274.0 0.00365 106.66141 299.25916
294.0 0.003401 106.70947 297.11734
276.0 0.00362 106.75751 294.83276
261.0 0.00383 106.80560 293.10306
258.0 0.00388 106.85368 290.56427
301.0 0.003322 106.90179 287.91006
238.0 0.00420 106.94994 285.14938
271.0 0.00369 106.99804 282.29297
263.0 0.00380 107.04621 279.34964
253.0 0.00395 107.09434 276.32889
264.0 0.00379 107.14252 273.24045
236.0 0.00424 107.19067 270.09662
255.0 0.00392 107.23887 266.90024
261.0 0.00383 107.28705 263.66315
226.0 0.00442 107.33522 260.39404
230.0 0.00435 107.38342 257.10156
245.0 0.00408 107.43161 253.79329
226.0 0.00442 107.47983 250.47705
244.0 0.00410 107.52801 247.15991
218.0 0.00459 107.57623 243.84872
225.0 0.00444 107.62442 240.54993
232.0 0.00431 107.67263 237.61552
227.0 0.00441 107.72080 234.36099
209.0 0.00478 107.76899 231.13559
242.0 0.00413 107.81718 227.94389
187.0 0.00535 107.86536 224.79037
202.0 0.00495 107.91353 221.67888
231.0 0.00433 107.96171 218.61308
218.0 0.00459 108.00987 215.59612
188.0 0.00532 108.05800 212.63097
196.0 0.00510 108.10613 209.72177
193.0 0.00518 108.15427 206.86760
195.0 0.00513 108.20238 204.07201
201.0 0.00498 108.25050 201.33665
207.0 0.00483 108.29858 198.66304
179.0 0.00559 108.34666 196.05235
187.0 0.00535 108.39470 193.50560
191.0 0.00524 108.44275 191.02354
201.0 0.00498 108.49075 188.60938
177.0 0.00565 108.53876 186.25807
216.0 0.00463 108.58675 183.97098
158.0 0.00633 108.63470 181.75122
201.0 0.00498 108.68265 179.59717
181.0 0.00552 108.73057 177.50841
166.0 0.00602 108.77849 175.48463
170.0 0.00588 108.82634 173.52519
173.0 0.00578 108.87418 171.62959
180.0 0.00556 108.92200 169.79698
172.0 0.00581 108.96980 168.02658
181.0 0.00552 109.01756 166.31738
168.0 0.00595 109.06530 164.66849
141.0 0.00709 109.11301 163.07880
175.0 0.00571 109.16067 161.54718
159.0 0.00629 109.20834 160.07249
160.0 0.00625 109.25594 158.65352
159.0 0.00629 109.30353 157.28819
138.0 0.00725 109.35110 155.97676
161.0 0.00621 109.39859 154.71855
149.0 0.00671 109.44609 153.80875
137.0 0.00730 109.49354 152.65041
162.0 0.00617 109.54094 151.53989
155.0 0.00645 109.58829 150.47549
156.0 0.00641 109.63564 149.45618
148.0 0.00676 109.68293 148.48027
151.0 0.00662 109.73018 147.54659
134.0 0.00746 109.77740 146.65364
129.0 0.00775 109.82455 145.79991
143.0 0.00699 109.87170 144.98425
142.0 0.00704 109.91879 144.90860
129.0 0.00775 109.96584 144.16908
150.0 0.00667 110.01283 143.46361
134.0 0.00746 110.05979 142.79079
148.0 0.00676 110.10669 142.14948
152.0 0.00658 110.15355 141.53830
158.0 0.00633 110.20036 140.95607
137.0 0.00730 110.24712 140.40176
164.0 0.00610 110.29384 139.87393
114.0 0.00877 110.34051 139.37169
152.0 0.00658 110.38714 138.89400
137.0 0.00730 110.43370 138.43954
137.0 0.00730 110.48020 138.00746
154.0 0.00649 110.52670 137.59673
146.0 0.00685 110.57309 137.20647
125.0 0.00800 110.61945 136.83569
133.0 0.00752 110.66575 136.48360
148.0 0.00676 110.71201 136.14920
126.0 0.00794 110.75819 135.83174
139.0 0.00719 110.80434 135.53044
127.0 0.00787 110.85043 135.24451
128.0 0.00781 110.89643 134.97324
141.0 0.00709 110.94241 134.71605
122.0 0.00820 110.98831 134.47220
116.0 0.00862 111.03418 134.24100
134.0 0.00746 111.07996 134.02191
122.0 0.00820 111.12571 133.81445
111.0 0.00901 111.17136 133.61787
128.0 0.00781 111.21699 133.43195
130.0 0.00769 111.26251 133.25595
162.0 0.00617 111.30800 133.08954
155.0 0.00645 111.35344 132.93236
137.0 0.00730 111.39880 132.78386
106.0 0.00943 111.44411 132.35747
138.0 0.00725 111.48933 132.22734
133.0 0.00752 111.53452 132.10493
127.0 0.00787 111.57961 131.98987
113.0 0.00885 111.62463 131.88176
121.0 0.00826 111.66962 131.78055
103.0 0.00971 111.71452 131.68581
128.0 0.00781 111.75937 131.59729
122.0 0.00820 111.80415 131.51485
120.0 0.00833 111.84885 131.43816
116.0 0.00862 111.89349 131.36711
132.0 0.00758 111.93807 131.30147
140.0 0.00714 111.98257 131.24100
126.0 0.00794 112.02699 131.18550
137.0 0.00730 112.07137 131.13486
128.0 0.00781 112.11566 131.08890
116.0 0.00862 112.15989 130.90402
130.0 0.00769 112.20404 130.86780
140.0 0.00714 112.24815 130.83583
113.0 0.00885 112.29213 130.80783
127.0 0.00787 112.33609 130.78378
112.0 0.00893 112.37997 130.76341
113.0 0.00885 112.42376 130.74670
119.0 0.00840 112.46751 130.73354
115.0 0.00870 112.51116 130.72366
111.0 0.00901 112.55476 130.71716
111.0 0.00901 112.59825 130.71385
108.0 0.00926 112.64172 130.71362
120.0 0.00833 112.68507 130.71649
126.0 0.00794 112.72837 130.72229
113.0 0.00885 112.77160 130.73111
115.0 0.00870 112.81474 130.74286
118.0 0.00847 112.85783 130.75754
107.0 0.00935 112.90084 130.77509
133.0 0.00752 112.94377 130.79561
114.0 0.00877 112.98663 130.81906
132.0 0.00758 113.02942 130.84618
126.0 0.00794 113.07214 130.87558
145.0 0.00690 113.11478 130.90804
114.0 0.00877 113.15736 130.94357
117.0 0.00855 113.19984 130.99190
114.0 0.00877 113.24226 131.03377
131.0 0.00763 113.28459 131.07886
121.0 0.00826 113.32689 131.12730
123.0 0.00813 113.36909 131.17909
106.0 0.00943 113.41122 131.23428
117.0 0.00855 113.45326 131.29298
120.0 0.00833 113.49523 131.35530
135.0 0.00741 113.53716 131.42133
137.0 0.00730 113.57899 131.49112
138.0 0.00725 113.62076 131.56476
126.0 0.00794 113.66245 131.64232
124.0 0.00806 113.70409 131.14999
120.0 0.00833 113.74561 131.23991
121.0 0.00826 113.78709 131.33408
122.0 0.00820 113.82851 131.43268
105.0 0.00952 113.86982 131.53618
133.0 0.00752 113.91111 131.64395
120.0 0.00833 113.95229 131.75650
107.0 0.00935 113.99343 131.87407
115.0 0.00870 114.03448 131.98659
131.0 0.00763 114.07547 132.11455
118.0 0.00847 114.11638 132.24783
133.0 0.00752 114.15721 132.38654
120.0 0.00833 114.19800 132.53102
118.0 0.00847 114.23870 132.68120
133.0 0.00752 114.27935 132.83746
105.0 0.00952 114.31992 132.99971
124.0 0.00806 114.36044 132.88017
110.0 0.00909 114.40089 133.05717
133.0 0.00752 114.44127 133.24078
146.0 0.00685 114.48156 133.43111
141.0 0.00709 114.52181 133.62848
132.0 0.00758 114.56200 133.83296
124.0 0.00806 114.60213 134.04469
142.0 0.00704 114.64218 134.26404
122.0 0.00820 114.68217 134.48355
125.0 0.00800 114.72212 134.71861
142.0 0.00704 114.76199 134.96178
125.0 0.00800 114.80180 135.21338
128.0 0.00781 114.84157 135.47351
135.0 0.00741 114.88126 135.74255
123.0 0.00813 114.92089 136.02069
135.0 0.00741 114.96047 136.30815
121.0 0.00826 115.00001 136.60524
122.0 0.00820 115.03947 136.91216
147.0 0.00680 115.07889 137.21875
135.0 0.00741 115.11825 137.54634
149.0 0.00671 115.15755 137.88490
121.0 0.00826 115.19682 138.23444
140.0 0.00714 115.23601 138.59537
142.0 0.00704 115.27518 138.96814
142.0 0.00704 115.31427 139.35300
139.0 0.00719 115.35334 139.75029
125.0 0.00800 115.39234 140.16049
137.0 0.00730 115.43131 140.58385
170.0 0.00588 115.47023 141.02097
151.0 0.00662 115.50908 141.47223
137.0 0.00730 115.54794 141.93806
166.0 0.00602 115.58672 142.41893
166.0 0.00602 115.62548 142.91536
127.0 0.00787 115.66419 143.42793
160.0 0.00625 115.70287 143.95711
142.0 0.00704 115.74149 144.50356
140.0 0.00714 115.78008 145.06779
162.0 0.00617 115.81866 145.65063
131.0 0.00763 115.85719 146.25258
148.0 0.00676 115.89569 146.87450
134.0 0.00746 115.93417 147.51714
123.0 0.00813 115.97261 148.18124
157.0 0.00637 116.01101 148.86768
174.0 0.00575 116.04942 149.57736
146.0 0.00685 116.08775 150.31133
152.0 0.00658 116.12610 151.07047
111.0 0.00901 116.16441 151.85587
170.0 0.00588 116.20270 152.66862
134.0 0.00746 116.24098 153.50995
155.0 0.00645 116.27924 154.38100
145.0 0.00690 116.31750 155.28711
161.0 0.00621 116.35572 156.22157
164.0 0.00610 116.39396 157.18967
148.0 0.00676 116.43215 158.19302
171.0 0.00585 116.47034 159.23294
145.0 0.00690 116.50853 160.31104
164.0 0.00610 116.54672 161.42877
185.0 0.00541 116.58491 162.58777
172.0 0.00581 116.62309 163.78972
181.0 0.00552 116.66126 165.03613
165.0 0.00606 116.69945 166.32249
159.0 0.00629 116.73762 167.66301
168.0 0.00595 116.77583 169.05302
181.0 0.00552 116.81403 170.49414
189.0 0.00529 116.85223 171.98782
172.0 0.00581 116.89046 173.53575
172.0 0.00581 116.92870 175.13928
202.0 0.00495 116.96695 176.79990
179.0 0.00559 117.00523 178.51884
186.0 0.00538 117.04350 180.29741
178.0 0.00562 117.08183 182.13641
190.0 0.00526 117.12016 184.03897
201.0 0.00498 117.15852 186.00179
195.0 0.00513 117.19692 188.02736
216.0 0.00463 117.23535 190.11600
197.0 0.00508 117.27382 192.26793
225.0 0.00444 117.31231 194.48303
210.0 0.00476 117.35085 196.76080
196.0 0.00510 117.38941 199.10075
197.0 0.00508 117.42803 201.50177
216.0 0.00463 117.46671 203.96257
224.0 0.00446 117.50542 206.95200
243.0 0.00412 117.54419 209.52962
199.0 0.00503 117.58301 212.16087
211.0 0.00474 117.62189 214.84299
216.0 0.00463 117.66080 217.57243
226.0 0.00442 117.69980 220.34554
231.0 0.00433 117.73888 223.15793
244.0 0.00410 117.77801 226.00481
225.0 0.00444 117.81721 228.88081
247.0 0.00405 117.85648 231.78003
250.0 0.00400 117.89584 234.69600
249.0 0.00402 117.93527 237.62183
252.0 0.00397 117.97477 240.55014
219.0 0.00457 118.01437 243.47308
293.0 0.003413 118.05404 246.38249
255.0 0.00392 118.09383 249.27014
238.0 0.00420 118.13368 252.12288
260.0 0.00385 118.17367 254.94157
281.0 0.00356 118.21373 257.71371
241.0 0.00415 118.25391 260.43173
288.0 0.003472 118.29417 263.08856
254.0 0.00394 118.33456 265.91708
275.0 0.00364 118.37505 268.43610
302.0 0.003311 118.41566 270.87860
253.0 0.00395 118.45642 273.24323
260.0 0.00385 118.49726 275.52808
284.0 0.00352 118.53826 277.73276
272.0 0.00368 118.57938 279.85858
279.0 0.00358 118.62063 281.90732
275.0 0.00364 118.66203 283.88196
285.0 0.00351 118.70355 285.78589
300.0 0.003333 118.74525 287.62311
267.0 0.00375 118.78705 289.39828
269.0 0.00372 118.82904 291.11337
319.0 0.003135 118.87115 292.77762
278.0 0.00360 118.91348 294.39346
273.0 0.00366 118.95592 295.96530
322.0 0.003106 118.99856 297.49780
319.0 0.003135 119.04136 298.99539
301.0 0.003322 119.08433 300.46252
299.0 0.003344 119.12747 302.16226
305.0 0.003279 119.17081 303.58371
305.0 0.003279 119.21436 303.86102
281.0 0.00356 119.25806 305.26138
296.0 0.003378 119.30197 306.65472
297.0 0.003367 119.34609 308.04602
358.0 0.002793 119.39043 309.44025
335.0 0.002985 119.43496 310.84219
280.0 0.00357 119.47969 312.25629
328.0 0.003049 119.52466 313.68695
327.0 0.003058 119.56984 315.13773
324.0 0.003086 119.61528 316.61203
306.0 0.003268 119.66090 318.11240
331.0 0.003021 119.70680 319.64078
316.0 0.003165 119.75292 321.19815
328.0 0.003049 119.79929 322.78452
346.0 0.002890 119.84591 324.39948
367.0 0.002725 119.89278 326.04108
302.0 0.003311 119.93992 327.70700
376.0 0.002660 119.98732 328.82822
334.0 0.002994 120.03501 330.53442
334.0 0.002994 120.08295 332.38251
325.0 0.003077 120.13119 334.10480
326.0 0.003067 120.17968 335.82495
333.0 0.003003 120.22849 337.53510
346.0 0.002890 120.27759 339.22702
402.0 0.002488 120.32697 340.89221
337.0 0.002967 120.37669 342.52158
383.0 0.002611 120.42672 344.10574
338.0 0.002959 120.47706 345.63553
346.0 0.002890 120.52771 347.10162
367.0 0.002725 120.57870 348.49545
361.0 0.002770 120.63000 349.80838
362.0 0.002762 120.68166 351.03244
350.0 0.002857 120.73367 352.16101
403.0 0.002481 120.78602 353.18723
360.0 0.002778 120.83872 354.10657
371.0 0.002695 120.89178 354.91449
371.0 0.002695 120.94524 355.61765
392.0 0.002551 120.99903 356.19543
370.0 0.002703 121.05322 356.65683
372.0 0.002688 121.10781 357.00226
374.0 0.002674 121.16275 357.23364
380.0 0.002632 121.21812 357.35333
374.0 0.002674 121.27387 357.36560
370.0 0.002703 121.33008 357.27457
387.0 0.002584 121.38666 357.08609
369.0 0.002710 121.44368 356.80606
377.0 0.002653 121.50111 356.44122
364.0 0.002747 121.55899 355.99872
370.0 0.002703 121.61732 355.48621
354.0 0.002825 121.67608 354.91003
387.0 0.002584 121.73531 354.28195
381.0 0.002625 121.79498 353.60910
346.0 0.002890 121.85514 352.90002
375.0 0.002667 121.91576 352.16382
346.0 0.002890 121.97689 351.40979
342.0 0.002924 122.03848 350.64716
382.0 0.002618 122.10056 349.88544
352.0 0.002841 122.16317 349.13416
337.0 0.002967 122.22626 348.40744
356.0 0.002809 122.28990 347.70486
353.0 0.002833 122.35403 347.04080
332.0 0.003012 122.41873 346.42392
364.0 0.002747 122.48396 345.85828
361.0 0.002770 122.54969 345.36176
368.0 0.002717 122.61604 344.93710
332.0 0.003012 122.68290 344.59171
377.0 0.002653 122.75034 344.33148
370.0 0.002703 122.81837 344.16376
339.0 0.002950 122.88699 344.09329
338.0 0.002959 122.95616 344.12396
384.0 0.002604 123.02599 344.25925
355.0 0.002817 123.09635 344.50162
366.0 0.002732 123.16740 344.85229
357.0 0.002801 123.23903 345.31174
367.0 0.002725 123.31129 345.87912
366.0 0.002732 123.38421 346.55231
356.0 0.002809 123.45777 347.32819
376.0 0.002660 123.53198 348.20251
324.0 0.003086 123.60685 349.16971
381.0 0.002625 123.68242 350.22043
341.0 0.002933 123.75863 351.35147
398.0 0.002513 123.83553 352.55096
387.0 0.002584 123.91315 353.80856
365.0 0.002740 123.99147 355.11227
350.0 0.002857 124.07052 356.44955
372.0 0.002688 124.15025 357.80649
349.0 0.002865 124.23078 359.16797
405.0 0.002469 124.31201 360.51865
350.0 0.002857 124.39394 361.84207
365.0 0.002740 124.47669 363.12164
369.0 0.002710 124.56020 364.33997
371.0 0.002695 124.64452 365.48026
390.0 0.002564 124.72955 366.52545
359.0 0.002786 124.81545 367.45895
424.0 0.002358 124.90211 368.26501
382.0 0.002618 124.98963 368.92902
376.0 0.002660 125.07793 369.43701
380.0 0.002632 125.16708 369.77673
377.0 0.002653 125.25706 369.93750
372.0 0.002688 125.34791 369.91019
384.0 0.002604 125.43962 369.68741
362.0 0.002762 125.53220 369.26367
353.0 0.002833 125.62568 368.63510
361.0 0.002770 125.72003 368.30148
383.0 0.002611 125.81529 367.26117
329.0 0.003040 125.91145 366.01416
351.0 0.002849 126.00854 364.70346
389.0 0.002571 126.10661 363.05167
375.0 0.002667 126.20554 361.20309
403.0 0.002481 126.30552 359.16269
366.0 0.002732 126.40636 356.93619
349.0 0.002865 126.50829 354.53021
352.0 0.002841 126.61110 351.95111
371.0 0.002695 126.71495 349.20651
363.0 0.002755 126.81981 346.30383
349.0 0.002865 126.92570 343.24973
306.0 0.003268 127.03262 340.05551
346.0 0.002890 127.14056 336.72824
332.0 0.003012 127.24958 333.27737
363.0 0.002755 127.35963 329.71210
359.0 0.002786 127.47080 326.04257
344.0 0.002907 127.58302 322.27881
289.0 0.003460 127.69630 318.43152
341.0 0.002933 127.81077 314.51163
325.0 0.003077 127.92629 310.53000
340.0 0.002941 128.04305 306.75262
288.0 0.003472 128.16083 302.68231
303.0 0.003300 128.27988 298.58398
310.0 0.003226 128.39998 294.53983
305.0 0.003279 128.52136 290.41824
324.0 0.003086 128.64389 286.30054
281.0 0.00356 128.76759 282.19690
303.0 0.003300 128.89258 278.11609
289.0 0.003460 129.01874 274.06863
273.0 0.00366 129.14619 270.06232
270.0 0.00370 129.27486 266.10486
282.0 0.00355 129.40483 262.20370
267.0 0.00375 129.53604 258.36542
265.0 0.00377 129.66852 254.60669
257.0 0.00389 129.80238 250.91199
246.0 0.00407 129.93748 247.29619
252.0 0.00397 130.07402 243.76396
257.0 0.00389 130.21182 240.31873
239.0 0.00418 130.35098 236.96388
245.0 0.00408 130.49155 233.70169
244.0 0.00410 130.63351 230.53467
234.0 0.00427 130.77681 227.46416
212.0 0.00472 130.92154 224.49179
196.0 0.00510 131.06775 221.61836
235.0 0.00426 131.21530 218.84433
240.0 0.00417 131.36440 216.16980
227.0 0.00441 131.51492 213.59361
239.0 0.00418 131.66698 211.11784
231.0 0.00433 131.82047 208.74046
220.0 0.00455 131.97552 206.46056
215.0 0.00465 132.13202 204.27713
214.0 0.00467 132.29007 202.18884
234.0 0.00427 132.44975 200.19420
193.0 0.00518 132.61095 198.29153
215.0 0.00465 132.77374 196.47910
223.0 0.00448 132.93811 194.75496
195.0 0.00513 133.10413 193.12262
185.0 0.00541 133.27174 191.56905
200.0 0.00500 133.44096 190.09761
224.0 0.00446 133.61191 188.70601
211.0 0.00474 133.78450 187.39188
214.0 0.00467 133.95880 186.15302
180.0 0.00556 134.13478 184.98691
207.0 0.00483 134.31253 183.89076
193.0 0.00518 134.49191 182.86314
177.0 0.00565 134.67316 181.90131
171.0 0.00585 134.85609 181.00273
182.0 0.00549 135.04082 180.16545
188.0 0.00532 135.22739 179.38638
187.0 0.00535 135.41571 178.66345
187.0 0.00535 135.60594 177.99446
168.0 0.00595 135.79796 177.37720
170.0 0.00588 135.99190 176.80936
190.0 0.00526 136.18767 176.28870
157.0 0.00637 136.38536 175.81320
178.0 0.00562 136.58495 175.38062
157.0 0.00637 136.78642 174.98906
182.0 0.00549 136.98993 174.63654
167.0 0.00599 137.19536 174.32086
172.0 0.00581 137.40283 174.04041
166.0 0.00602 137.61221 173.79308
192.0 0.00521 137.82370 173.57736
191.0 0.00524 138.03714 173.39120
180.0 0.00556 138.25262 173.23312
143.0 0.00699 138.47028 173.10159
158.0 0.00633 138.68996 172.99484
176.0 0.00568 138.91179 172.91158
174.0 0.00575 139.13568 172.85017
189.0 0.00529 139.36176 172.80943
173.0 0.00578 139.58997 172.78804
151.0 0.00662 139.82042 172.78500
166.0 0.00602 140.05298 172.79875
172.0 0.00581 140.28775 172.82851
177.0 0.00565 140.52486 172.87340
174.0 0.00575 140.76414 172.93246
196.0 0.00510 141.00578 173.00502
176.0 0.00568 141.24963 173.09029
159.0 0.00629 141.49585 173.18773
175.0 0.00571 141.74435 173.29678
170.0 0.00588 141.99527 173.41730
141.0 0.00709 142.24849 173.54865
149.0 0.00671 142.50406 173.69058
174.0 0.00575 142.76215 173.84302
176.0 0.00568 143.02257 174.00580
167.0 0.00599 143.28554 174.17888
186.0 0.00538 143.55090 174.36203
165.0 0.00606 143.81885 174.55554
194.0 0.00515 144.08919 174.75929
139.0 0.00719 144.36208 174.97348
166.0 0.00602 144.63762 175.20361
181.0 0.00552 144.91562 175.43919
149.0 0.00671 145.19632 175.68602
160.0 0.00625 145.47955 175.94409
156.0 0.00641 145.76549 176.21405
172.0 0.00581 146.05399 176.49603
173.0 0.00578 146.34529 176.79074
130.0 0.00769 146.63916 177.09850
161.0 0.00621 146.93579 177.41998
173.0 0.00578 147.23523 177.75589
173.0 0.00578 147.53735 178.10667
159.0 0.00629 147.84235 178.47356
179.0 0.00559 148.15005 178.85701
160.0 0.00625 148.46069 179.25809
196.0 0.00510 148.77411 179.67770
173.0 0.00578 149.09047 180.11710
173.0 0.00578 149.40965 180.57713
160.0 0.00625 149.73172 181.05925
187.0 0.00535 150.05690 181.56476
172.0 0.00581 150.38487 182.09499
184.0 0.00543 150.71599 182.65149
210.0 0.00476 151.04999 183.23569
162.0 0.00617 151.38716 183.84953
196.0 0.00510 151.72728 184.49701
188.0 0.00532 152.07045 185.17520
202.0 0.00495 152.41689 185.88866
189.0 0.00529 152.76633 186.63927
203.0 0.00493 153.11900 187.42955
181.0 0.00552 153.47476 188.26166
161.0 0.00621 153.83386 189.13835
182.0 0.00549 154.19606 190.06197
206.0 0.00485 154.56168 191.03560
223.0 . . .
loop_
_refln_index_h
_refln_index_k
_refln_index_l
_pd_refln_wavelength_id
_refln_observed_status
_refln_F_squared_meas
_refln_F_squared_calc
_refln_phase_calc
_refln_d_spacing
0 1 1 1 o -22.924 41.264 180.00 5.03843
0 1 1 2 o -31.645 41.264 180.00 5.03843
0 1 3 1 o 223.669 201.959 180.00 3.31924
0 1 3 2 o 215.961 201.959 180.00 3.31924
1 1 2 1 o 82360.48 81680.39 180.00 3.30359
1 1 2 2 o 82421.60 81680.39 180.00 3.30359
0 0 4 1 o 61733.43 60578.11 180.00 3.11972
0 0 4 2 o 61600.08 60578.11 180.00 3.11972
0 2 0 1 o 48338.88 47922.96 180.00 2.75364
0 2 0 2 o 47909.80 47922.96 180.00 2.75364
0 2 2 1 o 1296.781 1280.192 180.00 2.51921
0 2 2 2 o 1250.563 1280.192 180.00 2.51921
1 1 4 1 o 3232.265 3486.252 180.00 2.43477
1 1 4 2 o 3299.937 3486.252 180.00 2.43477
2 1 1 1 o 3530.348 3620.967 0.00 2.41632
1 2 1 1 o 278.893 288.621 180.00 2.41632
1 2 1 2 o 278.510 288.621 180.00 2.41632
2 1 1 2 o 3526.781 3620.967 0.00 2.41632
0 1 5 1 o 1819.532 1653.305 180.00 2.27324
0 1 5 2 o 1727.011 1653.305 180.00 2.27324
1 2 3 1 o 3170.391 3584.447 180.00 2.11929
2 1 3 1 o 27.279 32.062 0.00 2.11929
2 1 3 2 o 27.185 32.062 0.00 2.11929
1 2 3 2 o 3162.206 3584.447 180.00 2.11929
0 2 4 1 o 60893.83 60275.63 0.00 2.06447
0 2 4 2 o 61157.73 60275.63 0.00 2.06447
2 2 0 1 o 52608.59 51830.28 180.00 1.94712
2 2 0 2 o 53337.84 51830.28 180.00 1.94712
2 2 2 1 o 215.918 187.962 180.00 1.85872
2 2 2 2 o 208.777 187.962 180.00 1.85872
1 1 6 1 o 47019.71 46515.58 0.00 1.83456
1 1 6 2 o 46827.41 46515.58 0.00 1.83456
0 3 1 1 o 833.465 815.357 180.00 1.81621
0 3 1 2 o 857.088 815.357 180.00 1.81621
1 2 5 1 o 284.890 313.887 0.00 1.75305
2 1 5 1 o 9.084 12.639 0.00 1.75305
1 2 5 2 o 280.503 313.887 0.00 1.75305
2 1 5 2 o 8.546 12.639 0.00 1.75305
0 1 7 1 o 822.155 766.027 180.00 1.69605
0 1 7 2 o 827.467 766.027 180.00 1.69605
0 3 3 1 o 382.650 374.847 180.00 1.67948
1 3 2 1 o 51725.53 51035.80 0.00 1.67744
3 1 2 1 o 32765.912 32330.734 180.00 1.67744
0 3 3 2 o 379.992 374.847 180.00 1.67948
3 1 2 2 o 32753.053 32330.734 180.00 1.67744
1 3 2 2 o 51705.14 51035.80 0.00 1.67744
0 2 6 1 o 102.388 98.926 0.00 1.65962
0 2 6 2 o 102.821 98.926 0.00 1.65962
2 2 4 1 o 44463.29 42958.79 0.00 1.65180
2 2 4 2 o 44847.72 42958.79 0.00 1.65180
0 0 8 1 o 22575.031 24347.723 0.00 1.55986
0 0 8 2 o 22127.959 24347.723 0.00 1.55986
1 3 4 1 o 24.030 37.751 0.00 1.52066
3 1 4 1 o 4.168 6.548 0.00 1.52066
3 1 4 2 o 3.908 6.548 0.00 1.52066
1 3 4 2 o 22.534 37.751 0.00 1.52066
3 2 1 1 o 460.271 717.050 0.00 1.51613
2 3 1 1 o 160.765 312.450 0.00 1.51613
3 2 1 2 o 424.983 717.050 0.00 1.51613
2 3 1 2 o 139.919 312.450 0.00 1.51613
0 3 5 1 o -42.759 33.953 180.00 1.47880
0 3 5 2 o -42.759 33.953 180.00 1.47880
1 1 8 1 o 126.561 251.498 180.00 1.44801
1 1 8 2 o 152.002 251.498 180.00 1.44801
1 2 7 1 o 49.898 75.949 0.00 1.44410
2 1 7 1 o 87.619 171.177 0.00 1.44410
2 1 7 2 o 99.160 171.177 0.00 1.44410
1 2 7 2 o 53.496 75.949 0.00 1.44410
3 2 3 1 o 77.141 107.292 0.00 1.43383
2 3 3 1 o 19.725 26.012 180.00 1.43383
2 3 3 2 o 22.684 26.012 180.00 1.43383
3 2 3 2 o 91.329 107.292 0.00 1.43383
2 2 6 1 o 14.201 17.458 0.00 1.42142
2 2 6 2 o 13.201 17.458 0.00 1.42142
0 4 0 1 o 31833.078 31300.184 0.00 1.37682
0 4 0 2 o 31765.469 31300.184 0.00 1.37682
0 2 8 1 o 37892.42 37397.70 180.00 1.35722
0 2 8 2 o 38392.13 37397.70 180.00 1.35722
0 1 9 1 o 80.178 77.119 0.00 1.34458
0 4 2 1 o 857.369 817.862 180.00 1.34448
0 1 9 2 o 79.885 77.119 0.00 1.34458
0 4 2 2 o 841.773 817.862 180.00 1.34448
3 1 6 1 o 43076.80 42347.40 0.00 1.33525
1 3 6 1 o 25177.973 24754.094 180.00 1.33525
3 1 6 2 o 43575.05 42347.40 0.00 1.33525
1 3 6 2 o 25467.502 24754.094 180.00 1.33525
1 4 1 1 o 27.984 26.028 180.00 1.32813
4 1 1 1 o 124.069 117.693 0.00 1.32813
4 1 1 2 o 132.247 117.693 0.00 1.32813
1 4 1 2 o 30.494 26.028 180.00 1.32813
2 3 5 1 o 667.277 574.168 0.00 1.30282
3 2 5 1 o 403.471 347.702 180.00 1.30282
2 3 5 2 o 630.395 574.168 0.00 1.30282
3 2 5 2 o 381.380 347.702 180.00 1.30282
0 3 7 1 o 30.663 19.634 180.00 1.27890
0 3 7 2 o 27.472 19.634 180.00 1.27890
4 1 3 1 o 16.696 15.241 0.00 1.27175
1 4 3 1 o 36.186 32.176 180.00 1.27175
3 3 2 1 o 30824.643 29834.344 0.00 1.27087
1 4 3 2 o 34.040 32.176 180.00 1.27175
4 1 3 2 o 15.917 15.241 0.00 1.27175
3 3 2 2 o 30212.393 29834.344 0.00 1.27087
0 4 4 1 o 28519.723 27645.451 180.00 1.25961
0 4 4 2 o 28996.074 27645.451 180.00 1.25961
2 4 0 1 o 37177.86 34816.664 0.00 1.23147
4 2 0 1 o 30652.033 28709.531 180.00 1.23147
2 4 0 2 o 36337.74 34816.664 0.00 1.23147
4 2 0 2 o 29960.881 28709.531 180.00 1.23147
2 2 8 1 o 26418.223 25797.557 180.00 1.21738
2 2 8 2 o 26347.664 25797.557 180.00 1.21738
1 2 9 1 o 783.891 760.733 0.00 1.20824
2 1 9 1 o 19.415 17.744 180.00 1.20824
2 4 2 1 o 32.373 31.079 0.00 1.20816
4 2 2 1 o 345.187 331.384 0.00 1.20816
2 1 9 2 o 19.519 17.744 180.00 1.20824
1 2 9 2 o 785.339 760.733 0.00 1.20824
4 2 2 2 o 352.030 331.384 0.00 1.20816
2 4 2 2 o 33.015 31.079 0.00 1.20816
3 3 4 1 o 403.689 400.754 180.00 1.19847
3 3 4 2 o 386.061 400.754 180.00 1.19847
1 1 10 1 o 21872.219 24285.814 180.00 1.18836
1 1 10 2 o 21290.637 24285.814 180.00 1.18836
1 4 5 1 o 462.261 571.304 0.00 1.17766
4 1 5 1 o 141.586 174.351 180.00 1.17766
4 1 5 2 o 137.832 174.351 180.00 1.17766
1 4 5 2 o 449.767 571.304 0.00 1.17766
1 3 8 1 o 3.487 4.069 0.00 1.16193
3 1 8 1 o 0.605 0.706 0.00 1.16193
2 3 7 1 o 693.274 746.409 0.00 1.15991
3 2 7 1 o 30.331 33.206 0.00 1.15991
3 1 8 2 o 0.669 0.706 0.00 1.16193
1 3 8 2 o 3.855 4.069 0.00 1.16193
2 3 7 2 o 758.344 746.409 0.00 1.15991
3 2 7 2 o 33.851 33.206 0.00 1.15991
0 4 6 1 o 93.842 94.687 0.00 1.14805
0 4 6 2 o 91.747 94.687 0.00 1.14805
2 4 4 1 o 20048.682 20834.568 180.00 1.14545
4 2 4 1 o 21174.268 22004.836 0.00 1.14545
2 4 4 2 o 20149.801 20834.568 180.00 1.14545
4 2 4 2 o 21281.115 22004.836 0.00 1.14545
0 2 10 1 o 195.334 186.594 0.00 1.13662
0 2 10 2 o 198.512 186.594 0.00 1.13662
0 1 11 1 o 126.391 134.312 0.00 1.11111
0 1 11 2 o 128.808 134.312 0.00 1.11111
0 3 9 1 o 36.752 38.134 180.00 1.10641
0 3 9 2 o 36.367 38.134 180.00 1.10641
3 3 6 1 o 17678.563 18763.695 180.00 1.10120
3 3 6 2 o 17811.330 18763.695 180.00 1.10120
0 5 1 1 o 20.388 21.658 0.00 1.09719
4 3 1 1 o 60.023 63.282 180.00 1.09719
3 4 1 1 o 31.270 33.245 180.00 1.09719
4 3 1 2 o 62.958 63.282 180.00 1.09719
0 5 1 2 o 21.575 21.658 0.00 1.09719
3 4 1 2 o 33.048 33.245 180.00 1.09719
1 4 7 1 o 353.411 310.519 180.00 1.06895
4 1 7 1 o 119.673 105.022 180.00 1.06895
1 4 7 2 o 333.510 310.519 180.00 1.06895
4 1 7 2 o 112.875 105.022 180.00 1.06895
0 5 3 1 o 457.340 440.488 0.00 1.06476
3 4 3 1 o 196.410 191.733 0.00 1.06476
4 3 3 1 o 490.564 478.722 180.00 1.06476
1 5 2 1 o 17838.447 17281.348 180.00 1.06424
5 1 2 1 o 23010.643 22289.697 180.00 1.06424
3 4 3 2 o 195.666 191.733 0.00 1.06476
4 3 3 2 o 488.680 478.722 180.00 1.06476
0 5 3 2 o 455.054 440.488 0.00 1.06476
5 1 2 2 o 23074.051 22289.697 180.00 1.06424
1 5 2 2 o 17887.422 17281.348 180.00 1.06424
2 4 6 1 o 4.158 3.872 180.00 1.05965
4 2 6 1 o 44.339 41.284 180.00 1.05965
4 2 6 2 o 47.245 41.284 180.00 1.05965
2 4 6 2 o 4.431 3.872 180.00 1.05965
2 2 10 1 o 50.188 39.332 0.00 1.05063
2 2 10 2 o 50.217 39.332 0.00 1.05063
0 0 12 1 o 25858.652 22759.361 180.00 1.03991
0 0 12 2 o 25046.990 22759.361 180.00 1.03991
0 4 8 1 o 18805.547 17977.791 0.00 1.03224
1 2 11 1 o 30.989 26.951 0.00 1.03039
2 1 11 1 o 308.511 290.656 0.00 1.03039
0 4 8 2 o 19092.074 17977.791 0.00 1.03224
2 1 11 2 o 311.678 290.656 0.00 1.03039
1 2 11 2 o 31.705 26.951 0.00 1.03039
2 3 9 1 o 318.340 293.116 180.00 1.02664
3 2 9 1 o 7.369 4.620 180.00 1.02664
1 5 4 1 o 54.293 50.500 0.00 1.02063
5 1 4 1 o 22.567 20.991 180.00 1.02063
2 3 9 2 o 319.877 293.116 180.00 1.02664
3 2 9 2 o 7.537 4.620 180.00 1.02664
2 5 1 1 o 246.387 236.686 0.00 1.01926
5 2 1 1 o 6.756 5.393 180.00 1.01926
1 5 4 2 o 51.464 50.500 0.00 1.02063
5 1 4 2 o 21.392 20.991 180.00 1.02063
2 5 1 2 o 234.315 236.686 0.00 1.01926
5 2 1 2 o 5.060 5.393 180.00 1.01926
1 3 10 1 o 15997.281 16547.414 0.00 1.01437
3 1 10 1 o 16780.514 17357.957 180.00 1.01437
3 1 10 2 o 16431.605 17357.957 180.00 1.01437
1 3 10 2 o 15664.879 16547.414 0.00 1.01437
3 4 5 1 o 41.424 44.233 0.00 1.00769
0 5 5 1 o -0.405 0.649 180.00 1.00769
4 3 5 1 o 0.633 2.161 180.00 1.00769
1 1 12 1 o 95.888 104.206 0.00 1.00470
0 5 5 2 o -0.241 0.649 180.00 1.00769
3 4 5 2 o 42.049 44.233 0.00 1.00769
4 3 5 2 o 0.973 2.161 180.00 1.00769
1 1 12 2 o 93.059 104.206 0.00 1.00470
3 3 8 1 o 42.895 54.113 180.00 0.99778
3 3 8 2 o 37.720 54.113 180.00 0.99778
2 5 3 1 o -7.337 0.001 180.00 0.99310
5 2 3 1 o 21.233 37.001 180.00 0.99310
5 2 3 2 o 21.283 37.001 180.00 0.99310
2 5 3 2 o -7.313 0.001 180.00 0.99310
0 2 12 1 o 13587.396 13413.596 0.00 0.97284
4 4 0 1 o 11431.368 11156.360 0.00 0.97356
0 2 12 2 o 13660.012 13413.596 0.00 0.97284
4 4 0 2 o 11376.944 11156.360 0.00 0.97356
2 4 8 1 o 12278.831 11863.466 0.00 0.96656
4 2 8 1 o 14355.933 13869.347 180.00 0.96656
0 3 11 1 o 99.195 96.158 180.00 0.96504
2 4 8 2 o 12325.898 11863.466 0.00 0.96656
4 2 8 2 o 14411.058 13869.347 180.00 0.96656
0 3 11 2 o 99.474 96.158 180.00 0.96504
1 4 9 1 o 38.790 37.206 180.00 0.96196
4 1 9 1 o 49.270 47.356 0.00 0.96196
4 4 2 1 o 0.107 0.102 180.00 0.96192
1 4 9 2 o 38.839 37.206 180.00 0.96196
4 1 9 2 o 49.331 47.356 0.00 0.96196
5 1 6 2 o 11835.485 11271.354 0.00 0.95852
1 5 6 2 o 17215.717 16391.215 0.00 0.95852
4 4 2 2 o 0.106 0.102 180.00 0.96192
5 1 6 1 o 11741.822 11271.354 0.00 0.95852
1 5 6 1 o 17078.832 16391.215 0.00 0.95852
0 1 13 1 o 5.503 6.354 180.00 0.94566
2 5 5 1 o 194.191 209.149 180.00 0.94631
5 2 5 1 o 270.073 290.980 180.00 0.94631
0 1 13 2 o 5.119 6.354 180.00 0.94566
5 2 5 2 o 256.553 290.980 180.00 0.94631
2 5 5 2 o 184.517 209.149 180.00 0.94631
