#------------------------------------------------------------------------------
#$Date: 2019-12-26 21:24:38 +0200 (Thu, 26 Dec 2019) $
#$Revision: 246104 $
#$URL: file:///home/coder/svn-repositories/cod/cif/2/31/17/2311777.cif $
#------------------------------------------------------------------------------
#
# This file is available in the Crystallography Open Database (COD),
# http://www.crystallography.net/. The original data for this entry
# were provided by IUCr Journals, http://journals.iucr.org/.
#
# The file may be used within the scientific community so long as
# proper attribution is given to the journal article from which the
# data were obtained.
#
data_2311777
loop_
_publ_author_name
'Fulle, Kyle'
'Sanjeewa, Liurukara D.'
'McMillen, Colin D.'
'Kolis, Joseph W.'
_publ_section_title
;
 Crystal chemistry and the role of ionic radius in rare earth
 tetrasilicates:
 Ba<sub>2</sub>RE<sub>2</sub>Si<sub>4</sub>O<sub>12</sub>F<sub>2</sub> (RE
 = Er<sup>3+</sup>-Lu<sup>3+</sup>) and
 Ba<sub>2</sub>RE<sub>2</sub>Si<sub>4</sub>O<sub>13</sub> (RE =
 La<sup>3+</sup>-Ho<sup>3+</sup>).
;
_journal_issue                   'Pt 5'
_journal_name_full
'Acta crystallographica Section B, Structural science, crystal engineering and materials'
_journal_page_first              907
_journal_page_last               915
_journal_paper_doi               10.1107/S2052520617009544
_journal_volume                  73
_journal_year                    2017
_chemical_formula_sum            'Ba2 Ce2 O13 Si4'
_chemical_formula_weight         875.28
_space_group_crystal_system      triclinic
_space_group_IT_number           2
_space_group_name_Hall           '-P 1'
_space_group_name_H-M_alt        'P -1'
_atom_sites_solution_primary     direct
_atom_sites_solution_secondary   difmap
_audit_creation_method           SHELXL-2014/7
_cell_angle_alpha                86.6118(16)
_cell_angle_beta                 73.5658(15)
_cell_angle_gamma                86.4609(16)
_cell_formula_units_Z            2
_cell_length_a                   6.7062(3)
_cell_length_b                   8.9719(4)
_cell_length_c                   10.1565(5)
_cell_measurement_reflns_used    9144
_cell_measurement_temperature    300(2)
_cell_measurement_theta_max      28.34
_cell_measurement_theta_min      3.03
_cell_volume                     584.45(5)
_computing_cell_refinement       'Bruker SAINT'
_computing_data_collection       'Bruker APEX3'
_computing_data_reduction        'Bruker SAINT'
_computing_molecular_graphics    'DIAMOND (Bradenburg, 1999)'
_computing_publication_material  'Bruker SHELXTL'
_computing_structure_refinement  'SHELXL-2014/7 (Sheldrick, 2014)'
_computing_structure_solution    'SHELXT-2014 (Sheldrick 2014)'
_diffrn_ambient_temperature      300(2)
_diffrn_measured_fraction_theta_full 1.000
_diffrn_measured_fraction_theta_max 1.000
_diffrn_measurement_device_type  'Bruker Photon 100'
_diffrn_measurement_method       '\f and \w scans'
_diffrn_radiation_type           MoK\a
_diffrn_radiation_wavelength     0.71073
_diffrn_reflns_av_R_equivalents  0.0330
_diffrn_reflns_av_unetI/netI     0.0168
_diffrn_reflns_Laue_measured_fraction_full 1.000
_diffrn_reflns_Laue_measured_fraction_max 1.000
_diffrn_reflns_limit_h_max       8
_diffrn_reflns_limit_h_min       -8
_diffrn_reflns_limit_k_max       11
_diffrn_reflns_limit_k_min       -11
_diffrn_reflns_limit_l_max       12
_diffrn_reflns_limit_l_min       -12
_diffrn_reflns_number            22454
_diffrn_reflns_point_group_measured_fraction_full 1.000
_diffrn_reflns_point_group_measured_fraction_max 1.000
_diffrn_reflns_theta_full        25.242
_diffrn_reflns_theta_max         26.498
_diffrn_reflns_theta_min         2.093
_diffrn_source                   Ius
_exptl_absorpt_coefficient_mu    14.770
_exptl_absorpt_correction_T_max  1.0000
_exptl_absorpt_correction_T_min  0.6802
_exptl_absorpt_correction_type   multi-scan
_exptl_absorpt_process_details   'SADABS, Bruker'
_exptl_crystal_colour            purple
_exptl_crystal_density_diffrn    4.974
_exptl_crystal_description       block
_exptl_crystal_F_000             776
_exptl_crystal_size_max          0.074
_exptl_crystal_size_mid          0.062
_exptl_crystal_size_min          0.055
_refine_diff_density_max         0.667
_refine_diff_density_min         -1.712
_refine_diff_density_rms         0.279
_refine_ls_extinction_method     none
_refine_ls_goodness_of_fit_ref   1.122
_refine_ls_matrix_type           full
_refine_ls_number_parameters     190
_refine_ls_number_reflns         2433
_refine_ls_number_restraints     0
_refine_ls_restrained_S_all      1.122
_refine_ls_R_factor_all          0.0206
_refine_ls_R_factor_gt           0.0185
_refine_ls_shift/su_max          0.002
_refine_ls_shift/su_mean         0.000
_refine_ls_structure_factor_coef Fsqd
_refine_ls_weighting_details
'w=1/[\s^2^(Fo^2^)+(0.0427P)^2^+0.3644P] where P=(Fo^2^+2Fc^2^)/3'
_refine_ls_weighting_scheme      calc
_refine_ls_wR_factor_gt          0.0437
_refine_ls_wR_factor_ref         0.0445
_reflns_Friedel_coverage         0.000
_reflns_number_gt                2274
_reflns_number_total             2433
_reflns_threshold_expression     'I > 2\s(I)'
_cod_data_source_file            rm5005sup1.cif
_cod_data_source_block           Ce
_cod_database_code               2311777
_shelx_shelxl_version_number     2014/7
_shelx_space_group_comment
;
The symmetry employed for this shelxl refinement is uniquely defined
by the following loop, which should always be used as a source of
symmetry information in preference to the above space-group names.
They are only intended as comments.
;
_shelx_estimated_absorpt_t_min   0.408
_shelx_estimated_absorpt_t_max   0.497
_shelx_res_file
;

    P-1.res created by SHELXL-2014/7


TITL P-1 in P-1
CELL 0.71073   6.70620   8.97190  10.15650  86.6118  73.5658  86.4609
ZERR    2.00   0.00030   0.00040   0.00050   0.0016   0.0015   0.0016
LATT  1
SFAC O SI BA CE
UNIT 26 8 4 4
TEMP 22.470
SIZE 0.055 0.062 0.074

L.S. 20
BOND
FMAP 2
PLAN 20
acta
omit -3 53
WGHT    0.019200    2.118100
FVAR       0.08378
MOLE   1
BA1   3    0.229322    0.331772    0.556282    11.00000    0.01260    0.00951 =
         0.01181   -0.00002   -0.00506   -0.00132
BA2   3    0.754971    0.827001    1.076322    11.00000    0.00725    0.00832 =
         0.01090   -0.00161   -0.00312    0.00008
CE1   4    0.814533    0.108882    0.394547    11.00000    0.00482    0.00544 =
         0.00655   -0.00057   -0.00180    0.00046
CE2   4    0.309909    0.622131    0.898480    11.00000    0.00489    0.00595 =
         0.00684    0.00040   -0.00148    0.00069
SI1   2    0.605329   -0.059780    0.687624    11.00000    0.00497    0.00659 =
         0.00634   -0.00065   -0.00189   -0.00091
SI2   2    0.800963    0.122318    0.844954    11.00000    0.00493    0.00619 =
         0.00575   -0.00102   -0.00065    0.00011
SI3   2    0.678754    0.385469    0.676667    11.00000    0.00638    0.00608 =
         0.00650   -0.00117   -0.00153   -0.00008
SI4   2    0.889688    0.567020    0.823176    11.00000    0.00405    0.00693 =
         0.00604   -0.00059   -0.00119   -0.00140
O1    1    1.025680    0.714061    0.796826    11.00000    0.00916    0.00796 =
         0.01143    0.00184   -0.00443   -0.00299
O2    1    0.471821   -0.207791    0.707552    11.00000    0.00964    0.00982 =
         0.01043    0.00058   -0.00319   -0.00355
O3    1    0.665529    0.596022    0.935941    11.00000    0.00499    0.01012 =
         0.00921   -0.00044   -0.00134   -0.00118
O4    1    0.827846   -0.086942    0.574156    11.00000    0.00438    0.01034 =
         0.01005   -0.00170   -0.00196    0.00002
O5    1    0.651905   -0.015834    0.833497    11.00000    0.00829    0.00802 =
         0.00809   -0.00144   -0.00293   -0.00002
O6    1    0.844148    0.516285    0.680194    11.00000    0.00920    0.00871 =
         0.00584   -0.00119   -0.00241   -0.00309
O7    1    0.471931    0.075522    0.634866    11.00000    0.01204    0.00947 =
         0.01559   -0.00102   -0.00664    0.00184
O8    1    1.017919    0.429304    0.877521    11.00000    0.01123    0.00907 =
         0.01488   -0.00055   -0.00552    0.00158
O9    1    1.027488    0.106813    0.739893    11.00000    0.00701    0.01114 =
         0.00876   -0.00383    0.00021   -0.00079
O10   1    0.449608    0.458529    0.701284    11.00000    0.01160    0.01308 =
         0.01798   -0.00445   -0.00765    0.00319
O11   1    0.783471    0.316125    0.532032    11.00000    0.01994    0.01352 =
         0.01184   -0.00532    0.00196   -0.00450
O12   1    0.805852    0.127543    1.000799    11.00000    0.01068    0.00911 =
         0.00791   -0.00093   -0.00283    0.00051
O13   1    0.668267    0.273077    0.812662    11.00000    0.00732    0.00770 =
         0.00940    0.00146   -0.00077    0.00128

MOLE   2
HKLF 4

REM  P-1 in P-1
REM R1 =  0.0185 for    2274 Fo > 4sig(Fo)  and  0.0206 for all    2433 data
REM    190 parameters refined using      0 restraints

END

WGHT      0.0191      1.1885

REM Highest difference peak  0.667,  deepest hole -1.712,  1-sigma level  0.279
Q1    1   0.5933  0.5658  1.0966  11.00000  0.05    0.67
Q2    1   0.4408  0.2934  0.8794  11.00000  0.05    0.65
Q3    1   0.4352 -0.0217  0.6453  11.00000  0.05    0.61
Q4    1   0.8681  0.0590  0.5235  11.00000  0.05    0.60
Q5    1   0.7698 -0.0470  0.4415  11.00000  0.05    0.60
Q6    1   1.0427  0.1332  0.6541  11.00000  0.05    0.59
Q7    1   1.0000  0.5000  0.5000  10.50000  0.05    0.59
Q8    1   1.0818  0.3000  0.9212  11.00000  0.05    0.57
Q9    1   0.3859  0.4900  0.8161  11.00000  0.05    0.57
Q10   1   0.9879  0.3188  0.4139  11.00000  0.05    0.56
Q11   1   1.0545  0.7852  0.8947  11.00000  0.05    0.56
Q12   1   1.1061  0.0064  0.7015  11.00000  0.05    0.55
Q13   1   0.6423  0.0064  0.4803  11.00000  0.05    0.55
Q14   1   0.3272  0.1253  0.6201  11.00000  0.05    0.54
Q15   1   0.4967 -0.3088  0.8049  11.00000  0.05    0.54
Q16   1   1.0630  0.3213  0.8111  11.00000  0.05    0.54
Q17   1   0.9528  0.3976  0.8968  11.00000  0.05    0.53
Q18   1   1.0638  0.0971  0.5926  11.00000  0.05    0.53
Q19   1   0.6162 -0.3281  0.6055  11.00000  0.05    0.53
Q20   1   0.8769  0.0636  0.9876  11.00000  0.05    0.53
;
_shelx_res_checksum              56666
_shelx_hkl_file
;
  -1   0   0    2.12    0.12
  -1   0   0    1.93    0.15
  -1   0   0    2.03    0.11
   1   0   0    1.96    0.16
   1   0   0    2.03    0.13
   1   0   0    2.12    0.12
  -2   0   0  553.37   19.93
  -3   0   0   11.44    0.53
  -3   0   0   10.62    0.63
  -3   0   0   10.95    0.55
  -3   0   0   11.43    0.52
   3   0   0   11.14    0.65
   3   0   0   11.10    0.55
   3   0   0   10.65    0.57
   3   0   0   10.35    0.52
   3   0   0   11.30    0.61
   3   0   0   11.04    0.52
  -4   0   0  103.38    3.81
  -4   0   0  101.81    3.84
  -4   0   0  101.92    3.79
   4   0   0   99.20    3.91
   4   0   0  101.18    3.84
   4   0   0  102.53    3.87
   4   0   0  104.20    4.00
   4   0   0  102.03    3.78
   4   0   0   99.68    3.81
  -5   0   0   25.24    1.16
   5   0   0   24.00    1.30
   5   0   0   23.84    1.16
   5   0   0   23.85    1.21
   5   0   0   25.08    1.38
   5   0   0   23.82    1.09
   5   0   0   23.86    1.10
  -6   0   0    4.44    0.57
   6   0   0    4.87    0.54
   6   0   0    4.35    0.58
   6   0   0    4.57    0.92
   6   0   0    4.58    0.65
   6   0   0    7.24    1.02
   6   0   0    6.03    0.83
  -7   0   0   11.96    0.95
   7   0   0   11.06    0.93
   7   0   0   13.02    0.92
   7   0   0   12.60    1.08
   7   0   0   13.08    1.39
   7   0   0   14.75    1.45
  -8   0   0   13.58    1.22
   8   0   0   12.16    2.04
   8   0   0   12.10    1.14
   8  -1   0    4.27    0.77
   8  -1   0    3.88    1.26
  -8   1   0    6.16    1.02
   7  -1   0  219.94    8.71
   7  -1   0  219.36    8.33
   7  -1   0  232.54    8.47
  -7   1   0  231.79    8.47
   6  -1   0    7.83    0.91
   6  -1   0    9.05    0.69
   6  -1   0    6.53    0.73
   6  -1   0    8.09    0.96
   6  -1   0    7.40    1.02
   6  -1   0    6.15    0.64
  -6   1   0    7.84    0.67
   5  -1   0  440.96   15.50
   5  -1   0  426.27   15.51
   5  -1   0  430.12   15.67
   5  -1   0  425.97   15.38
   5  -1   0  413.91   15.57
   5  -1   0  427.68   15.47
  -5   1   0  414.60   15.66
  -5   1   0  426.21   15.46
   4  -1   0    8.03    0.54
   4  -1   0    7.54    0.46
   4  -1   0    7.79    0.50
   4  -1   0    6.25    0.65
  -4   1   0    7.46    0.61
  -4   1   0    7.46    0.48
  -4   1   0    8.10    0.51
   3  -1   0  234.66    8.40
   3  -1   0  237.52    8.34
   3  -1   0  227.26    8.39
   3  -1   0  237.31    8.51
   3  -1   0  232.35    8.40
  -3   1   0  226.08    8.50
  -3   1   0  216.36    8.36
  -3   1   0  227.19    8.37
  -3   1   0  236.60    8.40
   2  -1   0    4.27    0.35
   2  -1   0    4.84    0.29
   2  -1   0    4.38    0.28
   2  -1   0    4.47    0.27
   2  -1   0    4.79    0.27
   2  -1   0    4.61    0.24
   2  -1   0    4.81    0.28
  -2   1   0    4.91    0.27
  -2   1   0    4.68    0.35
  -2   1   0    4.61    0.29
  -2   1   0    5.07    0.29
  -2   1   0    4.50    0.23
  -2   1   0    4.52    0.24
   1  -1   0    8.60    0.34
   1  -1   0    8.38    0.34
   1  -1   0    8.31    0.40
   1  -1   0    7.89    0.34
   1  -1   0    8.30    0.34
   1  -1   0    7.61    0.35
   1  -1   0    8.01    0.36
   1  -1   0    7.83    0.33
   1  -1   0    7.90    0.36
  -1   1   0    8.47    0.33
  -1   1   0    7.90    0.39
  -1   1   0    7.85    0.34
  -1   1   0    8.00    0.36
  -1   1   0    9.16    0.34
  -1   1   0    7.88    0.35
  -1   1   0    8.16    0.37
   0  -1   0    0.17    0.06
   0  -1   0    0.16    0.04
   0  -1   0    0.02    0.04
   0   1   0    0.03    0.04
   0   1   0    0.14    0.04
   0   1   0    0.10    0.04
  -1  -1   0    1.82    0.14
  -1  -1   0    2.03    0.16
  -1  -1   0    2.16    0.13
  -1  -1   0    1.97    0.12
  -1  -1   0    2.04    0.13
   1   1   0    2.01    0.15
   1   1   0    2.07    0.15
   1   1   0    2.01    0.13
   1   1   0    2.05    0.12
   1   1   0    2.32    0.12
   1   1   0    2.01    0.15
   1   1   0    2.11    0.15
  -2  -1   0    7.91    0.36
  -2  -1   0    7.44    0.39
  -2  -1   0    7.67    0.36
  -2  -1   0    7.77    0.39
   2   1   0    7.75    0.36
   2   1   0    7.23    0.37
   2   1   0    7.51    0.42
   2   1   0    7.03    0.41
   2   1   0    8.13    0.40
   2   1   0    7.98    0.34
   2   1   0    6.83    0.34
  -3  -1   0   32.27    1.30
  -3  -1   0   32.82    1.35
   3   1   0   34.91    1.45
   3   1   0   32.41    1.39
   3   1   0   32.58    1.26
   3   1   0   32.78    1.31
   3   1   0   33.11    1.31
   3   1   0   33.16    1.36
  -4  -1   0   12.72    0.62
  -4  -1   0   12.44    0.68
  -4  -1   0   12.89    0.64
   4   1   0   12.09    0.64
   4   1   0   12.80    0.73
   4   1   0   12.94    0.61
   4   1   0   14.01    0.81
   4   1   0   11.22    0.83
   4   1   0   13.31    0.63
  -5  -1   0    0.33    0.27
  -5  -1   0    0.18    0.24
   5   1   0    0.03    0.22
   5   1   0    0.67    0.28
   5   1   0    0.99    0.30
   5   1   0    0.45    0.33
   5   1   0    1.26    0.30
   5   1   0    0.26    0.21
   5   1   0    0.15    0.40
   5   1   0    0.57    0.37
  -6  -1   0   12.35    0.78
  -6  -1   0   10.14    0.81
   6   1   0   12.34    0.74
   6   1   0   13.69    0.97
   6   1   0   11.12    0.84
   6   1   0   11.65    0.86
   6   1   0   12.09    1.12
   6   1   0   12.84    1.02
  -7  -1   0   92.70    3.72
   7   1   0   82.03    3.85
   7   1   0   98.43    3.94
   7   1   0   94.01    3.58
   7   1   0   87.75    3.74
   7   1   0   94.10    3.56
  -8  -1   0   10.00    1.16
   8   1   0    9.92    1.86
   8  -2   0   -0.05    0.66
  -8   2   0   -1.16    0.56
   7  -2   0    1.50    0.37
   7  -2   0    1.78    0.53
   7  -2   0    0.64    0.76
  -7   2   0    2.44    0.67
   6  -2   0   15.58    0.98
   6  -2   0   16.15    1.19
   6  -2   0   15.40    0.79
   6  -2   0   13.93    1.29
   6  -2   0   16.28    0.89
   6  -2   0   16.39    0.85
   6  -2   0   15.57    1.03
  -6   2   0   15.36    0.91
  -6   2   0   15.27    1.17
   5  -2   0    0.37    0.17
   5  -2   0    0.40    0.22
   5  -2   0    0.09    0.26
   5  -2   0    0.32    0.24
   5  -2   0    0.31    0.38
   5  -2   0    0.17    0.31
   5  -2   0    0.31    0.28
  -5   2   0    0.31    0.34
  -5   2   0    0.70    0.26
   4  -2   0   54.46    2.13
   4  -2   0   56.94    2.12
   4  -2   0   54.86    2.22
   4  -2   0   54.51    2.15
   4  -2   0   54.03    2.36
   4  -2   0   55.38    2.23
   4  -2   0   55.24    2.10
   4  -2   0   56.76    2.22
  -4   2   0   55.52    2.36
  -4   2   0   56.45    2.16
   3  -2   0    0.32    0.16
   3  -2   0    0.51    0.13
   3  -2   0    0.78    0.18
   3  -2   0    0.81    0.20
   3  -2   0    0.35    0.14
   3  -2   0    0.46    0.15
   3  -2   0    0.47    0.12
   3  -2   0    0.62    0.23
   3  -2   0    0.47    0.17
   3  -2   0    0.69    0.17
  -3   2   0    0.32    0.19
  -3   2   0    0.54    0.22
  -3   2   0    0.80    0.20
  -3   2   0    0.37    0.15
  -3   2   0    0.23    0.17
  -3   2   0    0.44    0.14
   2  -2   0   69.05    2.66
   2  -2   0   68.64    2.59
   2  -2   0   65.83    2.55
   2  -2   0   69.73    2.54
   2  -2   0   67.61    2.53
   2  -2   0   66.18    2.53
   2  -2   0   68.08    2.58
   2  -2   0   69.69    2.53
  -2   2   0   65.55    2.55
  -2   2   0   71.27    2.50
  -2   2   0   69.47    2.51
  -2   2   0   65.59    2.64
  -2   2   0   70.49    2.54
  -2   2   0   67.63    2.57
  -2   2   0   67.22    2.53
  -2   2   0   69.50    2.59
   1  -2   0    0.64    0.13
   1  -2   0    0.47    0.13
   1  -2   0    0.49    0.12
   1  -2   0    0.60    0.11
   1  -2   0    0.59    0.13
   1  -2   0    0.56    0.12
   1  -2   0    0.55    0.13
  -1   2   0    0.69    0.14
  -1   2   0    0.55    0.12
  -1   2   0    0.62    0.13
  -1   2   0    0.60    0.13
  -1   2   0    0.64    0.11
  -1   2   0    0.72    0.14
   0  -2   0    3.42    0.23
   0  -2   0    3.57    0.21
   0  -2   0    3.45    0.22
   0  -2   0    3.50    0.21
   0  -2   0    3.45    0.22
   0   2   0    3.58    0.23
   0   2   0    3.57    0.22
   0   2   0    3.77    0.22
   0   2   0    3.95    0.21
  -1  -2   0    0.22    0.09
  -1  -2   0    0.29    0.08
  -1  -2   0    0.29    0.08
  -1  -2   0    0.18    0.08
  -1  -2   0    0.26    0.10
  -1  -2   0    0.33    0.11
   1   2   0    0.25    0.08
   1   2   0    0.30    0.10
   1   2   0    0.43    0.10
   1   2   0    0.41    0.09
   1   2   0    0.28    0.09
   1   2   0    0.31    0.10
  -2  -2   0  452.12   16.61
  -2  -2   0  446.70   16.59
  -2  -2   0  472.15   16.58
  -2  -2   0  454.23   16.53
   2   2   0  448.12   16.58
   2   2   0  482.09   16.61
   2   2   0  474.09   16.54
   2   2   0  450.75   16.61
   2   2   0  468.50   16.60
  -3  -2   0    0.61    0.19
  -3  -2   0    0.47    0.16
  -3  -2   0    0.14    0.14
  -3  -2   0    0.11    0.12
   3   2   0    0.39    0.18
   3   2   0    0.09    0.13
   3   2   0    0.06    0.20
   3   2   0    0.17    0.14
   3   2   0    0.24    0.16
   3   2   0    0.26    0.12
  -4  -2   0  590.35   20.62
  -4  -2   0  569.26   20.74
  -4  -2   0  579.55   20.68
   4   2   0  573.13   20.64
   4   2   0  566.26   20.71
   4   2   0  573.21   20.85
   4   2   0  583.30   20.76
   4   2   0  574.28   20.71
   4   2   0  556.87   20.68
  -5  -2   0    5.83    0.51
  -5  -2   0    5.37    0.54
   5   2   0    5.97    0.67
   5   2   0    5.87    0.82
   5   2   0    5.98    0.55
   5   2   0    5.23    0.67
  -6  -2   0  175.01    6.46
  -6  -2   0  172.35    6.56
   6   2   0  170.58    6.61
   6   2   0  180.53    6.53
   6   2   0  172.32    6.47
   6   2   0  166.32    6.45
   6   2   0  173.95    6.57
  -7  -2   0   11.40    0.94
  -7  -2   0   11.15    1.00
   7   2   0   13.06    1.34
   7   2   0   10.92    1.12
  -8  -2   0   35.99    1.93
   8   2   0   32.72    1.91
   8  -3   0    4.90    0.94
   7  -3   0   42.95    1.88
   7  -3   0   45.53    2.14
   7  -3   0   44.76    1.93
  -7   3   0   45.17    1.99
  -7   3   0   41.56    2.35
   6  -3   0    1.75    0.36
   6  -3   0    2.62    0.52
   6  -3   0    1.43    0.74
   6  -3   0    0.67    0.52
   6  -3   0    2.15    0.44
  -6   3   0    2.11    0.55
  -6   3   0    1.60    0.38
   5  -3   0    1.57    0.33
   5  -3   0    1.59    0.38
   5  -3   0    1.28    0.39
   5  -3   0    1.32    0.32
   5  -3   0    2.47    0.36
   5  -3   0    1.54    0.26
   5  -3   0    0.95    0.47
   5  -3   0    1.39    0.29
  -5   3   0    1.87    0.49
  -5   3   0    1.11    0.38
  -5   3   0    1.42    0.38
   4  -3   0    0.17    0.21
   4  -3   0    0.06    0.15
   4  -3   0    0.37    0.34
   4  -3   0    0.04    0.19
   4  -3   0    0.24    0.17
   4  -3   0    0.01    0.18
   4  -3   0    0.31    0.21
   4  -3   0   -0.20    0.22
   4  -3   0    0.27    0.15
  -4   3   0   -0.01    0.24
  -4   3   0   -0.38    0.26
  -4   3   0   -0.08    0.16
  -4   3   0    0.43    0.18
  -4   3   0    0.08    0.18
   3  -3   0  360.20   12.88
   3  -3   0  347.55   12.80
   3  -3   0  352.22   12.85
   3  -3   0  349.22   12.78
   3  -3   0  369.71   12.79
   3  -3   0  332.42   12.78
   3  -3   0  341.82   12.77
  -3   3   0  355.10   12.96
  -3   3   0  353.05   12.82
  -3   3   0  370.13   12.78
  -3   3   0  359.54   12.79
   2  -3   0   15.11    0.70
   2  -3   0   14.63    0.69
   2  -3   0   14.34    0.68
   2  -3   0   14.47    0.66
   2  -3   0   14.85    0.68
   2  -3   0   14.96    0.67
   2  -3   0   14.72    0.72
  -2   3   0   14.55    0.66
  -2   3   0   14.45    0.77
  -2   3   0   14.46    0.64
  -2   3   0   14.88    0.70
  -2   3   0   14.45    0.70
  -2   3   0   14.80    0.68
  -2   3   0   15.84    0.73
   1  -3   0  200.12    7.30
   1  -3   0  201.99    7.30
   1  -3   0  194.25    7.30
   1  -3   0  210.08    7.30
   1  -3   0  196.48    7.30
   1  -3   0  198.84    7.30
   1  -3   0  194.24    7.30
  -1   3   0  200.34    7.29
  -1   3   0  202.43    7.30
  -1   3   0  206.23    7.30
  -1   3   0  198.78    7.30
  -1   3   0  202.24    7.31
  -1   3   0  201.72    7.28
   0  -3   0    1.38    0.20
   0  -3   0    1.05    0.18
   0  -3   0    1.25    0.22
   0  -3   0    1.16    0.18
   0  -3   0    0.95    0.20
   0  -3   0    1.23    0.16
   0   3   0    1.33    0.16
   0   3   0    1.08    0.21
   0   3   0    1.36    0.20
   0   3   0    1.53    0.20
   0   3   0    1.40    0.20
   0   3   0    1.24    0.20
  -1  -3   0   26.34    1.07
  -1  -3   0   26.02    1.07
  -1  -3   0   24.59    1.02
  -1  -3   0   24.59    1.05
  -1  -3   0   23.44    1.02
  -1  -3   0   25.79    1.01
   1   3   0   26.26    1.06
   1   3   0   25.06    1.02
   1   3   0   25.76    1.04
   1   3   0   25.62    1.00
   1   3   0   25.93    1.06
   1   3   0   23.83    1.07
  -2  -3   0    0.17    0.13
  -2  -3   0    0.17    0.08
  -2  -3   0    0.22    0.14
  -2  -3   0    0.01    0.14
  -2  -3   0    0.05    0.10
  -2  -3   0    0.09    0.13
  -2  -3   0    0.11    0.11
   2   3   0    0.21    0.16
   2   3   0    0.14    0.15
   2   3   0    0.08    0.12
   2   3   0    0.12    0.12
   2   3   0    0.17    0.14
   2   3   0    0.18    0.12
  -3  -3   0    0.38    0.17
  -3  -3   0    0.17    0.13
  -3  -3   0    0.56    0.18
  -3  -3   0    0.16    0.16
  -3  -3   0    0.69    0.18
  -3  -3   0    0.33    0.22
  -3  -3   0    0.37    0.14
   3   3   0    0.74    0.25
   3   3   0    0.18    0.19
   3   3   0    0.28    0.16
   3   3   0    0.30    0.21
   3   3   0    0.18    0.16
   3   3   0    0.01    0.15
  -4  -3   0    7.26    0.48
  -4  -3   0    7.17    0.50
  -4  -3   0    5.72    0.57
  -4  -3   0    6.61    0.53
   4   3   0    7.23    0.47
   4   3   0    6.39    0.43
   4   3   0    5.98    0.57
   4   3   0    7.46    0.70
   4   3   0    6.56    0.59
   4   3   0    6.59    0.49
  -5  -3   0   50.96    2.09
  -5  -3   0   47.19    2.02
  -5  -3   0   52.96    2.01
  -5  -3   0   51.00    2.16
   5   3   0   52.55    2.38
   5   3   0   50.63    2.19
   5   3   0   52.87    2.04
   5   3   0   52.65    2.15
   5   3   0   50.92    2.03
   5   3   0   47.86    2.14
   5   3   0   50.55    2.08
  -6  -3   0    5.62    0.67
  -6  -3   0    5.53    0.69
   6   3   0    5.28    0.69
   6   3   0    5.31    0.82
   6   3   0    5.51    0.65
   6   3   0    5.50    0.82
  -7  -3   0   40.90    1.90
  -7  -3   0   41.39    2.02
   7   3   0   42.48    2.04
   7   3   0   41.16    2.02
   7   3   0   38.80    1.93
   7   3   0   40.76    2.15
  -8  -3   0    4.85    1.14
   8   3   0    5.30    0.90
   7  -4   0    2.98    0.87
   7  -4   0    5.35    1.03
   7  -4   0    2.49    0.70
  -7   4   0    2.56    0.71
  -7   4   0    2.89    0.80
   6  -4   0   12.39    1.01
   6  -4   0   11.68    1.30
   6  -4   0   14.35    0.88
   6  -4   0   12.66    0.85
   6  -4   0   13.28    0.82
  -6   4   0   12.31    1.14
  -6   4   0   13.46    0.82
  -6   4   0   12.00    1.00
   5  -4   0    4.76    0.51
   5  -4   0    5.47    0.53
   5  -4   0    5.07    0.64
   5  -4   0    5.29    0.48
   5  -4   0    4.96    0.52
   5  -4   0    4.65    0.54
  -5   4   0    5.37    0.49
  -5   4   0    4.28    0.70
  -5   4   0    4.86    0.78
  -5   4   0    4.66    0.52
   4  -4   0   23.80    1.14
   4  -4   0   23.58    1.11
   4  -4   0   25.93    1.12
   4  -4   0   25.14    1.20
   4  -4   0   25.35    1.11
   4  -4   0   25.88    1.24
   4  -4   0   23.42    1.11
  -4   4   0   23.07    1.18
  -4   4   0   24.15    1.35
  -4   4   0   26.50    1.13
  -4   4   0   26.15    1.11
   3  -4   0    9.27    0.62
   3  -4   0    9.85    0.57
   3  -4   0    9.53    0.57
   3  -4   0    9.24    0.57
   3  -4   0    9.65    0.54
   3  -4   0   10.01    0.61
   3  -4   0    9.92    0.57
  -3   4   0    9.68    0.57
  -3   4   0    9.71    0.52
  -3   4   0    9.54    0.59
  -3   4   0    9.64    0.71
  -3   4   0    9.37    0.50
  -3   4   0    9.27    0.61
  -3   4   0    8.03    0.62
   2  -4   0  153.56    5.75
   2  -4   0  160.89    5.77
   2  -4   0  161.13    5.75
   2  -4   0  150.26    5.74
   2  -4   0  155.67    5.79
   2  -4   0  158.07    5.75
   2  -4   0  150.07    5.75
  -2   4   0  151.78    5.76
  -2   4   0  156.78    5.76
  -2   4   0  151.81    5.85
  -2   4   0  161.82    5.75
  -2   4   0  162.96    5.71
  -2   4   0  156.02    5.76
  -2   4   0  148.73    5.73
   1  -4   0   30.64    1.28
   1  -4   0   30.12    1.26
   1  -4   0   29.91    1.27
   1  -4   0   31.29    1.28
   1  -4   0   30.84    1.26
   1  -4   0   29.29    1.26
   1  -4   0   29.73    1.27
  -1   4   0   29.42    1.27
  -1   4   0   29.17    1.28
  -1   4   0   30.90    1.25
  -1   4   0   30.48    1.27
  -1   4   0   30.17    1.27
  -1   4   0   32.78    1.26
   0  -4   0  452.16   16.57
   0  -4   0  462.33   16.55
   0  -4   0  472.06   16.55
   0  -4   0  457.16   16.57
   0  -4   0  442.05   16.51
   0  -4   0  452.74   16.57
   0   4   0  448.19   16.52
   0   4   0  467.95   16.54
   0   4   0  432.57   16.57
   0   4   0  478.16   16.59
   0   4   0  458.46   16.54
   0   4   0  479.35   16.57
  -1  -4   0    2.26    0.32
  -1  -4   0    2.14    0.31
  -1  -4   0    1.99    0.25
  -1  -4   0    2.12    0.31
  -1  -4   0    2.18    0.26
   1   4   0    2.23    0.23
   1   4   0    2.25    0.32
   1   4   0    2.17    0.30
   1   4   0    2.24    0.27
   1   4   0    2.03    0.28
   1   4   0    1.97    0.30
  -2  -4   0  402.74   15.49
  -2  -4   0  427.46   15.52
  -2  -4   0  434.17   15.48
  -2  -4   0  437.67   15.54
  -2  -4   0  416.51   15.54
  -2  -4   0  417.25   15.49
   2   4   0  461.23   15.56
   2   4   0  431.90   15.48
   2   4   0  429.99   15.47
   2   4   0  427.74   15.57
   2   4   0  438.34   15.50
   2   4   0  421.83   15.53
  -3  -4   0    0.07    0.16
  -3  -4   0    0.26    0.20
  -3  -4   0    0.10    0.21
  -3  -4   0   -0.01    0.20
  -3  -4   0   -0.25    0.24
  -3  -4   0    0.24    0.15
   3   4   0    0.58    0.25
   3   4   0    0.51    0.19
   3   4   0    0.00    0.23
   3   4   0    0.34    0.25
   3   4   0    0.21    0.19
   3   4   0    0.34    0.19
  -4  -4   0   19.41    1.00
  -4  -4   0   18.89    0.94
  -4  -4   0   18.54    1.09
  -4  -4   0   20.24    0.97
   4   4   0   18.31    1.05
   4   4   0   18.91    0.96
   4   4   0   19.22    0.95
   4   4   0   19.88    1.14
   4   4   0   22.04    1.06
  -5  -4   0    2.43    0.63
  -5  -4   0    2.24    0.50
  -5  -4   0    1.44    0.37
  -5  -4   0    2.14    0.47
   5   4   0    1.26    0.52
   5   4   0    1.77    0.33
   5   4   0    1.61    0.39
   5   4   0    1.75    0.46
   5   4   0    3.06    0.67
  -6  -4   0   31.05    1.47
  -6  -4   0   29.01    1.34
  -6  -4   0   28.29    1.52
   6   4   0   30.73    1.59
   6   4   0   29.89    1.36
   6   4   0   29.02    1.54
   6   4   0   28.75    1.54
  -7  -4   0    0.39    0.56
  -7  -4   0    2.13    0.59
   7   4   0    1.04    0.65
   7   4   0    1.77    0.77
   7   4   0    1.57    0.66
  -8  -4   0   49.65    2.49
   8   4   0   54.06    2.63
   7  -5   0  109.81    4.53
   7  -5   0  109.17    4.25
   7  -5   0  106.80    4.42
   7  -5   0  111.11    4.28
  -7   5   0  101.67    4.64
   6  -5   0   35.64    1.84
   6  -5   0   31.70    1.58
   6  -5   0   32.16    1.55
   6  -5   0   35.98    1.64
   6  -5   0   33.69    1.60
   6  -5   0   37.38    1.56
  -6   5   0   34.14    1.81
  -6   5   0   31.78    1.96
   5  -5   0  378.59   13.98
   5  -5   0  382.43   14.00
   5  -5   0  406.16   13.96
   5  -5   0  394.50   14.16
   5  -5   0  374.74   13.96
   5  -5   0  375.13   13.96
  -5   5   0  377.56   14.04
  -5   5   0  385.48   13.95
  -5   5   0  374.62   14.25
   4  -5   0    8.09    0.64
   4  -5   0    8.78    0.68
   4  -5   0    8.43    0.64
   4  -5   0    9.75    0.65
   4  -5   0   10.08    0.76
   4  -5   0    8.14    0.74
   4  -5   0    9.31    0.64
  -4   5   0    9.45    0.87
  -4   5   0    8.99    0.74
  -4   5   0    8.82    0.65
  -4   5   0    9.52    0.67
   3  -5   0  414.63   14.52
   3  -5   0  399.34   14.60
   3  -5   0  400.80   14.51
   3  -5   0  380.53   14.52
   3  -5   0  414.78   14.56
   3  -5   0  399.78   14.53
   3  -5   0  404.76   14.52
  -3   5   0  412.35   14.51
  -3   5   0  383.20   14.45
  -3   5   0  398.97   14.53
  -3   5   0  396.39   14.68
  -3   5   0  388.98   14.54
  -3   5   0  404.51   14.44
  -3   5   0  394.07   14.52
   2  -5   0    6.22    0.48
   2  -5   0    5.80    0.51
   2  -5   0    6.80    0.49
   2  -5   0    6.17    0.50
   2  -5   0    5.53    0.50
   2  -5   0    5.94    0.49
   2  -5   0    5.73    0.46
  -2   5   0    6.05    0.45
  -2   5   0    5.63    0.47
  -2   5   0    6.04    0.51
  -2   5   0    6.45    0.51
  -2   5   0    6.33    0.52
  -2   5   0    6.00    0.51
  -2   5   0    6.00    0.58
   1  -5   0   42.65    1.78
   1  -5   0   42.34    1.77
   1  -5   0   43.04    1.78
   1  -5   0   43.01    1.79
   1  -5   0   41.31    1.80
   1  -5   0   45.42    1.81
   1  -5   0   43.19    1.77
  -1   5   0   46.07    1.80
  -1   5   0   43.44    1.79
  -1   5   0   43.38    1.81
  -1   5   0   43.12    1.75
  -1   5   0   44.70    1.77
  -1   5   0   44.83    1.81
   0  -5   0    6.27    0.45
   0  -5   0    5.69    0.41
   0  -5   0    5.83    0.48
   0  -5   0    5.79    0.48
   0  -5   0    6.16    0.48
   0  -5   0    5.93    0.45
   0   5   0    6.53    0.46
   0   5   0    6.66    0.50
   0   5   0    5.91    0.42
   0   5   0    5.84    0.45
   0   5   0    6.61    0.50
   0   5   0    5.44    0.48
  -1  -5   0   52.56    2.11
  -1  -5   0   51.51    2.04
  -1  -5   0   52.69    2.17
  -1  -5   0   56.89    2.19
  -1  -5   0   55.57    2.14
  -1  -5   0   52.17    2.16
   1   5   0   54.53    2.20
   1   5   0   49.76    2.16
   1   5   0   53.08    2.13
   1   5   0   54.38    2.04
   1   5   0   54.12    2.11
   1   5   0   53.54    2.17
  -2  -5   0    7.26    0.50
  -2  -5   0    7.75    0.61
  -2  -5   0    7.29    0.60
  -2  -5   0    7.99    0.51
  -2  -5   0    7.34    0.59
   2   5   0    8.24    0.62
   2   5   0    8.20    0.53
   2   5   0    7.76    0.59
   2   5   0    7.17    0.54
   2   5   0    8.12    0.63
   2   5   0    7.71    0.51
  -3  -5   0   27.82    1.28
  -3  -5   0   27.54    1.27
  -3  -5   0   28.39    1.25
  -3  -5   0   27.16    1.13
  -3  -5   0   27.82    1.36
  -3  -5   0   27.95    1.21
   3   5   0   27.22    1.22
   3   5   0   29.17    1.30
   3   5   0   29.06    1.28
   3   5   0   28.72    1.37
   3   5   0   28.45    1.38
  -4  -5   0    5.91    0.60
  -4  -5   0    5.65    0.56
  -4  -5   0    6.22    0.46
  -4  -5   0    7.23    0.78
  -4  -5   0    6.12    0.51
   4   5   0    6.27    0.84
   4   5   0    5.54    0.67
   4   5   0    5.28    0.55
   4   5   0    6.16    0.55
   4   5   0    5.40    0.73
   4   5   0    7.01    0.64
  -5  -5   0   13.71    0.94
  -5  -5   0   14.97    0.90
  -5  -5   0   13.73    1.47
  -5  -5   0   13.73    0.87
   5   5   0   13.10    0.87
   5   5   0   13.63    0.81
   5   5   0   13.32    0.94
   5   5   0   15.08    1.27
   5   5   0   15.21    1.09
  -6  -5   0    2.95    0.59
  -6  -5   0    2.87    0.50
  -6  -5   0    3.46    0.57
  -6  -5   0    2.35    0.59
   6   5   0    3.16    0.67
   6   5   0    1.48    0.67
   6   5   0    2.86    0.68
   6   5   0    3.79    1.08
   6   5   0    3.28    0.64
  -7  -5   0   13.10    1.21
   7   5   0   12.46    1.30
   7   5   0   11.29    1.65
   7   5   0   11.76    1.38
   7   5   0   13.04    0.98
   7  -6   0   12.24    1.59
   7  -6   0   15.86    1.27
   7  -6   0   16.14    1.31
  -7   6   0   16.32    1.66
   6  -6   0    0.12    0.49
   6  -6   0    0.18    0.41
   6  -6   0   -0.70    0.42
   6  -6   0    0.00    0.60
   6  -6   0    1.14    0.54
   6  -6   0    0.40    0.41
  -6   6   0    0.95    0.71
  -6   6   0   -1.39    0.68
  -6   6   0   -0.20    0.45
   5  -6   0    2.50    0.67
   5  -6   0    2.14    0.56
   5  -6   0    2.45    0.62
   5  -6   0    2.52    0.47
   5  -6   0    3.03    0.64
   5  -6   0    2.45    0.59
   5  -6   0    2.72    0.62
  -5   6   0    2.66    0.68
  -5   6   0    2.59    0.73
  -5   6   0    2.99    0.68
  -5   6   0    1.87    0.60
   4  -6   0    4.22    0.57
   4  -6   0    4.49    0.62
   4  -6   0    4.21    0.69
   4  -6   0    5.16    0.60
   4  -6   0    3.73    0.70
   4  -6   0    4.43    0.59
   4  -6   0    3.88    0.57
  -4   6   0    2.95    0.79
  -4   6   0    3.01    0.61
  -4   6   0    3.19    0.72
   3  -6   0    4.60    0.55
   3  -6   0    3.56    0.48
   3  -6   0    4.70    0.61
   3  -6   0    4.54    0.58
   3  -6   0    4.49    0.53
   3  -6   0    3.64    0.53
   3  -6   0    3.77    0.52
  -3   6   0    4.64    0.56
  -3   6   0    3.65    0.55
  -3   6   0    3.00    0.60
  -3   6   0    4.46    0.72
  -3   6   0    4.18    0.47
  -3   6   0    4.83    0.66
  -3   6   0    3.58    0.52
   2  -6   0    2.36    0.48
   2  -6   0    1.99    0.45
   2  -6   0    3.07    0.50
   2  -6   0    2.63    0.44
   2  -6   0    2.46    0.42
   2  -6   0    2.10    0.42
   2  -6   0    1.79    0.45
  -2   6   0    2.33    0.52
  -2   6   0    2.97    0.49
  -2   6   0    2.28    0.48
  -2   6   0    3.86    0.52
  -2   6   0    3.29    0.44
  -2   6   0    1.82    0.41
   1  -6   0    1.02    0.28
   1  -6   0    0.86    0.29
   1  -6   0    0.93    0.27
   1  -6   0    1.14    0.29
   1  -6   0    1.14    0.27
   1  -6   0    0.89    0.27
  -1   6   0    1.13    0.28
  -1   6   0    0.83    0.28
  -1   6   0    1.00    0.30
  -1   6   0    0.87    0.26
  -1   6   0    0.94    0.25
  -1   6   0    1.06    0.31
   0  -6   0    9.76    0.63
   0  -6   0   10.20    0.64
   0  -6   0    9.24    0.59
   0  -6   0    8.80    0.66
   0  -6   0    8.98    0.67
   0  -6   0    9.25    0.69
   0   6   0    9.86    0.59
   0   6   0   10.80    0.67
   0   6   0    9.63    0.65
   0   6   0   11.17    0.72
   0   6   0    9.42    0.68
   0   6   0    9.97    0.70
  -1  -6   0    3.29    0.43
  -1  -6   0    2.73    0.35
  -1  -6   0    4.27    0.54
  -1  -6   0    2.77    0.49
  -1  -6   0    3.16    0.41
  -1  -6   0    3.59    0.51
   1   6   0    3.41    0.52
   1   6   0    3.76    0.39
   1   6   0    2.79    0.45
   1   6   0    2.42    0.46
   1   6   0    3.57    0.35
   1   6   0    3.09    0.45
   1   6   0    2.96    0.51
  -2  -6   0  241.94    9.51
  -2  -6   0  269.31    9.56
  -2  -6   0  249.49    9.45
  -2  -6   0  243.88    9.46
  -2  -6   0  265.60    9.57
   2   6   0  257.67    9.55
   2   6   0  261.21    9.46
   2   6   0  258.81    9.56
   2   6   0  257.92    9.49
   2   6   0  264.01    9.60
   2   6   0  268.47    9.42
  -3  -6   0    0.14    0.31
  -3  -6   0   -0.06    0.28
  -3  -6   0    0.81    0.39
  -3  -6   0    0.21    0.24
  -3  -6   0    0.58    0.29
  -3  -6   0    0.38    0.17
   3   6   0    0.27    0.27
   3   6   0   -0.19    0.31
   3   6   0    0.04    0.30
   3   6   0    1.16    0.42
   3   6   0    0.71    0.39
   3   6   0    0.20    0.30
  -4  -6   0  420.35   15.10
  -4  -6   0  411.97   15.06
  -4  -6   0  406.83   15.15
  -4  -6   0  398.47   15.16
   4   6   0  425.39   15.18
   4   6   0  426.74   15.18
   4   6   0  419.11   15.31
   4   6   0  417.39   15.20
   4   6   0  422.65   15.09
   4   6   0  408.76   15.29
  -5  -6   0    1.99    0.44
  -5  -6   0    1.80    0.46
   5   6   0    1.72    0.71
   5   6   0    1.79    0.51
   5   6   0    1.55    0.45
   5   6   0    1.80    0.42
   5   6   0    2.15    0.62
  -6  -6   0  298.80   10.64
  -6  -6   0  297.66   10.56
   6   6   0  290.12   10.60
   6   6   0  267.21   10.65
   6   6   0  294.88   10.79
   6   6   0  267.08   10.83
  -7  -6   0    3.39    0.82
   7   6   0    1.44    1.04
   7   6   0    3.49    0.89
   7   6   0    2.89    0.57
   6  -7   0    3.09    0.74
   6  -7   0    2.70    0.86
   6  -7   0    2.93    0.60
   6  -7   0    2.88    0.63
   6  -7   0    3.57    0.74
  -6   7   0    3.65    0.96
  -6   7   0    3.51    0.97
   5  -7   0   18.23    1.19
   5  -7   0   17.73    1.18
   5  -7   0   16.01    1.32
   5  -7   0   17.71    1.17
   5  -7   0   18.62    1.23
   5  -7   0   19.38    1.24
  -5   7   0   17.60    1.21
  -5   7   0   16.77    1.53
   4  -7   0   16.73    1.22
   4  -7   0   17.68    1.10
   4  -7   0   16.51    1.08
   4  -7   0   16.98    1.08
   4  -7   0   15.05    1.05
   4  -7   0   16.10    1.09
  -4   7   0   16.97    0.94
  -4   7   0   16.45    1.29
  -4   7   0   16.63    1.11
  -4   7   0   18.19    0.95
   3  -7   0  173.05    6.55
   3  -7   0  168.50    6.56
   3  -7   0  179.12    6.59
   3  -7   0  180.83    6.65
   3  -7   0  172.24    6.58
   3  -7   0  166.84    6.53
   3  -7   0  170.38    6.56
  -3   7   0  155.65    6.68
  -3   7   0  178.99    6.56
  -3   7   0  176.10    6.55
  -3   7   0  173.93    6.58
  -3   7   0  180.80    6.47
  -3   7   0  176.98    6.59
  -3   7   0  171.67    6.50
   2  -7   0   13.15    0.91
   2  -7   0   13.90    0.89
   2  -7   0   13.65    0.90
   2  -7   0   14.39    0.90
   2  -7   0   12.65    0.88
   2  -7   0   13.77    0.86
   2  -7   0   14.60    0.95
  -2   7   0   13.72    0.95
  -2   7   0   12.77    0.91
  -2   7   0   14.65    0.94
  -2   7   0   13.95    0.85
  -2   7   0   13.13    0.95
  -2   7   0   13.32    0.83
   1  -7   0  597.60   21.86
   1  -7   0  595.75   21.84
   1  -7   0  573.21   21.85
   1  -7   0  603.48   21.82
   1  -7   0  562.98   21.82
   1  -7   0  589.54   21.88
  -1   7   0  627.58   21.89
  -1   7   0  637.87   21.82
  -1   7   0  625.94   21.87
  -1   7   0  598.30   21.79
  -1   7   0  593.33   21.89
  -1   7   0  622.05   21.83
   0  -7   0    5.44    0.67
   0  -7   0    6.95    0.67
   0  -7   0    5.98    0.58
   0  -7   0    6.24    0.57
   0  -7   0    6.89    0.60
   0  -7   0    5.76    0.70
   0   7   0    6.58    0.63
   0   7   0    7.69    0.73
   0   7   0    6.94    0.56
   0   7   0    8.52    0.74
   0   7   0    7.47    0.66
   0   7   0    5.84    0.69
  -1  -7   0  281.29   10.34
  -1  -7   0  270.04   10.32
  -1  -7   0  276.77   10.16
  -1  -7   0  263.97   10.31
  -1  -7   0  280.22   10.26
  -1  -7   0  269.76   10.26
   1   7   0  289.84   10.39
   1   7   0  286.52   10.28
   1   7   0  276.23   10.35
   1   7   0  282.08   10.34
   1   7   0  285.58   10.25
   1   7   0  282.52   10.22
  -2  -7   0    1.11    0.41
  -2  -7   0    2.10    0.58
  -2  -7   0    0.77    0.32
  -2  -7   0    1.20    0.32
  -2  -7   0    0.40    0.37
   2   7   0    0.63    0.40
   2   7   0    0.54    0.34
   2   7   0    1.12    0.38
   2   7   0    0.54    0.40
   2   7   0    0.53    0.33
   2   7   0    1.51    0.38
  -3  -7   0   92.91    3.64
  -3  -7   0   94.57    3.47
  -3  -7   0   89.38    3.69
  -3  -7   0   96.00    3.73
  -3  -7   0   90.71    3.60
  -3  -7   0   87.90    3.76
   3   7   0   93.45    3.80
   3   7   0   84.81    3.77
   3   7   0   96.98    3.63
   3   7   0   91.56    3.73
   3   7   0   92.46    3.68
   3   7   0   98.29    3.61
  -4  -7   0    8.09    0.72
  -4  -7   0    8.29    1.13
  -4  -7   0   10.16    0.88
  -4  -7   0    8.93    0.81
   4   7   0    8.78    0.94
   4   7   0    8.94    1.14
   4   7   0    9.12    0.85
   4   7   0   10.02    0.90
   4   7   0    8.69    0.84
   4   7   0    9.43    1.04
  -5  -7   0    0.98    0.49
  -5  -7   0    1.06    0.36
  -5  -7   0   -0.35    0.40
  -5  -7   0    1.02    0.49
   5   7   0    0.65    0.48
   5   7   0    0.80    0.67
   5   7   0   -0.48    0.75
   5   7   0    0.75    0.59
   5   7   0   -0.01    0.59
   5   7   0    1.33    0.45
  -6  -7   0   13.87    1.28
   6   7   0   16.62    1.58
   6   7   0   14.09    1.62
   6   7   0   15.36    1.17
  -7  -7   0    5.12    1.02
   7   7   0    6.11    1.15
   7   7   0    9.04    1.72
   6  -8   0  103.08    4.18
   6  -8   0  105.72    4.23
   6  -8   0   83.27    4.48
  -6   8   0  106.30    4.60
   5  -8   0   11.31    1.32
   5  -8   0   12.99    1.17
   5  -8   0   11.13    1.21
   5  -8   0   13.25    1.18
  -5   8   0   11.02    1.56
   4  -8   0   43.33    2.06
   4  -8   0   42.89    2.01
   4  -8   0   44.30    2.20
   4  -8   0   39.90    2.01
   4  -8   0   37.11    2.00
   4  -8   0   43.63    2.00
   4  -8   0   38.63    2.08
  -4   8   0   39.45    2.14
  -4   8   0   39.72    1.84
  -4   8   0   42.85    1.84
  -4   8   0   39.93    2.07
  -4   8   0   41.49    2.30
   3  -8   0    4.13    0.77
   3  -8   0    3.69    0.80
   3  -8   0    4.60    0.82
   3  -8   0    3.81    0.84
   3  -8   0    4.45    0.75
   3  -8   0    4.87    0.88
  -3   8   0    5.32    0.91
  -3   8   0    5.12    0.77
  -3   8   0    4.69    0.97
  -3   8   0    4.50    0.72
  -3   8   0    5.29    0.81
  -3   8   0    4.58    0.86
   2  -8   0   -0.17    0.42
   2  -8   0    0.09    0.42
   2  -8   0    0.38    0.40
   2  -8   0    0.92    0.42
   2  -8   0    0.53    0.46
   2  -8   0    0.83    0.41
  -2   8   0    0.36    0.42
  -2   8   0    0.71    0.45
  -2   8   0    1.20    0.46
  -2   8   0    0.81    0.38
  -2   8   0    0.77    0.40
   1  -8   0    0.67    0.51
   1  -8   0    1.61    0.46
   1  -8   0    0.25    0.36
   1  -8   0    0.83    0.37
   1  -8   0    0.91    0.41
   1  -8   0    1.05    0.42
  -1   8   0    0.64    0.40
  -1   8   0    1.06    0.46
  -1   8   0    1.10    0.35
  -1   8   0    1.00    0.46
  -1   8   0    0.62    0.44
   0  -8   0    4.38    0.81
   0  -8   0    3.72    0.74
   0  -8   0    3.85    0.61
   0  -8   0    5.16    0.63
   0  -8   0    5.74    0.63
   0   8   0    3.83    0.77
   0   8   0    4.45    0.59
   0   8   0    3.94    0.68
   0   8   0    4.31    0.78
   0   8   0    4.63    0.82
  -1  -8   0    4.42    0.80
  -1  -8   0    5.11    0.83
  -1  -8   0    6.15    0.85
  -1  -8   0    5.17    0.64
  -1  -8   0    4.08    0.63
  -1  -8   0    4.27    0.56
   1   8   0    4.51    0.76
   1   8   0    3.51    0.76
   1   8   0    4.32    0.82
   1   8   0    4.11    0.60
   1   8   0    3.32    0.80
  -2  -8   0   22.76    1.22
  -2  -8   0   28.49    1.49
  -2  -8   0   22.60    1.42
  -2  -8   0   22.42    1.37
  -2  -8   0   23.76    1.24
   2   8   0   21.82    1.19
   2   8   0   24.47    1.15
   2   8   0   21.25    1.37
   2   8   0   23.39    1.28
   2   8   0   22.74    1.48
   2   8   0   23.46    1.43
  -3  -8   0   10.19    0.83
  -3  -8   0    9.41    1.17
  -3  -8   0    9.95    1.11
  -3  -8   0   11.59    0.87
  -3  -8   0   11.43    1.04
   3   8   0   12.83    0.90
   3   8   0   11.60    1.06
   3   8   0    9.34    1.06
   3   8   0    9.69    0.93
   3   8   0   10.60    1.20
   3   8   0    9.76    0.95
  -4  -8   0    2.20    0.54
  -4  -8   0    1.76    0.47
  -4  -8   0    2.30    0.59
  -4  -8   0    1.16    0.73
   4   8   0    2.06    0.53
   4   8   0    1.61    0.66
   4   8   0    2.48    0.61
   4   8   0    2.33    0.75
   4   8   0    1.95    0.68
  -5  -8   0    2.99    0.68
  -5  -8   0    2.19    0.50
  -5  -8   0    2.59    0.62
  -5  -8   0    3.97    1.09
   5   8   0    2.08    0.58
   5   8   0    1.66    1.01
   5   8   0    2.76    0.82
   5   8   0    2.19    0.74
  -6  -8   0   82.67    3.47
   6   8   0   79.11    3.44
   6   8   0   77.23    3.71
   5  -9   0   55.70    2.66
   5  -9   0   49.49    2.81
   5  -9   0   46.22    2.56
   5  -9   0   53.50    2.62
  -5   9   0   54.38    2.99
   4  -9   0    5.19    1.16
   4  -9   0    4.94    1.25
   4  -9   0    4.55    0.82
   4  -9   0    6.00    1.05
  -4   9   0    8.61    1.59
  -4   9   0    4.47    1.02
  -4   9   0    2.65    0.89
  -4   9   0    4.72    0.92
   3  -9   0   68.96    3.03
   3  -9   0   67.27    2.93
   3  -9   0   64.66    2.91
   3  -9   0   66.04    2.92
   3  -9   0   61.70    2.95
  -3   9   0   64.15    3.10
  -3   9   0   61.17    2.94
  -3   9   0   66.25    2.80
  -3   9   0   67.94    2.84
  -3   9   0   65.88    2.86
   2  -9   0    1.99    0.62
   2  -9   0    1.71    0.54
   2  -9   0    1.56    0.57
   2  -9   0    2.40    0.66
   2  -9   0    1.76    0.62
   2  -9   0    1.72    0.55
  -2   9   0    1.45    0.47
  -2   9   0    1.04    0.69
  -2   9   0    0.57    0.56
  -2   9   0    1.29    0.71
  -2   9   0    1.21    0.61
   1  -9   0   -0.13    0.47
   1  -9   0   -0.20    0.49
   1  -9   0    0.19    0.59
   1  -9   0    0.47    0.47
   1  -9   0    0.62    0.43
  -1   9   0    1.28    0.46
  -1   9   0    0.37    0.62
  -1   9   0    0.03    0.54
   0  -9   0    1.57    0.46
   0  -9   0    1.65    0.48
   0  -9   0    1.79    0.59
   0  -9   0    0.72    0.45
   0  -9   0    1.38    0.55
   0   9   0    1.31    0.58
   0   9   0    1.17    0.58
   0   9   0    1.99    0.62
   0   9   0    1.39    0.41
   0   9   0    0.27    0.72
  -1  -9   0  114.89    4.57
  -1  -9   0  111.62    4.57
  -1  -9   0  112.31    4.43
  -1  -9   0  113.42    4.31
  -1  -9   0  107.13    4.44
   1   9   0  107.96    4.58
   1   9   0  110.94    4.58
   1   9   0  111.08    4.46
   1   9   0  114.34    4.36
   1   9   0  115.45    4.60
  -2  -9   0    2.46    0.70
  -2  -9   0    3.19    0.75
  -2  -9   0    3.96    1.02
  -2  -9   0    3.50    0.76
   2   9   0    1.98    0.66
   2   9   0    2.44    0.50
   2   9   0    1.79    0.61
   2   9   0    4.23    1.06
   2   9   0    3.03    0.75
  -3  -9   0  177.16    6.44
  -3  -9   0  173.21    6.44
  -3  -9   0  156.47    6.62
  -3  -9   0  167.61    6.54
   3   9   0  177.02    6.36
   3   9   0  162.49    6.35
   3   9   0  172.48    6.46
   3   9   0  162.97    6.56
   3   9   0  160.26    6.65
   3   9   0  167.73    6.64
  -4  -9   0    7.75    0.97
  -4  -9   0    7.50    1.20
  -4  -9   0    6.94    1.01
   4   9   0    6.33    1.16
   4   9   0    7.79    1.32
   4   9   0    4.82    1.06
   4   9   0    8.75    1.45
   4   9   0    5.68    1.11
  -5  -9   0   75.14    2.91
  -5  -9   0   71.21    3.09
  -5  -9   0   67.16    3.09
   5   9   0   65.68    3.12
   5   9   0   68.44    3.37
   5   9   0   65.44    3.12
   4 -10   0   45.69    2.57
   4 -10   0   46.09    2.54
   4 -10   0   48.89    2.54
   4 -10   0   46.81    2.65
  -4  10   0   44.44    2.24
  -4  10   0   45.33    2.88
   3 -10   0    0.42    0.69
   3 -10   0    2.00    0.88
   3 -10   0   -0.19    0.74
   3 -10   0    2.18    0.78
  -3  10   0    0.86    0.78
  -3  10   0    2.04    0.77
  -3  10   0    0.47    0.70
  -3  10   0    3.08    1.00
  -3  10   0    0.79    0.63
   2 -10   0   38.01    2.06
   2 -10   0   36.59    2.04
   2 -10   0   36.73    2.14
   2 -10   0   37.60    2.18
   2 -10   0   38.34    2.04
  -2  10   0   35.16    2.07
  -2  10   0   31.75    1.95
  -2  10   0   39.04    1.90
   1 -10   0    6.79    1.04
   1 -10   0    5.44    1.26
   1 -10   0    5.37    1.03
   1 -10   0    6.13    1.06
   1 -10   0    3.39    0.80
  -1  10   0    5.40    1.39
  -1  10   0    8.56    1.35
  -1  10   0    5.13    0.91
  -1  10   0    3.93    0.81
   0 -10   0    9.63    1.09
   0 -10   0    6.09    1.31
   0 -10   0    9.91    1.40
   0 -10   0    7.66    1.01
   0 -10   0   10.72    1.09
   0  10   0   10.86    1.31
   0  10   0    8.77    1.39
   0  10   0   10.37    1.52
   0  10   0    9.44    0.96
  -1 -10   0    1.24    0.77
  -1 -10   0    1.40    0.72
  -1 -10   0   -0.08    0.52
  -1 -10   0    0.20    0.53
  -1 -10   0   -0.80    0.51
   1  10   0    1.00    0.51
   1  10   0   -0.76    0.66
   1  10   0    0.25    0.89
   1  10   0    0.04    0.64
  -2 -10   0    8.12    1.59
  -2 -10   0    7.56    1.29
  -2 -10   0    9.47    1.05
  -2 -10   0    7.28    1.04
   2  10   0    5.71    1.56
   2  10   0    7.03    0.92
   2  10   0    5.42    1.26
   2  10   0    6.82    1.34
  -3 -10   0    3.55    0.72
  -3 -10   0    3.70    1.02
  -3 -10   0    2.69    0.84
   3  10   0    2.33    0.74
   3  10   0    6.48    1.74
   3  10   0    2.38    0.63
   3  10   0    1.78    0.75
   3  10   0    3.52    0.98
  -4 -10   0   73.54    3.08
  -4 -10   0   59.45    3.22
  -4 -10   0   77.43    3.02
   4  10   0   60.70    3.01
   4  10   0   71.49    3.25
   4  10   0   65.68    3.40
   4  10   0   66.99    2.97
  -5 -10   0    9.69    1.26
   5  10   0    7.83    1.39
   5  10   0    5.55    1.57
   3 -11   0   46.00    3.05
   2 -11   0   15.48    1.88
   2 -11   0   13.50    1.68
   2 -11   0   12.33    1.61
   2 -11   0   13.36    1.61
  -2  11   0   15.17    1.39
  -2  11   0    9.84    1.73
   1 -11   0  163.77    6.95
   1 -11   0  166.46    6.76
   1 -11   0  175.57    7.24
   1 -11   0  164.40    6.80
   1 -11   0  177.26    6.74
  -1  11   0  168.60    6.91
  -1  11   0  174.65    6.62
  -1  11   0  181.66    7.06
   0 -11   0   14.93    1.35
   0 -11   0   15.80    1.81
   0 -11   0   14.94    1.51
   0 -11   0   13.19    1.43
   0 -11   0   14.20    2.01
   0  11   0   12.82    1.88
   0  11   0   14.04    1.76
   0  11   0   12.91    1.26
  -1 -11   0  156.83    5.78
  -1 -11   0  150.85    5.95
  -1 -11   0  153.84    5.99
  -1 -11   0  158.81    6.20
   1  11   0  153.40    5.79
   1  11   0  140.38    6.18
   1  11   0  137.83    6.21
   1  11   0  142.20    6.16
  -2 -11   0    0.40    0.75
  -2 -11   0    1.94    0.78
  -2 -11   0    2.22    1.00
   2  11   0    1.79    1.27
   2  11   0    0.38    0.91
   2  11   0    1.31    0.63
   2  11   0   -0.64    0.92
  -3 -11   0   16.25    1.58
  -3 -11   0   20.49    1.88
  -3 -11   0   18.90    1.56
   3  11   0   15.19    2.07
   3  11   0   14.33    1.93
   3  11  -1    4.48    0.95
   3  11  -1    4.52    1.29
   3  11  -1    7.37    1.77
  -3 -11   1    5.79    1.46
  -3 -11   1    7.03    1.32
   2  11  -1   99.63    5.49
   2  11  -1  103.58    4.33
   2  11  -1  101.63    4.69
   2  11  -1   98.31    4.70
  -2 -11   1  108.05    4.40
  -2 -11   1  108.76    4.45
  -2 -11   1  112.57    4.74
   1  11  -1   18.64    1.87
   1  11  -1   17.32    2.21
   1  11  -1   15.26    1.96
   1  11  -1   16.65    1.52
  -1 -11   1   17.55    1.39
  -1 -11   1   21.92    1.66
  -1 -11   1   20.07    1.58
  -1 -11   1   16.94    1.98
   0  11  -1   77.55    3.79
   0  11  -1   81.86    3.52
   0  11  -1   82.80    3.97
   0 -11   1   83.56    3.96
   0 -11   1   80.61    3.61
   0 -11   1   79.97    3.67
   0 -11   1   82.47    3.52
   0 -11   1   85.40    3.90
  -1  11  -1    9.22    1.88
  -1  11  -1   12.57    1.36
  -1  11  -1    8.51    1.74
   1 -11   1   11.85    1.47
   1 -11   1    9.93    1.46
   1 -11   1    8.19    1.50
   1 -11   1    7.91    1.84
   1 -11   1   11.79    3.35
  -2  11  -1   30.87    2.13
  -2  11  -1   29.26    1.96
   2 -11   1   29.67    2.11
   2 -11   1   27.47    2.33
   2 -11   1   32.80    2.17
   2 -11   1   31.82    2.16
  -3  11  -1   -0.86    0.85
  -3  11  -1    1.67    0.90
  -3  11  -1    1.10    1.14
   3 -11   1    0.39    0.98
   3 -11   1   -0.10    0.92
   3 -11   1   -0.31    1.02
   3 -11   1    1.07    1.20
   4  10  -1    2.03    1.04
   4  10  -1    1.69    0.86
  -4 -10   1    1.75    0.81
  -4 -10   1    1.93    0.73
   3  10  -1   22.03    2.25
   3  10  -1   21.41    1.97
   3  10  -1   23.76    1.56
   3  10  -1   22.30    1.83
  -3 -10   1   29.22    1.94
  -3 -10   1   24.06    1.57
  -3 -10   1   24.11    1.58
   2  10  -1    2.77    0.99
   2  10  -1    3.47    0.98
   2  10  -1    2.65    0.79
   2  10  -1    3.31    0.91
  -2 -10   1    2.97    0.73
  -2 -10   1    2.79    0.95
  -2 -10   1    1.04    0.82
  -2 -10   1    2.10    0.62
   1  10  -1    3.48    0.92
   1  10  -1    1.06    0.77
   1  10  -1    1.23    0.75
   1  10  -1    0.72    0.90
  -1 -10   1    2.23    0.76
  -1 -10   1    0.86    0.62
  -1 -10   1    1.74    0.59
  -1 -10   1    0.63    0.77
  -1 -10   1    1.03    0.59
   0  10  -1    1.32    0.77
   0  10  -1    3.06    0.82
   0  10  -1    2.92    0.94
   0  10  -1    2.85    0.63
   0 -10   1    2.99    0.70
   0 -10   1    2.29    0.78
   0 -10   1    2.44    0.66
   0 -10   1    3.03    0.84
   0 -10   1    3.42    0.93
  -1  10  -1    2.00    0.79
  -1  10  -1    2.16    0.75
  -1  10  -1    2.26    0.62
  -1  10  -1    2.23    0.93
   1 -10   1    3.39    0.88
   1 -10   1    1.12    0.74
   1 -10   1    3.06    0.78
   1 -10   1    2.77    0.68
   1 -10   1    2.56    0.70
  -2  10  -1    1.30    0.77
  -2  10  -1    0.31    0.60
  -2  10  -1    1.28    0.69
  -2  10  -1    1.28    0.70
   2 -10   1    0.41    0.67
   2 -10   1   -0.06    0.74
   2 -10   1    0.93    0.72
   2 -10   1   -0.13    0.76
   2 -10   1   -1.05    0.63
  -3  10  -1   29.00    2.13
  -3  10  -1   34.96    1.94
  -3  10  -1   33.54    2.25
  -3  10  -1   32.67    1.94
   3 -10   1   30.82    2.02
   3 -10   1   31.90    2.11
   3 -10   1   35.17    2.09
   3 -10   1   35.94    2.18
  -4  10  -1    2.90    0.85
  -4  10  -1    3.49    1.19
  -4  10  -1    6.85    1.17
   4 -10   1    2.88    0.93
   4 -10   1    6.55    1.77
   4 -10   1    3.24    0.98
   4 -10   1    4.44    0.99
   5   9  -1    2.98    0.83
   5   9  -1    3.48    0.92
   5   9  -1    3.10    1.06
  -5  -9   1    6.66    1.20
  -5  -9   1    6.68    1.02
   4   9  -1   -0.15    0.72
   4   9  -1   -0.87    0.59
   4   9  -1    0.87    0.76
   4   9  -1   -0.61    0.75
   4   9  -1    1.50    1.06
  -4  -9   1   -0.31    0.53
  -4  -9   1    0.49    0.62
  -4  -9   1    1.05    0.68
   3   9  -1    1.62    0.81
   3   9  -1    0.44    0.59
   3   9  -1    0.56    0.70
   3   9  -1    0.39    0.59
   3   9  -1    0.23    0.66
  -3  -9   1    0.48    0.77
  -3  -9   1    1.25    0.54
  -3  -9   1    1.70    0.59
  -3  -9   1    0.37    0.62
  -3  -9   1   -0.24    0.81
   2   9  -1   62.93    2.68
   2   9  -1   65.87    2.93
   2   9  -1   62.63    2.77
   2   9  -1   64.19    2.97
   2   9  -1   63.74    2.55
   2   9  -1   64.23    2.96
  -2  -9   1   61.93    2.89
  -2  -9   1   61.62    2.67
  -2  -9   1   63.42    2.73
  -2  -9   1   61.10    2.95
  -2  -9   1   58.61    2.94
   1   9  -1    4.36    0.98
   1   9  -1    3.18    0.71
   1   9  -1    3.54    0.82
   1   9  -1    3.87    0.77
   1   9  -1    3.83    1.05
  -1  -9   1    5.12    1.09
  -1  -9   1    3.02    0.75
  -1  -9   1    3.27    0.74
  -1  -9   1    3.53    0.59
  -1  -9   1    3.23    0.71
  -1  -9   1    4.41    1.03
   0   9  -1  133.76    5.43
   0   9  -1  141.28    5.29
   0   9  -1  134.97    5.35
   0   9  -1  134.69    5.43
   0   9  -1  134.94    5.49
   0  -9   1  139.73    5.27
   0  -9   1  138.64    5.43
   0  -9   1  141.21    5.47
   0  -9   1  130.13    5.30
   0  -9   1  132.40    5.33
  -1   9  -1   23.27    1.48
  -1   9  -1   23.64    1.63
  -1   9  -1   24.07    1.36
  -1   9  -1   24.11    1.58
   1  -9   1   23.70    1.39
   1  -9   1   23.80    1.40
   1  -9   1   22.26    1.38
   1  -9   1   24.00    1.54
   1  -9   1   20.71    1.52
   1  -9   1   21.01    1.63
  -2   9  -1  134.38    5.09
  -2   9  -1  130.10    5.22
  -2   9  -1  124.22    5.16
  -2   9  -1  130.58    5.13
   2  -9   1  133.72    5.16
   2  -9   1  132.14    5.14
   2  -9   1  117.10    5.11
   2  -9   1  130.35    5.16
   2  -9   1  129.13    5.14
   2  -9   1  127.71    5.20
  -3   9  -1   49.93    2.28
  -3   9  -1   52.02    2.59
  -3   9  -1   51.02    2.34
  -3   9  -1   50.74    2.38
   3  -9   1   51.41    2.42
   3  -9   1   49.02    2.46
   3  -9   1   49.98    2.44
   3  -9   1   49.61    2.52
   3  -9   1   50.42    2.45
  -4   9  -1  106.73    4.37
  -4   9  -1  111.15    4.18
  -4   9  -1   99.36    4.14
  -4   9  -1  111.64    4.63
   4  -9   1  101.66    4.40
   4  -9   1  101.20    4.38
   4  -9   1  106.06    4.39
   4  -9   1  107.33    4.55
  -5   9  -1   21.10    2.11
   5  -9   1   23.61    1.99
   5  -9   1   24.37    1.81
   5  -9   1   22.55    1.66
   5  -9   1   21.11    1.65
   6   8  -1   -0.76    0.65
   6   8  -1    0.89    1.01
  -6  -8   1    1.66    0.82
   5   8  -1   27.86    1.70
   5   8  -1   25.81    2.01
   5   8  -1   24.64    1.62
  -5  -8   1   27.85    1.60
  -5  -8   1   24.59    1.56
  -5  -8   1   29.41    1.41
  -5  -8   1   25.35    1.70
   4   8  -1    4.19    1.13
   4   8  -1    1.37    0.73
   4   8  -1    2.36    0.62
   4   8  -1    1.77    0.58
   4   8  -1    2.81    0.86
  -4  -8   1    1.43    0.59
  -4  -8   1    2.93    0.69
  -4  -8   1    2.28    0.52
  -4  -8   1    4.02    0.84
   3   8  -1   69.10    3.01
   3   8  -1   65.43    3.10
   3   8  -1   69.18    2.88
   3   8  -1   68.89    3.03
   3   8  -1   72.51    2.84
   3   8  -1   67.99    3.13
  -3  -8   1   70.09    2.88
  -3  -8   1   72.36    2.88
  -3  -8   1   67.76    3.00
  -3  -8   1   70.15    3.00
  -3  -8   1   66.38    3.15
   2   8  -1    3.24    0.93
   2   8  -1    4.31    0.87
   2   8  -1    2.85    0.60
   2   8  -1    3.49    0.90
   2   8  -1    4.13    0.69
   2   8  -1    4.10    0.77
  -2  -8   1    5.03    0.67
  -2  -8   1    4.66    0.88
  -2  -8   1    4.85    0.96
  -2  -8   1    3.41    0.95
  -2  -8   1    4.55    0.66
   1   8  -1   79.20    3.34
   1   8  -1   80.81    3.35
   1   8  -1   76.52    3.19
   1   8  -1   77.13    3.16
   1   8  -1   82.17    3.34
  -1  -8   1   77.35    3.08
  -1  -8   1   73.69    3.29
  -1  -8   1   79.93    3.31
  -1  -8   1   81.35    3.32
  -1  -8   1   77.09    3.17
   0   8  -1   -0.20    0.39
   0   8  -1    0.31    0.43
   0   8  -1    0.45    0.33
   0   8  -1    0.03    0.43
   0   8  -1   -0.05    0.43
   0   8  -1    0.25    0.49
   0  -8   1    0.27    0.33
   0  -8   1    0.14    0.33
   0  -8   1    0.17    0.43
   0  -8   1    0.03    0.40
   0  -8   1    0.31    0.35
  -1   8  -1    3.06    0.80
  -1   8  -1    2.04    0.49
  -1   8  -1    3.14    0.75
  -1   8  -1    2.21    0.55
  -1   8  -1    2.41    0.45
   1  -8   1    2.71    0.56
   1  -8   1    3.04    0.76
   1  -8   1    3.39    0.74
   1  -8   1    3.46    0.65
   1  -8   1    3.21    0.65
   1  -8   1    3.37    0.66
  -2   8  -1    0.27    0.40
  -2   8  -1    0.05    0.36
  -2   8  -1   -0.35    0.46
  -2   8  -1   -0.89    0.38
  -2   8  -1    0.46    0.46
   2  -8   1    0.60    0.38
   2  -8   1   -0.49    0.39
   2  -8   1    0.00    0.46
   2  -8   1    0.43    0.38
   2  -8   1    0.09    0.45
   2  -8   1   -0.31    0.40
  -3   8  -1   17.02    1.07
  -3   8  -1   15.35    1.32
  -3   8  -1   14.70    1.26
  -3   8  -1   18.95    1.21
  -3   8  -1   17.01    1.12
  -3   8  -1   14.57    1.22
  -3   8  -1   17.62    1.32
   3  -8   1   18.03    1.19
   3  -8   1   16.13    1.20
   3  -8   1   18.29    1.19
   3  -8   1   18.89    1.26
   3  -8   1   17.46    1.14
   3  -8   1   15.46    1.19
  -4   8  -1    2.61    0.64
  -4   8  -1    1.89    0.78
  -4   8  -1    2.79    0.59
  -4   8  -1    1.60    0.43
  -4   8  -1    2.76    0.55
  -4   8  -1    3.02    0.80
   4  -8   1    1.43    0.59
   4  -8   1    2.92    0.61
   4  -8   1    2.71    0.64
   4  -8   1    1.34    0.55
   4  -8   1    3.42    0.80
   4  -8   1    2.07    0.58
   4  -8   1    2.29    0.57
  -5   8  -1    6.37    1.41
   5  -8   1    8.04    1.04
   5  -8   1    5.66    1.02
   5  -8   1    7.42    1.37
   5  -8   1    6.16    1.06
   5  -8   1    3.68    1.09
  -6   8  -1   -0.40    0.93
   6  -8   1   -0.32    0.90
   6  -8   1    0.86    0.73
   6  -8   1    1.08    0.79
   6  -8   1   -0.29    0.63
   6   7  -1    1.09    0.89
   6   7  -1    0.54    0.57
  -6  -7   1    0.23    0.66
   5   7  -1   -0.48    0.71
   5   7  -1   -0.01    0.47
   5   7  -1    0.22    0.88
   5   7  -1   -0.25    0.67
   5   7  -1    1.09    0.74
   5   7  -1    0.18    0.50
  -5  -7   1    1.46    0.57
  -5  -7   1    1.09    0.60
  -5  -7   1   -0.01    0.37
  -5  -7   1   -0.36    0.42
  -5  -7   1    0.10    0.48
   4   7  -1   46.61    2.12
   4   7  -1   45.16    2.12
   4   7  -1   46.15    2.28
   4   7  -1   46.32    1.97
   4   7  -1   42.91    2.34
   4   7  -1   39.86    2.03
  -4  -7   1   48.20    2.05
  -4  -7   1   37.43    2.01
  -4  -7   1   47.96    1.95
  -4  -7   1   46.00    2.02
  -4  -7   1   45.56    2.08
  -4  -7   1   44.77    2.35
   3   7  -1    0.02    0.37
   3   7  -1   -0.13    0.40
   3   7  -1    0.50    0.54
   3   7  -1   -0.13    0.45
   3   7  -1   -0.02    0.38
   3   7  -1    0.54    0.41
  -3  -7   1    0.04    0.33
  -3  -7   1    1.07    0.45
  -3  -7   1    0.30    0.31
  -3  -7   1    0.29    0.39
  -3  -7   1    0.67    0.52
   2   7  -1  101.63    4.06
   2   7  -1  103.95    4.01
   2   7  -1   97.75    4.18
   2   7  -1  111.21    3.95
   2   7  -1   99.00    4.14
   2   7  -1  106.74    4.17
  -2  -7   1  103.72    4.00
  -2  -7   1   97.85    4.14
  -2  -7   1  102.09    4.12
  -2  -7   1  104.16    4.14
  -2  -7   1  110.75    4.06
   1   7  -1    9.61    0.76
   1   7  -1   10.06    0.91
   1   7  -1   10.86    0.71
   1   7  -1    9.66    0.85
   1   7  -1    9.17    0.77
   1   7  -1   10.16    0.88
  -1  -7   1    9.47    0.74
  -1  -7   1   10.57    0.89
  -1  -7   1   10.91    0.87
  -1  -7   1   10.07    0.71
  -1  -7   1   10.30    0.87
  -1  -7   1    9.78    0.64
   0   7  -1   10.33    0.86
   0   7  -1   10.13    0.86
   0   7  -1   10.83    0.73
   0   7  -1   10.62    0.78
   0   7  -1   10.67    0.87
   0   7  -1   10.13    0.77
   0  -7   1    9.82    0.73
   0  -7   1    9.58    0.81
   0  -7   1   11.54    0.88
   0  -7   1   11.19    0.86
   0  -7   1   11.02    0.72
   0  -7   1   10.37    0.72
  -1   7  -1    1.56    0.38
  -1   7  -1    2.05    0.44
  -1   7  -1    2.02    0.44
  -1   7  -1    2.66    0.62
  -1   7  -1    2.04    0.50
  -1   7  -1    2.27    0.61
   1  -7   1    2.45    0.57
   1  -7   1    2.89    0.63
   1  -7   1    2.79    0.52
   1  -7   1    1.83    0.42
   1  -7   1    1.58    0.39
   1  -7   1    1.87    0.51
  -2   7  -1    2.95    0.67
  -2   7  -1    2.66    0.70
  -2   7  -1    3.13    0.54
  -2   7  -1    3.47    0.65
  -2   7  -1    2.82    0.56
  -2   7  -1    2.39    0.61
   2  -7   1    2.88    0.53
   2  -7   1    2.87    0.57
   2  -7   1    2.94    0.59
   2  -7   1    3.18    0.67
   2  -7   1    3.72    0.61
   2  -7   1    4.70    0.64
  -3   7  -1    0.37    0.33
  -3   7  -1    1.15    0.40
  -3   7  -1    0.16    0.47
  -3   7  -1    0.86    0.40
  -3   7  -1    0.62    0.36
  -3   7  -1   -0.03    0.46
  -3   7  -1    1.06    0.41
   3  -7   1    0.78    0.36
   3  -7   1    0.73    0.44
   3  -7   1   -0.01    0.37
   3  -7   1    0.57    0.35
   3  -7   1    0.27    0.36
   3  -7   1    0.45    0.37
   3  -7   1    0.59    0.35
  -4   7  -1   10.68    1.14
  -4   7  -1   10.22    0.72
  -4   7  -1   10.61    0.94
   4  -7   1   10.69    0.96
   4  -7   1    9.75    0.84
   4  -7   1   11.03    0.88
   4  -7   1    8.51    0.84
   4  -7   1   10.90    0.88
   4  -7   1   10.17    1.02
  -5   7  -1   18.50    1.25
  -5   7  -1   18.64    1.58
  -5   7  -1   20.76    1.56
   5  -7   1   19.11    1.21
   5  -7   1   21.21    1.33
   5  -7   1   18.85    1.22
   5  -7   1   19.96    1.23
   5  -7   1   17.39    1.21
   5  -7   1   19.86    1.48
  -6   7  -1   20.99    1.80
   6  -7   1   23.67    1.35
   6  -7   1   19.35    1.56
   6  -7   1   20.96    1.46
   6  -7   1   23.54    1.39
   6  -7   1   20.30    1.43
   6  -7   1   23.85    1.76
   7   6  -1  114.77    4.71
   7   6  -1  108.72    4.36
  -7  -6   1  109.05    4.44
  -7  -6   1  102.55    4.56
   6   6  -1    1.18    0.48
   6   6  -1    1.03    0.82
   6   6  -1    0.04    0.89
   6   6  -1    3.47    0.80
  -6  -6   1    1.51    0.55
  -6  -6   1    0.99    0.63
  -6  -6   1    1.60    0.59
   5   6  -1   53.36    2.42
   5   6  -1   52.85    2.53
   5   6  -1   52.45    2.32
   5   6  -1   52.26    2.69
   5   6  -1   48.40    2.39
  -5  -6   1   52.28    2.36
  -5  -6   1   56.08    2.30
   4   6  -1    1.10    0.45
   4   6  -1    0.44    0.35
   4   6  -1    0.86    0.60
   4   6  -1    1.04    0.40
   4   6  -1    0.67    0.50
   4   6  -1    0.62    0.44
  -4  -6   1    0.84    0.40
  -4  -6   1    0.35    0.36
  -4  -6   1    0.92    0.36
  -4  -6   1    0.80    0.32
  -4  -6   1    0.91    0.37
   3   6  -1   22.07    1.31
   3   6  -1   18.61    1.01
   3   6  -1   20.60    1.14
   3   6  -1   20.03    1.11
   3   6  -1   21.42    1.06
  -3  -6   1   19.98    1.27
  -3  -6   1   18.60    1.00
  -3  -6   1   20.83    1.06
  -3  -6   1   20.15    1.13
  -3  -6   1   20.22    1.05
  -3  -6   1   19.80    1.13
   2   6  -1   -0.14    0.25
   2   6  -1    0.03    0.28
   2   6  -1   -0.31    0.27
   2   6  -1   -0.23    0.28
   2   6  -1   -0.06    0.32
   2   6  -1   -0.35    0.32
  -2  -6   1   -0.07    0.24
  -2  -6   1   -0.03    0.32
  -2  -6   1   -0.05    0.31
  -2  -6   1   -0.15    0.23
  -2  -6   1   -0.24    0.22
  -2  -6   1   -0.44    0.29
   1   6  -1   10.43    0.77
   1   6  -1    9.99    0.66
   1   6  -1   10.18    0.75
   1   6  -1    8.78    0.67
   1   6  -1    9.32    0.54
   1   6  -1    9.39    0.76
  -1  -6   1    9.64    0.66
  -1  -6   1    9.23    0.62
  -1  -6   1    9.72    0.73
  -1  -6   1    9.47    0.57
  -1  -6   1    9.57    0.76
  -1  -6   1   10.28    0.76
   0   6  -1   10.25    0.64
   0   6  -1    9.05    0.73
   0   6  -1    9.14    0.66
   0   6  -1    9.66    0.72
   0   6  -1   10.11    0.73
   0   6  -1    9.33    0.67
   0  -6   1   10.53    0.73
   0  -6   1   10.31    0.75
   0  -6   1    9.38    0.61
   0  -6   1   10.57    0.72
   0  -6   1   10.09    0.66
   0  -6   1   10.15    0.65
  -1   6  -1   39.91    1.68
  -1   6  -1   42.92    1.74
  -1   6  -1   39.77    1.72
  -1   6  -1   39.88    1.67
  -1   6  -1   40.47    1.70
  -1   6  -1   39.01    1.75
   1  -6   1   37.44    1.68
   1  -6   1   38.94    1.74
   1  -6   1   36.13    1.67
   1  -6   1   37.65    1.69
   1  -6   1   36.93    1.69
   1  -6   1   39.99    1.72
  -2   6  -1    1.34    0.30
  -2   6  -1    2.56    0.49
  -2   6  -1    2.00    0.47
  -2   6  -1    1.09    0.30
  -2   6  -1    1.85    0.45
  -2   6  -1    1.19    0.39
   2  -6   1    1.21    0.35
   2  -6   1    1.13    0.31
   2  -6   1    1.74    0.44
   2  -6   1    1.21    0.30
   2  -6   1    1.05    0.30
   2  -6   1    1.54    0.42
   2  -6   1    1.66    0.38
  -3   6  -1    2.93    0.54
  -3   6  -1    3.00    0.65
  -3   6  -1    2.20    0.54
  -3   6  -1    3.28    0.50
  -3   6  -1    2.59    0.54
  -3   6  -1    2.58    0.61
  -3   6  -1    2.85    0.46
   3  -6   1    2.79    0.49
   3  -6   1    2.18    0.41
   3  -6   1    2.63    0.52
   3  -6   1    3.36    0.49
   3  -6   1    4.04    0.56
   3  -6   1    2.04    0.56
   3  -6   1    3.71    0.52
  -4   6  -1    0.13    0.42
  -4   6  -1   -0.08    0.30
  -4   6  -1    0.59    0.45
  -4   6  -1    0.31    0.34
   4  -6   1   -0.11    0.27
   4  -6   1   -0.27    0.35
   4  -6   1   -0.31    0.27
   4  -6   1    0.29    0.36
   4  -6   1    1.42    0.45
   4  -6   1    0.37    0.31
   4  -6   1    0.04    0.28
  -5   6  -1   16.28    1.31
  -5   6  -1   16.61    1.30
  -5   6  -1   18.05    1.06
  -5   6  -1   18.21    1.11
   5  -6   1   17.64    1.05
   5  -6   1   17.83    1.25
   5  -6   1   18.61    1.16
   5  -6   1   18.11    1.05
   5  -6   1   16.48    1.05
   5  -6   1   17.37    1.03
   5  -6   1   16.41    1.24
  -6   6  -1    3.12    0.81
   6  -6   1    3.87    0.84
   6  -6   1    2.51    0.73
   6  -6   1    4.24    0.72
   6  -6   1    3.77    0.96
   6  -6   1    3.33    0.64
   6  -6   1    3.60    0.74
   6  -6   1    4.52    0.85
  -7   6  -1   44.96    2.57
   7  -6   1   45.35    2.27
   7  -6   1   47.22    2.20
   7  -6   1   49.39    2.56
   7   5  -1   10.02    1.01
   7   5  -1    9.18    1.44
   7   5  -1   10.08    1.96
  -7  -5   1   10.67    1.24
  -7  -5   1    9.17    1.21
   6   5  -1   -0.84    0.69
   6   5  -1    0.30    0.63
   6   5  -1    0.73    0.67
   6   5  -1   -0.03    0.37
  -6  -5   1    0.03    0.46
  -6  -5   1    1.16    0.51
  -6  -5   1   -0.10    0.50
   5   5  -1   15.76    1.41
   5   5  -1   15.65    0.98
   5   5  -1   14.22    1.10
   5   5  -1   14.80    1.18
  -5  -5   1   15.53    1.02
  -5  -5   1   15.89    0.97
  -5  -5   1   15.29    0.96
   4   5  -1    0.44    0.31
   4   5  -1    0.15    0.37
   4   5  -1    0.11    0.24
   4   5  -1    0.32    0.37
   4   5  -1    0.12    0.52
  -4  -5   1   -0.10    0.29
  -4  -5   1    0.15    0.29
  -4  -5   1   -0.31    0.26
  -4  -5   1   -0.14    0.22
  -4  -5   1    0.02    0.30
  -4  -5   1   -0.19    0.44
   3   5  -1    1.64    0.39
   3   5  -1    1.76    0.47
   3   5  -1    1.58    0.33
   3   5  -1    2.19    0.47
   3   5  -1    2.53    0.59
   3   5  -1    2.12    0.47
  -3  -5   1    2.13    0.49
  -3  -5   1    1.86    0.38
  -3  -5   1    1.57    0.41
  -3  -5   1    2.47    0.60
  -3  -5   1    2.03    0.41
   2   5  -1   98.38    3.61
   2   5  -1   78.67    3.49
   2   5  -1   93.79    3.46
   2   5  -1   89.50    3.57
   2   5  -1   94.12    3.47
   2   5  -1   94.70    3.64
  -2  -5   1   91.57    3.46
  -2  -5   1   91.87    3.56
  -2  -5   1   88.37    3.49
  -2  -5   1   88.22    3.59
  -2  -5   1   95.49    3.58
  -2  -5   1   92.23    3.48
   1   5  -1    0.10    0.16
   1   5  -1    0.56    0.24
   1   5  -1    0.03    0.20
   1   5  -1    0.28    0.25
   1   5  -1    0.07    0.20
   1   5  -1    0.13    0.20
  -1  -5   1   -0.09    0.22
  -1  -5   1    0.06    0.24
  -1  -5   1    0.15    0.17
  -1  -5   1    0.01    0.16
  -1  -5   1    0.27    0.21
  -1  -5   1    0.18    0.17
   0   5  -1  415.81   14.86
   0   5  -1  401.81   14.86
   0   5  -1  426.46   14.81
   0   5  -1  425.88   14.82
   0   5  -1  413.56   14.81
   0   5  -1  404.53   14.87
   0  -5   1  401.03   14.85
   0  -5   1  396.23   14.80
   0  -5   1  399.56   14.78
   0  -5   1  393.03   14.81
   0  -5   1  413.46   14.87
   0  -5   1  411.32   14.86
  -1   5  -1   30.14    1.28
  -1   5  -1   28.46    1.25
  -1   5  -1   28.98    1.26
  -1   5  -1   27.46    1.22
  -1   5  -1   27.96    1.26
  -1   5  -1   28.82    1.29
   1  -5   1   28.13    1.25
   1  -5   1   26.69    1.24
   1  -5   1   27.35    1.25
   1  -5   1   27.89    1.28
   1  -5   1   30.68    1.28
   1  -5   1   25.90    1.23
  -2   5  -1  350.29   12.54
  -2   5  -1  354.16   12.54
  -2   5  -1  355.60   12.47
  -2   5  -1  327.16   12.48
  -2   5  -1  350.59   12.52
   2  -5   1  347.18   12.52
   2  -5   1  323.67   12.52
   2  -5   1  350.52   12.54
   2  -5   1  364.31   12.53
   2  -5   1  334.93   12.53
   2  -5   1  334.74   12.55
   2  -5   1  330.20   12.50
  -3   5  -1   52.92    2.16
  -3   5  -1   52.32    2.11
  -3   5  -1   54.05    2.04
  -3   5  -1   50.89    2.24
  -3   5  -1   50.70    2.15
  -3   5  -1   51.12    2.05
   3  -5   1   50.85    2.12
   3  -5   1   53.91    2.17
   3  -5   1   50.05    2.11
   3  -5   1   51.87    2.11
   3  -5   1   50.93    2.19
   3  -5   1   51.90    2.16
   3  -5   1   53.53    2.11
  -4   5  -1  125.77    4.62
  -4   5  -1  120.24    4.70
  -4   5  -1  129.73    4.62
  -4   5  -1  122.74    4.83
  -4   5  -1  120.07    4.70
   4  -5   1  118.97    4.75
   4  -5   1  121.49    4.72
   4  -5   1  119.76    4.69
   4  -5   1  122.12    4.62
   4  -5   1  122.35    4.63
   4  -5   1  119.42    4.62
  -5   5  -1   24.71    1.53
  -5   5  -1   27.81    1.26
  -5   5  -1   24.56    1.45
   5  -5   1   27.30    1.27
   5  -5   1   25.80    1.36
   5  -5   1   26.47    1.26
   5  -5   1   28.68    1.26
   5  -5   1   26.36    1.28
   5  -5   1   27.19    1.48
  -6   5  -1   44.68    2.17
  -6   5  -1   45.42    2.32
   6  -5   1   45.60    1.95
   6  -5   1   47.26    2.21
   6  -5   1   43.23    1.99
   6  -5   1   46.15    2.07
   6  -5   1   43.02    1.94
  -7   5  -1    7.14    1.35
   7  -5   1    7.66    1.07
   7  -5   1    8.27    1.23
   7  -5   1   10.58    1.04
   7  -5   1    6.72    0.89
   7  -5   1    7.22    1.24
   7   4  -1   29.19    1.67
   7   4  -1   33.88    1.98
   7   4  -1   33.96    1.59
   7   4  -1   29.50    2.23
  -7  -4   1   30.48    1.79
  -7  -4   1   37.03    1.73
   6   4  -1    5.65    0.68
   6   4  -1    4.39    0.89
   6   4  -1    0.19    1.18
   6   4  -1    3.38    0.67
   6   4  -1    5.39    1.05
  -6  -4   1    3.20    0.76
  -6  -4   1    3.01    0.76
  -6  -4   1    3.27    0.69
  -6  -4   1    4.35    0.72
   5   4  -1  245.79    9.43
   5   4  -1  264.11    9.31
   5   4  -1  263.94    9.34
   5   4  -1  246.04    9.41
   5   4  -1  247.36    9.37
  -5  -4   1  260.97    9.28
  -5  -4   1  241.69    9.35
  -5  -4   1  269.35    9.27
  -5  -4   1  225.50    9.28
   4   4  -1   -0.01    0.23
   4   4  -1   -0.22    0.45
   4   4  -1    0.34    0.32
   4   4  -1    0.18    0.32
   4   4  -1    0.15    0.29
  -4  -4   1    0.00    0.25
  -4  -4   1    0.13    0.18
  -4  -4   1    0.10    0.19
  -4  -4   1    0.53    0.29
  -4  -4   1   -0.20    0.33
   3   4  -1  275.23   10.39
   3   4  -1  293.71   10.35
   3   4  -1  277.30   10.44
   3   4  -1  285.13   10.46
   3   4  -1  293.45   10.26
   3   4  -1  280.47   10.35
  -3  -4   1  299.06   10.31
  -3  -4   1  271.95   10.27
  -3  -4   1  270.54   10.34
  -3  -4   1  284.47   10.32
  -3  -4   1  278.00   10.45
  -3  -4   1  288.14   10.37
   2   4  -1    0.16    0.18
   2   4  -1    0.34    0.16
   2   4  -1    0.28    0.20
   2   4  -1    0.35    0.25
   2   4  -1    0.31    0.19
   2   4  -1    0.24    0.23
  -2  -4   1    0.26    0.16
  -2  -4   1    0.33    0.20
  -2  -4   1    0.27    0.16
  -2  -4   1   -0.16    0.18
  -2  -4   1    0.23    0.16
  -2  -4   1   -0.07    0.21
   1   4  -1  444.08   16.23
   1   4  -1  456.96   16.18
   1   4  -1  423.73   16.23
   1   4  -1  462.25   16.22
   1   4  -1  468.00   16.15
   1   4  -1  459.30   16.10
  -1  -4   1  423.69   16.16
  -1  -4   1  434.38   16.21
  -1  -4   1  440.36   16.11
  -1  -4   1  444.32   16.21
  -1  -4   1  464.82   16.23
  -1  -4   1  448.38   16.14
   0   4  -1    3.46    0.30
   0   4  -1    2.57    0.31
   0   4  -1    2.65    0.30
   0   4  -1    3.03    0.34
   0   4  -1    2.58    0.34
   0   4  -1    2.23    0.33
   0  -4   1    2.58    0.35
   0  -4   1    3.16    0.35
   0  -4   1    2.51    0.33
   0  -4   1    2.87    0.28
   0  -4   1    2.39    0.28
  -1   4  -1  220.62    8.00
  -1   4  -1  212.34    7.99
  -1   4  -1  220.31    8.02
  -1   4  -1  209.35    7.99
  -1   4  -1  223.28    7.97
   1  -4   1  230.93    8.01
   1  -4   1  221.06    8.01
   1  -4   1  224.42    8.00
   1  -4   1  207.66    7.99
   1  -4   1  215.73    8.00
   1  -4   1  224.45    8.00
   1  -4   1  211.18    7.98
  -2   4  -1    1.65    0.31
  -2   4  -1    2.03    0.35
  -2   4  -1    1.41    0.28
  -2   4  -1    1.43    0.29
  -2   4  -1    1.54    0.31
  -2   4  -1    1.37    0.28
  -2   4  -1    1.87    0.35
   2  -4   1    1.36    0.29
   2  -4   1    1.48    0.32
   2  -4   1    1.30    0.29
   2  -4   1    1.80    0.29
   2  -4   1    1.33    0.30
   2  -4   1    1.69    0.29
   2  -4   1    1.22    0.25
  -3   4  -1   13.52    0.69
  -3   4  -1   12.25    0.80
  -3   4  -1   13.18    0.75
  -3   4  -1   13.51    0.77
   3  -4   1   13.98    0.70
   3  -4   1   13.78    0.70
   3  -4   1   13.20    0.76
   3  -4   1   13.65    0.69
   3  -4   1   12.45    0.68
   3  -4   1   13.80    0.76
   3  -4   1   12.92    0.75
  -4   4  -1    0.85    0.36
  -4   4  -1    0.55    0.24
  -4   4  -1    0.91    0.25
  -4   4  -1    0.42    0.33
  -4   4  -1    0.78    0.23
   4  -4   1    0.73    0.22
   4  -4   1    0.92    0.29
   4  -4   1    0.65    0.30
   4  -4   1    0.79    0.23
   4  -4   1    0.41    0.20
   4  -4   1    0.42    0.21
   4  -4   1    0.64    0.31
  -5   4  -1   19.76    1.25
  -5   4  -1   17.56    1.13
   5  -4   1   18.82    1.06
   5  -4   1   20.70    0.96
   5  -4   1   19.72    0.95
   5  -4   1   20.31    0.94
   5  -4   1   19.99    1.25
   5  -4   1   19.34    0.94
   5  -4   1   19.05    1.14
  -6   4  -1    5.21    0.88
   6  -4   1    4.03    0.55
   6  -4   1    3.26    0.74
   6  -4   1    5.05    0.79
   6  -4   1    3.96    0.71
   6  -4   1    3.32    1.00
   6  -4   1    4.89    0.60
  -7   4  -1    1.27    0.70
   7  -4   1    0.93    0.40
   7  -4   1    1.30    0.49
   7  -4   1    0.31    0.45
   7  -4   1    1.00    0.64
   7  -4   1    1.83    0.66
  -8   4  -1    3.06    1.03
   8  -4   1    6.55    1.05
   8   3  -1   68.03    3.29
  -8  -3   1   72.32    3.03
  -8  -3   1   67.26    3.19
   7   3  -1    4.36    1.12
   7   3  -1    8.68    1.21
   7   3  -1    8.08    1.53
   7   3  -1    7.11    0.94
  -7  -3   1    8.87    0.92
  -7  -3   1    8.05    1.00
   6   3  -1   77.50    3.18
   6   3  -1   75.57    2.98
   6   3  -1   72.45    3.13
   6   3  -1   73.06    3.00
   6   3  -1   76.06    2.93
  -6  -3   1   74.25    3.11
  -6  -3   1   77.74    3.01
   5   3  -1    6.58    0.50
   5   3  -1    5.54    0.59
   5   3  -1    5.75    0.73
   5   3  -1    5.78    0.72
   5   3  -1    6.48    0.77
  -5  -3   1    5.94    0.59
  -5  -3   1    6.50    0.61
  -5  -3   1    7.13    0.59
  -5  -3   1    7.27    0.58
   4   3  -1  128.35    4.80
   4   3  -1  128.17    4.77
   4   3  -1  128.06    4.94
   4   3  -1  125.88    4.75
   4   3  -1  124.86    4.86
   4   3  -1  122.71    4.80
  -4  -3   1  120.78    4.76
  -4  -3   1  126.07    4.79
  -4  -3   1  127.84    4.72
  -4  -3   1  128.47    4.73
   3   3  -1    8.16    0.55
   3   3  -1    7.86    0.68
   3   3  -1    8.17    0.59
   3   3  -1    7.82    0.51
   3   3  -1    7.31    0.54
  -3  -3   1    8.50    0.46
  -3  -3   1    8.03    0.65
  -3  -3   1    8.22    0.49
  -3  -3   1    8.00    0.52
  -3  -3   1    8.19    0.44
   2   3  -1   27.12    1.16
   2   3  -1   27.66    1.24
   2   3  -1   27.81    1.25
   2   3  -1   29.31    1.24
   2   3  -1   29.00    1.12
   2   3  -1   28.32    1.17
  -2  -3   1   27.45    1.10
  -2  -3   1   26.19    1.16
  -2  -3   1   27.62    1.14
  -2  -3   1   28.63    1.26
  -2  -3   1   27.57    1.20
   1   3  -1    0.85    0.23
   1   3  -1    0.50    0.18
   1   3  -1    0.63    0.15
   1   3  -1    0.62    0.17
   1   3  -1    0.91    0.26
   1   3  -1    1.04    0.22
  -1  -3   1    0.97    0.22
  -1  -3   1    0.89    0.25
  -1  -3   1    0.87    0.18
  -1  -3   1    0.54    0.17
  -1  -3   1    0.80    0.14
  -1  -3   1    0.87    0.17
   0   3  -1    2.08    0.26
   0   3  -1    2.36    0.26
   0   3  -1    2.27    0.26
   0   3  -1    2.24    0.24
   0   3  -1    2.61    0.25
   0  -3   1    2.42    0.26
   0  -3   1    2.18    0.25
   0  -3   1    2.08    0.27
   0  -3   1    2.48    0.23
  -1   3  -1   14.94    0.72
  -1   3  -1   15.64    0.69
  -1   3  -1   16.14    0.72
  -1   3  -1   16.42    0.72
  -1   3  -1   15.27    0.70
  -1   3  -1   15.52    0.72
   1  -3   1   15.46    0.71
   1  -3   1   15.78    0.70
   1  -3   1   16.12    0.72
   1  -3   1   16.10    0.71
   1  -3   1   14.58    0.71
   1  -3   1   14.92    0.70
  -2   3  -1   53.50    2.24
  -2   3  -1   57.65    2.13
  -2   3  -1   53.81    2.20
  -2   3  -1   56.58    2.14
  -2   3  -1   57.95    2.21
  -2   3  -1   59.56    2.17
   2  -3   1   54.29    2.16
   2  -3   1   55.77    2.17
   2  -3   1   59.62    2.22
   2  -3   1   58.23    2.16
   2  -3   1   58.42    2.17
   2  -3   1   54.97    2.20
   2  -3   1   55.65    2.22
  -3   3  -1   17.58    0.94
  -3   3  -1   18.01    0.89
  -3   3  -1   17.82    0.79
  -3   3  -1   18.57    0.88
   3  -3   1   17.44    0.87
   3  -3   1   17.31    0.78
   3  -3   1   18.60    0.89
   3  -3   1   18.45    0.87
   3  -3   1   17.39    0.79
   3  -3   1   17.69    0.79
   3  -3   1   18.70    0.79
  -4   3  -1  234.82    8.60
  -4   3  -1  238.32    8.48
  -4   3  -1  227.44    8.60
  -4   3  -1  226.37    8.70
   4  -3   1  232.33    8.57
   4  -3   1  226.23    8.47
   4  -3   1  235.77    8.47
   4  -3   1  238.35    8.60
   4  -3   1  237.12    8.63
   4  -3   1  231.81    8.46
   4  -3   1  236.70    8.72
   4  -3   1  233.34    8.51
   4  -3   1  231.56    8.47
  -5   3  -1   61.69    2.58
  -5   3  -1   63.17    2.46
  -5   3  -1   63.65    2.73
   5  -3   1   62.94    2.42
   5  -3   1   62.68    2.49
   5  -3   1   62.29    2.42
   5  -3   1   63.22    2.59
   5  -3   1   64.56    2.72
   5  -3   1   64.01    2.74
   5  -3   1   63.34    2.61
   5  -3   1   60.94    2.54
   5  -3   1   62.56    2.53
  -6   3  -1  165.94    6.43
   6  -3   1  165.88    6.42
   6  -3   1  165.28    6.15
   6  -3   1  166.47    6.44
   6  -3   1  170.33    6.13
   6  -3   1  168.38    6.04
   6  -3   1  143.70    6.22
  -7   3  -1   39.81    2.21
   7  -3   1   40.31    1.73
   7  -3   1   39.54    1.97
   7  -3   1   39.84    1.86
   8  -3   1   98.95    4.17
   8   2  -1   -0.24    0.77
  -8  -2   1   -0.19    0.71
   7   2  -1   43.98    2.06
   7   2  -1   41.65    2.18
   7   2  -1   44.08    2.35
  -7  -2   1   43.01    2.08
  -7  -2   1   43.81    1.95
   6   2  -1    0.76    0.58
   6   2  -1    0.45    0.57
   6   2  -1    1.03    0.49
   6   2  -1    0.93    0.32
  -6  -2   1    1.20    0.45
  -6  -2   1    0.43    0.37
   5   2  -1    9.00    1.02
   5   2  -1    9.74    0.81
   5   2  -1   10.26    0.66
   5   2  -1   10.69    0.78
   5   2  -1    7.73    0.64
   5   2  -1    8.19    0.79
  -5  -2   1    8.33    0.59
  -5  -2   1    8.93    0.57
  -5  -2   1    9.62    0.63
  -5  -2   1    9.32    0.68
   4   2  -1    0.79    0.26
   4   2  -1    0.32    0.25
   4   2  -1    0.85    0.29
   4   2  -1    0.77    0.24
   4   2  -1    0.87    0.31
   4   2  -1    0.38    0.37
  -4  -2   1    0.79    0.23
  -4  -2   1    0.87    0.22
  -4  -2   1    1.35    0.36
  -4  -2   1    0.98    0.23
   3   2  -1   56.66    2.15
   3   2  -1   54.50    2.18
   3   2  -1   55.81    2.25
   3   2  -1   54.24    2.10
   3   2  -1   56.66    2.29
   3   2  -1   55.06    2.19
  -3  -2   1   54.94    2.06
  -3  -2   1   54.24    2.12
  -3  -2   1   55.97    2.19
  -3  -2   1   55.45    2.17
  -3  -2   1   55.08    2.18
   2   2  -1    0.51    0.17
   2   2  -1    0.58    0.16
   2   2  -1    0.54    0.21
   2   2  -1    0.44    0.16
   2   2  -1    0.74    0.16
  -2  -2   1    0.46    0.15
  -2  -2   1    0.59    0.13
  -2  -2   1    0.53    0.19
  -2  -2   1    0.75    0.17
  -2  -2   1    0.49    0.14
   1   2  -1  157.89    5.89
   1   2  -1  169.25    5.91
   1   2  -1  163.99    5.81
   1   2  -1  168.73    5.86
   1   2  -1  147.04    5.88
   1   2  -1  162.00    5.83
  -1  -2   1  154.48    5.90
  -1  -2   1  164.17    5.81
  -1  -2   1  153.69    5.87
  -1  -2   1  165.40    5.89
  -1  -2   1  157.33    5.83
  -1  -2   1  163.10    5.84
   0   2  -1    3.63    0.27
   0   2  -1    4.18    0.28
   0   2  -1    3.94    0.24
   0   2  -1    3.89    0.26
   0  -2   1    3.58    0.23
   0  -2   1    3.90    0.26
   0  -2   1    3.71    0.26
   0  -2   1    3.60    0.23
  -1   2  -1  185.38    6.76
  -1   2  -1  178.63    6.72
  -1   2  -1  188.30    6.72
  -1   2  -1  187.10    6.74
  -1   2  -1  185.08    6.75
   1  -2   1  183.15    6.73
   1  -2   1  189.14    6.76
   1  -2   1  195.12    6.75
   1  -2   1  178.65    6.73
   1  -2   1  181.83    6.75
   1  -2   1  191.78    6.73
  -2   2  -1    0.56    0.11
  -2   2  -1    0.40    0.15
  -2   2  -1    0.94    0.25
  -2   2  -1    0.67    0.18
  -2   2  -1    0.82    0.15
   2  -2   1    0.79    0.14
   2  -2   1    0.79    0.15
   2  -2   1    0.57    0.12
   2  -2   1    0.58    0.15
   2  -2   1    1.00    0.18
   2  -2   1    0.59    0.15
   2  -2   1    0.99    0.22
   2  -2   1    0.73    0.18
  -3   2  -1  291.33   10.84
  -3   2  -1  293.43   10.76
  -3   2  -1  292.68   10.77
  -3   2  -1  296.41   10.68
   3  -2   1  291.32   10.66
   3  -2   1  298.58   10.65
   3  -2   1  298.72   10.83
   3  -2   1  289.85   10.66
   3  -2   1  306.49   10.65
   3  -2   1  294.47   10.69
   3  -2   1  295.01   10.77
   3  -2   1  300.57   10.76
   3  -2   1  297.46   10.75
  -4   2  -1   13.07    0.66
  -4   2  -1   14.87    0.86
  -4   2  -1   13.54    0.77
   4  -2   1   12.85    0.74
   4  -2   1   13.04    0.70
   4  -2   1   13.91    0.73
   4  -2   1   14.60    0.84
   4  -2   1   13.56    0.75
   4  -2   1   13.25    0.84
   4  -2   1   12.49    0.71
  -5   2  -1   85.78    3.28
  -5   2  -1   84.39    3.49
   5  -2   1   87.19    3.51
   5  -2   1   88.54    3.49
   5  -2   1   86.65    3.28
   5  -2   1   84.39    3.35
   5  -2   1   82.40    3.30
   5  -2   1   83.99    3.35
   5  -2   1   85.99    3.35
  -6   2  -1    6.81    0.88
  -6   2  -1    7.73    0.63
   6  -2   1    6.87    0.97
   6  -2   1    7.21    0.70
   6  -2   1    6.26    0.79
   6  -2   1    6.67    0.68
   6  -2   1    7.87    1.00
   6  -2   1    7.01    0.75
   6  -2   1    6.97    0.68
   7  -2   1    0.29    0.52
   7  -2   1    0.98    0.51
   7  -2   1    0.49    0.82
   7  -2   1    1.23    0.71
   8  -2   1    3.97    1.07
   8  -2   1    7.78    1.38
   8   1  -1    3.38    0.71
  -8  -1   1    2.53    0.76
   7   1  -1    1.27    0.47
   7   1  -1    0.45    0.76
   7   1  -1   -0.22    0.64
   7   1  -1    0.42    0.45
  -7  -1   1    0.00    0.48
   6   1  -1   18.06    1.28
   6   1  -1   17.17    0.96
   6   1  -1   17.26    0.96
   6   1  -1   16.35    1.26
   6   1  -1   17.71    1.08
   6   1  -1   17.83    1.28
  -6  -1   1   19.71    0.98
  -6  -1   1   17.96    1.06
   5   1  -1    0.24    0.22
   5   1  -1    0.71    0.36
   5   1  -1    0.49    0.24
   5   1  -1    0.85    0.38
   5   1  -1   -0.02    0.37
   5   1  -1    0.36    0.21
   5   1  -1    0.44    0.27
   5   1  -1    0.69    0.49
  -5  -1   1    0.41    0.25
  -5  -1   1    0.61    0.25
  -5  -1   1    0.39    0.26
   4   1  -1   48.24    1.88
   4   1  -1   46.92    1.94
   4   1  -1   46.59    1.86
   4   1  -1   48.32    1.94
   4   1  -1   50.69    2.13
   4   1  -1   47.00    1.86
   4   1  -1   48.42    1.97
   4   1  -1   47.91    1.98
  -4  -1   1   50.42    1.96
  -4  -1   1   48.05    1.89
  -4  -1   1   42.31    1.82
  -4  -1   1   46.13    1.86
  -4  -1   1   49.08    1.87
   3   1  -1    3.12    0.25
   3   1  -1    3.67    0.27
   3   1  -1    3.39    0.44
   3   1  -1    3.29    0.34
   3   1  -1    2.26    0.36
   3   1  -1    3.37    0.32
   3   1  -1    3.32    0.36
   3   1  -1    2.98    0.32
  -3  -1   1    2.97    0.27
  -3  -1   1    3.11    0.34
  -3  -1   1    3.19    0.32
  -3  -1   1    3.17    0.25
  -3  -1   1    3.24    0.29
   2   1  -1  110.99    3.91
   2   1  -1  110.60    4.01
   2   1  -1   95.51    3.96
   2   1  -1  108.03    3.95
   2   1  -1  109.47    3.97
   2   1  -1  106.52    3.92
   2   1  -1  106.10    3.89
  -2  -1   1  106.57    3.94
  -2  -1   1  106.36    3.88
  -2  -1   1  104.43    3.87
  -2  -1   1  106.59    3.89
  -2  -1   1  103.14    3.89
  -2  -1   1  112.14    3.94
   1   1  -1   -0.01    0.07
   1   1  -1    0.10    0.13
   1   1  -1   -0.04    0.06
   1   1  -1    0.11    0.06
   1   1  -1   -0.07    0.08
   1   1  -1    0.04    0.07
  -1  -1   1   -0.03    0.07
  -1  -1   1    0.10    0.10
  -1  -1   1   -0.08    0.06
  -1  -1   1    0.09    0.06
  -1  -1   1    0.12    0.07
  -1  -1   1   -0.04    0.10
   0   1  -1   17.00    0.65
   0   1  -1   16.30    0.67
   0   1  -1   16.46    0.63
   0   1  -1   15.65    0.64
   0  -1   1   15.05    0.63
   0  -1   1   16.06    0.64
   0  -1   1   16.33    0.65
   0  -1   1   14.51    0.63
   0  -1   1   15.61    0.66
  -1   1  -1    0.09    0.09
  -1   1  -1    0.07    0.04
  -1   1  -1   -0.04    0.06
  -1   1  -1    0.07    0.05
  -1   1  -1    0.02    0.06
  -1   1  -1    0.14    0.06
   1  -1   1    0.08    0.05
   1  -1   1    0.03    0.05
   1  -1   1    0.02    0.04
   1  -1   1    0.22    0.10
   1  -1   1    0.04    0.07
   1  -1   1    0.15    0.07
   1  -1   1    0.12    0.05
   1  -1   1    0.03    0.06
  -2   1  -1  138.68    5.08
  -2   1  -1  135.26    5.09
  -2   1  -1  141.48    5.05
  -2   1  -1  137.56    5.01
   2  -1   1  138.01    5.08
   2  -1   1  138.24    5.04
   2  -1   1  144.32    5.11
   2  -1   1  129.67    5.06
   2  -1   1  139.72    5.05
   2  -1   1  137.12    5.01
  -3   1  -1    5.37    0.34
  -3   1  -1    5.73    0.44
   3  -1   1    5.11    0.41
   3  -1   1    5.21    0.44
   3  -1   1    5.59    0.36
   3  -1   1    5.72    0.36
   3  -1   1    5.94    0.37
   3  -1   1    4.99    0.43
   3  -1   1    5.37    0.36
  -4   1  -1   34.15    1.38
  -4   1  -1   32.43    1.52
   4  -1   1   32.26    1.40
   4  -1   1   31.65    1.41
   4  -1   1   34.37    1.41
   4  -1   1   32.85    1.50
   4  -1   1   33.85    1.37
   4  -1   1   32.56    1.51
   4  -1   1   34.09    1.40
  -5   1  -1    0.80    0.25
  -5   1  -1    0.35    0.30
   5  -1   1    0.68    0.34
   5  -1   1    0.62    0.26
   5  -1   1    0.27    0.24
   5  -1   1    0.56    0.41
   5  -1   1    0.61    0.27
   5  -1   1    1.31    0.39
   6  -1   1    0.52    0.49
   6  -1   1    1.14    0.38
   6  -1   1    0.95    0.36
   6  -1   1    2.08    0.44
   6  -1   1    0.85    0.49
   6  -1   1    1.86    0.58
  -7   1  -1    3.75    0.69
   7  -1   1    4.55    1.29
   7  -1   1    4.24    1.07
   7  -1   1    3.83    0.83
   7  -1   1    4.35    0.90
   7  -1   1    3.89    0.71
   7  -1   1    4.91    1.22
   8  -1   1    8.73    1.21
   8  -1   1    6.08    0.99
   8   0  -1    1.61    0.62
   8   0  -1    2.43    0.68
  -8   0   1    2.32    0.72
   7   0  -1    0.98    0.62
   7   0  -1    0.22    0.38
   7   0  -1    0.95    0.48
   7   0  -1    0.46    0.73
  -7   0   1    0.89    0.49
   6   0  -1    3.35    0.55
   6   0  -1    3.22    0.87
   6   0  -1    3.42    0.55
   6   0  -1    3.58    0.50
   6   0  -1    4.69    0.70
  -6   0   1    4.47    0.62
  -6   0   1    3.47    0.59
   5   0  -1  240.21    8.78
   5   0  -1  231.48    8.67
   5   0  -1  235.88    8.60
   5   0  -1  226.25    8.59
   5   0  -1  235.38    8.94
   5   0  -1  245.18    8.74
   5   0  -1  232.87    8.77
   5   0  -1  241.43    8.69
  -5   0   1  236.02    8.67
  -5   0   1  236.27    8.72
   4   0  -1    8.43    0.46
   4   0  -1    8.06    0.60
   4   0  -1    8.59    0.51
   4   0  -1    8.52    0.47
   4   0  -1    7.91    0.47
   4   0  -1    8.19    0.60
   4   0  -1    8.05    0.55
   4   0  -1    7.74    0.73
  -4   0   1    8.39    0.54
  -4   0   1    8.56    0.45
  -4   0   1    9.04    0.52
  -4   0   1    8.20    0.49
  -4   0   1    8.39    0.57
   3   0  -1  428.53   15.26
   3   0  -1  415.99   15.27
   3   0  -1  433.23   15.36
   3   0  -1  400.64   15.33
   3   0  -1  412.72   15.32
   3   0  -1  431.81   15.29
   3   0  -1  425.35   15.32
   3   0  -1  442.83   15.48
  -3   0   1  430.76   15.35
  -3   0   1  439.52   15.32
  -3   0   1  405.01   15.43
  -3   0   1  422.47   15.27
  -3   0   1  434.35   15.34
   2   0  -1    7.88    0.39
   2   0  -1    7.74    0.41
   2   0  -1    7.94    0.35
   2   0  -1    7.51    0.38
   2   0  -1    6.80    0.42
   2   0  -1    7.75    0.48
  -2   0   1    7.38    0.39
  -2   0   1    7.86    0.37
  -2   0   1    7.16    0.40
  -2   0   1    7.16    0.44
  -2   0   1    7.58    0.38
   1   0  -1  133.35    4.72
   1   0  -1  134.95    4.72
   1   0  -1  129.07    4.71
   1   0  -1  131.79    4.70
   1   0  -1  127.12    4.76
   1   0  -1  123.61    4.73
  -1   0   1  136.15    4.70
  -1   0   1  131.49    4.72
  -1   0   1  126.52    4.71
  -1   0   1  126.87    4.75
  -1   0   1  130.87    4.72
   0   0   1    0.16    0.05
  -1   0  -1   28.45    1.12
  -1   0  -1   30.04    1.06
   1   0   1   28.63    1.06
   1   0   1   27.38    1.11
   1   0   1   26.45    1.06
  -2   0  -1    1.62    0.22
  -2   0  -1    1.12    0.13
  -2   0  -1    1.14    0.18
  -2   0  -1    1.27    0.16
  -2   0  -1    1.19    0.15
   2   0   1    1.19    0.16
   2   0   1    1.38    0.16
   2   0   1    1.15    0.14
   2   0   1    1.02    0.19
   2   0   1    1.15    0.14
   2   0   1    1.73    0.25
  -3   0  -1   47.66    1.86
  -3   0  -1   47.88    1.84
   3   0   1   49.38    1.97
   3   0   1   48.51    1.87
   3   0   1   46.64    1.87
   3   0   1   47.94    1.83
   3   0   1   49.15    1.84
   3   0   1   46.75    1.93
   3   0   1   47.17    1.85
  -4   0  -1    1.21    0.29
   4   0   1    1.70    0.32
   4   0   1    1.82    0.30
   4   0   1    1.98    0.36
   4   0   1    1.68    0.30
   4   0   1    1.14    0.28
   4   0   1    1.69    0.37
   4   0   1    0.94    0.27
  -5   0  -1   20.91    0.99
   5   0   1   18.89    0.93
   5   0   1   20.74    1.20
   5   0   1   21.74    1.22
   5   0   1   19.96    0.99
   5   0   1   18.70    0.96
   5   0   1   19.19    1.04
  -6   0  -1    0.76    0.33
   6   0   1    0.45    0.44
   6   0   1    0.50    0.30
   6   0   1    0.62    0.32
   6   0   1    0.25    0.49
   6   0   1    1.44    0.60
   6   0   1    0.11    0.35
  -7   0  -1   55.87    2.42
   7   0   1   61.44    2.81
   7   0   1   58.55    2.36
   7   0   1   55.20    2.63
   7   0   1   56.00    2.39
   7   0   1   52.81    2.47
   7   0   1   52.19    2.77
   8   0   1    1.56    1.14
   8   0   1    3.37    0.79
   8   0   1    2.29    0.60
   8  -1  -1  112.26    4.52
   8  -1  -1  109.07    4.27
   8  -1  -1   86.42    4.83
  -8   1   1  108.82    4.30
   7  -1  -1   38.19    1.82
   7  -1  -1   37.60    2.22
   7  -1  -1   39.75    1.88
   7  -1  -1   41.54    1.75
  -7   1   1   39.14    1.88
   6  -1  -1  100.99    3.96
   6  -1  -1   99.41    4.17
   6  -1  -1  105.65    4.06
   6  -1  -1  103.98    3.93
  -6   1   1  108.19    4.06
   5  -1  -1   24.08    1.13
   5  -1  -1   23.53    1.07
   5  -1  -1   25.68    1.22
   5  -1  -1   24.90    1.44
   5  -1  -1   24.45    1.17
  -5   1   1   23.58    1.17
  -5   1   1   24.73    1.16
  -5   1   1   24.19    1.35
   4  -1  -1   79.12    3.26
   4  -1  -1   77.02    3.00
   4  -1  -1   82.66    3.11
   4  -1  -1   79.54    3.04
   4  -1  -1   80.50    3.10
   4  -1  -1   84.03    3.06
   4  -1  -1   81.44    3.01
  -4   1   1   81.88    3.09
  -4   1   1   77.17    3.23
  -4   1   1   76.93    2.98
  -4   1   1   81.20    3.10
  -4   1   1   81.90    3.05
   3  -1  -1    1.75    0.20
   3  -1  -1    1.72    0.25
   3  -1  -1    1.71    0.24
   3  -1  -1    1.96    0.31
   3  -1  -1    1.93    0.25
   3  -1  -1    1.27    0.38
  -3   1   1    1.34    0.25
  -3   1   1    1.31    0.33
  -3   1   1    1.76    0.22
  -3   1   1    1.64    0.25
  -3   1   1    1.68    0.25
   2  -1  -1   84.38    3.03
   2  -1  -1   79.06    3.13
   2  -1  -1   83.67    3.05
   2  -1  -1   79.28    3.00
   2  -1  -1   80.94    3.02
   2  -1  -1   83.91    3.02
  -2   1   1   83.93    2.97
  -2   1   1   78.88    3.01
  -2   1   1   82.64    3.02
  -2   1   1   82.04    3.05
  -2   1   1   82.26    3.03
  -2   1   1   79.02    3.12
   1  -1  -1    2.69    0.16
   1  -1  -1    2.11    0.17
   1  -1  -1    2.32    0.15
   1  -1  -1    2.60    0.22
   1  -1  -1    2.44    0.19
   1  -1  -1    2.38    0.17
   1  -1  -1    2.53    0.18
  -1   1   1    2.73    0.18
  -1   1   1    2.32    0.22
  -1   1   1    2.56    0.15
  -1   1   1    2.74    0.19
  -1   1   1    2.50    0.18
  -1   1   1    2.52    0.16
   0  -1  -1   17.95    0.72
   0  -1  -1   18.58    0.72
   0  -1  -1   18.33    0.72
   0  -1  -1   18.58    0.71
   0   1   1   18.05    0.71
   0   1   1   20.10    0.73
   0   1   1   19.08    0.72
   0   1   1   17.74    0.72
   0   1   1   18.56    0.69
  -1  -1  -1    5.02    0.25
  -1  -1  -1    4.95    0.24
  -1  -1  -1    5.20    0.24
  -1  -1  -1    6.19    0.27
   1   1   1    5.16    0.24
   1   1   1    5.29    0.24
   1   1   1    4.78    0.21
  -2  -1  -1    3.97    0.25
  -2  -1  -1    3.95    0.26
  -2  -1  -1    4.35    0.32
   2   1   1    4.80    0.27
   2   1   1    4.37    0.31
   2   1   1    4.31    0.23
   2   1   1    4.05    0.28
  -3  -1  -1    5.19    0.33
  -3  -1  -1    4.81    0.34
  -3  -1  -1    4.90    0.40
   3   1   1    4.81    0.44
   3   1   1    5.78    0.38
   3   1   1    5.26    0.34
   3   1   1    4.62    0.30
   3   1   1    4.40    0.42
  -4  -1  -1  110.50    4.22
  -4  -1  -1  113.01    4.18
   4   1   1  114.29    4.33
   4   1   1  113.35    4.19
   4   1   1  112.72    4.25
   4   1   1  112.07    4.18
   4   1   1  109.10    4.31
  -5  -1  -1    6.84    0.55
  -5  -1  -1    7.16    0.54
   5   1   1    6.91    0.66
   5   1   1    6.89    0.80
   5   1   1    8.51    0.83
   5   1   1    6.96    0.54
   5   1   1    5.13    0.54
   5   1   1    6.94    0.46
  -6  -1  -1  157.69    5.99
  -6  -1  -1  159.82    5.92
   6   1   1  157.87    5.87
   6   1   1  159.54    5.92
   6   1   1  155.64    6.04
   6   1   1  154.64    6.18
   6   1   1  156.06    5.96
   6   1   1  162.82    6.15
  -7  -1  -1   10.32    0.86
   7   1   1    6.78    0.90
   7   1   1    7.62    0.70
   7   1   1    8.53    1.31
   7   1   1    9.04    1.23
   7   1   1    8.13    1.44
   7   1   1    9.61    0.95
   8   1   1   65.05    3.34
   8  -2  -1    0.21    0.71
  -8   2   1    1.39    0.68
   7  -2  -1    1.10    0.41
   7  -2  -1    0.23    0.76
   7  -2  -1    0.66    0.54
   7  -2  -1    1.02    0.51
  -7   2   1    1.14    0.49
   6  -2  -1    0.82    0.41
   6  -2  -1    1.36    0.32
   6  -2  -1    0.89    0.38
   6  -2  -1    0.49    0.46
  -6   2   1    0.21    0.32
  -6   2   1    0.68    0.48
   5  -2  -1    2.53    0.40
   5  -2  -1    1.00    0.39
   5  -2  -1    1.40    0.34
   5  -2  -1    1.94    0.39
   5  -2  -1    2.36    0.46
   5  -2  -1    1.24    0.50
  -5   2   1    1.45    0.38
  -5   2   1    1.74    0.41
  -5   2   1    2.41    0.51
   4  -2  -1    0.42    0.20
   4  -2  -1   -0.01    0.19
   4  -2  -1    0.28    0.31
   4  -2  -1    0.06    0.14
   4  -2  -1    0.15    0.22
   4  -2  -1    0.07    0.16
  -4   2   1    0.01    0.19
  -4   2   1   -0.17    0.22
  -4   2   1    0.07    0.17
  -4   2   1    0.46    0.30
  -4   2   1    0.21    0.16
   3  -2  -1   46.29    1.76
   3  -2  -1   47.19    1.86
   3  -2  -1   46.66    1.78
   3  -2  -1   45.17    1.79
   3  -2  -1   44.87    1.79
   3  -2  -1   44.83    1.97
   3  -2  -1   46.52    1.84
   3  -2  -1   45.87    1.77
  -3   2   1   43.84    1.77
  -3   2   1   47.62    1.79
  -3   2   1   48.33    1.85
  -3   2   1   44.12    1.95
  -3   2   1   46.01    1.79
  -3   2   1   45.20    1.77
   2  -2  -1    3.67    0.26
   2  -2  -1    3.39    0.25
   2  -2  -1    3.53    0.37
   2  -2  -1    3.48    0.27
   2  -2  -1    3.27    0.28
   2  -2  -1    2.83    0.25
   2  -2  -1    3.50    0.28
  -2   2   1    3.50    0.28
  -2   2   1    3.53    0.36
  -2   2   1    3.32    0.29
  -2   2   1    3.67    0.23
  -2   2   1    3.43    0.25
  -2   2   1    3.36    0.26
  -2   2   1    3.47    0.25
   1  -2  -1  507.98   17.99
   1  -2  -1  493.58   18.00
  -1   2   1  523.94   17.98
  -1   2   1  478.31   18.06
   0  -2  -1    0.58    0.13
   0  -2  -1    0.59    0.12
   0  -2  -1    0.54    0.10
   0  -2  -1    0.50    0.12
   0  -2  -1    0.52    0.08
   0  -2  -1    0.48    0.11
   0  -2  -1    0.36    0.09
   0   2   1    0.44    0.10
   0   2   1    0.41    0.10
   0   2   1    0.41    0.09
   0   2   1    0.40    0.08
   0   2   1    0.41    0.12
   0   2   1    0.39    0.11
   0   2   1    0.71    0.13
  -1  -2  -1  440.12   16.11
  -1  -2  -1  475.54   16.13
  -1  -2  -1  428.91   16.11
  -1  -2  -1  444.23   16.13
   1   2   1  448.17   16.12
   1   2   1  467.58   16.13
   1   2   1  438.06   16.13
  -2  -2  -1    1.95    0.15
  -2  -2  -1    2.34    0.21
  -2  -2  -1    2.40    0.21
  -2  -2  -1    2.01    0.19
  -2  -2  -1    2.16    0.18
  -2  -2  -1    2.15    0.20
   2   2   1    2.26    0.21
   2   2   1    1.92    0.18
   2   2   1    2.21    0.22
   2   2   1    2.15    0.19
   2   2   1    2.18    0.23
   2   2   1    2.07    0.22
  -3  -2  -1  401.45   15.17
  -3  -2  -1  410.97   15.18
  -3  -2  -1  429.12   15.13
  -3  -2  -1  415.37   15.13
  -3  -2  -1  437.06   15.08
   3   2   1  427.76   15.14
   3   2   1  419.54   15.14
   3   2   1  409.81   15.12
   3   2   1  414.54   15.09
   3   2   1  429.50   15.08
   3   2   1  421.93   15.17
  -4  -2  -1   12.30    0.71
  -4  -2  -1   12.49    0.68
   4   2   1   12.64    0.76
   4   2   1   14.43    0.87
   4   2   1   14.13    0.70
  -5  -2  -1  156.35    5.81
  -5  -2  -1  160.49    5.75
   5   2   1  141.82    5.68
   5   2   1  153.49    5.94
   5   2   1  153.20    5.74
   5   2   1  159.35    5.75
   5   2   1  155.99    5.84
   5   2   1  153.09    5.83
  -6  -2  -1   13.66    0.90
  -6  -2  -1   14.22    0.86
   6   2   1   13.49    0.87
   6   2   1   13.83    0.91
   6   2   1   12.60    1.05
   6   2   1   12.24    1.23
   6   2   1   13.11    1.09
  -7  -2  -1    9.46    0.88
   7   2   1    9.05    0.96
   7   2   1    5.21    1.60
   7   2   1    8.72    1.16
   7   2   1    9.16    1.24
   8   2   1    9.49    1.71
   8  -3  -1   24.95    1.78
  -8   3   1   24.72    1.58
   7  -3  -1   13.36    1.13
   7  -3  -1   14.05    1.07
   7  -3  -1   11.00    0.95
  -7   3   1   14.30    1.45
  -7   3   1   11.00    0.97
   6  -3  -1  146.49    6.31
   6  -3  -1  163.95    5.93
   6  -3  -1  159.86    5.91
   6  -3  -1  157.55    5.91
   6  -3  -1  161.76    6.09
  -6   3   1  153.98    6.26
  -6   3   1  162.32    5.96
   5  -3  -1   32.47    1.39
   5  -3  -1   32.79    1.41
   5  -3  -1   29.60    1.79
   5  -3  -1   32.50    1.35
   5  -3  -1   31.02    1.37
   5  -3  -1   31.79    1.51
  -5   3   1   32.37    1.40
  -5   3   1   30.28    1.66
  -5   3   1   31.93    1.53
  -5   3   1   32.00    1.34
   4  -3  -1  148.72    5.74
   4  -3  -1  152.69    5.48
   4  -3  -1  152.69    5.47
   4  -3  -1  143.08    5.43
   4  -3  -1  149.66    5.55
   4  -3  -1  150.63    5.47
   4  -3  -1  145.45    5.45
   4  -3  -1  148.11    5.57
  -4   3   1  142.61    5.43
  -4   3   1  143.01    5.70
  -4   3   1  150.00    5.56
  -4   3   1  138.84    5.46
  -4   3   1  150.86    5.47
  -4   3   1  148.01    5.46
   3  -3  -1   47.48    1.93
   3  -3  -1   46.36    1.92
   3  -3  -1   48.12    1.91
   3  -3  -1   48.73    2.00
   3  -3  -1   49.57    1.97
   3  -3  -1   51.67    1.93
   3  -3  -1   47.52    1.92
  -3   3   1   51.41    1.92
  -3   3   1   50.14    1.90
  -3   3   1   49.35    1.94
  -3   3   1   49.79    2.00
  -3   3   1   46.89    1.92
  -3   3   1   51.07    1.85
  -3   3   1   47.61    2.10
   2  -3  -1  397.47   14.42
   2  -3  -1  401.67   14.43
   2  -3  -1  396.06   14.43
   2  -3  -1  372.83   14.43
   2  -3  -1  401.36   14.48
   2  -3  -1  417.68   14.45
   2  -3  -1  396.76   14.44
  -2   3   1  399.73   14.43
  -2   3   1  398.18   14.42
  -2   3   1  372.12   14.54
  -2   3   1  408.70   14.44
  -2   3   1  417.69   14.43
  -2   3   1  412.63   14.48
  -2   3   1  404.26   14.40
   1  -3  -1    4.34    0.31
   1  -3  -1    4.58    0.30
   1  -3  -1    4.53    0.31
   1  -3  -1    4.55    0.28
   1  -3  -1    4.77    0.32
   1  -3  -1    4.76    0.32
   1  -3  -1    4.25    0.30
  -1   3   1    4.69    0.32
  -1   3   1    3.76    0.32
  -1   3   1    4.25    0.30
  -1   3   1    4.54    0.32
  -1   3   1    4.65    0.31
  -1   3   1    4.73    0.33
  -1   3   1    4.50    0.28
   0  -3  -1  192.91    7.49
   0  -3  -1  209.08    7.51
   0  -3  -1  210.96    7.52
   0  -3  -1  196.19    7.47
   0  -3  -1  210.92    7.53
   0  -3  -1  203.12    7.53
   0   3   1  214.52    7.53
   0   3   1  211.04    7.53
   0   3   1  210.78    7.51
   0   3   1  213.10    7.54
   0   3   1  211.37    7.51
   0   3   1  208.77    7.49
   0   3   1  196.07    7.45
  -1  -3  -1    7.30    0.37
  -1  -3  -1    7.39    0.41
  -1  -3  -1    6.90    0.40
  -1  -3  -1    6.79    0.37
  -1  -3  -1    6.68    0.40
   1   3   1    7.26    0.39
   1   3   1    7.29    0.40
   1   3   1    7.56    0.41
   1   3   1    6.77    0.38
   1   3   1    6.99    0.37
   1   3   1    6.77    0.40
  -2  -3  -1  182.60    6.84
  -2  -3  -1  185.38    6.79
  -2  -3  -1  182.76    6.82
  -2  -3  -1  182.66    6.83
  -2  -3  -1  181.20    6.79
   2   3   1  193.01    6.83
   2   3   1  194.55    6.82
   2   3   1  188.62    6.83
   2   3   1  197.33    6.84
   2   3   1  182.81    6.85
   2   3   1  188.15    6.81
  -3  -3  -1   17.39    0.84
  -3  -3  -1   17.66    0.78
  -3  -3  -1   17.94    0.82
  -3  -3  -1   17.55    0.81
  -3  -3  -1   17.69    0.84
   3   3   1   16.91    0.78
   3   3   1   17.77    0.85
   3   3   1   16.58    0.77
   3   3   1   18.28    0.84
   3   3   1   17.71    0.84
   3   3   1   17.87    0.78
  -4  -3  -1    0.52    0.23
  -4  -3  -1    0.67    0.22
  -4  -3  -1    0.06    0.24
  -4  -3  -1    0.47    0.22
  -4  -3  -1    0.92    0.19
   4   3   1    0.36    0.26
   4   3   1    0.25    0.22
   4   3   1    0.36    0.20
   4   3   1    0.46    0.27
   4   3   1    0.61    0.18
  -5  -3  -1   20.07    1.01
  -5  -3  -1   19.25    1.04
   5   3   1   19.86    0.95
   5   3   1   20.12    1.14
   5   3   1   20.12    1.02
   5   3   1   20.75    1.05
   5   3   1   21.59    1.28
   5   3   1   21.53    1.11
  -6  -3  -1   13.89    0.93
  -6  -3  -1   13.71    0.89
   6   3   1   13.32    0.87
   6   3   1   12.10    0.93
   6   3   1   13.17    1.32
   6   3   1   13.26    0.88
   6   3   1   13.66    0.96
  -7  -3  -1   20.65    1.21
   7   3   1   17.85    1.21
   7   3   1   17.03    1.29
   7   3   1   18.46    1.24
   7   3   1   18.62    1.34
  -8  -3  -1   23.98    1.60
   8   3   1   25.35    1.57
   7  -4  -1   24.15    1.63
   7  -4  -1   24.75    1.38
   7  -4  -1   25.27    1.49
  -7   4   1   23.90    1.34
  -7   4   1   23.77    1.81
   6  -4  -1    0.28    0.32
   6  -4  -1    0.51    0.50
   6  -4  -1    1.12    0.32
   6  -4  -1    0.38    0.32
   6  -4  -1    0.85    0.41
  -6   4   1    0.61    0.51
  -6   4   1    1.17    0.37
   5  -4  -1   17.03    0.93
   5  -4  -1   17.76    0.91
   5  -4  -1   18.52    1.09
   5  -4  -1   17.39    0.91
   5  -4  -1   18.56    0.95
   5  -4  -1   16.11    0.95
  -5   4   1   17.91    0.95
  -5   4   1   16.69    1.01
  -5   4   1   17.96    1.23
  -5   4   1   17.71    0.90
   4  -4  -1    0.45    0.23
   4  -4  -1    0.55    0.24
   4  -4  -1    0.21    0.23
   4  -4  -1    0.29    0.28
   4  -4  -1    0.28    0.20
   4  -4  -1    0.41    0.28
   4  -4  -1    0.48    0.22
  -4   4   1    0.31    0.35
  -4   4   1   -0.02    0.31
  -4   4   1    0.00    0.27
  -4   4   1    0.63    0.22
  -4   4   1    0.12    0.23
  -4   4   1    0.28    0.23
   3  -4  -1   31.98    1.43
   3  -4  -1   31.63    1.37
   3  -4  -1   32.06    1.38
   3  -4  -1   31.94    1.36
   3  -4  -1   31.79    1.35
   3  -4  -1   32.60    1.37
   3  -4  -1   32.59    1.40
  -3   4   1   31.90    1.36
  -3   4   1   29.77    1.33
  -3   4   1   32.42    1.43
  -3   4   1   32.74    1.37
  -3   4   1   31.64    1.54
  -3   4   1   33.71    1.30
   2  -4  -1    5.13    0.39
   2  -4  -1    5.21    0.43
   2  -4  -1    5.45    0.42
   2  -4  -1    4.96    0.41
   2  -4  -1    5.18    0.39
   2  -4  -1    5.21    0.39
   2  -4  -1    4.48    0.40
  -2   4   1    5.06    0.42
  -2   4   1    5.10    0.43
  -2   4   1    5.49    0.41
  -2   4   1    5.53    0.42
  -2   4   1    5.14    0.44
  -2   4   1    4.75    0.49
  -2   4   1    5.28    0.37
   1  -4  -1    6.78    0.45
   1  -4  -1    7.46    0.46
   1  -4  -1    7.70    0.47
   1  -4  -1    7.54    0.45
   1  -4  -1    7.59    0.43
   1  -4  -1    6.76    0.44
  -1   4   1    7.47    0.46
  -1   4   1    7.41    0.47
  -1   4   1    6.89    0.43
  -1   4   1    7.12    0.46
  -1   4   1    8.03    0.46
  -1   4   1    6.94    0.41
   0  -4  -1    7.57    0.44
   0  -4  -1    9.03    0.44
   0  -4  -1    8.83    0.51
   0  -4  -1    8.99    0.50
   0  -4  -1    8.74    0.51
   0  -4  -1    8.66    0.48
   0  -4  -1    8.80    0.48
   0   4   1    8.61    0.46
   0   4   1    8.36    0.50
   0   4   1    8.10    0.41
   0   4   1    8.37    0.48
   0   4   1    9.07    0.52
   0   4   1    8.49    0.48
   0   4   1    8.54    0.52
  -1  -4  -1   24.44    1.06
  -1  -4  -1   25.46    1.10
  -1  -4  -1   25.88    1.09
  -1  -4  -1   23.74    1.08
  -1  -4  -1   24.96    1.06
   1   4   1   24.37    1.10
   1   4   1   26.65    1.10
   1   4   1   23.94    1.09
   1   4   1   26.13    1.00
   1   4   1   25.65    1.07
   1   4   1   25.03    1.07
   1   4   1   25.29    1.02
  -2  -4  -1    2.38    0.36
  -2  -4  -1    2.78    0.36
  -2  -4  -1    3.63    0.38
  -2  -4  -1    2.67    0.30
  -2  -4  -1    3.21    0.30
   2   4   1    3.16    0.38
   2   4   1    3.12    0.32
   2   4   1    2.86    0.32
   2   4   1    3.11    0.33
   2   4   1    2.93    0.32
   2   4   1    3.48    0.38
  -3  -4  -1  154.34    5.69
  -3  -4  -1  152.69    5.58
  -3  -4  -1  150.89    5.65
  -3  -4  -1  153.08    5.61
  -3  -4  -1  154.46    5.62
   3   4   1  152.71    5.67
   3   4   1  150.56    5.63
   3   4   1  153.82    5.66
   3   4   1  150.54    5.69
   3   4   1  153.09    5.62
   3   4   1  152.67    5.68
  -4  -4  -1    4.91    0.47
  -4  -4  -1    4.52    0.46
  -4  -4  -1    5.64    0.61
  -4  -4  -1    4.85    0.48
   4   4   1    4.56    0.45
   4   4   1    4.62    0.45
   4   4   1    4.82    0.61
   4   4   1    5.50    0.46
   4   4   1    4.70    0.56
   4   4   1    4.85    0.56
  -5  -4  -1  146.04    5.79
  -5  -4  -1  156.27    5.80
  -5  -4  -1  154.80    5.70
   5   4   1  154.25    5.75
   5   4   1  159.55    5.84
   5   4   1  153.27    5.87
   5   4   1  154.96    5.70
   5   4   1  155.61    5.73
   5   4   1  154.29    5.87
  -6  -4  -1    7.50    0.74
   6   4   1    7.77    0.78
   6   4   1    4.95    1.23
   6   4   1    6.14    0.71
   6   4   1    6.28    0.83
   6   4   1    7.30    0.58
  -7  -4  -1  155.13    5.89
   7   4   1  161.96    5.90
   7   4   1  150.24    5.87
   7   4   1  145.81    5.86
  -8  -4  -1   13.57    1.35
   8   4   1   10.31    1.38
   7  -5  -1   17.58    1.20
   7  -5  -1   16.72    1.49
  -7   5   1   15.27    1.09
  -7   5   1   13.23    1.56
   6  -5  -1   40.57    2.07
   6  -5  -1   44.17    1.95
   6  -5  -1   44.84    1.84
   6  -5  -1   39.36    1.86
   6  -5  -1   42.55    1.84
   6  -5  -1   40.61    1.86
  -6   5   1   39.77    2.27
  -6   5   1   38.31    2.01
   5  -5  -1    4.91    0.86
   5  -5  -1    6.54    0.64
   5  -5  -1    7.68    0.67
   5  -5  -1    7.97    0.72
   5  -5  -1    7.97    0.68
   5  -5  -1    7.26    0.82
   5  -5  -1    7.27    0.67
  -5   5   1    6.15    0.81
  -5   5   1    7.69    0.68
  -5   5   1    5.75    0.94
   4  -5  -1    9.03    0.67
   4  -5  -1    8.94    0.64
   4  -5  -1    8.35    0.65
   4  -5  -1    9.34    0.64
   4  -5  -1    8.47    0.64
   4  -5  -1    8.32    0.71
   4  -5  -1    8.85    0.74
  -4   5   1    7.54    0.85
  -4   5   1    7.90    0.66
  -4   5   1    7.46    0.68
   3  -5  -1    0.04    0.23
   3  -5  -1    0.00    0.23
   3  -5  -1    0.08    0.21
   3  -5  -1   -0.09    0.20
   3  -5  -1   -0.09    0.21
   3  -5  -1    0.51    0.23
   3  -5  -1   -0.20    0.26
  -3   5   1    0.47    0.32
  -3   5   1    0.03    0.26
  -3   5   1   -0.02    0.24
  -3   5   1   -0.05    0.24
  -3   5   1   -0.08    0.20
  -3   5   1    0.13    0.32
  -3   5   1   -0.11    0.21
   2  -5  -1   44.87    1.88
   2  -5  -1   44.43    1.85
   2  -5  -1   47.30    1.85
   2  -5  -1   45.25    1.87
   2  -5  -1   45.30    1.84
   2  -5  -1   43.28    1.83
   2  -5  -1   42.93    1.85
  -2   5   1   45.45    1.80
  -2   5   1   43.18    1.84
  -2   5   1   41.35    1.86
  -2   5   1   44.89    1.98
  -2   5   1   45.23    1.87
  -2   5   1   47.56    1.86
  -2   5   1   46.33    1.86
  -2   5   1   44.33    1.81
   1  -5  -1    3.26    0.38
   1  -5  -1    3.59    0.39
   1  -5  -1    3.13    0.41
   1  -5  -1    3.31    0.35
   1  -5  -1    4.33    0.41
   1  -5  -1    3.51    0.34
   1  -5  -1    3.50    0.41
  -1   5   1    3.71    0.40
  -1   5   1    3.49    0.38
  -1   5   1    2.98    0.41
  -1   5   1    3.66    0.42
  -1   5   1    3.51    0.40
  -1   5   1    3.67    0.41
  -1   5   1    3.36    0.33
   0  -5  -1  199.72    7.18
   0  -5  -1  195.38    7.19
   0  -5  -1  194.89    7.16
   0  -5  -1  206.43    7.20
   0  -5  -1  190.46    7.19
   0   5   1  194.55    7.18
   0   5   1  197.78    7.16
   0   5   1  194.07    7.20
   0   5   1  186.24    7.15
   0   5   1  188.51    7.08
   0   5   1  192.52    7.20
  -1  -5  -1    9.76    0.59
  -1  -5  -1   10.16    0.64
  -1  -5  -1   10.46    0.60
  -1  -5  -1   10.32    0.52
  -1  -5  -1   10.13    0.64
  -1  -5  -1   10.13    0.63
   1   5   1   10.50    0.61
   1   5   1   11.61    0.66
   1   5   1   10.41    0.52
   1   5   1   11.12    0.54
   1   5   1   10.75    0.61
   1   5   1   10.92    0.67
   1   5   1   10.42    0.63
  -2  -5  -1  161.61    6.06
  -2  -5  -1  167.32    6.10
  -2  -5  -1  156.97    6.05
  -2  -5  -1  162.24    6.12
  -2  -5  -1  168.69    6.12
   2   5   1  164.98    6.06
   2   5   1  165.05    6.08
   2   5   1  159.05    6.10
   2   5   1  162.93    6.13
   2   5   1  169.59    6.04
   2   5   1  165.23    6.11
  -3  -5  -1    0.72    0.28
  -3  -5  -1    0.53    0.18
  -3  -5  -1    0.17    0.23
  -3  -5  -1    0.51    0.23
  -3  -5  -1    0.52    0.25
  -3  -5  -1    0.29    0.19
   3   5   1    0.64    0.29
   3   5   1    0.24    0.28
   3   5   1    0.13    0.20
   3   5   1    0.07    0.23
   3   5   1    0.38    0.26
   3   5   1    0.72    0.25
  -4  -5  -1   17.15    0.78
  -4  -5  -1   17.49    0.83
  -4  -5  -1   16.73    1.03
  -4  -5  -1   17.13    0.91
  -4  -5  -1   16.16    0.87
   4   5   1   16.60    0.89
   4   5   1   17.28    1.00
   4   5   1   16.24    0.91
   4   5   1   17.82    0.91
   4   5   1   18.00    1.05
   4   5   1   18.01    0.99
  -5  -5  -1    2.27    0.52
  -5  -5  -1    2.32    0.46
  -5  -5  -1    2.20    0.54
   5   5   1    2.64    0.61
   5   5   1    3.04    0.55
   5   5   1    1.59    0.53
   5   5   1    2.10    0.52
   5   5   1    2.81    0.47
   5   5   1    1.60    0.47
  -6  -5  -1    5.53    0.77
  -6  -5  -1    5.73    0.93
   6   5   1    6.57    1.08
   6   5   1    6.43    0.64
   6   5   1    7.09    0.95
   6   5   1    3.72    1.00
   6   5   1    3.97    0.86
  -7  -5  -1    7.08    1.07
   7   5   1    8.37    0.78
   7   5   1    9.25    1.36
   7   5   1    7.86    1.18
   7   5   1    4.61    1.10
   7   5   1    9.32    1.08
  -8  -5  -1   11.88    1.48
   8   5   1    9.61    1.58
   7  -6  -1   -0.53    0.54
   7  -6  -1    0.68    0.60
   7  -6  -1   -0.41    0.90
   6  -6  -1    3.40    0.80
   6  -6  -1    2.84    0.57
   6  -6  -1    3.03    0.67
   6  -6  -1    3.95    0.79
   6  -6  -1    2.24    0.54
   6  -6  -1    3.72    1.03
  -6   6   1    2.41    0.76
  -6   6   1    3.19    0.89
   5  -6  -1   10.88    1.05
   5  -6  -1   14.58    0.93
   5  -6  -1   12.87    1.18
   5  -6  -1   13.86    0.93
   5  -6  -1   12.99    1.00
   5  -6  -1   11.09    0.90
   5  -6  -1   12.33    0.92
  -5   6   1   13.50    1.10
  -5   6   1   14.29    1.02
  -5   6   1   11.56    1.24
   4  -6  -1    4.44    0.58
   4  -6  -1    3.92    0.59
   4  -6  -1    3.67    0.63
   4  -6  -1    4.39    0.64
   4  -6  -1    2.71    0.69
   4  -6  -1    4.22    0.68
   4  -6  -1    3.86    0.59
  -4   6   1    3.86    0.50
  -4   6   1    3.36    0.69
  -4   6   1    3.83    0.89
  -4   6   1    4.74    0.52
   3  -6  -1   13.56    0.81
   3  -6  -1   12.64    0.81
   3  -6  -1    9.76    0.76
   3  -6  -1   10.76    0.76
   3  -6  -1   11.24    0.74
   3  -6  -1   11.20    0.84
   3  -6  -1   10.78    0.76
  -3   6   1   11.63    0.81
  -3   6   1   10.87    0.68
  -3   6   1   11.19    0.96
  -3   6   1   10.65    0.77
  -3   6   1   12.40    0.77
   2  -6  -1   -0.14    0.24
   2  -6  -1   -0.13    0.27
   2  -6  -1    0.20    0.24
   2  -6  -1    0.13    0.25
   2  -6  -1   -0.03    0.22
   2  -6  -1    0.11    0.23
   2  -6  -1   -0.09    0.23
  -2   6   1   -0.04    0.27
  -2   6   1   -0.03    0.22
  -2   6   1    0.61    0.34
  -2   6   1   -0.05    0.26
  -2   6   1    0.27    0.22
  -2   6   1   -0.04    0.25
  -2   6   1   -0.23    0.26
   1  -6  -1   19.08    1.03
   1  -6  -1   20.24    1.03
   1  -6  -1   20.14    0.99
   1  -6  -1   19.81    0.99
   1  -6  -1   19.18    0.95
   1  -6  -1   19.88    1.00
   1  -6  -1   20.45    1.02
  -1   6   1   20.97    0.99
  -1   6   1   19.29    1.04
  -1   6   1   19.57    1.01
  -1   6   1   20.10    0.93
  -1   6   1   19.50    1.04
  -1   6   1   20.10    1.02
   0  -6  -1   -0.12    0.19
   0  -6  -1   -0.01    0.24
   0  -6  -1    0.36    0.23
   0  -6  -1    0.10    0.18
   0  -6  -1    0.24    0.24
   0  -6  -1    0.63    0.24
   0   6   1    0.41    0.17
   0   6   1    0.34    0.24
   0   6   1   -0.05    0.23
   0   6   1    0.14    0.22
   0   6   1    0.41    0.26
   0   6   1    0.44    0.24
  -1  -6  -1  147.45    5.63
  -1  -6  -1  151.38    5.68
  -1  -6  -1  149.75    5.54
  -1  -6  -1  150.68    5.62
  -1  -6  -1  146.67    5.67
  -1  -6  -1  147.57    5.68
   1   6   1  155.04    5.65
   1   6   1  149.79    5.62
   1   6   1  148.46    5.68
   1   6   1  154.71    5.53
   1   6   1  147.41    5.54
   1   6   1  150.04    5.67
   1   6   1  156.90    5.72
  -2  -6  -1    9.35    0.72
  -2  -6  -1    9.67    0.69
  -2  -6  -1    9.12    0.71
  -2  -6  -1    8.18    0.59
  -2  -6  -1   10.20    0.63
   2   6   1   10.77    0.74
   2   6   1    9.25    0.66
   2   6   1    9.42    0.68
   2   6   1    9.16    0.60
   2   6   1    9.86    0.67
   2   6   1   10.04    0.75
  -3  -6  -1  100.93    3.80
  -3  -6  -1  102.11    3.94
  -3  -6  -1   99.91    3.92
  -3  -6  -1  100.49    3.86
  -3  -6  -1   98.33    3.97
  -3  -6  -1  101.64    3.90
   3   6   1  102.74    3.89
   3   6   1   95.91    3.93
   3   6   1  103.45    3.88
   3   6   1  101.69    4.00
   3   6   1  104.39    3.99
   3   6   1  104.84    3.92
  -4  -6  -1    3.57    0.53
  -4  -6  -1    2.79    0.46
  -4  -6  -1    2.39    0.57
  -4  -6  -1    2.66    0.43
   4   6   1    3.00    0.56
   4   6   1    2.63    0.50
   4   6   1    2.46    0.59
   4   6   1    3.01    0.70
   4   6   1    3.00    0.55
   4   6   1    1.71    0.37
  -5  -6  -1   10.69    0.87
  -5  -6  -1   12.29    0.74
  -5  -6  -1   11.61    0.86
   5   6   1    9.69    0.80
   5   6   1   10.30    1.03
   5   6   1   10.09    0.83
   5   6   1   10.41    0.94
   5   6   1    9.70    1.18
  -6  -6  -1    0.90    0.47
  -6  -6  -1    0.75    0.52
   6   6   1    0.36    0.59
   6   6   1    1.61    0.52
   6   6   1    1.28    0.58
   6   6   1    1.12    0.74
   6   6   1    1.12    0.42
  -7  -6  -1    0.07    0.69
   7   6   1    0.26    0.68
   7   6   1    0.67    0.45
   7   6   1   -0.61    0.60
   7   6   1   -0.27    0.87
   6  -7  -1   72.49    3.29
   6  -7  -1   71.55    3.00
   6  -7  -1   67.17    2.98
   6  -7  -1   69.85    2.99
  -6   7   1   65.44    3.17
  -6   7   1   68.04    3.40
   5  -7  -1   32.29    1.59
   5  -7  -1   30.05    1.56
   5  -7  -1   29.23    1.75
   5  -7  -1   29.64    1.67
   5  -7  -1   28.18    1.56
   5  -7  -1   29.22    1.57
  -5   7   1   28.90    1.61
  -5   7   1   28.77    1.93
   4  -7  -1  177.15    6.53
   4  -7  -1  169.54    6.53
   4  -7  -1  169.79    6.64
   4  -7  -1  173.19    6.52
   4  -7  -1  167.54    6.53
   4  -7  -1  169.61    6.55
  -4   7   1  173.51    6.77
  -4   7   1  172.93    6.55
  -4   7   1  177.27    6.37
  -4   7   1  165.76    6.39
   3  -7  -1   55.40    2.47
   3  -7  -1   54.24    2.39
   3  -7  -1   54.30    2.43
   3  -7  -1   59.12    2.43
   3  -7  -1   53.35    2.39
   3  -7  -1   56.85    2.39
   3  -7  -1   56.20    2.40
  -3   7   1   57.10    2.62
  -3   7   1   59.11    2.39
  -3   7   1   56.05    2.42
  -3   7   1   56.54    2.44
  -3   7   1   58.96    2.31
  -3   7   1   54.71    2.40
   2  -7  -1  162.91    5.90
   2  -7  -1  148.02    5.93
   2  -7  -1  157.94    5.94
   2  -7  -1  151.68    5.89
   2  -7  -1  149.39    5.90
   2  -7  -1  154.47    5.91
   2  -7  -1  160.87    5.93
  -2   7   1  153.45    5.94
  -2   7   1  162.13    5.92
  -2   7   1  156.27    5.84
  -2   7   1  154.35    5.91
  -2   7   1  154.44    5.89
  -2   7   1  156.39    5.84
   1  -7  -1   20.83    1.07
   1  -7  -1   20.08    1.13
   1  -7  -1   20.35    1.07
   1  -7  -1   21.39    1.12
   1  -7  -1   19.97    1.04
   1  -7  -1   18.47    1.08
   1  -7  -1   20.18    1.06
  -1   7   1   19.90    1.06
  -1   7   1   20.32    1.11
  -1   7   1   20.01    1.15
  -1   7   1   20.33    1.11
  -1   7   1   19.44    1.14
  -1   7   1   19.84    0.98
   0  -7  -1  114.34    4.41
   0  -7  -1  117.30    4.31
   0  -7  -1  118.11    4.43
   0  -7  -1  119.81    4.42
   0  -7  -1  109.54    4.35
   0  -7  -1  111.02    4.35
   0   7   1  112.91    4.39
   0   7   1  107.80    4.41
   0   7   1  110.57    4.34
   0   7   1  111.30    4.34
   0   7   1  112.57    4.25
   0   7   1  112.06    4.42
  -1  -7  -1    0.33    0.34
  -1  -7  -1    0.20    0.33
  -1  -7  -1    0.13    0.30
  -1  -7  -1    0.09    0.26
  -1  -7  -1    0.07    0.25
  -1  -7  -1    0.29    0.24
   1   7   1   -0.08    0.30
   1   7   1    0.02    0.32
   1   7   1    0.16    0.23
   1   7   1    0.16    0.28
   1   7   1   -0.08    0.31
   1   7   1    0.06    0.20
   1   7   1    0.05    0.29
  -2  -7  -1    9.23    0.68
  -2  -7  -1    9.11    0.83
  -2  -7  -1    9.22    0.82
  -2  -7  -1    9.32    0.79
  -2  -7  -1   10.04    0.69
   2   7   1    8.81    0.59
   2   7   1    8.89    0.72
   2   7   1    8.70    0.81
   2   7   1    8.45    0.75
   2   7   1    9.67    0.85
   2   7   1    8.99    0.74
   2   7   1    9.89    0.64
  -3  -7  -1   11.10    0.81
  -3  -7  -1   11.85    0.79
  -3  -7  -1   11.47    0.97
  -3  -7  -1   12.42    0.95
  -3  -7  -1   12.35    0.91
   3   7   1   11.84    0.88
   3   7   1   12.12    0.84
   3   7   1   13.45    1.00
   3   7   1   12.87    0.86
   3   7   1   13.38    1.02
   3   7   1   11.76    0.88
  -4  -7  -1    9.31    0.70
  -4  -7  -1    9.12    1.38
  -4  -7  -1    8.76    0.66
  -4  -7  -1    8.49    0.87
  -4  -7  -1    8.76    0.83
  -4  -7  -1    8.66    0.79
   4   7   1    9.20    1.07
   4   7   1    9.36    0.84
   4   7   1    8.81    0.81
   4   7   1    9.59    0.95
   4   7   1    8.19    0.91
   4   7   1    8.99    0.87
  -5  -7  -1   10.30    0.93
   5   7   1   10.07    1.34
   5   7   1   10.38    1.16
   5   7   1    9.81    0.89
   5   7   1   13.07    1.21
   5   7   1   10.27    0.98
   5   7   1    9.19    1.09
  -6  -7  -1   16.34    1.28
  -6  -7  -1   17.48    1.26
   6   7   1   16.73    1.30
   6   7   1   14.99    1.53
   6   7   1   14.95    1.44
   6   7   1   16.66    1.16
   6   7   1   16.80    1.82
  -7  -7  -1    3.11    0.90
   7   7   1    5.92    1.03
   7   7   1    4.32    0.88
   5  -8  -1   32.39    1.78
   5  -8  -1   29.51    1.74
   5  -8  -1   30.75    1.93
   5  -8  -1   32.38    1.75
  -5   8   1   33.09    2.21
   4  -8  -1    1.00    0.61
   4  -8  -1    1.40    0.61
   4  -8  -1    1.48    0.53
   4  -8  -1    1.74    0.55
   4  -8  -1    1.68    0.53
   4  -8  -1    1.54    0.67
   4  -8  -1    1.88    0.54
  -4   8   1    1.91    0.77
  -4   8   1    1.69    0.51
  -4   8   1    1.85    0.46
  -4   8   1    0.86    0.68
  -4   8   1    0.90    0.57
   3  -8  -1   15.30    1.06
   3  -8  -1   15.24    1.06
   3  -8  -1   14.29    1.13
   3  -8  -1   17.56    1.14
   3  -8  -1   17.32    1.18
   3  -8  -1   14.96    1.14
  -3   8   1   15.73    1.02
  -3   8   1   13.55    1.16
  -3   8   1   16.97    1.38
  -3   8   1   13.86    1.17
  -3   8   1   14.39    1.08
   2  -8  -1   13.21    1.00
   2  -8  -1   15.45    1.03
   2  -8  -1   15.72    1.10
   2  -8  -1   14.60    1.05
   2  -8  -1   14.30    0.98
   2  -8  -1   13.70    1.05
   2  -8  -1   14.88    1.05
  -2   8   1   14.50    1.06
  -2   8   1   14.68    1.13
  -2   8   1   14.09    0.99
  -2   8   1   16.36    0.93
  -2   8   1   15.42    1.12
   1  -8  -1    0.15    0.36
   1  -8  -1    0.17    0.38
   1  -8  -1   -0.21    0.33
   1  -8  -1    0.53    0.35
   1  -8  -1    0.11    0.40
  -1   8   1    0.36    0.42
  -1   8   1    0.57    0.47
  -1   8   1    0.20    0.44
  -1   8   1    0.40    0.30
  -1   8   1   -0.52    0.35
  -1   8   1   -0.20    0.39
   0  -8  -1    9.10    0.80
   0  -8  -1   11.42    0.78
   0  -8  -1   11.07    0.91
   0  -8  -1    9.39    0.79
   0  -8  -1   11.16    0.93
   0   8   1    9.84    0.84
   0   8   1    9.65    0.91
   0   8   1   12.03    0.96
   0   8   1   10.47    0.70
   0   8   1   12.12    0.97
  -1  -8  -1   29.24    1.41
  -1  -8  -1   28.02    1.38
  -1  -8  -1   29.66    1.51
  -1  -8  -1   27.76    1.50
  -1  -8  -1   27.81    1.28
  -1  -8  -1   27.12    1.48
   1   8   1   27.81    1.41
   1   8   1   29.12    1.53
   1   8   1   28.47    1.50
   1   8   1   28.32    1.26
   1   8   1   23.59    1.47
  -2  -8  -1   10.52    0.80
  -2  -8  -1    9.63    1.00
  -2  -8  -1    9.01    1.00
  -2  -8  -1    9.68    0.91
  -2  -8  -1   10.65    0.79
   2   8   1    9.88    0.90
   2   8   1    9.61    0.69
   2   8   1   10.06    0.72
   2   8   1   10.34    0.90
   2   8   1    9.04    0.87
   2   8   1    9.68    1.00
   2   8   1   11.54    1.06
  -3  -8  -1   63.69    2.81
  -3  -8  -1   71.38    2.73
  -3  -8  -1   61.10    2.84
  -3  -8  -1   68.43    2.90
  -3  -8  -1   66.69    2.74
   3   8   1   62.27    2.88
   3   8   1   63.50    2.61
   3   8   1   63.46    2.81
   3   8   1   63.96    2.79
   3   8   1   68.36    2.70
   3   8   1   67.81    2.92
   3   8   1   66.88    2.76
  -4  -8  -1    1.04    0.50
  -4  -8  -1    0.04    0.31
  -4  -8  -1    0.57    0.40
  -4  -8  -1    0.46    0.49
  -4  -8  -1    1.40    0.67
  -4  -8  -1    0.21    0.44
   4   8   1    0.23    0.40
   4   8   1   -0.02    0.53
   4   8   1    1.34    0.59
   4   8   1    0.36    0.53
   4   8   1    0.16    0.61
   4   8   1    1.27    0.70
  -5  -8  -1  100.60    4.03
  -5  -8  -1   93.06    3.88
  -5  -8  -1   99.46    4.04
  -5  -8  -1  106.12    3.82
   5   8   1   95.68    4.27
   5   8   1   94.90    4.11
   5   8   1   98.20    3.98
   5   8   1  100.12    4.03
   5   8   1  101.91    4.19
  -6  -8  -1   -0.28    0.71
   6   8   1    0.08    0.53
   6   8   1    0.00    0.80
   6   8   1    0.71    0.82
   5  -9  -1   -0.21    0.77
   5  -9  -1    0.40    0.68
   5  -9  -1    0.42    0.89
   5  -9  -1    0.16    0.69
  -5   9   1   -0.62    1.09
   4  -9  -1   15.98    1.52
   4  -9  -1   17.83    1.46
   4  -9  -1   14.60    1.39
   4  -9  -1   16.65    1.36
  -4   9   1   16.81    1.23
  -4   9   1   22.52    1.93
  -4   9   1   18.83    1.30
   3  -9  -1    0.94    0.57
   3  -9  -1    0.52    0.61
   3  -9  -1    1.38    0.67
   3  -9  -1    1.20    0.60
   3  -9  -1    1.16    0.64
   3  -9  -1    0.76    0.59
  -3   9   1   -0.28    0.51
  -3   9   1    1.19    0.65
  -3   9   1    1.14    0.57
  -3   9   1    3.94    1.18
   2  -9  -1  138.76    5.32
   2  -9  -1  141.93    5.35
   2  -9  -1  129.78    5.29
   2  -9  -1  132.26    5.28
   2  -9  -1  134.34    5.37
  -2   9   1  124.79    5.30
  -2   9   1  138.48    5.19
  -2   9   1  140.49    5.39
  -2   9   1  120.52    5.28
  -2   9   1  142.52    5.34
   1  -9  -1   23.83    1.41
   1  -9  -1   24.25    1.41
   1  -9  -1   24.66    1.51
   1  -9  -1   22.54    1.53
   1  -9  -1   25.70    1.39
  -1   9   1   26.27    1.27
  -1   9   1   23.03    1.54
  -1   9   1   24.68    1.55
   0  -9  -1  186.21    6.88
   0  -9  -1  181.36    7.03
   0  -9  -1  182.82    7.05
   0  -9  -1  185.24    6.98
   0  -9  -1  175.46    6.94
   0   9   1  182.84    7.09
   0   9   1  180.46    7.03
   0   9   1  188.67    7.09
   0   9   1  180.72    6.80
  -1  -9  -1   21.13    1.27
  -1  -9  -1   21.32    1.43
  -1  -9  -1   21.65    1.17
  -1  -9  -1   22.41    1.29
  -1  -9  -1   22.55    1.47
   1   9   1   23.83    1.48
   1   9   1   21.40    1.42
   1   9   1   24.70    1.57
   1   9   1   21.44    1.12
   1   9   1   20.74    1.42
  -2  -9  -1  184.31    6.91
  -2  -9  -1  175.94    7.07
  -2  -9  -1  191.28    6.95
  -2  -9  -1  182.35    7.04
   2   9   1  193.97    7.10
   2   9   1  174.04    6.93
   2   9   1  177.24    7.05
   2   9   1  183.26    7.11
   2   9   1  173.00    6.76
   2   9   1  188.77    6.79
  -3  -9  -1    1.62    0.53
  -3  -9  -1    0.26    0.69
  -3  -9  -1    1.17    0.48
  -3  -9  -1    1.60    0.63
   3   9   1    2.24    0.77
   3   9   1   -0.25    0.65
   3   9   1    1.80    0.55
   3   9   1    0.57    0.54
   3   9   1    0.97    0.63
   3   9   1    0.69    0.65
   3   9   1    0.76    0.40
  -4  -9  -1  108.51    4.27
  -4  -9  -1  107.76    4.15
  -4  -9  -1  114.48    4.45
  -4  -9  -1  112.92    4.38
   4   9   1  104.00    4.44
   4   9   1  110.97    4.65
   4   9   1  100.03    4.57
   4   9   1  105.07    4.20
   4   9   1  111.62    4.42
   4   9   1  111.05    4.60
  -5  -9  -1    6.23    1.24
  -5  -9  -1    4.32    0.85
  -5  -9  -1    5.78    0.92
   5   9   1    4.48    1.13
   5   9   1    4.22    0.96
   5   9   1    5.00    1.40
  -6  -9  -1    9.97    1.48
   6   9   1   11.83    1.81
   6   9   1    6.48    1.50
   4 -10  -1   29.50    2.12
   4 -10  -1   28.17    1.93
   4 -10  -1   24.85    1.93
   4 -10  -1   26.87    1.88
  -4  10   1   27.06    2.42
   3 -10  -1   87.94    3.79
   3 -10  -1   84.86    3.79
   3 -10  -1   85.77    3.73
   3 -10  -1   83.18    3.68
  -3  10   1   88.12    3.64
  -3  10   1   85.42    3.98
  -3  10   1   76.05    3.54
   2 -10  -1    7.51    1.15
   2 -10  -1   10.13    1.17
   2 -10  -1    7.11    1.32
   2 -10  -1    7.38    1.36
   2 -10  -1    6.49    1.23
  -2  10   1    5.84    1.57
  -2  10   1    6.42    1.30
  -2  10   1    7.20    1.16
  -2  10   1    9.85    1.37
   1 -10  -1   26.41    1.78
   1 -10  -1   25.95    1.59
   1 -10  -1   26.89    1.63
   1 -10  -1   26.88    1.60
   1 -10  -1   28.46    1.79
  -1  10   1   27.77    1.79
  -1  10   1   22.90    1.89
  -1  10   1   26.45    1.43
   0 -10  -1    1.96    0.59
   0 -10  -1    1.12    0.54
   0 -10  -1    0.89    0.58
   0 -10  -1    1.48    0.77
   0 -10  -1    1.73    0.72
   0  10   1    1.01    0.69
   0  10   1    2.61    0.72
   0  10   1    1.38    0.72
   0  10   1    1.45    0.80
  -1 -10  -1    1.76    0.60
  -1 -10  -1    1.39    0.77
  -1 -10  -1    2.25    0.58
  -1 -10  -1    1.88    0.69
  -1 -10  -1    2.20    0.61
   1  10   1    1.57    0.70
   1  10   1    2.01    0.80
   1  10   1    1.25    0.65
  -2 -10  -1   14.44    1.65
  -2 -10  -1   14.41    1.16
  -2 -10  -1   13.78    1.16
  -2 -10  -1   13.18    1.38
   2  10   1   13.59    1.46
   2  10   1   10.58    1.36
   2  10   1   14.28    0.96
   2  10   1   13.50    1.70
  -3 -10  -1    3.87    0.77
  -3 -10  -1    2.83    0.67
  -3 -10  -1    2.42    0.89
  -3 -10  -1    1.06    0.70
   3  10   1    2.01    0.71
   3  10   1    2.68    0.88
   3  10   1    1.93    0.97
   3  10   1    3.78    0.79
   3  10   1    1.12    0.67
  -4 -10  -1   14.04    1.32
  -4 -10  -1   14.96    1.28
  -4 -10  -1    9.97    1.46
  -4 -10  -1   13.05    0.99
  -4 -10  -1    9.74    1.74
   4  10   1   12.42    1.17
   4  10   1   13.59    1.47
   4  10   1   12.52    1.47
   4  10   1   14.16    1.77
  -5 -10  -1   13.40    1.30
  -5 -10  -1   11.13    1.48
   5  10   1   12.18    2.02
   5  10   1   14.12    1.56
   2 -11  -1    5.25    1.02
   2 -11  -1    5.09    1.16
   2 -11  -1    7.81    1.46
   2 -11  -1    9.06    1.56
  -2  11   1    8.39    1.68
  -2  11   1    2.06    1.26
  -2  11   1    5.55    1.35
   1 -11  -1   12.03    1.41
   1 -11  -1    8.10    1.32
   1 -11  -1    6.90    1.31
   1 -11  -1    7.38    2.06
   1 -11  -1    8.56    1.67
  -1  11   1    9.59    1.09
  -1  11   1   11.37    1.72
   0 -11  -1    0.39    0.81
   0 -11  -1    0.72    0.71
   0 -11  -1    0.65    0.71
   0 -11  -1    0.70    0.72
   0 -11  -1   -0.37    0.98
   0  11   1   -0.22    0.52
   0  11   1    0.50    0.90
   0  11   1    0.07    0.88
  -1 -11  -1    0.62    0.67
  -1 -11  -1    2.68    0.73
  -1 -11  -1    1.41    0.96
  -1 -11  -1    0.87    0.73
  -1 -11  -1    1.91    0.98
   1  11   1    1.94    1.19
   1  11   1   -0.17    0.50
   1  11   1    1.43    0.88
   1  11   1    0.93    0.89
  -2 -11  -1   17.11    1.76
  -2 -11  -1   17.25    1.45
  -2 -11  -1   12.53    1.35
   2  11   1   10.93    1.83
   2  11   1   15.98    1.73
   2  11   1   16.83    2.33
   2  11   1   13.82    1.07
  -3 -11  -1    5.64    1.11
  -3 -11  -1    7.33    1.26
  -3 -11  -1    4.84    0.91
   3  11   1    4.29    1.01
   3  11   1    4.82    1.17
   2  11  -2    3.19    1.19
   2  11  -2    2.55    0.85
   2  11  -2    0.15    1.02
  -2 -11   2    3.96    1.21
  -2 -11   2    2.77    0.86
  -2 -11   2    3.34    0.93
   1  11  -2   11.86    1.99
   1  11  -2   16.85    1.95
   1  11  -2   15.03    1.51
   1  11  -2   13.65    2.28
  -1 -11   2   17.87    1.69
  -1 -11   2   16.30    2.04
  -1 -11   2   17.53    1.59
  -1 -11   2   18.20    1.43
   0  11  -2   -0.07    0.96
   0  11  -2   -0.92    0.96
   0  11  -2    2.09    0.76
   0 -11   2    0.52    0.77
   0 -11   2   -0.75    1.04
   0 -11   2    0.44    1.10
   0 -11   2   -0.56    0.80
   0 -11   2    0.74    0.85
  -1  11  -2    9.10    1.42
  -1  11  -2    9.82    1.68
  -1  11  -2    9.56    1.46
   1 -11   2   10.00    1.53
   1 -11   2    9.56    1.59
   1 -11   2    8.65    1.91
   1 -11   2    9.09    1.56
  -2  11  -2    5.04    1.04
  -2  11  -2    4.54    1.06
   2 -11   2    4.20    1.13
   2 -11   2    5.65    1.24
   2 -11   2    8.11    1.42
   2 -11   2    6.06    1.66
   4  10  -2    7.64    1.74
   4  10  -2    9.04    2.04
  -4 -10   2   10.82    1.38
  -4 -10   2   11.06    1.40
   3  10  -2    5.60    0.90
   3  10  -2    5.47    1.11
   3  10  -2    6.82    1.22
  -3 -10   2    6.90    1.21
  -3 -10   2    5.97    1.63
  -3 -10   2    7.14    1.28
   2  10  -2    4.77    1.08
   2  10  -2    6.42    1.49
   2  10  -2    5.69    1.46
   2  10  -2    6.06    1.21
  -2 -10   2    6.95    1.08
  -2 -10   2    6.85    1.17
  -2 -10   2    4.48    0.86
  -2 -10   2    5.70    1.09
   1  10  -2    5.16    1.10
   1  10  -2    6.57    1.39
   1  10  -2    5.88    1.00
   1  10  -2    4.37    0.76
  -1 -10   2    5.06    0.82
  -1 -10   2    6.23    1.07
  -1 -10   2    4.21    0.96
  -1 -10   2    3.89    1.06
  -1 -10   2    2.51    0.82
   0  10  -2    1.42    0.59
   0  10  -2    1.55    0.93
   0  10  -2    1.61    0.76
   0  10  -2    3.42    0.86
   0 -10   2    1.41    0.78
   0 -10   2    2.11    0.67
   0 -10   2    1.88    0.66
   0 -10   2    2.06    0.84
   0 -10   2    1.66    0.68
  -1  10  -2   -0.31    0.80
  -1  10  -2    0.88    0.58
  -1  10  -2    0.34    0.70
   1 -10   2    0.20    0.73
   1 -10   2   -0.07    0.69
   1 -10   2    0.27    0.62
   1 -10   2    0.23    0.65
   1 -10   2    0.59    0.74
  -2  10  -2   14.80    1.62
  -2  10  -2   12.77    1.38
  -2  10  -2   10.57    1.28
  -2  10  -2    9.73    1.36
   2 -10   2   10.70    1.46
   2 -10   2   12.34    1.57
   2 -10   2   11.62    1.33
   2 -10   2    9.92    1.58
   2 -10   2   11.07    1.32
  -3  10  -2    8.41    1.34
  -3  10  -2    8.16    1.61
  -3  10  -2    6.48    1.23
  -3  10  -2    4.34    1.05
  -3  10  -2    6.29    1.26
   3 -10   2   10.03    1.64
   3 -10   2    7.38    1.48
   3 -10   2    8.00    1.52
   3 -10   2    7.11    1.40
  -4  10  -2   15.06    1.34
  -4  10  -2   18.07    1.77
  -4  10  -2   18.76    2.06
   4 -10   2   12.57    1.64
   4 -10   2   12.48    1.97
   4 -10   2   13.11    1.72
   4 -10   2   14.15    1.83
   5   9  -2   12.42    1.70
   5   9  -2    8.34    2.03
  -5  -9   2   13.30    1.50
  -5  -9   2   15.58    1.30
   4   9  -2    1.89    0.90
   4   9  -2    1.21    0.77
   4   9  -2    1.96    0.95
  -4  -9   2    2.12    0.75
  -4  -9   2    0.88    0.60
  -4  -9   2    1.08    0.83
  -4  -9   2    1.72    0.74
   3   9  -2   51.77    2.70
   3   9  -2   52.09    2.95
   3   9  -2   51.60    2.77
   3   9  -2   53.34    2.56
  -3  -9   2   54.80    2.48
  -3  -9   2   54.91    2.68
  -3  -9   2   59.22    2.47
  -3  -9   2   49.98    2.72
   2   9  -2    8.91    1.23
   2   9  -2    9.26    1.43
   2   9  -2    8.71    0.98
   2   9  -2    9.40    1.25
   2   9  -2    8.88    1.30
  -2  -9   2    9.41    1.02
  -2  -9   2    8.43    0.75
  -2  -9   2    9.73    0.97
  -2  -9   2    8.91    1.40
  -2  -9   2    7.84    1.46
  -2  -9   2    8.14    1.24
   1   9  -2  238.72    8.93
   1   9  -2  246.34    9.09
   1   9  -2  230.87    9.11
   1   9  -2  220.89    9.04
   1   9  -2  240.38    8.90
  -1  -9   2  242.83    8.80
  -1  -9   2  239.33    8.89
  -1  -9   2  207.81    9.00
  -1  -9   2  239.11    9.08
  -1  -9   2  253.64    8.98
  -1  -9   2  240.60    9.08
   0   9  -2   22.11    1.62
   0   9  -2   25.82    1.61
   0   9  -2   23.43    1.56
   0   9  -2   22.95    1.64
   0   9  -2   22.06    1.50
   0   9  -2   23.97    1.41
   0  -9   2   25.14    1.40
   0  -9   2   23.26    1.45
   0  -9   2   21.49    1.59
   0  -9   2   24.52    1.40
   0  -9   2   22.58    1.60
  -1   9  -2  300.01   10.75
  -1   9  -2  309.09   10.87
  -1   9  -2  245.69   10.60
  -1   9  -2  278.10   10.75
  -1   9  -2  269.00   10.67
   1  -9   2  300.12   10.69
   1  -9   2  299.73   10.75
   1  -9   2  289.10   10.70
   1  -9   2  298.34   10.77
   1  -9   2  259.71   10.69
   1  -9   2  292.16   10.82
  -2   9  -2   25.08    1.56
  -2   9  -2   22.20    1.63
  -2   9  -2   19.86    1.68
  -2   9  -2   23.57    1.46
   2  -9   2   25.62    1.60
   2  -9   2   19.89    1.57
   2  -9   2   24.69    1.60
   2  -9   2   26.19    1.52
   2  -9   2   23.48    1.51
   2  -9   2   23.39    1.54
  -3   9  -2   85.91    3.66
  -3   9  -2   88.14    3.55
  -3   9  -2   90.93    3.78
  -3   9  -2   85.84    3.57
  -3   9  -2   89.18    3.81
   3  -9   2   87.89    3.72
   3  -9   2   82.27    3.72
   3  -9   2   87.84    3.79
   3  -9   2   84.39    3.72
   3  -9   2   81.52    3.67
  -4   9  -2    8.09    0.98
  -4   9  -2    7.59    1.18
  -4   9  -2    8.30    1.52
  -4   9  -2   10.22    1.31
   4  -9   2    9.82    1.51
   4  -9   2    9.47    1.26
   4  -9   2   10.54    1.36
   4  -9   2    8.80    1.22
  -5   9  -2    0.87    0.76
  -5   9  -2    2.07    1.05
   5  -9   2    1.65    0.85
   5  -9   2    0.09    0.75
   5  -9   2   -0.74    0.72
   5  -9   2    7.32    1.68
   6   8  -2  189.47    7.70
  -6  -8   2  186.25    7.30
   5   8  -2    0.63    0.89
   5   8  -2    0.58    0.73
   5   8  -2    1.42    0.69
  -5  -8   2   -0.75    0.61
  -5  -8   2    0.33    0.76
  -5  -8   2    0.88    0.70
  -5  -8   2    0.68    0.52
   4   8  -2  263.60   10.12
   4   8  -2  254.02    9.97
   4   8  -2  269.60    9.83
   4   8  -2  259.91   10.19
   4   8  -2  276.70    9.76
  -4  -8   2  246.68    9.73
  -4  -8   2  264.66    9.87
  -4  -8   2  263.24    9.81
  -4  -8   2  263.15    9.93
   3   8  -2    4.82    1.34
   3   8  -2    3.96    1.06
   3   8  -2    5.57    0.94
   3   8  -2    3.95    1.00
   3   8  -2    4.08    0.82
   3   8  -2    4.65    0.88
  -3  -8   2    3.51    0.99
  -3  -8   2    3.19    0.87
  -3  -8   2    3.95    0.78
   2   8  -2   82.43    3.57
   2   8  -2   84.17    3.36
   2   8  -2   79.91    3.53
  -2  -8   2   80.73    3.30
  -2  -8   2   82.12    3.36
  -2  -8   2   79.53    3.12
  -2  -8   2   91.98    3.55
  -2  -8   2   77.06    3.55
   1   8  -2    0.42    0.49
   1   8  -2    0.47    0.52
   1   8  -2   -0.87    0.49
   1   8  -2   -0.02    0.50
   1   8  -2   -0.01    0.35
  -1  -8   2    0.15    0.52
  -1  -8   2    0.69    0.38
  -1  -8   2    0.31    0.48
  -1  -8   2    0.65    0.56
  -1  -8   2    0.66    0.40
  -1  -8   2    0.70    0.39
   0   8  -2    0.83    0.51
   0   8  -2    1.52    0.51
   0   8  -2    0.83    0.37
   0   8  -2    1.44    0.49
   0   8  -2    0.93    0.49
   0   8  -2    1.00    0.54
   0  -8   2    1.51    0.44
   0  -8   2    1.56    0.45
   0  -8   2    0.52    0.37
   0  -8   2    1.83    0.54
   0  -8   2    0.70    0.44
  -1   8  -2    0.28    0.50
  -1   8  -2   -0.10    0.35
  -1   8  -2    0.52    0.44
  -1   8  -2    0.44    0.44
  -1   8  -2    0.32    0.48
   1  -8   2    0.12    0.45
   1  -8   2    0.06    0.39
   1  -8   2    0.16    0.42
   1  -8   2   -0.12    0.39
   1  -8   2    0.16    0.41
   1  -8   2   -0.34    0.48
  -2   8  -2    1.25    0.47
  -2   8  -2    1.10    0.51
  -2   8  -2    0.79    0.43
  -2   8  -2    2.13    0.58
  -2   8  -2    0.98    0.47
   2  -8   2    0.81    0.49
   2  -8   2    1.07    0.45
   2  -8   2    1.41    0.49
   2  -8   2    1.68    0.53
   2  -8   2    1.16    0.49
   2  -8   2    0.70    0.47
  -3   8  -2    1.52    0.52
  -3   8  -2    0.86    0.66
  -3   8  -2    0.25    0.57
  -3   8  -2    0.91    0.62
  -3   8  -2    0.68    0.46
  -3   8  -2    0.52    0.48
  -3   8  -2    0.67    0.44
   3  -8   2    0.99    0.50
   3  -8   2    1.11    0.57
   3  -8   2    1.00    0.49
   3  -8   2    0.02    0.46
   3  -8   2    0.38    0.50
   3  -8   2    0.56    0.51
  -4   8  -2    0.92    0.53
  -4   8  -2    0.80    0.39
  -4   8  -2    0.24    0.97
  -4   8  -2    0.79    0.69
  -4   8  -2    0.85    0.57
   4  -8   2   -0.35    0.48
   4  -8   2    0.23    0.54
   4  -8   2    0.36    0.69
   4  -8   2    0.01    0.59
   4  -8   2    0.91    0.51
   4  -8   2    0.91    0.58
   4  -8   2    0.16    0.51
  -5   8  -2    8.33    1.44
  -5   8  -2    7.57    1.16
   5  -8   2    8.03    1.17
   5  -8   2   10.46    1.45
   5  -8   2    6.87    1.04
   5  -8   2    5.90    1.32
   5  -8   2    6.35    1.06
  -6   8  -2    2.61    1.01
   6  -8   2    4.39    1.21
   6  -8   2    1.88    0.70
   6  -8   2    3.57    1.12
   6  -8   2    5.57    1.46
   6   7  -2    2.57    1.03
   6   7  -2    5.04    1.23
  -6  -7   2    6.26    1.28
  -6  -7   2    7.32    1.25
   5   7  -2   -0.28    0.54
   5   7  -2   -0.89    0.72
   5   7  -2    1.83    1.07
   5   7  -2   -0.29    0.77
  -5  -7   2    0.11    0.58
  -5  -7   2    0.73    0.54
  -5  -7   2   -0.50    0.55
  -5  -7   2    0.58    0.43
  -5  -7   2    0.33    0.54
   4   7  -2    6.97    1.13
   4   7  -2    7.32    0.99
   4   7  -2    6.18    1.48
   4   7  -2    6.12    1.18
   4   7  -2    7.41    0.85
  -4  -7   2    8.08    0.82
  -4  -7   2    7.66    0.73
  -4  -7   2    7.58    0.95
  -4  -7   2    4.39    1.28
  -4  -7   2    7.24    0.86
  -4  -7   2    4.94    0.93
   3   7  -2    9.69    0.99
   3   7  -2    8.97    1.22
   3   7  -2    8.76    0.96
   3   7  -2    8.38    0.83
   3   7  -2   10.21    0.85
   3   7  -2    8.09    1.07
  -3  -7   2   10.34    0.79
  -3  -7   2    8.07    0.72
  -3  -7   2    8.85    0.95
  -3  -7   2    9.36    0.79
  -3  -7   2    9.99    1.19
   2   7  -2    5.68    0.95
   2   7  -2    6.02    0.63
   2   7  -2    6.87    0.79
   2   7  -2    7.09    0.85
   2   7  -2    6.03    0.74
   2   7  -2    7.24    0.91
  -2  -7   2    6.55    0.64
  -2  -7   2    6.03    0.87
  -2  -7   2    6.22    0.94
  -2  -7   2    6.64    0.69
  -2  -7   2    6.28    0.45
  -2  -7   2    5.91    0.61
  -2  -7   2    7.08    0.84
   1   7  -2    0.77    0.41
   1   7  -2    1.05    0.43
   1   7  -2    0.41    0.36
   1   7  -2    0.00    0.35
   1   7  -2    0.76    0.43
  -1  -7   2    0.01    0.37
  -1  -7   2    0.75    0.42
  -1  -7   2    0.18    0.29
  -1  -7   2    1.72    0.46
  -1  -7   2    0.51    0.30
   0   7  -2    2.48    0.69
   0   7  -2    2.29    0.49
   0   7  -2    2.50    0.69
   0   7  -2    2.76    0.66
   0   7  -2    1.96    0.51
   0   7  -2    1.72    0.43
   0  -7   2    2.89    0.69
   0  -7   2    2.50    0.48
   0  -7   2    2.89    0.65
   0  -7   2    2.97    0.54
   0  -7   2    2.02    0.41
   0  -7   2    2.60    0.56
  -1   7  -2   37.33    1.71
  -1   7  -2   38.12    1.76
  -1   7  -2   38.35    1.73
  -1   7  -2   39.10    1.79
  -1   7  -2   37.26    1.78
  -1   7  -2   38.33    1.84
   1  -7   2   37.28    1.76
   1  -7   2   39.19    1.76
   1  -7   2   39.02    1.83
   1  -7   2   36.40    1.76
   1  -7   2   35.49    1.72
   1  -7   2   38.14    1.75
  -2   7  -2   32.19    1.64
  -2   7  -2   32.02    1.62
  -2   7  -2   32.92    1.63
  -2   7  -2   32.67    1.58
  -2   7  -2   31.67    1.55
  -2   7  -2   34.55    1.53
   2  -7   2   33.44    1.60
   2  -7   2   33.14    1.60
   2  -7   2   33.36    1.59
   2  -7   2   32.18    1.60
   2  -7   2   31.92    1.62
   2  -7   2   34.17    1.66
  -3   7  -2  333.26   12.09
  -3   7  -2  331.63   12.03
  -3   7  -2  348.80   11.89
  -3   7  -2  319.63   12.00
  -3   7  -2  314.69   12.25
  -3   7  -2  339.14   11.91
  -3   7  -2  309.32   12.00
   3  -7   2  320.17   12.00
   3  -7   2  322.51   12.07
   3  -7   2  331.32   12.05
   3  -7   2  328.24   11.98
   3  -7   2  312.97   11.95
   3  -7   2  308.84   12.00
  -4   7  -2   41.89    1.76
  -4   7  -2   43.07    2.11
  -4   7  -2   43.25    2.01
   4  -7   2   39.95    2.01
   4  -7   2   37.39    2.02
   4  -7   2   39.90    1.91
   4  -7   2   39.79    1.90
   4  -7   2   44.04    1.93
   4  -7   2   40.89    1.92
  -5   7  -2  317.80   11.51
  -5   7  -2  308.54   11.39
  -5   7  -2  281.93   11.39
  -5   7  -2  300.07   11.24
   5  -7   2  297.86   11.47
   5  -7   2  304.34   11.40
   5  -7   2  321.99   11.28
   5  -7   2  310.43   11.31
   5  -7   2  298.11   11.26
   5  -7   2  300.16   11.25
  -6   7  -2   38.00    2.22
   6  -7   2   37.11    2.25
   6  -7   2   36.57    1.92
   6  -7   2   35.35    1.81
   6  -7   2   36.27    1.88
   6  -7   2   35.66    2.07
   7   6  -2    7.22    1.81
   7   6  -2    2.17    0.80
  -7  -6   2    4.35    0.96
  -7  -6   2    3.23    1.01
   6   6  -2    4.91    1.04
   6   6  -2    5.39    1.10
   6   6  -2    2.93    0.89
  -6  -6   2    5.42    1.10
  -6  -6   2    6.70    1.07
   5   6  -2    0.07    0.85
   5   6  -2   -0.05    0.62
   5   6  -2    0.33    0.70
   5   6  -2    0.46    0.45
   5   6  -2    0.13    0.65
  -5  -6   2    0.18    0.48
  -5  -6   2    0.36    0.39
  -5  -6   2    0.21    0.52
  -5  -6   2    0.10    0.32
  -5  -6   2   -0.81    0.43
   4   6  -2   81.29    3.28
   4   6  -2   78.23    3.35
   4   6  -2   76.73    3.32
   4   6  -2   79.33    3.57
   4   6  -2   81.65    3.13
   4   6  -2   81.46    3.47
  -4  -6   2   74.19    3.45
  -4  -6   2   82.93    3.22
  -4  -6   2   79.41    3.14
  -4  -6   2   79.10    3.18
  -4  -6   2   82.19    3.28
  -4  -6   2   85.01    3.33
   3   6  -2    5.42    0.98
   3   6  -2    6.18    0.76
   3   6  -2    5.34    0.66
   3   6  -2    6.40    0.86
   3   6  -2    5.41    0.78
   3   6  -2    4.83    0.60
  -3  -6   2    4.09    0.56
  -3  -6   2    5.38    0.93
  -3  -6   2    5.58    0.75
  -3  -6   2    5.49    0.61
  -3  -6   2    7.17    0.76
  -3  -6   2    5.77    0.54
   2   6  -2  384.17   13.76
   2   6  -2  391.10   13.78
   2   6  -2  382.07   13.97
   2   6  -2  361.09   13.96
   2   6  -2  392.24   13.98
   2   6  -2  373.92   13.86
  -2  -6   2  384.77   13.90
  -2  -6   2  363.62   13.78
  -2  -6   2  375.07   13.82
  -2  -6   2  391.64   13.94
  -2  -6   2  364.32   13.76
  -2  -6   2  381.68   13.98
   1   6  -2   15.44    0.99
   1   6  -2   16.32    0.91
   1   6  -2   15.29    0.87
   1   6  -2   14.84    1.01
   1   6  -2   13.25    0.96
  -1  -6   2   13.23    0.95
  -1  -6   2   15.67    0.98
  -1  -6   2   15.85    0.87
  -1  -6   2   16.01    1.01
  -1  -6   2   14.79    0.82
   0   6  -2  316.97   11.48
   0   6  -2  328.69   11.41
   0   6  -2  305.49   11.50
   0   6  -2  318.96   11.48
   0   6  -2  303.09   11.40
   0   6  -2  313.46   11.41
   0  -6   2  308.19   11.47
   0  -6   2  303.52   11.39
   0  -6   2  308.89   11.49
   0  -6   2  310.86   11.43
   0  -6   2  305.92   11.45
  -1   6  -2   23.77    1.16
  -1   6  -2   24.48    1.21
  -1   6  -2   22.36    1.22
  -1   6  -2   21.87    1.13
  -1   6  -2   23.32    1.18
  -1   6  -2   25.29    1.22
   1  -6   2   23.58    1.18
   1  -6   2   22.48    1.16
   1  -6   2   23.50    1.19
   1  -6   2   22.27    1.15
   1  -6   2   23.82    1.24
   1  -6   2   24.73    1.21
  -2   6  -2   68.04    2.64
  -2   6  -2   65.72    2.66
  -2   6  -2   62.86    2.55
  -2   6  -2   61.99    2.62
  -2   6  -2   66.06    2.60
  -2   6  -2   63.40    2.63
   2  -6   2   60.47    2.61
   2  -6   2   63.39    2.64
   2  -6   2   65.88    2.63
   2  -6   2   61.81    2.65
   2  -6   2   65.30    2.66
   2  -6   2   63.90    2.60
  -3   6  -2    1.45    0.44
  -3   6  -2    2.02    0.58
  -3   6  -2    1.71    0.47
  -3   6  -2    1.44    0.45
  -3   6  -2    2.20    0.56
  -3   6  -2    2.54    0.48
  -3   6  -2    1.44    0.36
   3  -6   2    1.87    0.49
   3  -6   2    1.24    0.38
   3  -6   2    1.97    0.52
   3  -6   2    1.21    0.34
   3  -6   2    1.89    0.46
   3  -6   2    2.23    0.52
   3  -6   2    1.28    0.40
  -4   6  -2    0.17    0.48
  -4   6  -2    0.15    0.45
  -4   6  -2    0.35    0.36
   4  -6   2   -0.14    0.36
   4  -6   2    0.51    0.33
   4  -6   2    0.11    0.40
   4  -6   2    0.12    0.31
   4  -6   2   -0.77    0.37
   4  -6   2   -0.32    0.30
   4  -6   2    0.61    0.33
  -5   6  -2    3.32    0.77
  -5   6  -2    3.51    0.70
  -5   6  -2    2.90    0.87
  -5   6  -2    3.41    0.81
   5  -6   2    3.79    0.72
   5  -6   2    3.03    0.84
   5  -6   2    3.07    0.63
   5  -6   2    3.03    0.65
   5  -6   2    2.40    0.62
   5  -6   2    2.54    0.66
   5  -6   2    3.52    0.87
  -6   6  -2    9.28    1.27
  -6   6  -2    9.91    1.35
   6  -6   2    7.12    1.09
   6  -6   2    8.58    1.15
   6  -6   2    7.56    0.90
   6  -6   2    7.98    0.90
   6  -6   2    6.98    0.82
   6  -6   2    9.38    1.25
   6  -6   2    8.38    0.88
  -7   6  -2    3.00    0.89
   7  -6   2    3.52    1.00
   7  -6   2    1.93    0.77
   7  -6   2    4.00    0.95
   7   5  -2   56.58    2.64
   7   5  -2   62.26    3.05
  -7  -5   2   62.14    2.71
  -7  -5   2   55.52    2.82
   6   5  -2    6.75    1.53
   6   5  -2    5.00    1.27
   6   5  -2    3.94    0.90
   6   5  -2    4.44    0.97
  -6  -5   2    4.76    0.96
  -6  -5   2    7.09    0.97
  -6  -5   2    5.05    0.90
   5   5  -2    8.34    1.13
   5   5  -2   10.52    1.45
   5   5  -2   10.18    0.91
   5   5  -2    6.97    1.26
   5   5  -2   11.67    1.14
   5   5  -2   12.06    1.16
  -5  -5   2   12.07    0.93
  -5  -5   2    8.85    0.82
   4   5  -2    0.60    0.41
   4   5  -2   -0.02    0.34
   4   5  -2    0.15    0.61
   4   5  -2    0.30    0.41
   4   5  -2    0.67    0.44
  -4  -5   2    0.47    0.37
  -4  -5   2    0.57    0.29
  -4  -5   2    0.97    0.32
  -4  -5   2    0.52    0.37
  -4  -5   2    0.77    0.32
   3   5  -2   20.34    1.09
   3   5  -2   21.16    1.24
   3   5  -2   21.92    1.01
   3   5  -2   22.45    1.39
   3   5  -2   22.53    1.22
   3   5  -2   21.14    1.13
  -3  -5   2   21.58    1.09
  -3  -5   2   21.88    1.17
  -3  -5   2   22.88    1.14
  -3  -5   2   21.19    1.04
  -3  -5   2   22.07    1.32
   2   5  -2    5.10    0.48
   2   5  -2    5.18    0.64
   2   5  -2    5.77    0.49
   2   5  -2    3.91    0.52
   2   5  -2    5.53    0.71
   2   5  -2    5.25    0.62
  -2  -5   2    5.20    0.48
  -2  -5   2    4.94    0.43
  -2  -5   2    5.27    0.60
  -2  -5   2    5.75    0.69
  -2  -5   2    5.73    0.47
  -2  -5   2    5.50    0.59
   1   5  -2   57.16    2.25
   1   5  -2   52.88    2.11
   1   5  -2   53.01    2.24
   1   5  -2   49.07    2.21
  -1  -5   2   55.95    2.25
  -1  -5   2   52.69    2.21
  -1  -5   2   50.44    2.09
  -1  -5   2   51.90    2.05
  -1  -5   2   50.90    2.14
  -1  -5   2   52.53    2.22
   0   5  -2    3.91    0.45
   0   5  -2    4.60    0.52
   0   5  -2    5.27    0.43
   0   5  -2    4.11    0.52
   0   5  -2    4.26    0.48
   0   5  -2    4.58    0.49
   0  -5   2    4.81    0.51
   0  -5   2    4.29    0.43
   0  -5   2    4.49    0.52
   0  -5   2    3.75    0.40
   0  -5   2    4.29    0.51
  -1   5  -2  123.96    4.86
  -1   5  -2  128.08    4.85
  -1   5  -2  129.02    4.88
  -1   5  -2  126.87    4.82
  -1   5  -2  134.19    4.88
  -1   5  -2  130.81    4.91
   1  -5   2  130.72    4.87
   1  -5   2  132.99    4.88
   1  -5   2  127.48    4.87
   1  -5   2  123.51    4.89
  -2   5  -2    8.30    0.61
  -2   5  -2    8.01    0.64
  -2   5  -2    8.85    0.60
  -2   5  -2    7.30    0.54
  -2   5  -2    8.18    0.63
  -2   5  -2    8.15    0.57
   2  -5   2    7.32    0.59
   2  -5   2    8.67    0.63
   2  -5   2    8.29    0.57
   2  -5   2    7.22    0.58
   2  -5   2    7.55    0.63
   2  -5   2    7.72    0.61
   2  -5   2    8.94    0.65
  -3   5  -2   70.11    2.64
  -3   5  -2   68.22    2.70
  -3   5  -2   66.19    2.72
  -3   5  -2   65.57    2.69
  -3   5  -2   67.03    2.54
  -3   5  -2   63.95    2.54
   3  -5   2   64.51    2.60
   3  -5   2   64.74    2.71
   3  -5   2   65.00    2.69
   3  -5   2   66.74    2.68
   3  -5   2   64.67    2.62
   3  -5   2   66.26    2.63
   3  -5   2   63.48    2.62
  -4   5  -2    4.18    0.71
  -4   5  -2    3.99    0.57
  -4   5  -2    3.55    0.62
  -4   5  -2    4.97    0.71
   4  -5   2    4.00    0.62
   4  -5   2    3.65    0.50
   4  -5   2    4.19    0.63
   4  -5   2    3.51    0.46
   4  -5   2    3.96    0.53
   4  -5   2    4.77    0.68
   4  -5   2    4.49    0.65
   4  -5   2    4.22    0.51
  -5   5  -2    7.64    0.96
  -5   5  -2    6.11    0.65
  -5   5  -2    6.50    0.74
  -5   5  -2    6.92    0.90
   5  -5   2    7.19    0.64
   5  -5   2    7.15    0.61
   5  -5   2    7.26    0.66
   5  -5   2    6.90    0.85
   5  -5   2    8.21    0.84
   5  -5   2    7.53    0.63
  -6   5  -2    8.41    1.16
  -6   5  -2    9.93    1.14
   6  -5   2   11.47    1.10
   6  -5   2    7.51    1.01
   6  -5   2    8.60    1.00
   6  -5   2    9.92    0.79
   6  -5   2    9.97    0.80
  -7   5  -2   95.00    4.08
   7  -5   2   92.60    3.66
   7  -5   2   93.13    4.02
   7  -5   2   96.51    3.68
   7  -5   2   89.52    3.83
   7  -5   2   87.65    3.82
   7   4  -2    2.69    0.89
   7   4  -2    3.62    0.93
   7   4  -2    1.72    1.20
  -7  -4   2    2.65    0.72
  -7  -4   2    2.57    0.66
   6   4  -2  155.04    5.90
   6   4  -2  152.54    6.08
   6   4  -2  154.40    6.08
  -6  -4   2  159.77    5.86
  -6  -4   2  150.77    5.98
  -6  -4   2  152.12    5.83
   5   4  -2    0.34    0.48
   5   4  -2   -0.29    0.55
   5   4  -2    0.66    0.38
   5   4  -2    0.24    0.48
  -5  -4   2    0.41    0.35
  -5  -4   2   -0.04    0.36
  -5  -4   2   -0.08    0.35
   4   4  -2  378.74   13.34
   4   4  -2  380.88   13.50
   4   4  -2  372.75   13.34
   4   4  -2  360.92   13.42
   4   4  -2  360.93   13.38
  -4  -4   2  378.96   13.18
  -4  -4   2  361.86   13.33
  -4  -4   2  374.32   13.26
  -4  -4   2  320.02   13.31
  -4  -4   2  358.21   13.18
  -4  -4   2  358.11   13.38
   3   4  -2    1.20    0.36
   3   4  -2    0.79    0.30
   3   4  -2    1.31    0.48
   3   4  -2    1.09    0.32
   3   4  -2    0.84    0.30
  -3  -4   2    1.28    0.32
  -3  -4   2    2.25    0.63
  -3  -4   2    1.19    0.28
  -3  -4   2    1.23    0.28
  -3  -4   2    1.27    0.28
  -3  -4   2    1.23    0.34
   2   4  -2  162.06    5.70
   2   4  -2  148.53    5.64
   2   4  -2  149.03    5.47
   2   4  -2  145.73    5.56
   2   4  -2  155.03    5.52
   2   4  -2  144.67    5.65
  -2  -4   2  141.28    5.51
  -2  -4   2  143.16    5.51
  -2  -4   2  150.38    5.46
  -2  -4   2  145.26    5.67
  -2  -4   2  151.91    5.63
   1   4  -2    1.61    0.39
   1   4  -2    2.22    0.45
   1   4  -2    1.81    0.32
   1   4  -2    1.54    0.41
   1   4  -2    1.99    0.34
  -1  -4   2    2.35    0.28
  -1  -4   2    2.62    0.39
  -1  -4   2    1.87    0.39
  -1  -4   2    2.29    0.32
  -1  -4   2    1.85    0.43
  -1  -4   2    2.00    0.27
  -1  -4   2    1.83    0.23
   0   4  -2   19.86    0.98
   0   4  -2   20.21    0.94
   0   4  -2   21.47    1.01
   0   4  -2   20.74    0.96
   0  -4   2   20.14    1.00
   0  -4   2   20.97    1.00
   0  -4   2   20.65    0.96
   0  -4   2   21.72    1.01
  -1   4  -2    0.11    0.15
  -1   4  -2    0.02    0.15
  -1   4  -2    0.23    0.17
  -1   4  -2    0.07    0.20
  -1   4  -2   -0.03    0.16
  -1   4  -2    0.17    0.19
   1  -4   2    0.13    0.18
   1  -4   2   -0.04    0.16
   1  -4   2    0.24    0.17
   1  -4   2    0.24    0.18
   1  -4   2    0.36    0.18
  -2   4  -2  249.15    9.17
  -2   4  -2  238.08    9.09
  -2   4  -2  267.52    9.15
  -2   4  -2  251.78    9.09
  -2   4  -2  242.85    9.17
  -2   4  -2  245.23    9.14
  -2   4  -2  248.38    9.16
   2  -4   2  255.53    9.15
   2  -4   2  246.81    9.13
   2  -4   2  242.84    9.11
   2  -4   2  248.92    9.13
   2  -4   2  251.19    9.18
   2  -4   2  259.37    9.17
  -3   4  -2    4.54    0.42
  -3   4  -2    4.57    0.49
  -3   4  -2    4.91    0.51
  -3   4  -2    5.06    0.45
  -3   4  -2    4.99    0.55
   3  -4   2    4.65    0.43
   3  -4   2    4.55    0.39
   3  -4   2    4.31    0.43
   3  -4   2    4.41    0.48
   3  -4   2    4.33    0.41
   3  -4   2    5.05    0.48
   3  -4   2    4.72    0.54
  -4   4  -2   39.74    1.61
  -4   4  -2   40.00    1.74
  -4   4  -2   36.78    1.76
  -4   4  -2   38.89    1.79
   4  -4   2   38.58    1.80
   4  -4   2   39.88    1.62
   4  -4   2   38.43    1.75
   4  -4   2   40.28    1.61
   4  -4   2   39.50    1.61
   4  -4   2   37.54    1.58
   4  -4   2   37.06    1.74
   4  -4   2   39.44    1.72
  -5   4  -2   -0.50    0.36
  -5   4  -2   -0.36    0.40
  -5   4  -2   -0.47    0.28
   5  -4   2    0.02    0.36
   5  -4   2    0.31    0.23
   5  -4   2    0.05    0.36
   5  -4   2    0.65    0.43
   5  -4   2    0.44    0.25
   5  -4   2    0.16    0.23
  -6   4  -2    4.12    0.86
   6  -4   2    4.95    0.81
   6  -4   2    4.37    0.83
   6  -4   2    4.29    0.80
   6  -4   2    4.19    1.14
   6  -4   2    5.21    0.58
   6  -4   2    4.56    0.54
  -7   4  -2    1.07    0.68
   7  -4   2    0.61    0.43
   7  -4   2    0.35    0.73
   7  -4   2    0.64    0.64
   7  -4   2    0.49    0.53
   7  -4   2    0.03    0.38
  -8   4  -2   15.00    1.72
   8  -4   2   12.39    1.36
   8  -4   2   13.14    1.55
   7   3  -2   40.55    1.85
   7   3  -2   40.39    1.84
   7   3  -2   34.19    2.59
   7   3  -2   33.83    2.09
  -7  -3   2   38.37    2.01
  -7  -3   2   39.48    1.85
   6   3  -2    3.76    0.76
   6   3  -2    6.12    1.30
   6   3  -2    6.05    0.84
   6   3  -2    5.46    0.96
   6   3  -2    3.94    1.09
  -6  -3   2    3.65    0.73
  -6  -3   2    6.24    0.81
  -6  -3   2    4.52    0.70
  -6  -3   2    6.09    0.75
   5   3  -2   10.03    0.89
   5   3  -2   13.38    1.28
   5   3  -2   10.74    0.84
   5   3  -2   10.54    1.04
   5   3  -2   13.29    1.02
  -5  -3   2   10.41    0.80
  -5  -3   2   12.01    0.76
  -5  -3   2   12.05    0.82
  -5  -3   2   10.20    0.80
   4   3  -2    2.70    0.74
   4   3  -2    2.31    0.52
   4   3  -2    2.79    0.60
   4   3  -2    1.98    0.53
   4   3  -2    2.17    0.43
   4   3  -2    2.71    0.71
  -4  -3   2    2.66    0.42
  -4  -3   2    1.98    0.53
  -4  -3   2    1.89    0.44
  -4  -3   2    3.00    0.33
  -4  -3   2    1.84    0.52
   3   3  -2   17.79    1.05
   3   3  -2   15.17    0.89
   3   3  -2   14.79    0.83
   3   3  -2   15.79    0.88
  -3  -3   2   16.43    0.89
  -3  -3   2   15.15    0.75
  -3  -3   2   15.60    0.74
  -3  -3   2   15.78    0.75
  -3  -3   2   13.52    0.90
  -3  -3   2   15.16    0.81
   2   3  -2    2.22    0.41
   2   3  -2    2.41    0.27
   2   3  -2    2.17    0.54
   2   3  -2    2.42    0.32
   2   3  -2    1.90    0.35
   2   3  -2    2.48    0.39
  -2  -3   2    2.44    0.49
  -2  -3   2    2.16    0.34
  -2  -3   2    2.04    0.23
  -2  -3   2    2.64    0.31
  -2  -3   2    2.25    0.30
  -2  -3   2    2.00    0.42
  -2  -3   2    2.32    0.25
   1   3  -2    1.81    0.39
   1   3  -2    2.22    0.27
   1   3  -2    2.28    0.32
   1   3  -2    1.83    0.35
   1   3  -2    2.42    0.30
  -1  -3   2    2.35    0.33
  -1  -3   2    2.24    0.27
  -1  -3   2    1.85    0.23
  -1  -3   2    2.03    0.36
  -1  -3   2    2.56    0.24
  -1  -3   2    2.27    0.38
   0   3  -2   10.45    0.58
   0   3  -2    8.88    0.57
   0   3  -2   10.52    0.56
   0   3  -2    9.12    0.51
   0   3  -2    9.77    0.51
   0  -3   2    9.38    0.56
   0  -3   2    9.56    0.50
   0  -3   2    9.41    0.55
   0  -3   2    9.98    0.58
   0  -3   2    8.94    0.43
   0  -3   2    9.06    0.48
   0  -3   2    9.89    0.52
  -1   3  -2  176.41    6.86
  -1   3  -2  193.97    6.87
  -1   3  -2  183.52    6.82
  -1   3  -2  195.21    6.86
  -1   3  -2  198.64    6.85
  -1   3  -2  182.25    6.84
   1  -3   2  179.83    6.86
   1  -3   2  185.99    6.85
   1  -3   2  190.06    6.85
   1  -3   2  197.08    6.87
   1  -3   2  178.03    6.85
   1  -3   2  181.43    6.85
  -2   3  -2    7.43    0.41
  -2   3  -2    7.02    0.48
  -2   3  -2    7.68    0.43
  -2   3  -2    8.38    0.46
  -2   3  -2    7.35    0.48
  -2   3  -2    7.46    0.53
   2  -3   2    7.48    0.46
   2  -3   2    7.97    0.44
   2  -3   2    7.23    0.51
   2  -3   2    7.76    0.45
   2  -3   2    7.16    0.51
   2  -3   2    7.56    0.46
   2  -3   2    7.74    0.48
  -3   3  -2  168.55    6.34
  -3   3  -2  169.92    6.32
  -3   3  -2  173.93    6.22
  -3   3  -2  168.03    6.22
  -3   3  -2  168.04    6.35
   3  -3   2  161.76    6.20
   3  -3   2  165.00    6.33
   3  -3   2  173.79    6.34
   3  -3   2  163.30    6.22
   3  -3   2  172.24    6.38
   3  -3   2  179.50    6.33
   3  -3   2  175.43    6.23
   3  -3   2  171.61    6.23
  -4   3  -2   19.81    1.09
  -4   3  -2   20.01    1.10
  -4   3  -2   20.95    1.04
   4  -3   2   19.57    1.07
   4  -3   2   21.05    1.12
   4  -3   2   20.24    1.03
   4  -3   2   21.28    1.06
   4  -3   2   21.72    0.91
   4  -3   2   20.75    1.12
   4  -3   2   21.14    0.89
   4  -3   2   19.73    0.90
  -5   3  -2  405.21   14.76
   5  -3   2  411.87   14.67
   5  -3   2  387.78   14.55
   5  -3   2  413.54   14.66
   5  -3   2  404.00   14.57
   5  -3   2  398.99   14.77
   5  -3   2  386.88   14.63
   5  -3   2  414.69   14.75
   5  -3   2  382.39   14.44
  -6   3  -2   17.32    1.18
   6  -3   2   13.38    0.99
   6  -3   2   15.53    1.02
   6  -3   2   13.94    1.04
   6  -3   2   13.87    1.20
   6  -3   2   14.85    1.06
   6  -3   2   13.96    1.04
   6  -3   2   15.41    1.32
  -7   3  -2   97.60    4.12
   7  -3   2   96.05    3.83
   7  -3   2   98.71    3.96
   7  -3   2   91.46    3.95
   7  -3   2   94.82    3.84
   8  -3   2    2.83    0.67
   8  -3   2    3.59    0.93
   8  -3   2    2.61    0.85
   8   2  -2    6.30    1.49
  -8  -2   2    2.96    0.90
   7   2  -2   13.60    1.33
   7   2  -2   11.39    1.86
   7   2  -2   10.14    1.19
  -7  -2   2   12.12    1.13
  -7  -2   2    9.18    0.96
   6   2  -2   22.40    1.18
   6   2  -2   22.58    1.23
   6   2  -2   22.51    1.32
   6   2  -2   22.70    1.62
  -6  -2   2   22.24    1.16
  -6  -2   2   21.59    1.26
   5   2  -2   10.05    0.75
   5   2  -2    9.10    0.61
   5   2  -2    8.78    0.77
   5   2  -2    7.98    0.95
   5   2  -2    8.53    1.12
   5   2  -2    9.49    0.76
  -5  -2   2    9.12    0.72
  -5  -2   2    8.40    0.72
  -5  -2   2    8.02    0.63
  -5  -2   2    8.43    0.63
   4   2  -2   95.76    3.55
   4   2  -2   95.64    3.53
   4   2  -2   85.69    3.53
   4   2  -2   86.04    3.45
   4   2  -2   91.55    3.53
   4   2  -2   87.52    3.41
   4   2  -2   94.18    3.69
  -4  -2   2   87.46    3.38
  -4  -2   2   87.02    3.44
  -4  -2   2   86.66    3.49
  -4  -2   2   90.56    3.40
  -4  -2   2   92.47    3.49
   3   2  -2    8.35    0.62
   3   2  -2    8.75    0.60
   3   2  -2    8.93    0.59
   3   2  -2    7.76    0.68
   3   2  -2    8.69    0.48
   3   2  -2    8.81    0.71
  -3  -2   2    8.60    0.59
  -3  -2   2    8.96    0.47
  -3  -2   2    8.80    0.49
  -3  -2   2    9.36    0.55
  -3  -2   2    8.79    0.47
  -3  -2   2    8.24    0.48
   2   2  -2  610.28   24.58
   2   2  -2  677.47   24.62
   2   2  -2  672.70   24.53
   2   2  -2  702.79   24.54
   2   2  -2  727.20   24.52
  -2  -2   2  709.77   24.59
  -2  -2   2  712.10   24.49
  -2  -2   2  640.67   24.50
  -2  -2   2  706.52   24.59
  -2  -2   2  655.63   24.47
   1   2  -2    7.71    0.40
   1   2  -2    6.76    0.50
   1   2  -2    8.25    0.57
   1   2  -2    8.19    0.47
   1   2  -2    7.44    0.44
  -1  -2   2    8.10    0.44
  -1  -2   2    8.42    0.54
  -1  -2   2    8.49    0.46
  -1  -2   2    7.20    0.40
  -1  -2   2    8.00    0.52
  -1  -2   2    8.40    0.40
  -1  -2   2    7.85    0.38
   0  -2   2 1000.00   35.90
  -1   2  -2   21.69    0.88
  -1   2  -2   20.48    0.88
  -1   2  -2   20.05    0.88
  -1   2  -2   21.22    0.86
  -1   2  -2   20.45    0.85
  -1   2  -2   20.58    0.89
   1  -2   2   20.80    0.86
   1  -2   2   19.43    0.88
   1  -2   2   19.68    0.88
   1  -2   2   18.61    0.86
  -2   2  -2  580.34   20.35
  -2   2  -2  559.63   20.42
  -2   2  -2  559.63   20.39
   2  -2   2  561.14   20.44
   2  -2   2  549.29   20.42
   2  -2   2  561.10   20.35
   2  -2   2  574.34   20.35
   2  -2   2  584.35   20.40
  -3   2  -2   31.89    1.42
  -3   2  -2   30.75    1.41
  -3   2  -2   33.89    1.38
   3  -2   2   32.89    1.29
   3  -2   2   32.76    1.41
   3  -2   2   34.90    1.38
   3  -2   2   32.51    1.45
   3  -2   2   32.84    1.28
   3  -2   2   33.00    1.28
   3  -2   2   33.51    1.26
   3  -2   2   33.84    1.40
   3  -2   2   30.87    1.42
   3  -2   2   32.42    1.30
  -4   2  -2   19.35    0.93
  -4   2  -2   19.21    1.02
   4  -2   2   18.00    1.06
   4  -2   2   18.69    0.89
   4  -2   2   18.97    0.94
   4  -2   2   19.59    1.01
   4  -2   2   18.76    0.93
   4  -2   2   17.89    1.00
   4  -2   2   19.26    0.92
  -5   2  -2   21.57    1.22
   5  -2   2   21.59    1.11
   5  -2   2   22.00    1.22
   5  -2   2   21.60    1.10
   5  -2   2   23.08    1.09
   5  -2   2   20.87    1.08
   5  -2   2   20.88    1.18
   5  -2   2   22.93    1.30
  -6   2  -2    6.18    0.83
   6  -2   2    6.18    0.90
   6  -2   2    5.52    0.76
   6  -2   2    5.39    0.69
   6  -2   2    4.96    0.70
   6  -2   2    5.64    0.76
   6  -2   2    5.72    0.72
   6  -2   2    4.89    0.98
   7  -2   2    6.63    0.88
   7  -2   2    7.35    1.08
   7  -2   2    5.45    0.89
   7  -2   2    7.74    1.47
   7  -2   2    6.68    0.94
   7  -2   2    6.96    1.28
   8  -2   2   17.45    1.32
   8  -2   2   15.37    2.09
   8  -2   2   17.69    1.53
   8   1  -2    5.15    0.87
  -8  -1   2    5.08    1.25
   7   1  -2  222.52    8.23
   7   1  -2  216.29    8.38
   7   1  -2  216.89    8.26
   7   1  -2  224.12    8.44
  -7  -1   2  223.31    8.37
   6   1  -2    1.02    0.40
   6   1  -2    1.13    0.66
   6   1  -2    0.20    0.55
   6   1  -2    2.06    0.55
   6   1  -2    1.31    0.42
   6   1  -2    1.47    0.39
  -6  -1   2    1.40    0.38
  -6  -1   2    1.13    0.40
  -6  -1   2    1.29    0.39
   5   1  -2  323.01   11.83
   5   1  -2  324.24   12.03
   5   1  -2  318.35   11.70
   5   1  -2  316.96   11.76
   5   1  -2  311.43   11.78
   5   1  -2  319.35   11.68
   5   1  -2  321.76   11.70
  -5  -1   2  328.53   11.72
  -5  -1   2  323.23   11.69
  -5  -1   2  319.45   11.64
  -5  -1   2  319.99   11.79
  -5  -1   2  324.00   11.64
   4   1  -2    0.17    0.18
   4   1  -2    0.21    0.22
   4   1  -2    0.40    0.34
   4   1  -2    0.26    0.27
   4   1  -2    0.14    0.26
   4   1  -2    0.10    0.19
   4   1  -2    0.40    0.38
  -4  -1   2    0.39    0.19
  -4  -1   2    0.16    0.18
  -4  -1   2   -0.03    0.18
  -4  -1   2   -0.15    0.20
  -4  -1   2    0.57    0.28
   3   1  -2   80.90    3.15
   3   1  -2   82.49    3.05
   3   1  -2   74.64    3.15
   3   1  -2   87.17    3.12
   3   1  -2   78.60    3.06
   3   1  -2   82.57    3.24
  -3  -1   2   80.08    3.05
  -3  -1   2   79.01    3.27
  -3  -1   2   81.70    3.07
  -3  -1   2   81.20    3.00
  -3  -1   2   79.46    3.11
  -3  -1   2   83.59    3.00
  -3  -1   2   82.48    3.01
   2   1  -2    1.93    0.22
   2   1  -2    2.22    0.34
   2   1  -2    1.71    0.32
   2   1  -2    1.75    0.32
   2   1  -2    1.90    0.35
   2   1  -2    1.57    0.21
  -2  -1   2    1.80    0.22
  -2  -1   2    1.88    0.23
  -2  -1   2    1.90    0.22
  -2  -1   2    1.78    0.21
  -2  -1   2    1.94    0.28
   1   1  -2    1.58    0.21
   1   1  -2    1.20    0.25
   1   1  -2    1.60    0.25
   1   1  -2    1.38    0.18
   1   1  -2    1.39    0.27
   1   1  -2    1.42    0.16
  -1  -1   2    1.18    0.17
  -1  -1   2    1.41    0.24
  -1  -1   2    1.21    0.19
  -1  -1   2    1.31    0.17
  -1  -1   2    1.48    0.20
  -1  -1   2    1.15    0.28
   0   1  -2    2.18    0.19
   0   1  -2    2.11    0.22
   0   1  -2    1.91    0.26
   0   1  -2    2.16    0.18
   0   1  -2    2.20    0.26
   0  -1   2    2.17    0.21
   0  -1   2    2.32    0.22
   0  -1   2    2.69    0.17
   0  -1   2    1.95    0.25
   0  -1   2    2.24    0.22
   0  -1   2    1.78    0.24
  -1   1  -2    1.43    0.17
  -1   1  -2    1.30    0.20
  -1   1  -2    1.49    0.16
  -1   1  -2    1.39    0.16
  -1   1  -2    1.32    0.21
  -1   1  -2    1.09    0.21
   1  -1   2    1.06    0.22
   1  -1   2    1.00    0.19
   1  -1   2    1.49    0.18
   1  -1   2    1.45    0.20
   1  -1   2    1.44    0.21
   1  -1   2    1.30    0.16
  -2   1  -2    2.53    0.30
  -2   1  -2    2.08    0.22
  -2   1  -2    2.48    0.24
  -2   1  -2    2.68    0.31
  -2   1  -2    2.45    0.22
   2  -1   2    2.62    0.33
   2  -1   2    2.25    0.29
   2  -1   2    2.45    0.23
   2  -1   2    2.73    0.24
  -3   1  -2    0.63    0.16
  -3   1  -2    1.08    0.27
   3  -1   2    0.93    0.25
   3  -1   2    0.74    0.24
   3  -1   2    0.81    0.22
   3  -1   2    0.82    0.21
   3  -1   2    0.69    0.19
   3  -1   2    0.77    0.18
  -4   1  -2   17.60    0.97
  -4   1  -2   18.07    0.88
   4  -1   2   19.08    0.90
   4  -1   2   20.20    1.08
   4  -1   2   19.09    0.98
   4  -1   2   17.59    0.99
   4  -1   2   19.65    0.91
   4  -1   2   18.92    0.90
   4  -1   2   18.60    0.89
  -5   1  -2   12.65    0.91
   5  -1   2   15.80    0.88
   5  -1   2   15.95    1.06
   5  -1   2   15.51    0.91
   5  -1   2   13.97    0.96
   5  -1   2   14.27    0.81
   5  -1   2   11.30    0.78
   5  -1   2   15.48    0.81
   6  -1   2   21.56    1.19
   6  -1   2   23.18    1.18
   6  -1   2   24.35    1.28
   6  -1   2   20.83    1.26
   6  -1   2   23.76    1.41
   6  -1   2   22.81    1.49
   6  -1   2   22.85    1.17
   7  -1   2  139.17    5.15
   7  -1   2  129.12    5.20
   7  -1   2  141.56    5.50
   7  -1   2  126.49    5.39
   7  -1   2  127.41    5.25
   7  -1   2  135.14    5.12
   8  -1   2   33.44    1.95
   8  -1   2   36.69    1.82
   8   0  -2    6.50    1.25
   8   0  -2    6.67    1.23
  -8   0   2    5.46    0.94
   7   0  -2   -0.22    0.64
   7   0  -2    0.10    0.45
   7   0  -2    0.68    0.51
   7   0  -2    0.47    0.78
  -7   0   2   -0.29    0.50
   6   0  -2   12.97    1.11
   6   0  -2   14.31    1.01
   6   0  -2   14.61    1.05
   6   0  -2   14.44    0.87
   6   0  -2   15.71    0.85
   6   0  -2   15.17    0.94
  -6   0   2   13.88    0.94
  -6   0   2   13.71    0.95
   5   0  -2    0.65    0.51
   5   0  -2    1.04    0.45
   5   0  -2    0.46    0.34
   5   0  -2    0.43    0.26
   5   0  -2    0.89    0.31
   5   0  -2    1.01    0.28
  -5   0   2    0.35    0.29
  -5   0   2    0.49    0.25
  -5   0   2    0.45    0.28
  -5   0   2    0.79    0.37
   4   0  -2   30.84    1.45
   4   0  -2   33.21    1.35
   4   0  -2   30.80    1.35
   4   0  -2   30.02    1.40
   4   0  -2   30.71    1.31
   4   0  -2   33.18    1.62
  -4   0   2   31.48    1.39
  -4   0   2   33.62    1.46
  -4   0   2   31.41    1.31
  -4   0   2   31.37    1.35
   3   0  -2    1.72    0.31
   3   0  -2    1.97    0.26
   3   0  -2    1.74    0.44
   3   0  -2    2.70    0.43
   3   0  -2    1.63    0.32
   3   0  -2    1.79    0.26
  -3   0   2    2.02    0.38
  -3   0   2    1.81    0.27
  -3   0   2    2.35    0.35
  -3   0   2    2.22    0.28
  -3   0   2    2.14    0.28
  -3   0   2    1.82    0.22
   2   0  -2   28.07    1.22
   2   0  -2   27.68    1.25
   2   0  -2   29.02    1.16
   2   0  -2   30.42    1.18
   2   0  -2   29.41    1.19
   2   0  -2   28.94    1.14
  -2   0   2   27.84    1.15
  -2   0   2   28.73    1.16
  -2   0   2   27.83    1.22
  -2   0   2   28.98    1.16
  -2   0   2   27.81    1.17
  -2   0   2   28.96    1.12
   1   0  -2    2.64    0.20
   1   0  -2    2.65    0.24
   1   0  -2    2.77    0.25
   1   0  -2    2.45    0.27
   1   0  -2    2.58    0.20
   1   0  -2    2.91    0.23
  -1   0   2    2.56    0.19
  -1   0   2    2.53    0.22
  -1   0   2    2.83    0.23
  -1   0   2    2.78    0.24
  -1   0   2    2.81    0.25
  -1   0   2    2.62    0.20
   0   0  -2   71.41    2.62
   0   0  -2   72.36    2.60
   0   0  -2   69.47    2.59
   0   0   2   68.47    2.60
   0   0   2   73.32    2.61
   0   0   2   66.63    2.59
   0   0   2   71.44    2.60
  -1   0  -2    7.05    0.32
  -1   0  -2    6.49    0.32
  -1   0  -2    6.97    0.31
  -1   0  -2    7.30    0.31
   1   0   2    6.83    0.36
   1   0   2    6.61    0.32
   1   0   2    6.57    0.31
  -2   0  -2  663.76   25.09
   2   0   2  746.28   25.00
   2   0   2  680.01   25.09
  -3   0  -2   47.24    1.84
  -3   0  -2   48.11    1.98
   3   0   2   49.27    1.87
   3   0   2   46.79    1.84
   3   0   2   46.08    1.89
   3   0   2   48.31    1.86
   3   0   2   48.43    2.00
   3   0   2   47.13    1.89
   4   0   2  492.10   17.96
   4   0   2  490.06   18.00
   4   0   2  502.21   17.99
   4   0   2  498.04   18.03
   4   0   2  503.50   18.07
   4   0   2  500.16   17.98
   4   0   2  501.37   18.15
   5   0   2   31.58    1.54
   5   0   2   28.54    1.34
   5   0   2   28.54    1.28
   5   0   2   27.15    1.35
   5   0   2   26.95    1.26
   5   0   2   27.71    1.23
   5   0   2   27.91    1.42
   6   0   2  126.48    4.87
   6   0   2  114.93    4.67
   6   0   2  119.65    4.56
   6   0   2  119.31    4.79
   6   0   2  119.28    4.58
   6   0   2  120.67    4.62
   7   0   2   27.02    1.53
   7   0   2   29.08    1.51
   7   0   2   28.87    1.40
   7   0   2   27.08    1.69
   7   0   2   28.31    1.92
   7   0   2   29.01    1.92
   8   0   2   19.67    1.26
   8   0   2   20.08    1.57
   8   0   2   21.89    2.13
   8  -1  -2    0.53    0.72
  -8   1   2    0.00    0.70
   7  -1  -2   29.09    1.67
   7  -1  -2   29.49    1.97
   7  -1  -2   30.35    1.52
   7  -1  -2   29.88    1.58
  -7   1   2   29.16    1.58
   6  -1  -2    0.17    0.32
   6  -1  -2    0.36    0.41
   6  -1  -2   -0.18    0.29
   6  -1  -2    0.69    0.47
   6  -1  -2    1.04    0.48
   6  -1  -2    0.49    0.38
   6  -1  -2    0.36    0.43
  -6   1   2    0.75    0.47
  -6   1   2    0.84    0.38
   5  -1  -2   33.67    1.53
   5  -1  -2   33.70    1.45
   5  -1  -2   34.00    1.53
   5  -1  -2   32.46    1.69
   5  -1  -2   33.83    1.53
   5  -1  -2   34.01    1.45
  -5   1   2   33.24    1.71
  -5   1   2   34.78    1.43
  -5   1   2   34.63    1.57
  -5   1   2   34.30    1.52
  -5   1   2   34.12    1.53
   4  -1  -2    0.16    0.21
   4  -1  -2    0.21    0.16
   4  -1  -2    0.11    0.20
   4  -1  -2    0.02    0.18
   4  -1  -2   -0.03    0.35
   4  -1  -2    0.47    0.29
  -4   1   2   -0.19    0.22
  -4   1   2    0.32    0.24
  -4   1   2    0.15    0.21
  -4   1   2   -0.35    0.23
  -4   1   2   -0.04    0.17
   3  -1  -2  350.46   13.18
   3  -1  -2  369.47   13.04
   3  -1  -2  373.50   13.00
   3  -1  -2  347.70   13.01
   3  -1  -2  377.16   12.99
   3  -1  -2  356.77   13.04
  -3   1   2  362.37   13.03
  -3   1   2  363.15   13.03
  -3   1   2  344.35   13.14
  -3   1   2  352.81   12.98
  -3   1   2  367.10   12.92
  -3   1   2  347.96   13.01
   2  -1  -2    3.58    0.32
   2  -1  -2    2.98    0.28
   2  -1  -2    2.95    0.25
   2  -1  -2    2.98    0.26
   2  -1  -2    3.12    0.26
   2  -1  -2    2.59    0.35
  -2   1   2    3.08    0.29
  -2   1   2    2.69    0.31
  -2   1   2    3.62    0.27
  -2   1   2    3.12    0.28
  -2   1   2    3.11    0.27
  -2   1   2    3.09    0.24
   1  -1  -2  332.23   12.03
   1  -1  -2  325.62   12.01
   1  -1  -2  328.39   12.06
   1  -1  -2  338.26   12.00
   1  -1  -2  324.38   12.01
   1  -1  -2  338.99   12.01
  -1   1   2  329.27   12.01
  -1   1   2  333.79   12.01
  -1   1   2  347.71   12.03
  -1   1   2  330.81   12.01
  -1   1   2  330.41   12.05
  -1   1   2  337.89   11.99
   0  -1  -2    0.33    0.09
   0  -1  -2    0.42    0.11
   0  -1  -2    0.40    0.11
   0  -1  -2    0.52    0.12
   0  -1  -2    0.31    0.08
   0   1   2    0.48    0.13
   0   1   2    0.30    0.08
   0   1   2    0.44    0.09
   0   1   2    0.29    0.08
   0   1   2    0.57    0.12
  -1  -1  -2   52.88    1.97
  -1  -1  -2   55.17    2.03
  -1  -1  -2   53.79    2.00
  -1  -1  -2   53.14    1.99
  -1  -1  -2   53.54    2.00
   1   1   2   54.06    2.00
   1   1   2   54.73    2.00
   1   1   2   55.03    2.00
  -2  -1  -2    1.34    0.13
  -2  -1  -2    1.43    0.17
  -2  -1  -2    1.53    0.21
   2   1   2    1.65    0.20
   2   1   2    1.17    0.12
   2   1   2    1.74    0.23
   2   1   2    1.26    0.14
   2   1   2    1.42    0.14
   2   1   2    1.27    0.12
  -3  -1  -2   29.02    1.32
  -3  -1  -2   29.54    1.22
   3   1   2   30.28    1.23
   3   1   2   30.02    1.20
   3   1   2   30.49    1.28
   3   1   2   30.54    1.26
   3   1   2   30.19    1.33
  -4  -1  -2    0.46    0.20
  -4  -1  -2    0.39    0.23
   4   1   2    0.03    0.27
   4   1   2    0.20    0.22
   4   1   2    0.28    0.28
   4   1   2    0.05    0.21
   4   1   2    0.47    0.16
   4   1   2    0.10    0.15
  -5  -1  -2   59.74    2.35
   5   1   2   57.99    2.37
   5   1   2   56.66    2.27
   5   1   2   58.76    2.55
   5   1   2   59.59    2.35
   5   1   2   56.74    2.42
   5   1   2   62.14    2.53
   5   1   2   59.61    2.36
   6   1   2    6.67    0.82
   6   1   2    4.14    0.93
   6   1   2    5.05    0.59
   6   1   2    6.54    0.93
   6   1   2    5.49    0.69
   7   1   2   57.64    2.92
   7   1   2   58.30    2.57
   7   1   2   57.85    2.75
   7   1   2   66.64    2.91
   7   1   2   58.64    2.56
   8   1   2   10.25    1.27
   8   1   2    7.12    1.81
   7  -2  -2    5.98    0.83
   7  -2  -2    5.11    0.91
   7  -2  -2    6.29    1.39
   7  -2  -2    5.57    1.04
  -7   2   2    4.36    0.88
   6  -2  -2    2.70    0.65
   6  -2  -2    2.32    0.53
   6  -2  -2    2.80    0.55
   6  -2  -2    2.81    0.52
  -6   2   2    2.50    0.48
  -6   2   2    1.82    0.60
   5  -2  -2    4.04    0.49
   5  -2  -2    4.24    0.55
   5  -2  -2    4.23    0.48
   5  -2  -2    4.87    0.61
   5  -2  -2    4.49    0.55
  -5   2   2    3.99    0.68
  -5   2   2    3.54    0.47
  -5   2   2    4.47    0.52
  -5   2   2    4.94    0.62
  -5   2   2    4.12    0.59
   4  -2  -2   22.87    1.10
   4  -2  -2   23.89    1.03
   4  -2  -2   23.18    1.05
   4  -2  -2   23.29    1.10
   4  -2  -2   22.19    1.07
   4  -2  -2   22.13    1.29
   4  -2  -2   23.13    1.05
  -4   2   2   22.36    1.24
  -4   2   2   21.78    1.05
  -4   2   2   22.79    1.11
  -4   2   2   22.32    1.06
  -4   2   2   22.71    1.02
   3  -2  -2    3.01    0.30
   3  -2  -2    3.24    0.38
   3  -2  -2    2.65    0.35
   3  -2  -2    3.17    0.33
   3  -2  -2    2.98    0.34
   3  -2  -2    3.00    0.35
   3  -2  -2    2.30    0.48
  -3   2   2    3.43    0.46
  -3   2   2    3.06    0.25
  -3   2   2    3.10    0.33
  -3   2   2    3.08    0.37
  -3   2   2    3.07    0.32
  -3   2   2    2.93    0.36
  -3   2   2    3.15    0.33
   2  -2  -2  255.67    8.80
   2  -2  -2  238.71    8.82
   2  -2  -2  247.23    8.80
   2  -2  -2  237.62    8.73
   2  -2  -2  235.90    8.78
   2  -2  -2  250.58    8.81
   2  -2  -2  238.43    8.92
  -2   2   2  238.17    8.90
  -2   2   2  240.35    8.81
  -2   2   2  238.54    8.78
  -2   2   2  247.45    8.80
  -2   2   2  232.44    8.79
  -2   2   2  236.70    8.73
  -2   2   2  248.08    8.75
   1  -2  -2    0.78    0.20
   1  -2  -2    0.55    0.13
   1  -2  -2    0.65    0.15
   1  -2  -2    0.68    0.15
   1  -2  -2    0.58    0.13
  -1   2   2    0.98    0.21
  -1   2   2    1.01    0.18
  -1   2   2    0.66    0.18
  -1   2   2    0.72    0.16
  -1   2   2    0.77    0.14
  -1   2   2    0.75    0.16
  -1   2   2    0.49    0.12
   0  -2  -2  483.49   17.81
   0  -2  -2  483.57   17.79
   0  -2  -2  502.92   17.80
   0   2   2  496.54   17.78
   0   2   2  511.99   17.78
   0   2   2  477.47   17.80
   0   2   2  509.01   17.80
   0   2   2  487.06   17.80
   0   2   2  504.38   17.79
  -1  -2  -2    0.24    0.09
  -1  -2  -2    0.49    0.11
  -1  -2  -2    0.37    0.10
  -1  -2  -2    0.17    0.08
  -1  -2  -2    0.28    0.09
  -1  -2  -2    0.23    0.09
   1   2   2    0.34    0.10
   1   2   2    0.37    0.10
   1   2   2    0.24    0.08
   1   2   2    0.01    0.08
   1   2   2    0.35    0.10
   1   2   2    0.28    0.10
  -2  -2  -2  271.19    9.92
  -2  -2  -2  281.78    9.88
  -2  -2  -2  272.22    9.94
  -2  -2  -2  265.33    9.90
   2   2   2  276.34    9.92
   2   2   2  285.16    9.90
   2   2   2  265.96    9.85
   2   2   2  281.96    9.89
   2   2   2  270.05    9.90
  -3  -2  -2    0.15    0.16
  -3  -2  -2    0.19    0.10
  -3  -2  -2    0.08    0.14
  -3  -2  -2    0.21    0.12
   3   2   2    0.17    0.12
   3   2   2    0.24    0.11
   3   2   2    0.13    0.19
   3   2   2    0.06    0.10
   3   2   2    0.09    0.10
   3   2   2    0.15    0.16
   3   2   2   -0.02    0.08
   3   2   2    0.26    0.16
  -4  -2  -2    0.24    0.19
  -4  -2  -2    0.68    0.27
   4   2   2   -0.26    0.20
   4   2   2    0.31    0.24
   4   2   2    0.46    0.30
   4   2   2    0.19    0.24
   4   2   2    0.30    0.15
  -5  -2  -2    1.53    0.33
   5   2   2    1.76    0.39
   5   2   2    2.08    0.54
   5   2   2    2.09    0.62
   5   2   2    1.64    0.37
   5   2   2    2.94    0.67
  -6  -2  -2  126.96    4.74
   6   2   2  126.30    4.73
   6   2   2  120.04    4.88
   6   2   2  126.45    4.75
   6   2   2  122.74    4.75
   6   2   2  121.44    4.86
   6   2   2  125.20    4.98
  -7  -2  -2    1.15    0.48
   7   2   2    0.95    0.84
   7   2   2    0.10    0.67
   7   2   2    0.70    0.58
   7   2   2    0.54    0.46
   7   2   2    0.54    0.71
   8   2   2   56.31    2.99
   7  -3  -2  130.35    5.13
   7  -3  -2  131.93    5.26
   7  -3  -2  130.52    5.09
  -7   3   2  129.29    5.52
  -7   3   2  136.25    5.15
   6  -3  -2   15.00    1.03
   6  -3  -2   15.62    0.96
   6  -3  -2   15.70    1.08
   6  -3  -2   16.88    1.03
   6  -3  -2   17.32    0.90
  -6   3   2   13.53    1.25
  -6   3   2   15.10    1.21
   5  -3  -2  337.93   11.61
   5  -3  -2  327.52   11.64
   5  -3  -2  325.11   11.61
   5  -3  -2  313.80   11.73
   5  -3  -2  299.75   11.61
  -5   3   2  316.02   11.63
  -5   3   2  318.90   11.72
  -5   3   2  314.38   11.56
  -5   3   2  308.64   11.90
  -5   3   2  316.48   11.61
   4  -3  -2    1.27    0.32
   4  -3  -2    1.48    0.50
   4  -3  -2    1.17    0.28
   4  -3  -2    1.21    0.31
   4  -3  -2    1.26    0.26
   4  -3  -2    1.20    0.27
  -4   3   2    1.72    0.41
  -4   3   2    1.47    0.34
  -4   3   2    1.46    0.37
  -4   3   2    1.62    0.38
  -4   3   2    1.09    0.37
   3  -3  -2  325.36   11.46
   3  -3  -2  311.11   11.52
   3  -3  -2  313.42   11.40
   3  -3  -2  332.46   11.50
   3  -3  -2  310.94   11.47
   3  -3  -2  316.37   11.47
  -3   3   2  316.58   11.51
  -3   3   2  308.16   11.38
  -3   3   2  327.13   11.46
  -3   3   2  313.70   11.64
  -3   3   2  305.04   11.41
  -3   3   2  306.34   11.43
  -3   3   2  312.15   11.43
   2  -3  -2    0.43    0.15
   2  -3  -2    0.29    0.18
   2  -3  -2    0.31    0.14
   2  -3  -2    0.11    0.14
   2  -3  -2    0.14    0.16
   2  -3  -2    0.35    0.15
  -2   3   2    0.54    0.15
  -2   3   2    0.30    0.17
  -2   3   2    0.32    0.22
  -2   3   2    0.27    0.14
  -2   3   2    0.28    0.18
  -2   3   2    0.40    0.16
  -2   3   2    0.35    0.15
   1  -3  -2   23.97    1.01
   1  -3  -2   24.57    1.04
   1  -3  -2   24.45    1.05
   1  -3  -2   25.42    1.04
   1  -3  -2   23.95    1.05
   1  -3  -2   24.32    1.05
   1  -3  -2   24.56    0.99
  -1   3   2   24.99    1.05
  -1   3   2   24.46    1.02
  -1   3   2   24.24    1.04
  -1   3   2   24.28    1.01
  -1   3   2   23.29    1.04
  -1   3   2   25.26    1.05
   0  -3  -2    5.66    0.29
   0  -3  -2    5.32    0.27
   0  -3  -2    5.42    0.36
   0  -3  -2    5.84    0.35
   0  -3  -2    5.16    0.36
   0   3   2    5.24    0.32
   0   3   2    5.50    0.36
   0   3   2    6.07    0.37
   0   3   2    5.48    0.35
   0   3   2    5.05    0.34
   0   3   2    5.57    0.36
  -1  -3  -2  102.79    3.97
  -1  -3  -2  113.84    3.99
  -1  -3  -2  104.56    3.91
  -1  -3  -2  106.95    3.94
  -1  -3  -2  103.56    3.97
   1   3   2  106.64    3.98
   1   3   2  108.45    3.96
   1   3   2  108.89    3.96
   1   3   2  109.16    3.98
  -2  -3  -2    9.42    0.50
  -2  -3  -2   10.04    0.51
  -2  -3  -2    9.17    0.49
  -2  -3  -2    9.76    0.51
   2   3   2    9.33    0.48
   2   3   2    9.69    0.53
   2   3   2    9.95    0.51
   2   3   2    9.52    0.51
   2   3   2    9.54    0.51
   2   3   2    9.99    0.50
  -3  -3  -2   27.72    1.20
  -3  -3  -2   28.24    1.21
  -3  -3  -2   29.72    1.18
  -3  -3  -2   29.50    1.24
   3   3   2   29.54    1.17
   3   3   2   28.18    1.17
   3   3   2   28.65    1.23
   3   3   2   29.05    1.20
   3   3   2   30.12    1.26
   3   3   2   27.49    1.12
   3   3   2   29.61    1.20
  -4  -3  -2   11.26    0.65
  -4  -3  -2   12.16    0.57
  -4  -3  -2   11.37    0.64
  -4  -3  -2   10.70    0.72
   4   3   2   10.41    0.56
   4   3   2   11.45    0.64
   4   3   2   11.04    0.58
   4   3   2   11.49    0.63
   4   3   2   11.32    0.72
   4   3   2   11.38    0.56
   4   3   2   11.24    0.68
  -5  -3  -2   25.69    1.21
  -5  -3  -2   26.93    1.28
   5   3   2   26.54    1.32
   5   3   2   23.86    1.23
   5   3   2   25.26    1.24
   5   3   2   25.33    1.15
   5   3   2   25.06    1.11
   5   3   2   27.56    1.18
   5   3   2   26.53    1.44
  -6  -3  -2    5.23    0.65
   6   3   2    4.45    0.59
   6   3   2    4.65    0.56
   6   3   2    5.86    0.77
   6   3   2    6.59    1.08
   6   3   2    4.25    0.77
   6   3   2    5.19    0.61
  -7  -3  -2   37.96    1.78
   7   3   2   35.04    1.89
   7   3   2   36.69    1.75
  -8  -3  -2    1.28    0.73
   8   3   2    2.37    0.74
   8   3   2    0.82    0.88
   7  -4  -2    6.93    1.13
   7  -4  -2    8.20    1.23
   7  -4  -2    6.99    1.04
  -7   4   2    4.52    1.32
  -7   4   2    8.54    0.93
   6  -4  -2    6.42    0.78
   6  -4  -2    6.51    0.68
   6  -4  -2    6.20    0.85
   6  -4  -2    6.60    0.86
   6  -4  -2    6.41    0.74
  -6   4   2    5.65    0.68
  -6   4   2    5.03    1.04
   5  -4  -2    4.39    0.56
   5  -4  -2    2.88    0.63
   5  -4  -2    3.48    0.52
   5  -4  -2    3.51    0.61
   5  -4  -2    2.88    0.53
  -5   4   2    3.84    0.60
  -5   4   2    3.42    0.82
  -5   4   2    2.58    0.49
   4  -4  -2    1.85    0.47
   4  -4  -2    1.74    0.39
   4  -4  -2    2.15    0.43
   4  -4  -2    2.56    0.47
   4  -4  -2    2.21    0.42
   4  -4  -2    1.76    0.38
   4  -4  -2    1.49    0.37
  -4   4   2    2.18    0.43
  -4   4   2    1.65    0.36
  -4   4   2    2.07    0.50
  -4   4   2    1.89    0.45
  -4   4   2    1.82    0.34
  -4   4   2    1.55    0.31
   3  -4  -2    1.03    0.24
   3  -4  -2    0.55    0.22
   3  -4  -2    0.70    0.23
   3  -4  -2    0.88    0.23
   3  -4  -2    1.09    0.27
   3  -4  -2    0.38    0.25
   3  -4  -2    1.11    0.23
  -3   4   2    0.98    0.23
  -3   4   2    0.84    0.22
  -3   4   2    0.88    0.25
  -3   4   2    0.81    0.25
  -3   4   2    1.41    0.40
  -3   4   2    1.22    0.34
  -3   4   2    0.78    0.19
  -3   4   2    0.80    0.24
   2  -4  -2    2.74    0.34
   2  -4  -2    2.08    0.36
   2  -4  -2    2.24    0.34
   2  -4  -2    2.50    0.32
   2  -4  -2    2.33    0.35
   2  -4  -2    1.69    0.29
   2  -4  -2    2.05    0.30
  -2   4   2    2.35    0.37
  -2   4   2    1.68    0.44
  -2   4   2    2.16    0.31
  -2   4   2    1.74    0.31
  -2   4   2    3.00    0.39
  -2   4   2    2.16    0.35
  -2   4   2    2.40    0.37
   1  -4  -2    0.28    0.18
   1  -4  -2   -0.02    0.15
   1  -4  -2    0.46    0.16
   1  -4  -2    0.42    0.13
   1  -4  -2    0.61    0.19
   1  -4  -2    0.51    0.17
   1  -4  -2    0.25    0.15
  -1   4   2    0.39    0.17
  -1   4   2    0.18    0.16
  -1   4   2    0.29    0.19
  -1   4   2    0.14    0.18
  -1   4   2    0.12    0.17
  -1   4   2    0.47    0.16
   0  -4  -2  183.05    6.96
   0  -4  -2  188.59    6.95
   0  -4  -2  183.42    6.97
   0  -4  -2  189.38    6.88
   0  -4  -2  188.67    6.98
   0  -4  -2  187.28    6.98
   0   4   2  188.51    6.97
   0   4   2  196.15    6.99
   0   4   2  193.21    6.95
   0   4   2  198.04    6.96
   0   4   2  191.64    6.93
  -1  -4  -2    0.06    0.14
  -1  -4  -2    0.31    0.16
  -1  -4  -2   -0.07    0.14
  -1  -4  -2    0.02    0.10
  -1  -4  -2    0.19    0.12
  -1  -4  -2   -0.18    0.13
   1   4   2    0.11    0.13
   1   4   2    0.14    0.13
   1   4   2    0.09    0.11
   1   4   2    0.10    0.15
   1   4   2   -0.02    0.16
   1   4   2    0.07    0.16
  -2  -4  -2  380.16   13.93
  -2  -4  -2  374.72   13.95
  -2  -4  -2  373.83   13.96
  -2  -4  -2  385.24   13.96
  -2  -4  -2  383.51   13.92
   2   4   2  397.32   13.97
   2   4   2  386.25   13.94
   2   4   2  386.34   13.95
   2   4   2  394.29   13.97
   2   4   2  389.51   13.94
   2   4   2  389.48   13.98
  -3  -4  -2    2.58    0.38
  -3  -4  -2    3.41    0.35
  -3  -4  -2    3.52    0.33
  -3  -4  -2    2.94    0.29
  -3  -4  -2    2.88    0.36
   3   4   2    2.95    0.36
   3   4   2    3.27    0.42
   3   4   2    2.67    0.41
   3   4   2    2.90    0.39
   3   4   2    3.13    0.35
   3   4   2    3.22    0.33
  -4  -4  -2  640.56   22.05
  -4  -4  -2  605.15   22.12
  -4  -4  -2  593.85   22.09
  -4  -4  -2  596.93   22.09
   4   4   2  616.12   22.06
   4   4   2  616.88   22.06
   4   4   2  611.45   22.10
   4   4   2  606.97   22.05
   4   4   2  623.87   22.15
   4   4   2  610.15   22.09
  -5  -4  -2    6.16    0.66
  -5  -4  -2    5.11    0.56
  -5  -4  -2    5.84    0.62
   5   4   2    5.03    0.47
   5   4   2    4.10    0.74
   5   4   2    4.98    0.65
   5   4   2    5.29    0.55
   5   4   2    6.44    0.48
   5   4   2    6.75    0.54
   5   4   2    5.35    0.59
  -6  -4  -2  189.87    6.83
   6   4   2  174.59    6.70
   6   4   2  180.50    6.72
   6   4   2  183.98    6.74
   6   4   2  175.61    7.07
   6   4   2  182.38    6.76
  -7  -4  -2    7.52    0.95
   7   4   2    6.99    0.96
   7   4   2    9.14    0.92
   7   4   2    8.27    0.92
  -8  -4  -2   13.19    1.35
   8   4   2   10.54    1.19
   8   4   2   11.86    1.41
   7  -5  -2    5.87    1.21
   7  -5  -2    5.46    1.07
  -7   5   2    5.17    0.92
  -7   5   2    5.70    1.46
   6  -5  -2    3.73    0.78
   6  -5  -2    4.05    0.95
   6  -5  -2    4.40    0.69
   6  -5  -2    3.66    0.93
   6  -5  -2    3.20    0.74
  -6   5   2    4.10    0.66
  -6   5   2    2.93    0.80
  -6   5   2    3.78    0.63
   5  -5  -2   70.52    3.02
   5  -5  -2   76.38    2.96
   5  -5  -2   72.19    2.92
   5  -5  -2   71.31    3.05
   5  -5  -2   73.49    2.91
   5  -5  -2   72.47    2.84
   5  -5  -2   70.08    2.91
  -5   5   2   71.97    2.81
  -5   5   2   70.14    3.20
  -5   5   2   71.50    2.88
  -5   5   2   70.60    2.90
  -5   5   2   66.62    3.04
  -5   5   2   71.51    2.91
   4  -5  -2   17.10    1.01
   4  -5  -2   18.39    1.00
   4  -5  -2   16.88    0.98
   4  -5  -2   17.47    0.93
   4  -5  -2   16.60    0.96
   4  -5  -2   17.74    0.95
   4  -5  -2   17.37    1.05
  -4   5   2   17.71    0.90
  -4   5   2   17.88    1.22
  -4   5   2   18.31    0.97
   3  -5  -2  462.83   16.86
   3  -5  -2  472.68   16.87
   3  -5  -2  466.31   16.86
   3  -5  -2  455.03   16.92
   3  -5  -2  455.94   16.82
   3  -5  -2  443.06   16.86
   3  -5  -2  461.16   16.87
  -3   5   2  465.07   16.78
  -3   5   2  470.63   16.91
  -3   5   2  462.55   16.83
  -3   5   2  472.91   16.88
  -3   5   2  481.87   16.86
  -3   5   2  484.23   16.83
  -3   5   2  446.87   17.03
   2  -5  -2    3.17    0.45
   2  -5  -2    3.00    0.40
   2  -5  -2    3.71    0.40
   2  -5  -2    2.78    0.37
   2  -5  -2    3.27    0.42
   2  -5  -2    3.48    0.46
   2  -5  -2    3.27    0.43
  -2   5   2    2.78    0.52
  -2   5   2    3.69    0.44
  -2   5   2    2.97    0.46
  -2   5   2    2.94    0.42
  -2   5   2    3.17    0.45
  -2   5   2    3.56    0.46
  -2   5   2    3.20    0.38
   1  -5  -2  509.05   18.88
   1  -5  -2  527.19   18.90
   1  -5  -2  559.43   18.90
   1  -5  -2  519.80   18.82
   1  -5  -2  496.24   18.89
   1  -5  -2  525.29   18.87
   1  -5  -2  512.54   18.89
  -1   5   2  519.04   18.89
  -1   5   2  525.58   18.86
  -1   5   2  521.64   18.90
  -1   5   2  522.91   18.86
  -1   5   2  517.85   18.91
  -1   5   2  529.80   18.87
   0  -5  -2    1.70    0.32
   0  -5  -2    0.95    0.24
   0  -5  -2    2.17    0.35
   0  -5  -2    1.35    0.30
   0  -5  -2    1.13    0.28
   0  -5  -2    1.78    0.35
   0  -5  -2    2.04    0.37
   0   5   2    1.79    0.35
   0   5   2    1.73    0.22
   0   5   2    1.16    0.33
   0   5   2    1.65    0.36
   0   5   2    1.32    0.30
   0   5   2    2.30    0.38
  -1  -5  -2  312.99   11.66
  -1  -5  -2  332.84   11.68
  -1  -5  -2  318.87   11.60
  -1  -5  -2  314.91   11.56
  -1  -5  -2  322.49   11.67
  -1  -5  -2  300.34   11.63
   1   5   2  332.85   11.64
   1   5   2  296.84   11.49
   1   5   2  334.68   11.65
   1   5   2  331.86   11.68
   1   5   2  325.65   11.57
   1   5   2  311.31   11.68
   1   5   2  323.51   11.68
  -2  -5  -2    4.07    0.38
  -2  -5  -2    3.70    0.44
  -2  -5  -2    4.75    0.47
  -2  -5  -2    5.11    0.49
  -2  -5  -2    4.38    0.39
   2   5   2    3.32    0.43
   2   5   2    4.40    0.46
   2   5   2    4.07    0.44
   2   5   2    4.41    0.45
   2   5   2    4.17    0.42
   2   5   2    4.21    0.48
  -3  -5  -2    6.34    0.50
  -3  -5  -2    6.62    0.55
  -3  -5  -2    6.31    0.46
  -3  -5  -2    7.07    0.58
  -3  -5  -2    6.90    0.47
  -3  -5  -2    6.49    0.56
   3   5   2    6.55    0.58
   3   5   2    6.80    0.56
   3   5   2    6.87    0.54
   3   5   2    7.40    0.57
   3   5   2    6.19    0.50
   3   5   2    6.22    0.52
  -4  -5  -2   26.09    1.11
  -4  -5  -2   26.82    1.25
  -4  -5  -2   26.28    1.26
  -4  -5  -2   25.50    1.30
  -4  -5  -2   27.79    1.25
   4   5   2   28.06    1.32
   4   5   2   26.23    1.22
   4   5   2   27.30    1.30
   4   5   2   27.12    1.25
   4   5   2   26.85    1.32
   4   5   2   29.36    1.26
  -5  -5  -2    2.37    0.56
  -5  -5  -2    3.08    0.74
  -5  -5  -2    2.49    0.50
  -5  -5  -2    2.11    0.41
   5   5   2    2.26    0.43
   5   5   2    1.89    0.48
   5   5   2    1.91    0.42
   5   5   2    2.48    0.42
   5   5   2    3.05    0.58
   5   5   2    1.91    0.34
   5   5   2    2.26    0.56
  -6  -5  -2   32.56    1.38
  -6  -5  -2   30.24    1.53
   6   5   2   30.85    1.49
   6   5   2   30.19    1.53
   6   5   2   29.00    1.40
   6   5   2   29.79    1.64
   6   5   2   30.25    1.47
   6   5   2   30.64    1.39
  -7  -5  -2    9.83    1.07
   7   5   2    7.80    1.17
   7   5   2    8.27    1.03
   7   5   2    7.96    0.99
  -8  -5  -2   20.43    1.65
   8   5   2   20.74    1.52
   6  -6  -2  128.85    4.82
   6  -6  -2  117.92    4.88
   6  -6  -2  126.76    4.97
   6  -6  -2  123.75    5.10
   6  -6  -2  132.47    4.93
  -6   6   2  123.76    5.32
  -6   6   2  117.57    4.92
   5  -6  -2    7.82    0.77
   5  -6  -2    9.22    0.98
   5  -6  -2    6.84    0.81
   5  -6  -2    6.72    0.78
   5  -6  -2    6.72    0.95
   5  -6  -2    7.83    0.83
  -5   6   2    7.99    1.15
  -5   6   2    6.09    0.81
  -5   6   2    7.13    0.92
   4  -6  -2   32.34    1.57
   4  -6  -2   30.21    1.51
   4  -6  -2   31.54    1.61
   4  -6  -2   32.47    1.52
   4  -6  -2   31.17    1.48
   4  -6  -2   32.01    1.53
  -4   6   2   32.66    1.55
  -4   6   2   32.46    1.81
  -4   6   2   31.51    1.43
  -4   6   2   30.77    1.54
  -4   6   2   31.42    1.37
   3  -6  -2    0.02    0.29
   3  -6  -2   -0.05    0.30
   3  -6  -2    0.07    0.28
   3  -6  -2    0.90    0.29
   3  -6  -2    0.19    0.28
   3  -6  -2   -0.16    0.32
   3  -6  -2    0.19    0.28
  -3   6   2   -0.05    0.25
  -3   6   2    0.45    0.32
  -3   6   2    0.04    0.30
  -3   6   2    0.37    0.43
  -3   6   2    0.00    0.30
  -3   6   2    0.09    0.30
  -3   6   2    0.15    0.43
   2  -6  -2    2.78    0.49
   2  -6  -2    3.23    0.54
   2  -6  -2    3.90    0.51
   2  -6  -2    2.78    0.47
   2  -6  -2    3.23    0.49
   2  -6  -2    3.58    0.47
   2  -6  -2    4.43    0.50
  -2   6   2    3.11    0.55
  -2   6   2    3.04    0.53
  -2   6   2    3.48    0.56
  -2   6   2    3.06    0.54
  -2   6   2    3.00    0.63
  -2   6   2    4.42    0.53
  -2   6   2    2.65    0.45
   1  -6  -2    4.14    0.46
   1  -6  -2    4.88    0.53
   1  -6  -2    4.25    0.47
   1  -6  -2    3.32    0.48
   1  -6  -2    3.94    0.50
   1  -6  -2    3.80    0.48
   1  -6  -2    4.07    0.42
  -1   6   2    4.24    0.53
  -1   6   2    3.71    0.55
  -1   6   2    3.69    0.45
  -1   6   2    3.39    0.49
  -1   6   2    3.68    0.52
  -1   6   2    3.03    0.48
   0  -6  -2    7.76    0.59
   0  -6  -2    6.99    0.52
   0  -6  -2    5.85    0.58
   0  -6  -2    6.33    0.54
   0  -6  -2    7.57    0.55
   0  -6  -2    6.40    0.59
   0   6   2    7.47    0.58
   0   6   2    7.40    0.55
   0   6   2    7.51    0.56
   0   6   2    6.79    0.61
   0   6   2    6.67    0.42
   0   6   2    7.54    0.62
  -1  -6  -2   11.35    0.69
  -1  -6  -2   10.95    0.75
  -1  -6  -2   11.49    0.76
  -1  -6  -2    9.89    0.74
  -1  -6  -2   12.25    0.66
  -1  -6  -2   11.44    0.61
   1   6   2   11.64    0.76
   1   6   2   12.03    0.75
   1   6   2   11.42    0.62
   1   6   2   11.68    0.71
   1   6   2   10.79    0.53
   1   6   2   11.62    0.71
   1   6   2   11.88    0.76
  -2  -6  -2   13.66    0.82
  -2  -6  -2   11.17    0.68
  -2  -6  -2   11.10    0.75
  -2  -6  -2   10.79    0.68
  -2  -6  -2   12.08    0.78
   2   6   2   10.77    0.73
   2   6   2   11.76    0.78
   2   6   2   10.99    0.76
   2   6   2   11.30    0.73
   2   6   2   11.88    0.69
   2   6   2   10.57    0.71
  -3  -6  -2   11.51    0.69
  -3  -6  -2   11.30    0.82
  -3  -6  -2   11.32    0.81
  -3  -6  -2   12.22    0.68
  -3  -6  -2   10.61    0.77
  -3  -6  -2   11.77    0.72
   3   6   2   11.79    0.76
   3   6   2   10.21    0.78
   3   6   2   12.67    0.77
   3   6   2   11.59    0.77
   3   6   2   11.48    0.77
   3   6   2   13.21    0.85
  -4  -6  -2   40.88    1.64
  -4  -6  -2   39.15    1.69
  -4  -6  -2   40.40    1.76
  -4  -6  -2   39.21    1.75
  -4  -6  -2   38.87    1.70
   4   6   2   39.42    1.75
   4   6   2   40.43    1.75
   4   6   2   39.87    1.76
   4   6   2   39.34    1.81
   4   6   2   42.94    1.87
   4   6   2   37.72    1.78
  -5  -6  -2    6.60    0.75
  -5  -6  -2    7.73    0.77
  -5  -6  -2    6.95    0.73
   5   6   2    5.88    0.66
   5   6   2    6.28    0.79
   5   6   2    6.87    0.96
   5   6   2    6.33    0.82
   5   6   2    6.77    0.79
  -6  -6  -2  187.43    7.29
  -6  -6  -2  199.78    7.42
  -6  -6  -2  197.00    7.29
   6   6   2  203.50    7.33
   6   6   2  187.47    7.49
   6   6   2  193.63    7.24
   6   6   2  192.21    7.38
   6   6   2  205.02    7.44
   6   6   2  197.44    7.32
  -7  -6  -2    9.96    1.21
   7   6   2    8.07    1.19
   7   6   2    9.26    0.93
   7   6   2    9.79    1.47
   7   6   2    8.76    1.45
   7   6   2    9.26    1.06
   7   6   2    8.29    1.21
   6  -7  -2    7.21    1.06
   6  -7  -2    5.86    1.38
   6  -7  -2    6.42    1.02
   6  -7  -2    7.68    1.14
  -6   7   2    9.68    1.68
   5  -7  -2   48.32    2.39
   5  -7  -2   55.18    2.38
   5  -7  -2   52.83    2.52
   5  -7  -2   53.03    2.95
   5  -7  -2   50.05    2.34
   5  -7  -2   52.74    2.29
  -5   7   2   48.09    2.34
  -5   7   2   51.39    2.66
   4  -7  -2    4.06    0.94
   4  -7  -2    3.80    0.69
   4  -7  -2    4.59    0.72
   4  -7  -2    4.31    0.76
   4  -7  -2    3.95    0.86
   4  -7  -2    4.65    0.84
   4  -7  -2    4.11    0.77
  -4   7   2    3.46    0.92
  -4   7   2    3.49    0.83
  -4   7   2    4.96    1.07
  -4   7   2    4.01    0.65
  -4   7   2    4.59    0.72
   3  -7  -2   20.70    1.25
   3  -7  -2   22.04    1.19
   3  -7  -2   21.65    1.17
   3  -7  -2   22.17    1.23
   3  -7  -2   20.57    1.22
   3  -7  -2   22.05    1.23
   3  -7  -2   21.28    1.23
  -3   7   2   19.95    1.41
  -3   7   2   23.80    1.27
  -3   7   2   20.51    1.24
  -3   7   2   21.18    1.20
  -3   7   2   19.88    1.21
  -3   7   2   21.58    1.11
   2  -7  -2    1.31    0.35
   2  -7  -2    1.50    0.40
   2  -7  -2    1.60    0.40
   2  -7  -2    1.03    0.35
   2  -7  -2    1.17    0.41
   2  -7  -2    1.45    0.42
   2  -7  -2    1.46    0.37
  -2   7   2    1.42    0.40
  -2   7   2    1.01    0.49
  -2   7   2    0.71    0.33
  -2   7   2    1.34    0.43
  -2   7   2    0.83    0.42
  -2   7   2    1.14    0.40
   1  -7  -2   15.75    0.98
   1  -7  -2   14.87    0.96
   1  -7  -2   15.71    1.01
   1  -7  -2   15.13    0.93
   1  -7  -2   17.20    0.89
   1  -7  -2   16.62    0.94
   1  -7  -2   15.56    0.94
  -1   7   2   16.32    0.94
  -1   7   2   15.64    1.01
  -1   7   2   15.65    0.94
  -1   7   2   16.53    1.03
  -1   7   2   17.27    1.01
   0  -7  -2    2.63    0.61
   0  -7  -2    2.54    0.59
   0  -7  -2    3.40    0.56
   0  -7  -2    2.99    0.48
   0  -7  -2    3.26    0.51
   0  -7  -2    2.79    0.51
   0   7   2    3.78    0.60
   0   7   2    3.41    0.37
   0   7   2    3.26    0.62
   0   7   2    3.88    0.56
   0   7   2    2.99    0.55
  -1  -7  -2  257.38    9.79
  -1  -7  -2  264.24    9.76
  -1  -7  -2  265.79    9.70
  -1  -7  -2  263.51    9.65
  -1  -7  -2  270.52    9.80
  -1  -7  -2  254.71    9.79
   1   7   2  265.84    9.75
   1   7   2  247.82    9.56
   1   7   2  266.09    9.82
   1   7   2  278.89    9.82
   1   7   2  272.26    9.75
   1   7   2  272.92    9.63
   1   7   2  256.55    9.82
  -2  -7  -2    1.81    0.41
  -2  -7  -2    1.77    0.36
  -2  -7  -2    0.75    0.30
  -2  -7  -2    0.84    0.37
  -2  -7  -2    1.39    0.42
   2   7   2    1.46    0.39
   2   7   2    0.83    0.33
   2   7   2    1.40    0.38
   2   7   2    1.27    0.38
   2   7   2    1.29    0.38
   2   7   2    1.17    0.32
  -3  -7  -2  236.89    8.93
  -3  -7  -2  236.58    8.97
  -3  -7  -2  237.34    8.85
  -3  -7  -2  250.43    8.96
  -3  -7  -2  235.15    8.88
   3   7   2  242.24    8.97
   3   7   2  245.62    8.87
   3   7   2  236.73    8.94
   3   7   2  232.36    8.99
   3   7   2  248.70    8.93
   3   7   2  239.28    8.89
  -4  -7  -2    0.33    0.37
  -4  -7  -2    0.13    0.39
  -4  -7  -2    0.07    0.28
  -4  -7  -2   -0.17    0.40
  -4  -7  -2    0.41    0.30
   4   7   2   -0.04    0.31
   4   7   2    0.97    0.44
   4   7   2    0.51    0.42
   4   7   2    0.44    0.49
   4   7   2   -0.15    0.46
   4   7   2    0.50    0.44
  -5  -7  -2   65.99    2.72
  -5  -7  -2   71.27    2.82
   5   7   2   68.27    2.78
   5   7   2   61.03    2.94
   5   7   2   67.20    2.78
   5   7   2   66.80    2.83
   5   7   2   66.47    2.88
   5   7   2   63.26    2.89
  -6  -7  -2    5.14    0.77
  -6  -7  -2    5.04    0.98
  -6  -7  -2    5.53    0.98
   6   7   2    4.79    0.81
   6   7   2    5.19    0.98
   6   7   2    4.84    0.84
   6   7   2    4.38    1.21
   6   7   2    4.67    0.74
   6   7   2    5.50    1.07
  -7  -7  -2   11.01    1.33
   7   7   2   10.73    1.08
   7   7   2   11.80    1.43
   7   7   2    7.82    1.69
   5  -8  -2    1.00    0.59
   5  -8  -2    2.26    0.85
   5  -8  -2    0.57    0.62
   5  -8  -2    0.09    0.58
  -5   8   2    1.56    0.95
   4  -8  -2   38.41    1.94
   4  -8  -2   36.85    1.85
   4  -8  -2   29.70    1.95
   4  -8  -2   37.56    1.88
   4  -8  -2   38.48    2.04
   4  -8  -2   42.39    1.98
  -4   8   2   36.70    1.94
  -4   8   2   38.54    2.23
  -4   8   2   35.53    2.00
  -4   8   2   36.36    1.77
  -4   8   2   39.21    1.74
   3  -8  -2    2.99    0.82
   3  -8  -2    2.53    0.56
   3  -8  -2    3.28    0.85
   3  -8  -2    3.58    0.72
   3  -8  -2    3.95    0.74
   3  -8  -2    2.02    0.60
  -3   8   2    1.91    0.52
  -3   8   2    2.22    0.57
  -3   8   2    1.91    0.57
  -3   8   2    2.66    0.76
  -3   8   2    1.77    0.48
   2  -8  -2   43.93    2.08
   2  -8  -2   47.24    2.05
   2  -8  -2   45.03    2.07
   2  -8  -2   44.88    2.10
   2  -8  -2   43.41    2.13
   2  -8  -2   44.95    2.12
   2  -8  -2   44.89    2.04
  -2   8   2   44.65    2.15
  -2   8   2   47.75    2.03
  -2   8   2   45.40    2.30
  -2   8   2   43.37    2.10
  -2   8   2   50.41    2.16
   1  -8  -2    3.15    0.74
   1  -8  -2    1.50    0.47
   1  -8  -2    1.81    0.46
   1  -8  -2    2.31    0.62
   1  -8  -2    2.27    0.63
  -1   8   2    1.91    0.53
  -1   8   2    3.52    0.77
  -1   8   2    3.59    0.78
  -1   8   2    2.51    0.55
  -1   8   2    2.12    0.47
   0  -8  -2    3.77    0.73
   0  -8  -2    3.09    0.61
   0  -8  -2    3.86    0.76
   0  -8  -2    3.51    0.60
   0  -8  -2    3.16    0.62
   0   8   2    3.39    0.73
   0   8   2    3.81    0.74
   0   8   2    4.17    0.70
   0   8   2    3.38    0.44
  -1  -8  -2    7.46    0.86
  -1  -8  -2    6.34    0.65
  -1  -8  -2    7.80    0.86
  -1  -8  -2    8.07    0.89
  -1  -8  -2    7.44    0.64
  -1  -8  -2    7.12    0.71
   1   8   2    7.42    0.83
   1   8   2    6.64    0.82
   1   8   2    7.06    0.50
   1   8   2    7.46    0.85
  -2  -8  -2    4.55    0.62
  -2  -8  -2    4.82    0.78
  -2  -8  -2    5.08    0.86
  -2  -8  -2    4.72    0.63
  -2  -8  -2    6.57    0.90
   2   8   2    4.34    0.84
   2   8   2    5.25    0.79
   2   8   2    4.06    0.74
   2   8   2    5.02    0.75
   2   8   2    5.71    0.84
   2   8   2    4.84    0.60
  -3  -8  -2    6.49    0.97
  -3  -8  -2    5.26    0.67
  -3  -8  -2    4.63    0.70
  -3  -8  -2    7.05    0.95
  -3  -8  -2    5.73    0.84
   3   8   2    4.93    0.74
   3   8   2    5.46    1.00
   3   8   2    4.62    0.77
   3   8   2    6.79    0.92
   3   8   2    6.10    0.87
   3   8   2    4.27    0.85
  -4  -8  -2   63.29    2.66
  -4  -8  -2   64.21    2.63
  -4  -8  -2   65.45    2.54
  -4  -8  -2   61.25    2.50
  -4  -8  -2   54.28    2.76
  -4  -8  -2   60.52    2.66
   4   8   2   61.87    2.66
   4   8   2   61.06    2.66
   4   8   2   60.09    2.74
   4   8   2   62.46    2.82
   4   8   2   56.30    2.66
  -5  -8  -2    8.32    1.07
  -5  -8  -2    7.51    0.89
  -5  -8  -2    7.84    0.97
  -5  -8  -2    7.18    0.96
  -5  -8  -2    7.20    0.74
   5   8   2    4.67    1.22
   5   8   2    8.91    1.27
   5   8   2    8.78    1.16
   5   8   2    6.19    1.18
   5   8   2    9.32    0.98
   5   8   2    7.60    1.37
  -6  -8  -2   96.84    3.89
   6   8   2   93.20    3.80
   6   8   2   91.57    3.98
   6   8   2   88.00    3.88
   4  -9  -2   15.76    1.33
   4  -9  -2   15.25    1.51
   4  -9  -2   16.20    1.36
   4  -9  -2   14.28    1.42
  -4   9   2   12.73    1.27
  -4   9   2   13.29    1.24
  -4   9   2   16.55    1.82
   3  -9  -2   97.66    4.04
   3  -9  -2   97.38    3.97
   3  -9  -2   99.66    4.02
   3  -9  -2   96.96    3.95
   3  -9  -2   97.82    3.99
   3  -9  -2   93.31    4.02
  -3   9   2   98.14    4.29
  -3   9   2   92.63    3.94
  -3   9   2   88.41    4.02
   2  -9  -2    9.83    1.18
   2  -9  -2   14.15    1.15
   2  -9  -2   12.89    1.23
   2  -9  -2   14.00    1.17
   2  -9  -2   12.24    1.07
   2  -9  -2   11.93    1.04
  -2   9   2    9.87    1.28
  -2   9   2   15.41    1.29
  -2   9   2   15.78    1.25
  -2   9   2   11.05    1.27
  -2   9   2   15.28    1.45
   1  -9  -2  215.77    7.99
   1  -9  -2  213.69    8.05
   1  -9  -2  222.86    8.11
   1  -9  -2  206.65    8.00
   1  -9  -2  221.82    7.98
  -1   9   2  230.38    8.11
  -1   9   2  188.22    8.10
  -1   9   2  202.95    8.02
  -1   9   2  198.76    7.97
  -1   9   2  210.02    8.08
   0  -9  -2    3.67    0.73
   0  -9  -2    4.44    1.00
   0  -9  -2    4.72    0.74
   0  -9  -2    4.78    0.90
   0   9   2    3.24    0.91
   0   9   2    4.15    0.53
   0   9   2    4.85    0.95
   0   9   2    3.37    0.66
  -1  -9  -2  135.82    5.41
  -1  -9  -2  142.27    5.20
  -1  -9  -2  138.06    5.42
  -1  -9  -2  124.21    5.44
  -1  -9  -2  136.27    5.33
  -1  -9  -2  136.69    5.25
   1   9   2  143.89    5.43
   1   9   2  134.29    5.08
   1   9   2  135.76    5.43
   1   9   2  138.64    5.45
   1   9   2  140.68    5.46
  -2  -9  -2    2.05    0.63
  -2  -9  -2    0.81    0.45
  -2  -9  -2    1.33    0.47
  -2  -9  -2    1.34    0.62
   2   9   2    0.07    0.70
   2   9   2    1.51    0.55
   2   9   2    1.95    0.63
   2   9   2    0.94    0.65
   2   9   2    1.05    0.46
   2   9   2    1.48    0.60
  -3  -9  -2    3.38    0.79
  -3  -9  -2    3.12    0.59
  -3  -9  -2    2.51    0.75
  -3  -9  -2    2.64    0.64
   3   9   2    3.60    0.87
   3   9   2    3.41    0.75
   3   9   2    5.09    1.25
   3   9   2    2.89    0.71
   3   9   2    2.90    0.70
   3   9   2    4.44    0.87
  -4  -9  -2    2.21    0.74
  -4  -9  -2    1.76    0.53
  -4  -9  -2    2.48    0.70
  -4  -9  -2    2.85    0.66
  -4  -9  -2    3.74    0.86
   4   9   2    2.73    0.79
   4   9   2    3.97    0.84
   4   9   2    2.50    0.61
   4   9   2    1.82    0.79
   4   9   2    1.69    0.89
  -5  -9  -2   19.97    1.39
  -5  -9  -2   18.19    1.16
  -5  -9  -2   16.77    1.22
   5   9   2   17.39    1.67
   5   9   2   17.08    1.37
   5   9   2    9.57    2.24
  -6  -9  -2    9.23    1.46
   6   9   2   12.80    1.71
   6   9   2    7.14    1.25
   3 -10  -2    0.88    0.70
   3 -10  -2    1.20    0.68
   3 -10  -2   -0.82    0.86
   3 -10  -2    1.50    0.82
  -3  10   2    3.28    0.80
  -3  10   2    3.37    1.14
  -3  10   2    1.17    0.75
   2 -10  -2    5.00    1.21
   2 -10  -2    3.46    0.75
   2 -10  -2    3.19    0.86
   2 -10  -2    3.22    0.90
   2 -10  -2    4.91    1.04
  -2  10   2    2.56    0.99
  -2  10   2    6.12    1.40
  -2  10   2    3.00    0.82
   1 -10  -2   -0.24    0.54
   1 -10  -2    0.46    0.70
   1 -10  -2    0.07    0.56
   1 -10  -2    0.24    0.62
   1 -10  -2    0.99    0.68
  -1  10   2    1.20    0.79
  -1  10   2   -0.56    0.65
  -1  10   2   -0.27    0.65
   0 -10  -2    0.22    0.54
   0 -10  -2    0.75    0.50
   0 -10  -2    0.06    0.73
   0 -10  -2    2.17    0.72
   0 -10  -2    1.13    0.61
   0  10   2    0.49    0.66
   0  10   2    0.34    0.37
   0  10   2    1.25    0.74
  -1 -10  -2   11.09    1.47
  -1 -10  -2   10.63    0.98
  -1 -10  -2   12.59    1.13
  -1 -10  -2   11.02    0.98
  -1 -10  -2   13.11    1.31
   1  10   2   11.91    0.77
   1  10   2   11.48    1.40
   1  10   2   11.78    1.51
  -2 -10  -2    1.07    0.65
  -2 -10  -2    0.41    0.54
  -2 -10  -2    0.07    0.84
  -2 -10  -2    0.14    0.52
   2  10   2    0.26    0.51
   2  10   2    1.51    0.65
   2  10   2    1.08    0.83
   2  10   2   -0.06    0.70
  -3 -10  -2    6.22    1.00
  -3 -10  -2    5.05    1.26
  -3 -10  -2    4.53    0.99
  -3 -10  -2    7.38    1.04
   3  10   2    8.63    1.69
   3  10   2    9.09    1.25
   3  10   2    6.46    1.38
  -4 -10  -2    0.56    0.90
  -4 -10  -2    0.39    0.70
  -4 -10  -2    0.35    0.76
  -4 -10  -2   -0.53    0.59
  -4 -10  -2    0.37    0.48
   4  10   2    1.89    0.88
   4  10   2    0.70    0.65
   4  10   2   -0.30    0.84
  -5 -10  -2    1.86    0.84
  -5 -10  -2    1.68    0.70
   5  10   2    1.00    0.78
   5  10   2    1.31    1.00
   2 -11  -2    0.41    0.98
   2 -11  -2    0.59    0.78
   2 -11  -2    1.39    0.99
  -2  11   2    0.37    1.20
  -2  11   2    2.81    0.97
   1 -11  -2   22.81    1.98
   1 -11  -2   25.96    1.77
   1 -11  -2   25.32    1.77
   1 -11  -2   25.32    1.56
  -1  11   2   25.16    2.18
  -1  11   2   23.99    2.05
   0 -11  -2    0.45    0.66
   0 -11  -2    1.74    0.73
   0 -11  -2    1.04    0.83
   0 -11  -2    0.54    0.71
   0 -11  -2    1.01    1.00
   0  11   2    1.87    0.94
   0  11   2   -0.52    0.85
  -1 -11  -2  104.85    4.70
  -1 -11  -2  130.00    5.12
  -1 -11  -2  126.01    4.82
  -1 -11  -2  122.48    4.93
   1  11   2  121.06    4.55
   1  11   2  120.97    5.25
   1  11   2  119.57    5.15
  -2 -11  -2    0.71    0.71
  -2 -11  -2    2.92    0.98
  -2 -11  -2    1.48    0.71
   2  11   2    0.11    0.81
   2  11   2    1.59    0.91
   2  11   2    1.22    1.17
  -3 -11  -2  272.56   10.15
  -3 -11  -2  280.86   10.18
  -3 -11  -2  266.51   10.31
   3  11   2  266.24   10.36
   3  11   2  257.32   10.43
  -4 -11  -2   -0.31    0.81
   4  11   2    1.21    1.10
   4  11   2   -0.03    0.87
   2  11  -3   67.08    3.22
   2  11  -3   63.24    3.77
  -2 -11   3   68.84    3.77
  -2 -11   3   71.60    3.22
  -2 -11   3   70.43    3.32
   1  11  -3    9.73    2.09
   1  11  -3    9.09    1.50
   1  11  -3    7.17    1.87
  -1 -11   3    8.41    1.49
  -1 -11   3    6.35    1.41
  -1 -11   3   11.85    1.65
  -1 -11   3    9.18    1.51
   0  11  -3  115.66    4.98
   0  11  -3  110.38    5.14
   0  11  -3  119.22    5.39
   0 -11   3  108.99    5.38
   0 -11   3  123.13    5.16
   0 -11   3  132.04    5.44
   0 -11   3  120.32    5.05
   0 -11   3  131.02    5.01
  -1  11  -3   31.65    2.34
  -1  11  -3   27.65    2.53
  -1  11  -3   28.89    2.02
   1 -11   3   27.50    2.09
   1 -11   3   30.84    2.08
   1 -11   3   30.47    2.23
   1 -11   3   31.40    2.18
   1 -11   3   29.66    2.46
  -2  11  -3   77.97    3.53
  -2  11  -3   73.74    3.48
   2 -11   3   65.40    3.51
   2 -11   3   77.34    3.68
   2 -11   3   73.70    3.76
   2 -11   3   68.44    3.57
   3  10  -3   30.71    2.39
   3  10  -3   29.86    2.45
  -3 -10   3   37.32    2.44
  -3 -10   3   35.48    2.04
  -3 -10   3   32.34    2.03
   2  10  -3    3.21    1.03
   2  10  -3    2.55    0.93
   2  10  -3    1.97    0.69
   2  10  -3    3.00    1.27
  -2 -10   3    3.11    0.85
  -2 -10   3    3.40    0.99
  -2 -10   3    2.37    0.73
   1  10  -3   27.29    1.80
   1  10  -3   31.93    2.25
   1  10  -3   33.68    2.12
   1  10  -3   29.67    2.44
  -1 -10   3   32.16    1.86
  -1 -10   3   34.86    1.99
  -1 -10   3   31.91    2.23
  -1 -10   3   32.78    2.45
  -1 -10   3   34.32    1.83
  -1 -10   3   31.34    1.73
   0  10  -3   -1.00    0.83
   0  10  -3   -0.57    0.93
   0  10  -3   -0.14    0.59
   0  10  -3    0.87    0.78
   0 -10   3    0.09    0.59
   0 -10   3   -0.14    0.85
   0 -10   3   -0.43    0.62
   0 -10   3   -0.77    0.70
   0 -10   3    0.30    0.68
   0 -10   3   -0.96    0.77
  -1  10  -3    0.06    0.85
  -1  10  -3   -0.42    0.71
  -1  10  -3    0.57    0.61
   1 -10   3    1.45    0.87
   1 -10   3   -1.09    0.80
   1 -10   3   -0.59    0.64
   1 -10   3    0.26    0.71
   1 -10   3    1.50    0.80
  -2  10  -3    0.43    0.69
  -2  10  -3    0.31    0.73
  -2  10  -3    0.95    0.85
  -2  10  -3    1.49    0.87
   2 -10   3    0.24    0.83
   2 -10   3    0.00    0.83
   2 -10   3    1.23    0.76
   2 -10   3    2.39    0.90
   2 -10   3    1.79    0.94
   2 -10   3    0.42    0.74
  -3  10  -3   30.07    2.08
  -3  10  -3   23.70    1.83
  -3  10  -3   27.86    1.75
  -3  10  -3   24.08    1.91
   3 -10   3   29.85    2.15
   3 -10   3   26.14    1.99
   3 -10   3   24.91    2.02
   3 -10   3   24.76    2.00
  -4  10  -3    0.83    0.98
  -4  10  -3    0.03    0.72
  -4  10  -3    2.09    1.12
   4 -10   3   -0.81    0.88
   4 -10   3   -0.06    1.04
   4 -10   3    0.55    0.89
   4 -10   3    1.89    1.20
   4   9  -3   58.88    2.96
   4   9  -3   57.82    3.15
   4   9  -3   61.72    3.31
  -4  -9   3   62.88    2.79
  -4  -9   3   66.72    2.88
   3   9  -3    2.77    0.86
   3   9  -3    4.93    0.97
   3   9  -3    3.59    1.33
   3   9  -3    2.82    0.96
  -3  -9   3    5.56    0.92
  -3  -9   3    3.16    0.90
  -3  -9   3    5.45    1.04
   2   9  -3   57.06    2.90
   2   9  -3   58.17    3.08
   2   9  -3   57.29    2.96
   2   9  -3   59.60    2.80
  -2  -9   3   68.34    2.78
  -2  -9   3   60.99    2.96
  -2  -9   3   62.29    2.63
  -2  -9   3   51.73    3.08
   1   9  -3    4.56    1.14
   1   9  -3    3.47    0.91
   1   9  -3    4.72    0.92
   1   9  -3    3.44    0.82
   1   9  -3    3.20    0.87
  -1  -9   3    5.16    1.36
  -1  -9   3    3.76    0.58
  -1  -9   3    3.32    0.90
  -1  -9   3    3.96    0.86
  -1  -9   3    3.53    0.99
  -1  -9   3    5.50    0.95
   0   9  -3    4.05    0.80
   0   9  -3    5.30    1.26
   0   9  -3    2.13    0.67
   0   9  -3    3.29    0.88
   0   9  -3    3.12    0.76
   0   9  -3    4.98    1.25
   0  -9   3    3.89    0.97
   0  -9   3    3.47    0.71
   0  -9   3    3.37    0.78
   0  -9   3    2.54    0.74
   0  -9   3    4.61    0.86
   0  -9   3    4.94    0.89
  -1   9  -3   -0.02    0.49
  -1   9  -3    0.60    0.66
  -1   9  -3    0.78    0.71
  -1   9  -3   -0.90    0.60
  -1   9  -3   -0.03    0.87
  -1   9  -3    0.23    0.56
   1  -9   3   -0.04    0.59
   1  -9   3    0.63    0.62
   1  -9   3   -1.10    0.50
   1  -9   3    0.22    0.51
   1  -9   3    0.48    0.60
   1  -9   3    0.07    0.53
  -2   9  -3   37.29    1.90
  -2   9  -3   27.84    2.01
  -2   9  -3   36.06    2.10
  -2   9  -3   35.36    1.85
   2  -9   3   36.11    2.00
   2  -9   3   35.71    2.03
   2  -9   3   37.06    1.94
   2  -9   3   32.67    2.00
   2  -9   3   34.65    1.99
  -3   9  -3    6.15    1.18
  -3   9  -3    7.26    1.29
  -3   9  -3    6.96    1.13
  -3   9  -3    7.45    1.08
  -3   9  -3    6.61    1.27
   3  -9   3    8.33    1.33
   3  -9   3    7.51    1.21
   3  -9   3    7.23    1.24
   3  -9   3    8.65    1.29
   3  -9   3    7.29    1.31
  -4   9  -3   28.45    1.72
  -4   9  -3   32.04    1.92
  -4   9  -3   30.49    2.04
   4  -9   3   27.69    2.01
   4  -9   3   26.70    1.85
   4  -9   3   32.25    2.14
   4  -9   3   27.86    1.85
  -5   9  -3   21.55    2.04
  -5   9  -3   22.64    1.91
   5  -9   3   23.41    2.05
   5  -9   3   19.02    1.68
   5  -9   3   22.29    1.80
   5  -9   3   24.35    2.10
   5   8  -3    9.88    1.87
   5   8  -3   10.84    1.60
  -5  -8   3    9.19    1.12
  -5  -8   3   10.47    1.32
  -5  -8   3   10.85    1.43
   4   8  -3    0.51    1.21
   4   8  -3    1.36    0.76
   4   8  -3    0.61    0.83
   4   8  -3    0.75    0.72
  -4  -8   3    1.15    0.67
  -4  -8   3   -0.71    0.49
  -4  -8   3    0.26    0.61
  -4  -8   3    0.92    0.61
   3   8  -3    0.05    0.60
   3   8  -3    1.53    0.64
   3   8  -3    0.13    0.93
   3   8  -3    1.95    0.75
  -3  -8   3    1.47    0.83
  -3  -8   3    1.21    0.46
  -3  -8   3    0.21    0.63
  -3  -8   3    1.84    0.55
  -3  -8   3    1.28    0.52
   2   8  -3    0.59    0.74
   2   8  -3    0.80    0.59
   2   8  -3    0.90    0.59
   2   8  -3    0.60    0.56
  -2  -8   3    0.50    0.40
  -2  -8   3    1.08    0.48
  -2  -8   3    1.10    0.68
  -2  -8   3    0.93    0.46
  -2  -8   3    0.34    0.61
   1   8  -3   12.28    1.24
   1   8  -3   10.68    1.05
   1   8  -3   11.72    1.24
   1   8  -3   11.21    0.92
   1   8  -3   11.33    1.11
  -1  -8   3    8.05    0.84
  -1  -8   3   12.77    1.28
  -1  -8   3   12.63    1.21
  -1  -8   3   10.90    0.96
  -1  -8   3   10.45    0.80
   0   8  -3    2.92    0.65
   0   8  -3    2.51    0.63
   0   8  -3    2.77    0.64
   0   8  -3    2.57    0.69
   0   8  -3    2.05    0.65
   0  -8   3    4.23    0.97
   0  -8   3    2.44    0.63
   0  -8   3    3.57    0.64
   0  -8   3    2.77    0.69
   0  -8   3    2.59    0.61
   0  -8   3    2.61    0.71
  -1   8  -3   30.50    1.57
  -1   8  -3   31.32    1.71
  -1   8  -3   26.01    1.59
  -1   8  -3   28.78    1.54
  -1   8  -3   27.65    1.60
  -1   8  -3   30.31    1.76
   1  -8   3   31.73    1.69
   1  -8   3   27.71    1.71
   1  -8   3   29.86    1.60
   1  -8   3   28.77    1.56
   1  -8   3   30.31    1.58
   1  -8   3   28.65    1.51
   1  -8   3   28.34    1.74
  -2   8  -3    0.34    0.54
  -2   8  -3    0.14    0.55
  -2   8  -3    0.10    0.46
  -2   8  -3   -0.23    0.41
  -2   8  -3   -0.17    0.46
   2  -8   3   -0.60    0.43
   2  -8   3    0.20    0.45
   2  -8   3   -0.16    0.44
   2  -8   3    0.35    0.49
   2  -8   3   -0.44    0.53
   2  -8   3    0.07    0.42
   2  -8   3   -0.25    0.48
  -3   8  -3    1.39    0.49
  -3   8  -3    1.62    0.57
  -3   8  -3    0.35    0.72
  -3   8  -3    1.12    0.59
  -3   8  -3    0.19    0.61
  -3   8  -3    0.33    0.52
  -3   8  -3    1.77    0.54
   3  -8   3    0.79    0.53
   3  -8   3    2.16    0.61
   3  -8   3    0.43    0.57
   3  -8   3    1.64    0.54
   3  -8   3    2.26    0.58
   3  -8   3    0.85    0.63
  -4   8  -3    1.60    0.71
  -4   8  -3    0.38    0.57
  -4   8  -3    0.33    0.56
  -4   8  -3    1.04    0.58
   4  -8   3   -0.02    0.53
   4  -8   3   -0.61    0.52
   4  -8   3    0.61    0.55
   4  -8   3    0.57    0.72
   4  -8   3    0.50    0.67
   4  -8   3    1.20    0.62
  -5   8  -3   50.76    2.54
  -5   8  -3   53.27    2.63
   5  -8   3   47.72    2.59
   5  -8   3   42.30    2.38
   5  -8   3   48.98    2.34
   5  -8   3   47.81    2.66
   5  -8   3   50.02    2.42
  -6   8  -3    3.86    1.06
  -6   8  -3    3.22    0.97
   6  -8   3    3.12    0.81
   6  -8   3    2.37    0.71
   6  -8   3    4.00    1.19
   6  -8   3    2.09    1.02
   6   7  -3    2.33    0.87
   6   7  -3    7.65    1.99
  -6  -7   3    3.42    0.97
  -6  -7   3    3.63    0.90
   5   7  -3    8.04    1.56
   5   7  -3    3.79    0.79
  -5  -7   3    5.42    0.86
  -5  -7   3    3.33    0.73
  -5  -7   3    3.87    0.79
  -5  -7   3    4.27    0.84
  -5  -7   3    2.30    0.67
   4   7  -3    0.85    0.74
   4   7  -3   -0.41    0.54
   4   7  -3   -0.47    0.92
   4   7  -3   -0.08    0.50
   4   7  -3    0.28    0.68
  -4  -7   3    0.22    0.55
  -4  -7   3   -0.15    0.48
  -4  -7   3   -0.04    0.42
  -4  -7   3    0.65    0.55
  -4  -7   3    0.72    0.51
   3   7  -3   -0.67    0.76
   3   7  -3    1.35    0.59
   3   7  -3    0.26    0.57
   3   7  -3    0.06    0.46
   3   7  -3    0.22    0.50
  -3  -7   3    0.58    0.48
  -3  -7   3    0.61    0.54
  -3  -7   3   -0.62    0.60
  -3  -7   3    0.46    0.43
  -3  -7   3    0.99    0.39
  -3  -7   3    1.16    0.43
   2   7  -3   60.32    2.79
   2   7  -3   58.31    2.72
   2   7  -3   60.42    2.51
   2   7  -3   56.77    2.72
  -2  -7   3   60.02    2.47
  -2  -7   3   60.79    2.46
  -2  -7   3   61.33    2.54
  -2  -7   3   58.34    2.77
  -2  -7   3   58.47    2.68
  -2  -7   3   61.35    2.66
   1   7  -3    4.52    0.81
   1   7  -3    4.07    0.74
   1   7  -3    4.68    0.86
   1   7  -3    3.08    0.87
  -1  -7   3    3.24    0.81
  -1  -7   3    4.54    0.90
  -1  -7   3    4.28    0.54
  -1  -7   3    3.70    0.59
  -1  -7   3    4.10    0.64
  -1  -7   3    4.07    0.54
  -1  -7   3    4.59    0.87
   0   7  -3  398.04   15.28
   0   7  -3  416.58   15.25
   0   7  -3  411.69   15.15
   0   7  -3  413.53   15.24
   0   7  -3  415.52   15.13
   0   7  -3  406.74   15.15
   0  -7   3  433.57   15.21
   0  -7   3  418.99   15.25
   0  -7   3  410.46   15.06
   0  -7   3  414.72   15.14
   0  -7   3  413.94   15.28
  -1   7  -3   24.82    1.30
  -1   7  -3   26.98    1.38
  -1   7  -3   25.71    1.41
  -1   7  -3   24.03    1.30
  -1   7  -3   25.88    1.37
  -1   7  -3   24.44    1.43
   1  -7   3   24.97    1.40
   1  -7   3   24.58    1.26
   1  -7   3   23.27    1.32
   1  -7   3   25.85    1.38
   1  -7   3   24.63    1.32
   1  -7   3   24.94    1.45
  -2   7  -3  235.45    8.66
  -2   7  -3  235.28    8.80
  -2   7  -3  238.94    8.69
  -2   7  -3  238.14    8.76
  -2   7  -3  229.29    8.74
   2  -7   3  245.54    8.77
   2  -7   3  221.64    8.71
   2  -7   3  227.16    8.75
   2  -7   3  234.33    8.76
   2  -7   3  220.65    8.71
   2  -7   3  240.70    8.81
   2  -7   3  230.43    8.79
  -3   7  -3   25.13    1.23
  -3   7  -3   25.32    1.39
  -3   7  -3   22.28    1.36
  -3   7  -3   24.44    1.24
  -3   7  -3   22.12    1.32
  -3   7  -3   22.03    1.87
   3  -7   3   22.44    1.34
   3  -7   3   22.73    1.41
   3  -7   3   21.53    1.28
   3  -7   3   20.70    1.35
   3  -7   3   23.34    1.42
   3  -7   3   23.36    1.32
   3  -7   3   22.08    1.33
  -4   7  -3   69.64    3.24
  -4   7  -3   82.32    3.28
  -4   7  -3   71.03    3.33
   4  -7   3   72.67    3.18
   4  -7   3   76.50    3.33
   4  -7   3   76.39    3.36
   4  -7   3   75.51    3.31
   4  -7   3   84.76    3.25
   4  -7   3   79.66    3.18
   4  -7   3   75.75    3.17
  -5   7  -3   14.17    1.16
  -5   7  -3   17.80    1.42
  -5   7  -3   14.65    1.58
  -5   7  -3   16.63    1.34
   5  -7   3   14.83    1.38
   5  -7   3   13.38    1.35
   5  -7   3   15.01    1.18
   5  -7   3   14.60    1.18
   5  -7   3   15.55    1.12
   5  -7   3   15.41    1.22
  -6   7  -3    1.77    0.81
  -6   7  -3    0.93    0.70
   6  -7   3    1.73    0.89
   6  -7   3    0.44    0.53
   6  -7   3    0.82    0.79
   6  -7   3    1.06    0.68
   6  -7   3    0.89    0.62
   6   6  -3    0.59    0.66
   6   6  -3    0.89    0.86
  -6  -6   3    1.52    0.66
  -6  -6   3    0.56    0.75
   5   6  -3  209.11    8.73
   5   6  -3  230.43    8.88
   5   6  -3  224.41    8.80
   5   6  -3  215.33    8.67
  -5  -6   3  235.05    8.39
  -5  -6   3  222.47    8.40
  -5  -6   3  235.85    8.53
  -5  -6   3  247.74    8.66
  -5  -6   3  227.86    8.64
   4   6  -3    0.57    0.49
   4   6  -3    0.67    0.61
   4   6  -3    0.84    0.59
   4   6  -3    0.49    0.82
  -4  -6   3    1.58    0.41
  -4  -6   3    1.42    0.47
  -4  -6   3    1.41    0.51
  -4  -6   3    1.81    0.72
  -4  -6   3    1.11    0.46
  -4  -6   3    1.88    0.53
   3   6  -3  258.56    9.34
   3   6  -3  236.66    9.47
   3   6  -3  240.24    9.59
   3   6  -3  269.62    9.73
   3   6  -3  262.03    9.65
  -3  -6   3  259.02    9.44
  -3  -6   3  256.83    9.46
  -3  -6   3  256.93    9.56
  -3  -6   3  252.82    9.39
  -3  -6   3  250.04    9.64
  -3  -6   3  253.76    9.31
   2   6  -3    0.84    0.53
   2   6  -3    0.59    0.36
   2   6  -3    1.06    0.44
   2   6  -3    0.73    0.40
   2   6  -3    1.37    0.44
  -2  -6   3    0.51    0.46
  -2  -6   3    1.70    0.46
  -2  -6   3    0.76    0.28
  -2  -6   3    1.47    0.41
  -2  -6   3    0.91    0.32
   1   6  -3   83.01    3.48
   1   6  -3   83.41    3.50
   1   6  -3   85.93    3.32
   1   6  -3   83.69    3.46
  -1  -6   3   81.71    3.21
  -1  -6   3   86.15    3.37
  -1  -6   3   91.51    3.50
  -1  -6   3   84.02    3.44
  -1  -6   3   84.69    3.24
  -1  -6   3   82.30    3.48
  -1  -6   3   82.60    3.29
   0   6  -3   10.80    0.82
   0   6  -3   10.79    0.89
   0   6  -3    9.08    0.74
   0   6  -3    9.62    0.86
   0   6  -3    9.81    0.69
   0   6  -3    9.66    0.73
   0  -6   3    9.42    0.65
   0  -6   3    9.76    0.74
   0  -6   3    8.95    0.69
   0  -6   3   10.36    0.87
   0  -6   3   10.23    0.83
   0  -6   3    9.92    0.81
  -1   6  -3   59.93    2.44
  -1   6  -3   58.67    2.46
  -1   6  -3   58.54    2.42
  -1   6  -3   57.67    2.41
  -1   6  -3   57.48    2.49
  -1   6  -3   60.04    2.38
   1  -6   3   55.29    2.48
   1  -6   3   58.62    2.44
   1  -6   3   54.61    2.43
   1  -6   3   57.86    2.42
   1  -6   3   58.63    2.43
   1  -6   3   55.08    2.36
  -2   6  -3    5.63    0.60
  -2   6  -3    6.18    0.62
  -2   6  -3    6.40    0.72
  -2   6  -3    6.46    0.75
  -2   6  -3    7.08    0.71
  -2   6  -3    7.48    0.65
   2  -6   3    6.60    0.64
   2  -6   3    6.67    0.66
   2  -6   3    6.31    0.73
   2  -6   3    6.88    0.70
   2  -6   3    7.02    0.70
   2  -6   3    6.60    0.66
  -3   6  -3    3.25    0.52
  -3   6  -3    2.58    0.60
  -3   6  -3    3.86    0.64
  -3   6  -3    4.13    0.67
  -3   6  -3    3.38    0.56
  -3   6  -3    3.15    0.77
  -3   6  -3    2.93    0.65
   3  -6   3    2.59    0.69
   3  -6   3    3.23    0.63
   3  -6   3    2.95    0.61
   3  -6   3    2.65    0.56
   3  -6   3    4.09    0.70
   3  -6   3    3.34    0.61
   3  -6   3    3.18    0.63
  -4   6  -3    5.74    0.69
  -4   6  -3    5.68    0.83
  -4   6  -3    5.80    0.81
  -4   6  -3    5.55    0.98
   4  -6   3    6.18    0.72
   4  -6   3    4.71    0.79
   4  -6   3    5.22    0.68
   4  -6   3    5.49    0.66
   4  -6   3    4.31    0.96
   4  -6   3    5.47    0.71
   4  -6   3    5.93    0.83
  -5   6  -3   12.45    1.09
  -5   6  -3   13.23    1.16
  -5   6  -3   11.89    0.91
  -5   6  -3   13.61    1.08
   5  -6   3   12.37    0.91
   5  -6   3   10.07    1.12
   5  -6   3   10.92    1.14
   5  -6   3   12.37    0.93
   5  -6   3   10.77    0.88
   5  -6   3   13.17    0.97
  -6   6  -3    8.94    1.44
  -6   6  -3    8.75    1.24
  -6   6  -3    6.27    1.04
   6  -6   3    8.95    0.93
   6  -6   3    6.68    1.24
   6  -6   3    6.18    0.90
   6  -6   3    6.71    1.18
   6  -6   3    7.50    0.82
   6  -6   3    8.74    0.95
  -7   6  -3    4.61    0.97
   7  -6   3    7.72    1.51
   7  -6   3    6.02    1.48
   7  -6   3    7.75    1.42
   7  -6   3    6.16    1.08
   7   5  -3    4.65    1.15
   7   5  -3    4.82    1.28
  -7  -5   3    5.94    1.36
  -7  -5   3    6.94    1.30
   6   5  -3   29.76    2.44
   6   5  -3   32.79    1.82
   6   5  -3   31.24    2.08
  -6  -5   3   34.06    1.88
  -6  -5   3   35.06    1.73
   5   5  -3    0.99    0.68
   5   5  -3    0.87    0.51
   5   5  -3    0.53    0.99
   5   5  -3    0.69    0.74
   5   5  -3    0.85    0.79
  -5  -5   3    0.26    0.45
  -5  -5   3    1.06    0.50
  -5  -5   3    0.19    0.49
   4   5  -3    8.12    0.99
   4   5  -3    6.44    0.98
   4   5  -3    6.77    1.24
   4   5  -3    8.42    0.92
  -4  -5   3    7.30    0.91
  -4  -5   3    8.19    0.65
  -4  -5   3    7.18    0.69
  -4  -5   3    7.96    1.11
  -4  -5   3    6.19    0.71
  -4  -5   3    5.89    0.71
   3   5  -3    1.40    0.41
   3   5  -3    1.04    0.42
   3   5  -3    2.02    0.65
   3   5  -3    1.38    0.45
  -3  -5   3    1.79    0.38
  -3  -5   3    1.35    0.50
  -3  -5   3    1.58    0.44
  -3  -5   3    1.83    0.40
  -3  -5   3    1.87    0.44
   2   5  -3    0.93    0.49
   2   5  -3    0.19    0.31
   2   5  -3    0.45    0.36
   2   5  -3    0.37    0.27
   2   5  -3    0.63    0.35
  -2  -5   3    0.94    0.38
  -2  -5   3    1.18    0.43
  -2  -5   3    0.86    0.26
  -2  -5   3    0.89    0.29
  -2  -5   3    0.45    0.25
  -2  -5   3    1.88    0.43
  -2  -5   3    0.62    0.24
   1   5  -3    2.39    0.46
   1   5  -3    3.45    0.54
   1   5  -3    2.46    0.45
   1   5  -3    3.69    0.67
   1   5  -3    2.99    0.45
  -1  -5   3    2.64    0.39
  -1  -5   3    2.98    0.63
  -1  -5   3    3.14    0.37
  -1  -5   3    2.94    0.54
  -1  -5   3    3.16    0.40
  -1  -5   3    3.23    0.58
  -1  -5   3    3.51    0.46
   0   5  -3    1.71    0.44
   0   5  -3    1.11    0.37
   0   5  -3    1.58    0.42
   0   5  -3    1.98    0.44
   0   5  -3    1.12    0.34
   0  -5   3    1.60    0.38
   0  -5   3    1.92    0.48
   0  -5   3    1.83    0.41
   0  -5   3    1.98    0.40
   0  -5   3    1.86    0.35
   0  -5   3    2.25    0.49
  -1   5  -3    7.83    0.62
  -1   5  -3    7.88    0.58
  -1   5  -3    6.34    0.62
  -1   5  -3    8.01    0.68
  -1   5  -3    7.33    0.57
  -1   5  -3    7.74    0.67
   1  -5   3    7.75    0.61
   1  -5   3    7.00    0.64
   1  -5   3    7.41    0.67
   1  -5   3    7.13    0.56
   1  -5   3    7.25    0.60
   1  -5   3    7.71    0.62
  -2   5  -3  164.83    6.23
  -2   5  -3  162.41    6.23
  -2   5  -3  165.35    6.24
  -2   5  -3  168.12    6.22
  -2   5  -3  167.43    6.16
  -2   5  -3  169.48    6.16
   2  -5   3  139.21    6.15
   2  -5   3  175.10    6.23
   2  -5   3  164.55    6.25
   2  -5   3  168.53    6.23
   2  -5   3  176.73    6.26
  -3   5  -3   23.31    1.27
  -3   5  -3   25.37    1.24
  -3   5  -3   23.69    1.22
  -3   5  -3   24.40    1.19
  -3   5  -3   23.63    1.07
  -3   5  -3   24.09    1.11
   3  -5   3   24.50    1.21
   3  -5   3   23.26    1.25
   3  -5   3   24.68    1.19
   3  -5   3   26.32    1.25
   3  -5   3   21.33    1.13
   3  -5   3   24.58    1.29
   3  -5   3   24.93    1.28
   3  -5   3   22.94    1.18
  -4   5  -3  247.24    9.00
  -4   5  -3  240.82    8.86
  -4   5  -3  246.70    8.87
  -4   5  -3  238.34    9.01
  -4   5  -3  246.40    8.99
   4  -5   3  239.56    8.97
   4  -5   3  239.99    9.03
   4  -5   3  233.25    9.01
   4  -5   3  242.58    8.85
   4  -5   3  229.17    9.04
   4  -5   3  235.95    8.89
   4  -5   3  246.94    8.88
   4  -5   3  239.11    8.87
  -5   5  -3   59.86    2.52
  -5   5  -3   58.75    2.57
  -5   5  -3   56.91    2.60
  -5   5  -3   56.67    2.30
   5  -5   3   58.05    2.38
   5  -5   3   54.77    2.31
   5  -5   3   57.15    2.56
   5  -5   3   53.46    2.52
   5  -5   3   56.81    2.32
   5  -5   3   57.12    2.33
  -6   5  -3  149.01    5.68
  -6   5  -3  143.70    5.72
   6  -5   3  142.71    5.42
   6  -5   3  145.90    5.73
   6  -5   3  151.05    5.48
   6  -5   3  136.65    5.66
   6  -5   3  137.21    5.54
  -7   5  -3   49.90    2.52
   7  -5   3   46.04    2.37
   7  -5   3   48.66    2.50
   7  -5   3   46.10    2.10
   7  -5   3   45.67    2.07
   7  -5   3   41.50    2.36
   7   4  -3   29.54    1.80
   7   4  -3   32.30    2.24
  -7  -4   3   31.93    1.75
  -7  -4   3   32.30    1.95
   6   4  -3    1.07    0.73
   6   4  -3    0.03    0.52
   6   4  -3    0.06    1.00
   6   4  -3    0.96    0.70
  -6  -4   3    0.14    0.52
  -6  -4   3    0.47    0.51
  -6  -4   3    0.22    0.56
   5   4  -3    0.97    0.53
   5   4  -3    1.45    0.64
   5   4  -3    1.19    0.66
   5   4  -3    0.17    0.42
  -5  -4   3    1.52    0.48
  -5  -4   3    1.61    0.43
   4   4  -3    0.20    0.37
   4   4  -3    0.10    0.39
   4   4  -3    0.58    0.55
   4   4  -3    0.55    0.46
   4   4  -3    0.49    0.58
  -4  -4   3   -0.05    0.32
  -4  -4   3   -0.22    0.24
  -4  -4   3    0.22    0.38
  -4  -4   3    0.04    0.29
  -4  -4   3    0.16    0.31
   3   4  -3  196.10    7.46
   3   4  -3  203.62    7.54
   3   4  -3  195.14    7.55
   3   4  -3  197.53    7.62
  -3  -4   3  197.85    7.55
  -3  -4   3  204.47    7.53
  -3  -4   3  213.46    7.39
  -3  -4   3  197.13    7.42
  -3  -4   3  189.08    7.35
   2   4  -3    2.41    0.49
   2   4  -3    1.54    0.36
   2   4  -3    1.31    0.36
   2   4  -3    1.72    0.43
   2   4  -3    1.34    0.47
  -2  -4   3    1.92    0.36
  -2  -4   3    1.57    0.38
  -2  -4   3    1.54    0.44
  -2  -4   3    1.28    0.37
  -2  -4   3    1.30    0.32
  -2  -4   3    1.53    0.29
  -2  -4   3    1.58    0.31
   1   4  -3  313.55   11.75
   1   4  -3  324.97   11.71
   1   4  -3  297.14   11.62
   1   4  -3  341.11   11.78
   1   4  -3  313.71   11.57
  -1  -4   3  340.64   11.78
  -1  -4   3  330.25   11.75
  -1  -4   3  309.67   11.48
  -1  -4   3  305.33   11.55
  -1  -4   3  302.88   11.62
  -1  -4   3  306.85   11.55
  -1  -4   3  338.17   11.70
   0   4  -3    5.14    0.50
   0   4  -3    6.23    0.58
   0   4  -3    5.98    0.49
   0   4  -3    6.22    0.58
   0   4  -3    5.41    0.47
   0  -4   3    4.92    0.43
   0  -4   3    5.07    0.56
   0  -4   3    6.13    0.54
   0  -4   3    5.47    0.45
   0  -4   3    5.87    0.52
   0  -4   3    5.42    0.36
   0  -4   3    6.20    0.48
  -1   4  -3  214.15    7.72
  -1   4  -3  204.29    7.72
  -1   4  -3  221.88    7.79
  -1   4  -3  208.13    7.75
  -1   4  -3  207.18    7.69
  -1   4  -3  210.97    7.72
   1  -4   3  213.85    7.74
   1  -4   3  221.60    7.77
   1  -4   3  195.84    7.70
   1  -4   3  201.20    7.77
   1  -4   3  206.87    7.72
   1  -4   3  204.55    7.73
  -2   4  -3   16.04    0.85
  -2   4  -3   15.77    0.79
  -2   4  -3   14.76    0.84
  -2   4  -3   16.35    0.79
  -2   4  -3   14.50    0.83
  -2   4  -3   15.75    0.88
   2  -4   3   14.64    0.85
   2  -4   3   15.84    0.80
   2  -4   3   14.93    0.82
   2  -4   3   15.80    0.84
   2  -4   3   15.82    0.87
   2  -4   3   16.18    0.85
  -3   4  -3  125.09    4.77
  -3   4  -3  125.72    4.79
  -3   4  -3  124.60    4.61
  -3   4  -3  129.10    4.73
  -3   4  -3  124.68    4.82
  -3   4  -3  129.06    4.72
   3  -4   3  127.07    4.78
   3  -4   3  123.52    4.72
   3  -4   3  126.65    4.72
   3  -4   3  124.00    4.69
   3  -4   3  122.66    4.73
   3  -4   3  123.32    4.82
  -4   4  -3   34.39    1.58
  -4   4  -3   34.29    1.55
  -4   4  -3   33.19    1.45
  -4   4  -3   31.36    1.60
  -4   4  -3   32.44    1.41
   4  -4   3   32.77    1.45
   4  -4   3   33.22    1.59
   4  -4   3   33.70    1.41
   4  -4   3   34.88    1.56
   4  -4   3   31.99    1.61
   4  -4   3   32.64    1.43
   4  -4   3   33.76    1.43
   4  -4   3   33.63    1.65
  -5   4  -3    7.44    0.81
  -5   4  -3    7.84    0.76
  -5   4  -3    5.88    0.86
   5  -4   3    6.92    0.81
   5  -4   3    7.78    0.63
   5  -4   3    7.54    0.58
   5  -4   3    8.19    0.61
   5  -4   3    8.66    0.89
  -6   4  -3   14.08    1.12
   6  -4   3   11.31    1.04
   6  -4   3   11.87    1.05
   6  -4   3   11.72    1.43
   6  -4   3   11.60    1.06
   6  -4   3   12.28    0.79
   6  -4   3   12.32    1.12
   6  -4   3   11.29    0.76
  -7   4  -3    8.10    1.20
   7  -4   3    7.63    0.75
   7  -4   3    9.84    1.21
   7  -4   3    9.48    0.82
   7  -4   3    7.72    1.29
   7  -4   3    9.52    1.23
  -8   4  -3   11.55    1.68
   8  -4   3    6.34    1.54
   8  -4   3   10.18    1.42
   7   3  -3    0.42    0.81
   7   3  -3    1.13    1.34
   7   3  -3   -1.18    0.57
  -7  -3   3    0.65    0.60
  -7  -3   3    0.00    0.70
   6   3  -3   50.75    2.41
   6   3  -3   49.44    2.39
   6   3  -3   53.71    2.86
   6   3  -3   58.14    2.53
  -6  -3   3   54.32    2.28
  -6  -3   3   57.12    2.39
  -6  -3   3   52.09    2.43
   5   3  -3    1.19    0.45
   5   3  -3    1.49    0.48
   5   3  -3    0.50    0.52
   5   3  -3    0.94    0.64
  -5  -3   3    1.90    0.47
  -5  -3   3    1.04    0.37
  -5  -3   3    1.23    0.44
   4   3  -3   36.50    1.68
   4   3  -3   34.70    1.78
   4   3  -3   37.25    1.76
   4   3  -3   34.06    1.71
   4   3  -3   36.41    1.87
  -4  -3   3   35.13    1.47
  -4  -3   3   37.99    1.52
  -4  -3   3   34.85    1.46
  -4  -3   3   34.48    1.61
  -4  -3   3   32.55    1.63
  -4  -3   3   36.51    1.70
   3   3  -3   -0.02    0.29
   3   3  -3    0.36    0.37
   3   3  -3    0.38    0.25
   3   3  -3    0.76    0.34
   3   3  -3    0.57    0.41
  -3  -3   3    0.35    0.23
  -3  -3   3    0.12    0.19
  -3  -3   3    0.01    0.30
  -3  -3   3   -0.02    0.29
  -3  -3   3   -0.12    0.22
  -3  -3   3    0.01    0.21
   2   3  -3   38.23    1.59
   2   3  -3   32.30    1.64
   2   3  -3   36.22    1.59
   2   3  -3   38.91    1.75
  -2  -3   3   37.58    1.46
  -2  -3   3   37.12    1.53
  -2  -3   3   34.35    1.66
  -2  -3   3   33.51    1.50
  -2  -3   3   34.03    1.50
  -2  -3   3   38.39    1.66
   1   3  -3    2.86    0.58
   1   3  -3    3.05    0.40
   1   3  -3    3.29    0.37
   1   3  -3    2.77    0.45
   1   3  -3    3.14    0.39
  -1  -3   3    2.88    0.52
  -1  -3   3    3.28    0.31
  -1  -3   3    3.35    0.47
  -1  -3   3    3.69    0.44
  -1  -3   3    3.21    0.29
  -1  -3   3    3.41    0.37
   0   3  -3   21.18    1.09
   0   3  -3   22.77    1.02
   0   3  -3   23.70    1.13
   0   3  -3   23.17    1.04
   0   3  -3   22.27    1.01
   0  -3   3   21.96    0.98
   0  -3   3   22.68    1.11
   0  -3   3   21.40    1.08
   0  -3   3   21.90    0.98
   0  -3   3   23.02    1.06
   0  -3   3   21.69    1.03
  -1   3  -3    0.55    0.22
  -1   3  -3    0.38    0.22
  -1   3  -3    0.30    0.21
  -1   3  -3    0.45    0.21
  -1   3  -3    0.58    0.17
  -1   3  -3    0.97    0.25
   1  -3   3    0.79    0.23
   1  -3   3    0.54    0.19
   1  -3   3    0.22    0.18
   1  -3   3    0.60    0.21
   1  -3   3    0.49    0.20
   1  -3   3    0.75    0.19
  -2   3  -3  155.03    5.63
  -2   3  -3  154.38    5.57
  -2   3  -3  152.85    5.65
  -2   3  -3  145.82    5.59
  -2   3  -3  149.46    5.55
  -2   3  -3  153.82    5.68
   2  -3   3  154.87    5.60
   2  -3   3  154.71    5.64
   2  -3   3  148.10    5.63
   2  -3   3  151.43    5.70
   2  -3   3  146.19    5.62
   2  -3   3  151.12    5.68
  -3   3  -3    6.23    0.50
  -3   3  -3    5.16    0.59
  -3   3  -3    5.66    0.48
  -3   3  -3    6.19    0.48
  -3   3  -3    6.88    0.45
   3  -3   3    6.37    0.45
   3  -3   3    5.95    0.48
   3  -3   3    5.92    0.41
   3  -3   3    5.44    0.47
   3  -3   3    6.04    0.59
   3  -3   3    6.05    0.63
   3  -3   3    6.30    0.50
  -4   3  -3    4.15    0.52
  -4   3  -3    3.76    0.49
  -4   3  -3    3.90    0.62
   4  -3   3    6.15    0.67
   4  -3   3    3.07    0.35
   4  -3   3    2.61    0.61
   4  -3   3    4.14    0.41
   4  -3   3    4.44    0.44
   4  -3   3    3.79    0.48
   4  -3   3    4.45    0.39
  -5   3  -3    0.84    0.34
  -5   3  -3    0.42    0.37
   5  -3   3    0.57    0.31
   5  -3   3    0.31    0.42
   5  -3   3    0.57    0.45
   5  -3   3    0.14    0.22
   5  -3   3    0.49    0.32
   5  -3   3    1.16    0.40
   5  -3   3    0.81    0.43
   5  -3   3    0.37    0.20
   5  -3   3    0.17    0.32
  -6   3  -3    6.32    0.89
   6  -3   3    7.25    1.02
   6  -3   3    6.66    0.93
   6  -3   3    5.64    0.80
   6  -3   3    7.61    1.15
   6  -3   3    5.53    0.83
   6  -3   3    6.83    0.78
   6  -3   3    7.37    0.87
  -7   3  -3   11.09    1.23
   7  -3   3   13.16    1.18
   7  -3   3   14.00    1.27
   7  -3   3   10.95    1.18
   7  -3   3   13.40    1.52
   7  -3   3   10.79    1.18
   8  -3   3   39.74    2.43
   8  -3   3   42.08    2.28
   8  -3   3   40.77    2.28
   8  -3   3   40.82    2.20
   7   2  -3    6.43    1.09
   7   2  -3   11.51    1.08
   7   2  -3   10.83    2.05
  -7  -2   3    8.91    0.98
  -7  -2   3    9.94    1.06
  -7  -2   3    8.08    1.18
   6   2  -3    0.48    0.87
   6   2  -3    1.91    0.88
   6   2  -3    1.99    0.53
   6   2  -3    3.28    0.89
   6   2  -3    2.70    0.58
   6   2  -3    2.61    0.65
  -6  -2   3    2.81    0.66
  -6  -2   3    2.27    0.56
  -6  -2   3    1.91    0.53
  -6  -2   3    1.84    0.51
  -6  -2   3    2.95    0.66
   5   2  -3  194.75    7.15
   5   2  -3  190.13    7.23
   5   2  -3  192.43    7.40
   5   2  -3  197.37    7.34
   5   2  -3  198.27    7.16
   5   2  -3  203.31    7.26
  -5  -2   3  200.97    7.26
  -5  -2   3  196.64    7.29
  -5  -2   3  199.61    7.12
  -5  -2   3  186.45    7.27
  -5  -2   3  164.78    7.11
   4   2  -3    0.25    0.24
   4   2  -3    1.05    0.39
   4   2  -3   -0.27    0.23
   4   2  -3    0.36    0.27
   4   2  -3    0.63    0.46
   4   2  -3    0.52    0.32
   4   2  -3    0.24    0.49
  -4  -2   3    0.33    0.20
  -4  -2   3    0.09    0.23
  -4  -2   3   -0.08    0.25
  -4  -2   3    0.25    0.23
  -4  -2   3    0.16    0.18
  -4  -2   3    0.56    0.29
   3   2  -3  323.69   11.63
   3   2  -3  331.35   11.78
   3   2  -3  305.31   11.81
   3   2  -3  311.89   11.69
   3   2  -3  325.29   11.84
   3   2  -3  328.76   11.78
  -3  -2   3  316.32   11.63
  -3  -2   3  317.84   11.60
  -3  -2   3  340.60   11.82
  -3  -2   3  316.84   11.72
  -3  -2   3  318.10   11.63
  -3  -2   3  305.91   11.70
  -3  -2   3  326.57   11.62
   2   2  -3    0.13    0.21
   2   2  -3    0.14    0.26
   2   2  -3   -0.13    0.23
   2   2  -3   -0.02    0.27
  -2  -2   3    0.34    0.17
  -2  -2   3    0.04    0.22
  -2  -2   3    0.26    0.17
  -2  -2   3    0.09    0.16
  -2  -2   3    0.09    0.16
  -2  -2   3    0.12    0.25
   1   2  -3  168.28    6.46
   1   2  -3  176.91    6.59
   1   2  -3  191.08    6.70
   1   2  -3  168.28    6.66
   1   2  -3  178.03    6.53
   1   2  -3  179.77    6.61
  -1  -2   3  182.82    6.59
  -1  -2   3  189.90    6.53
  -1  -2   3  181.15    6.57
  -1  -2   3  173.15    6.49
  -1  -2   3  175.49    6.65
  -1  -2   3  178.63    6.67
   0   2  -3   12.43    0.69
   0   2  -3   12.66    0.66
   0   2  -3   11.94    0.64
   0   2  -3   12.64    0.63
   0   2  -3   11.40    0.60
   0   2  -3   12.27    0.73
   0  -2   3   12.37    0.71
   0  -2   3   11.93    0.69
   0  -2   3   12.18    0.61
   0  -2   3   12.20    0.57
   0  -2   3   11.93    0.63
  -1   2  -3   15.88    0.83
  -1   2  -3   19.06    0.79
  -1   2  -3   16.32    0.83
  -1   2  -3   15.12    0.81
  -1   2  -3   18.23    0.80
  -1   2  -3   19.22    0.88
   1  -2   3   16.80    0.82
   1  -2   3   16.09    0.82
   1  -2   3   16.33    0.84
   1  -2   3   16.94    0.80
   1  -2   3   16.91    0.80
  -2   2  -3    0.12    0.14
  -2   2  -3    0.28    0.12
  -2   2  -3    0.41    0.19
  -2   2  -3    0.18    0.13
  -2   2  -3    0.15    0.20
  -2   2  -3    0.32    0.12
   2  -2   3    0.12    0.16
   2  -2   3    0.21    0.21
   2  -2   3    0.09    0.15
   2  -2   3    0.12    0.13
   2  -2   3    0.15    0.14
   2  -2   3    0.12    0.17
   2  -2   3    0.07    0.19
  -3   2  -3   51.39    2.17
  -3   2  -3   53.96    2.24
  -3   2  -3   56.04    2.19
  -3   2  -3   55.99    2.12
   3  -2   3   55.73    2.13
   3  -2   3   56.08    2.08
   3  -2   3   56.67    2.11
   3  -2   3   53.54    2.10
   3  -2   3   57.04    2.19
   3  -2   3   54.82    2.17
   3  -2   3   52.66    2.24
   3  -2   3   53.03    2.11
   3  -2   3   55.46    2.31
  -4   2  -3    0.07    0.23
  -4   2  -3    0.28    0.22
   4  -2   3    0.35    0.26
   4  -2   3    0.24    0.27
   4  -2   3    0.34    0.24
   4  -2   3    0.14    0.30
   4  -2   3    0.29    0.31
   4  -2   3    0.12    0.19
   4  -2   3    0.07    0.21
  -5   2  -3  168.43    6.38
  -5   2  -3  162.93    6.44
   5  -2   3  172.85    6.45
   5  -2   3  170.29    6.35
   5  -2   3  171.24    6.33
   5  -2   3  170.41    6.56
   5  -2   3  171.29    6.44
   5  -2   3  170.44    6.40
   5  -2   3  170.17    6.38
  -6   2  -3    4.53    0.78
   6  -2   3    4.47    0.67
   6  -2   3    3.99    0.86
   6  -2   3    3.96    0.72
   6  -2   3    5.73    0.75
   6  -2   3    4.20    0.89
   6  -2   3    5.00    0.73
   6  -2   3    7.28    1.05
   7  -2   3   27.60    1.62
   7  -2   3   26.89    1.62
   7  -2   3   26.01    1.78
   7  -2   3   25.61    1.59
   7  -2   3   26.10    1.53
   7  -2   3   28.99    1.99
   7  -2   3   27.90    1.53
   8  -2   3    3.03    0.75
   8  -2   3    5.12    1.32
   8  -2   3    4.36    1.02
   8  -2   3    2.17    0.99
   7   1  -3   13.62    1.11
   7   1  -3   10.37    1.21
   7   1  -3   13.78    1.06
   7   1  -3   15.43    1.93
   7   1  -3   13.85    2.12
   7   1  -3   13.91    1.24
  -7  -1   3   13.28    1.22
   6   1  -3   31.50    2.24
   6   1  -3   35.85    1.73
   6   1  -3   36.89    1.69
   6   1  -3   38.28    1.88
   6   1  -3   35.54    1.81
   6   1  -3   38.32    1.70
   6   1  -3   41.21    2.12
  -6  -1   3   33.18    1.65
  -6  -1   3   38.74    1.76
  -6  -1   3   36.76    1.79
  -6  -1   3   36.29    1.69
   5   1  -3    6.87    1.02
   5   1  -3    6.55    0.63
   5   1  -3    6.13    0.67
   5   1  -3    6.35    0.72
   5   1  -3    5.63    1.08
   5   1  -3    5.80    0.78
   5   1  -3    6.33    0.59
  -5  -1   3    5.10    0.64
  -5  -1   3    5.83    0.62
  -5  -1   3    6.47    0.79
  -5  -1   3    5.15    0.57
   4   1  -3    8.21    0.57
   4   1  -3    8.65    0.92
   4   1  -3    7.87    0.58
   4   1  -3    9.82    0.70
   4   1  -3    6.37    0.89
   4   1  -3    8.03    0.75
  -4  -1   3    8.27    0.81
  -4  -1   3    7.54    0.60
  -4  -1   3    9.03    0.60
  -4  -1   3    8.50    0.57
   3   1  -3    0.30    0.32
   3   1  -3    0.46    0.25
   3   1  -3    0.52    0.20
   3   1  -3    0.67    0.34
   3   1  -3    0.71    0.29
   3   1  -3    0.69    0.20
  -3  -1   3    0.48    0.20
  -3  -1   3    0.13    0.20
  -3  -1   3    0.40    0.18
  -3  -1   3    0.62    0.19
  -3  -1   3    0.43    0.21
  -3  -1   3    0.46    0.30
   2   1  -3    1.98    0.37
   2   1  -3    1.73    0.40
   2   1  -3    2.02    0.40
   2   1  -3    2.02    0.26
   2   1  -3    2.19    0.45
   2   1  -3    2.01    0.27
  -2  -1   3    1.57    0.44
  -2  -1   3    1.48    0.27
  -2  -1   3    1.51    0.28
  -2  -1   3    2.57    0.28
  -2  -1   3    1.51    0.28
  -2  -1   3    2.14    0.34
   1   1  -3    3.72    0.30
   1   1  -3    3.71    0.40
   1   1  -3    3.71    0.39
   1   1  -3    3.24    0.32
   1   1  -3    3.61    0.28
   1   1  -3    3.43    0.35
  -1  -1   3    3.38    0.29
  -1  -1   3    3.21    0.38
  -1  -1   3    3.00    0.33
  -1  -1   3    3.67    0.37
  -1  -1   3    3.26    0.30
   0   1  -3   15.87    0.67
   0   1  -3   15.80    0.75
   0   1  -3   14.83    0.75
   0   1  -3   14.72    0.76
   0  -1   3   15.20    0.71
   0  -1   3   15.87    0.77
   0  -1   3   16.86    0.71
   0  -1   3   15.07    0.75
  -1   1  -3    0.20    0.11
  -1   1  -3    0.24    0.14
  -1   1  -3    0.12    0.10
  -1   1  -3    0.11    0.12
  -1   1  -3    0.14    0.13
   1  -1   3    0.17    0.13
   1  -1   3    0.15    0.13
   1  -1   3    0.09    0.13
   1  -1   3    0.07    0.12
   1  -1   3    0.32    0.15
  -2   1  -3    4.17    0.30
  -2   1  -3    3.80    0.31
  -2   1  -3    3.76    0.31
  -2   1  -3    4.56    0.41
   2  -1   3    3.69    0.41
   2  -1   3    3.64    0.32
   2  -1   3    3.66    0.32
   2  -1   3    3.76    0.29
   2  -1   3    3.95    0.32
   2  -1   3    3.58    0.37
   2  -1   3    4.89    0.30
  -3   1  -3   14.12    0.85
  -3   1  -3   14.16    0.73
  -3   1  -3   15.31    0.73
   3  -1   3   15.65    0.71
   3  -1   3   13.93    0.81
   3  -1   3   14.78    0.72
   3  -1   3   15.63    0.89
   3  -1   3   14.92    0.72
  -4   1  -3  187.84    6.96
  -4   1  -3  173.86    7.00
   4  -1   3  192.70    7.04
   4  -1   3  191.00    6.94
   4  -1   3  187.77    6.99
   4  -1   3  190.57    6.96
   4  -1   3  194.75    7.15
   4  -1   3  188.67    6.96
   5  -1   3    6.53    0.75
   5  -1   3    7.80    0.83
   5  -1   3    5.78    0.62
   5  -1   3    7.27    0.63
   5  -1   3    7.10    0.72
   5  -1   3    7.47    0.58
   5  -1   3    7.03    0.58
   6  -1   3  163.97    6.23
   6  -1   3  169.52    6.43
   6  -1   3  161.33    6.15
   6  -1   3  158.80    6.17
   6  -1   3  163.43    6.21
   6  -1   3  161.65    6.29
   6  -1   3  163.98    6.15
   7  -1   3    8.10    1.02
   7  -1   3    9.43    1.04
   7  -1   3    8.94    1.06
   7  -1   3    8.44    1.30
   7  -1   3    9.25    0.88
   7  -1   3   10.40    1.44
   7  -1   3    7.84    1.10
   8  -1   3   55.53    2.68
   8  -1   3   59.39    2.58
   7   0  -3   -1.65    0.84
   7   0  -3   -0.54    0.55
   7   0  -3   -0.05    0.77
   7   0  -3   -0.99    0.49
   7   0  -3    0.94    0.60
   7   0  -3    0.64    0.47
  -7   0   3    0.12    0.57
  -7   0   3    0.37    1.34
   6   0  -3    0.02    0.45
   6   0  -3    0.46    0.37
   6   0  -3    0.16    0.46
   6   0  -3    0.19    0.74
   6   0  -3    0.11    0.35
   6   0  -3    1.10    0.51
   6   0  -3   -0.23    0.65
  -6   0   3    0.22    0.40
  -6   0   3    0.19    0.48
  -6   0   3   -0.20    0.48
  -6   0   3   -0.22    0.40
   5   0  -3    2.30    0.47
   5   0  -3    2.34    0.49
   5   0  -3    2.00    0.48
   5   0  -3    2.52    0.56
   5   0  -3    3.25    0.61
   5   0  -3    3.13    0.76
  -5   0   3    2.67    0.53
  -5   0   3    1.90    0.50
  -5   0   3    1.53    0.48
  -5   0   3    2.07    0.51
   4   0  -3    0.40    0.26
   4   0  -3   -0.03    0.23
   4   0  -3   -0.14    0.41
   4   0  -3    0.18    0.37
   4   0  -3   -0.01    0.20
   4   0  -3   -0.09    0.25
  -4   0   3    0.12    0.22
  -4   0   3    0.14    0.24
  -4   0   3   -0.08    0.23
  -4   0   3   -0.01    0.33
   3   0  -3  126.84    4.61
   3   0  -3  121.48    4.59
   3   0  -3  120.86    4.64
   3   0  -3  124.34    4.58
   3   0  -3  114.47    4.67
   3   0  -3  120.97    4.77
  -3   0   3  129.89    4.53
  -3   0   3  126.28    4.60
  -3   0   3  123.39    4.55
  -3   0   3  120.46    4.69
  -3   0   3  122.03    4.62
   2   0  -3    5.23    0.36
   2   0  -3    4.56    0.42
   2   0  -3    4.84    0.47
   2   0  -3    4.96    0.36
   2   0  -3    5.00    0.40
   2   0  -3    4.62    0.49
  -2   0   3    5.05    0.39
  -2   0   3    5.04    0.45
  -2   0   3    5.15    0.38
  -2   0   3    5.53    0.35
  -2   0   3    4.89    0.37
  -2   0   3    5.13    0.38
  -2   0   3    4.58    0.39
   1   0  -3  752.17   26.64
   1   0  -3  677.25   26.60
   1   0  -3  732.62   26.57
   1   0  -3  735.72   26.57
   1   0  -3  769.51   26.61
   1   0  -3  773.58   26.61
  -1   0   3  749.01   26.59
  -1   0   3  714.08   26.62
  -1   0   3  758.46   26.61
   0   0  -3    3.13    0.28
   0   0  -3    3.31    0.24
   0   0  -3    3.07    0.23
   0   0  -3    3.40    0.26
   0   0  -3    2.93    0.29
   0   0   3    3.13    0.25
   0   0   3    3.09    0.27
   0   0   3    2.35    0.26
   0   0   3    3.06    0.25
   0   0   3    3.31    0.27
  -1   0  -3  437.65   15.68
  -1   0  -3  455.81   15.71
  -1   0  -3  431.13   15.70
  -1   0  -3  427.30   15.69
  -1   0  -3  437.66   15.73
   1   0   3  435.08   15.70
   1   0   3  440.68   15.70
   1   0   3  424.04   15.69
   1   0   3  438.90   15.73
  -2   0  -3   23.66    1.09
  -2   0  -3   23.60    0.97
  -2   0  -3   24.29    0.96
   2   0   3   24.92    0.98
   2   0   3   24.10    1.10
   2   0   3   24.37    1.02
   2   0   3   23.13    0.95
   2   0   3   24.78    0.96
   2   0   3   24.79    0.97
   2   0   3   25.46    1.00
  -3   0  -3  417.53   15.38
  -3   0  -3  426.42   15.22
   3   0   3  415.45   15.22
   3   0   3  417.31   15.23
   3   0   3  435.40   15.25
   3   0   3  419.52   15.38
  -4   0  -3   21.10    1.13
  -4   0  -3   21.52    0.96
   4   0   3   22.23    1.20
   4   0   3   20.72    1.03
   4   0   3   20.71    1.00
   4   0   3   21.27    0.96
   4   0   3   20.26    1.02
   4   0   3   21.08    0.99
   5   0   3   41.94    1.99
   5   0   3   41.85    1.76
   5   0   3   41.10    1.85
   5   0   3   41.18    1.74
   5   0   3   42.59    1.80
   5   0   3   39.92    1.71
   5   0   3   40.86    1.83
   6   0   3   17.50    1.34
   6   0   3   17.05    1.05
   6   0   3   17.51    1.22
   6   0   3   16.64    1.14
   6   0   3   16.58    0.93
   6   0   3   16.65    0.99
   6   0   3   17.25    1.12
   7   0   3    1.48    0.68
   7   0   3    1.96    0.49
   7   0   3    2.04    0.62
   7   0   3    2.34    0.67
   7   0   3    1.77    0.52
   7   0   3    2.74    0.82
   7   0   3    0.74    0.76
   8   0   3   13.40    1.93
   8   0   3   12.86    1.09
   8   0   3   13.40    1.48
   7  -1  -3    2.84    0.92
   7  -1  -3    3.26    0.81
   7  -1  -3    4.50    0.89
   7  -1  -3    3.15    0.86
   7  -1  -3    4.20    1.11
   7  -1  -3    4.97    0.92
  -7   1   3    6.61    1.17
  -7   1   3    4.37    0.92
   6  -1  -3  221.75    8.55
   6  -1  -3  235.05    8.45
   6  -1  -3  226.87    8.47
   6  -1  -3  230.84    8.56
   6  -1  -3  237.05    8.56
  -6   1   3  225.13    8.54
  -6   1   3  216.51    8.38
  -6   1   3  231.81    8.53
   5  -1  -3   16.05    0.89
   5  -1  -3   14.94    0.92
   5  -1  -3   18.15    1.35
   5  -1  -3   16.81    1.05
   5  -1  -3   13.67    0.90
   5  -1  -3   15.20    1.00
  -5   1   3   15.72    1.11
  -5   1   3   15.50    1.08
  -5   1   3   16.87    0.96
  -5   1   3   17.05    0.89
  -5   1   3   15.20    0.93
   4  -1  -3  361.36   13.14
   4  -1  -3  356.22   13.34
   4  -1  -3  358.13   13.13
   4  -1  -3  350.02   13.06
   4  -1  -3  355.77   13.12
   4  -1  -3  377.46   13.09
  -4   1   3  363.57   13.12
  -4   1   3  369.64   13.14
  -4   1   3  368.79   13.05
  -4   1   3  339.98   13.24
  -4   1   3  354.47   13.11
   3  -1  -3   15.84    0.81
   3  -1  -3   14.60    0.94
   3  -1  -3   15.97    0.87
   3  -1  -3   15.73    0.79
   3  -1  -3   15.06    0.75
   3  -1  -3   15.33    0.80
  -3   1   3   16.21    0.78
  -3   1   3   15.92    0.71
  -3   1   3   15.79    0.79
  -3   1   3   14.83    0.88
  -3   1   3   15.59    0.77
  -3   1   3   16.14    0.80
   2  -1  -3  147.35    5.44
   2  -1  -3  150.47    5.48
   2  -1  -3  148.40    5.45
   2  -1  -3  140.07    5.53
   2  -1  -3  144.86    5.44
   2  -1  -3  141.42    5.41
  -2   1   3  145.35    5.51
  -2   1   3  152.27    5.43
  -2   1   3  150.44    5.45
  -2   1   3  142.47    5.44
  -2   1   3  158.44    5.41
  -2   1   3  144.64    5.46
   1  -1  -3    1.96    0.27
   1  -1  -3    1.84    0.20
   1  -1  -3    1.77    0.26
   1  -1  -3    1.73    0.22
   1  -1  -3    1.73    0.29
   1  -1  -3    1.53    0.22
  -1   1   3    1.99    0.25
  -1   1   3    1.40    0.22
  -1   1   3    1.78    0.28
  -1   1   3    1.61    0.24
  -1   1   3    1.84    0.25
  -1   1   3    1.43    0.22
   0  -1  -3  109.53    3.94
   0  -1  -3  114.50    3.97
   0  -1  -3  107.69    3.93
   0  -1  -3  102.29    3.92
   0   1   3  108.49    3.93
   0   1   3  106.66    3.94
   0   1   3  107.11    3.96
   0   1   3  104.53    3.94
   0   1   3   96.94    3.91
   0   1   3  109.10    3.94
  -1  -1  -3   19.99    0.82
  -1  -1  -3   18.88    0.77
  -1  -1  -3   18.26    0.79
   1   1   3   18.18    0.79
   1   1   3   19.03    0.78
   1   1   3   18.90    0.77
  -2  -1  -3    6.25    0.35
  -2  -1  -3    6.11    0.39
  -2  -1  -3    6.15    0.33
   2   1   3    5.89    0.33
   2   1   3    5.81    0.35
   2   1   3    5.27    0.30
   2   1   3    5.54    0.30
   2   1   3    5.48    0.31
   2   1   3    5.84    0.40
   2   1   3    5.86    0.32
  -3  -1  -3   46.44    1.82
  -3  -1  -3   47.95    1.87
  -3  -1  -3   47.81    1.98
   3   1   3   48.64    1.88
   3   1   3   48.57    1.98
   3   1   3   47.12    1.83
  -4  -1  -3    0.30    0.25
  -4  -1  -3    0.34    0.21
   4   1   3    0.28    0.25
   4   1   3    0.38    0.22
   4   1   3    0.19    0.29
   4   1   3    0.07    0.15
   4   1   3    0.74    0.28
  -5  -1  -3   41.58    1.84
   5   1   3   36.24    1.88
   5   1   3   38.97    1.63
   5   1   3   36.90    1.57
   5   1   3   40.12    1.78
   5   1   3   39.13    1.70
   5   1   3   38.71    1.67
   5   1   3   38.21    1.72
   6   1   3   61.00    2.65
   6   1   3   58.27    2.48
   6   1   3   57.88    2.55
   6   1   3   60.46    2.74
   6   1   3   62.41    2.55
   6   1   3   58.65    2.44
   6   1   3   58.61    2.36
   7   1   3   28.04    1.80
   7   1   3   32.62    1.70
   7   1   3   30.79    1.97
   7   1   3   32.75    1.99
   7   1   3   29.85    1.65
   7   1   3   30.13    1.57
   8   1   3   74.13    3.66
   7  -2  -3   16.11    1.45
   7  -2  -3   13.84    1.29
   7  -2  -3   15.41    1.72
   7  -2  -3   15.32    1.21
  -7   2   3   16.08    1.22
   6  -2  -3   -0.29    0.35
   6  -2  -3   -0.10    0.36
   6  -2  -3    0.23    0.55
   6  -2  -3   -0.61    0.42
   6  -2  -3    0.11    0.44
  -6   2   3    0.40    0.60
  -6   2   3   -0.14    0.53
  -6   2   3    0.52    0.40
  -6   2   3    0.04    0.58
   5  -2  -3    1.93    0.43
   5  -2  -3    2.16    0.58
   5  -2  -3    3.46    0.60
   5  -2  -3    3.22    0.69
   5  -2  -3    3.07    0.49
  -5   2   3    3.43    0.67
  -5   2   3    2.14    0.51
  -5   2   3    2.10    0.50
  -5   2   3    2.42    0.70
   4  -2  -3    1.34    0.49
   4  -2  -3    1.84    0.45
   4  -2  -3    1.55    0.31
   4  -2  -3    2.41    0.53
   4  -2  -3    1.53    0.29
   4  -2  -3    1.62    0.40
  -4   2   3    1.52    0.35
  -4   2   3    2.02    0.46
  -4   2   3    1.88    0.45
  -4   2   3    1.51    0.39
  -4   2   3    2.08    0.42
   3  -2  -3   29.00    1.28
   3  -2  -3   30.16    1.32
   3  -2  -3   30.21    1.29
   3  -2  -3   29.37    1.48
   3  -2  -3   28.26    1.25
   3  -2  -3   29.08    1.30
  -3   2   3   30.44    1.28
  -3   2   3   28.08    1.29
  -3   2   3   28.94    1.26
  -3   2   3   28.36    1.20
  -3   2   3   29.92    1.31
  -3   2   3   29.71    1.42
  -3   2   3   29.62    1.28
   2  -2  -3   12.23    0.77
   2  -2  -3   13.11    0.66
   2  -2  -3   12.99    0.68
   2  -2  -3   12.14    0.65
   2  -2  -3   13.56    0.64
   2  -2  -3   12.66    0.70
  -2   2   3   12.65    0.68
  -2   2   3   12.48    0.62
  -2   2   3   13.03    0.66
  -2   2   3   12.41    0.66
  -2   2   3   12.62    0.57
  -2   2   3   12.71    0.74
  -2   2   3   11.90    0.67
   1  -2  -3   22.21    0.96
   1  -2  -3   22.40    1.00
   1  -2  -3   22.55    0.97
   1  -2  -3   22.81    0.99
   1  -2  -3   21.66    0.98
  -1   2   3   23.47    0.99
  -1   2   3   22.04    1.02
  -1   2   3   23.42    0.97
  -1   2   3   21.62    0.98
  -1   2   3   23.29    1.00
  -1   2   3   22.93    0.92
  -1   2   3   22.49    0.98
   0  -2  -3   25.56    1.03
   0  -2  -3   24.01    1.06
   0  -2  -3   24.42    1.03
   0  -2  -3   23.87    1.04
   0   2   3   25.46    1.06
   0   2   3   26.32    1.04
   0   2   3   25.49    1.04
   0   2   3   26.47    1.06
   0   2   3   24.95    1.05
  -1  -2  -3  320.06   10.56
  -1  -2  -3  260.81   10.54
  -1  -2  -3  289.19   10.53
  -1  -2  -3  293.19   10.56
  -1  -2  -3  280.21   10.52
  -1  -2  -3  283.67   10.54
   1   2   3  300.39   10.55
   1   2   3  291.81   10.53
   1   2   3  300.76   10.56
   1   2   3  277.76   10.55
   1   2   3  293.84   10.52
   1   2   3  310.82   10.57
  -2  -2  -3   10.57    0.45
  -2  -2  -3   12.02    0.58
  -2  -2  -3   10.99    0.49
  -2  -2  -3   11.46    0.51
  -2  -2  -3   11.43    0.54
   2   2   3   10.82    0.53
   2   2   3   11.23    0.54
   2   2   3   10.98    0.51
   2   2   3   10.42    0.51
   2   2   3   10.94    0.52
  -3  -2  -3  334.08   11.84
  -3  -2  -3  323.08   11.97
  -3  -2  -3  326.37   11.90
  -3  -2  -3  325.45   11.82
   3   2   3  343.52   11.95
   3   2   3  333.56   11.95
   3   2   3  309.52   11.83
   3   2   3  314.38   11.82
   3   2   3  350.60   11.85
   3   2   3  325.36   11.83
   3   2   3  321.54   11.83
   3   2   3  333.40   11.90
  -4  -2  -3    6.04    0.46
  -4  -2  -3    6.34    0.58
   4   2   3    6.05    0.58
   4   2   3    5.60    0.49
   4   2   3    5.25    0.34
   4   2   3    5.32    0.53
   4   2   3    5.57    0.39
  -5  -2  -3  300.29   11.10
  -5  -2  -3  296.70   10.96
   5   2   3  309.94   11.09
   5   2   3  301.31   10.92
   5   2   3  301.55   11.04
   5   2   3  291.89   11.07
   5   2   3  297.28   10.97
  -6  -2  -3   19.59    1.07
   6   2   3   19.17    1.24
   6   2   3   19.37    1.02
   6   2   3   17.36    1.32
   6   2   3   20.58    1.35
   6   2   3   19.46    1.13
   7   2   3  144.99    5.93
   7   2   3  140.25    5.88
   7   2   3  147.84    6.03
   7   2   3  159.01    5.80
   7   2   3  150.91    5.78
   7   2   3  154.75    5.73
   8   2   3   17.58    1.42
   8   2   3   15.66    1.89
   7  -3  -3    8.15    1.16
   7  -3  -3    6.00    1.30
   7  -3  -3    5.65    1.03
   7  -3  -3    5.31    1.18
  -7   3   3    4.91    1.33
  -7   3   3    7.45    1.01
   6  -3  -3   13.46    1.01
   6  -3  -3   12.76    1.04
   6  -3  -3   11.70    0.88
   6  -3  -3   11.09    1.09
   6  -3  -3   11.83    0.91
  -6   3   3   11.11    1.21
  -6   3   3   11.17    0.90
  -6   3   3   11.02    1.17
  -6   3   3   12.45    1.19
   5  -3  -3    1.91    0.53
   5  -3  -3    2.15    0.56
   5  -3  -3    1.91    0.50
   5  -3  -3    2.36    0.58
  -5   3   3    2.22    0.42
  -5   3   3    1.87    0.54
  -5   3   3    3.98    0.67
   4  -3  -3   66.67    2.74
   4  -3  -3   66.11    3.02
   4  -3  -3   67.93    2.78
   4  -3  -3   70.44    2.77
   4  -3  -3   66.22    2.70
   4  -3  -3   72.42    2.73
   4  -3  -3   66.77    2.72
  -4   3   3   68.97    2.70
  -4   3   3   67.04    2.69
  -4   3   3   68.62    2.76
  -4   3   3   68.76    2.78
  -4   3   3   67.75    2.93
  -4   3   3   68.87    2.57
   3  -3  -3    1.98    0.34
   3  -3  -3    2.64    0.44
   3  -3  -3    2.70    0.39
   3  -3  -3    2.15    0.45
   3  -3  -3    2.19    0.39
   3  -3  -3    2.42    0.37
  -3   3   3    2.35    0.50
  -3   3   3    3.09    0.41
  -3   3   3    2.56    0.31
  -3   3   3    2.67    0.44
  -3   3   3    2.28    0.42
  -3   3   3    2.63    0.37
  -3   3   3    2.39    0.42
  -3   3   3    2.72    0.33
   2  -3  -3  184.49    6.86
   2  -3  -3  190.44    6.87
   2  -3  -3  180.64    6.88
   2  -3  -3  176.23    6.83
   2  -3  -3  185.00    6.88
   2  -3  -3  188.97    6.83
  -2   3   3  186.41    6.97
  -2   3   3  186.14    6.78
  -2   3   3  183.88    6.85
  -2   3   3  192.99    6.88
  -2   3   3  187.72    6.88
  -2   3   3  186.79    6.87
  -2   3   3  187.69    6.81
   1  -3  -3   13.14    0.65
   1  -3  -3   12.95    0.64
   1  -3  -3   13.09    0.69
   1  -3  -3   12.76    0.66
   1  -3  -3   12.97    0.68
  -1   3   3   12.54    0.67
  -1   3   3   12.98    0.73
  -1   3   3   13.04    0.66
  -1   3   3   12.97    0.62
  -1   3   3   13.58    0.69
  -1   3   3   13.02    0.64
  -1   3   3   11.98    0.66
   0  -3  -3  467.98   17.09
   0  -3  -3  456.92   17.04
   0  -3  -3  460.68   16.97
   0  -3  -3  467.30   17.07
   0  -3  -3  468.45   16.98
   0  -3  -3  437.77   17.05
   0   3   3  466.27   17.09
   0   3   3  507.41   17.09
   0   3   3  479.65   17.08
   0   3   3  488.95   17.07
   0   3   3  491.97   17.05
   0   3   3  484.65   17.05
  -1  -3  -3    1.75    0.20
  -1  -3  -3    1.67    0.22
  -1  -3  -3    1.58    0.25
  -1  -3  -3    1.80    0.20
  -1  -3  -3    1.57    0.25
  -1  -3  -3    1.43    0.26
   1   3   3    1.52    0.24
   1   3   3    1.45    0.23
   1   3   3    1.89    0.21
   1   3   3    1.75    0.22
   1   3   3    1.38    0.27
   1   3   3    1.34    0.23
  -2  -3  -3  187.74    6.89
  -2  -3  -3  184.55    6.86
  -2  -3  -3  190.90    6.90
  -2  -3  -3  188.07    6.90
   2   3   3  182.24    6.90
   2   3   3  196.68    6.91
   2   3   3  190.54    6.90
   2   3   3  185.86    6.89
   2   3   3  193.76    6.91
  -3  -3  -3    9.04    0.50
  -3  -3  -3    8.26    0.53
  -3  -3  -3    8.49    0.47
  -3  -3  -3    8.43    0.50
   3   3   3    8.42    0.53
   3   3   3    8.72    0.47
   3   3   3    8.46    0.48
   3   3   3    9.31    0.52
   3   3   3    8.02    0.40
   3   3   3    8.09    0.48
   3   3   3    8.54    0.57
  -4  -3  -3    0.81    0.25
  -4  -3  -3    0.56    0.20
  -4  -3  -3    0.38    0.24
  -4  -3  -3    0.59    0.17
   4   3   3    1.63    0.40
   4   3   3    1.27    0.22
   4   3   3    0.58    0.29
   4   3   3    1.09    0.30
   4   3   3    0.72    0.21
   4   3   3    1.12    0.25
   4   3   3    0.65    0.17
  -5  -3  -3   25.29    1.32
  -5  -3  -3   25.64    1.21
   5   3   3   25.40    1.31
   5   3   3   26.21    1.08
   5   3   3   25.04    1.10
   5   3   3   24.19    1.11
   5   3   3   24.83    1.29
   5   3   3   25.37    1.24
  -6  -3  -3   42.47    1.95
   6   3   3   46.60    1.90
   6   3   3   45.23    2.01
   6   3   3   50.45    2.29
   6   3   3   44.62    1.80
   6   3   3   46.35    2.07
   6   3   3   38.16    2.30
  -7  -3  -3   21.43    1.24
   7   3   3   20.44    1.19
   7   3   3   16.83    1.79
   7   3   3   20.18    1.43
   7   3   3   18.88    1.47
   8   3   3   16.15    1.41
   8   3   3   14.60    1.74
   7  -4  -3   13.20    1.37
   7  -4  -3   10.07    1.19
   7  -4  -3   12.44    1.32
  -7   4   3   14.26    1.15
  -7   4   3    8.95    1.52
   6  -4  -3    8.18    0.99
   6  -4  -3    8.05    1.07
   6  -4  -3    9.34    0.94
   6  -4  -3    8.42    0.90
  -6   4   3    8.33    1.18
  -6   4   3    7.51    1.06
  -6   4   3    8.25    0.79
   5  -4  -3    8.24    0.74
   5  -4  -3    8.90    0.75
   5  -4  -3    8.16    0.84
   5  -4  -3    7.70    0.80
   5  -4  -3    8.36    0.72
   5  -4  -3    8.12    0.87
  -5   4   3    8.52    0.79
  -5   4   3    8.56    0.94
  -5   4   3    6.07    1.00
  -5   4   3    8.02    0.69
   4  -4  -3    1.42    0.40
   4  -4  -3    1.21    0.30
   4  -4  -3    1.91    0.51
   4  -4  -3    1.95    0.38
   4  -4  -3    1.79    0.47
   4  -4  -3    1.10    0.32
  -4   4   3    1.18    0.32
  -4   4   3    1.69    0.42
  -4   4   3    1.32    0.46
  -4   4   3    1.32    0.26
  -4   4   3    1.35    0.44
   3  -4  -3    1.28    0.32
   3  -4  -3    1.20    0.32
   3  -4  -3    1.33    0.29
   3  -4  -3    1.02    0.27
   3  -4  -3    1.54    0.40
  -3   4   3    3.11    0.59
  -3   4   3    1.57    0.35
  -3   4   3    1.69    0.45
  -3   4   3    1.73    0.44
  -3   4   3    1.28    0.34
  -3   4   3    1.34    0.27
  -3   4   3    0.73    0.28
  -3   4   3    1.57    0.30
   2  -4  -3    0.24    0.23
   2  -4  -3    0.58    0.21
   2  -4  -3    0.36    0.19
   2  -4  -3    0.25    0.21
   2  -4  -3    0.72    0.25
   2  -4  -3    0.37    0.19
  -2   4   3    0.54    0.20
  -2   4   3    0.18    0.22
  -2   4   3    0.14    0.18
  -2   4   3    0.02    0.21
  -2   4   3    0.16    0.22
  -2   4   3    0.44    0.27
  -2   4   3    0.20    0.22
   1  -4  -3   90.21    3.52
   1  -4  -3   91.60    3.51
   1  -4  -3   94.16    3.53
   1  -4  -3   92.52    3.52
   1  -4  -3   91.26    3.50
   1  -4  -3   91.56    3.43
  -1   4   3   91.85    3.50
  -1   4   3   92.16    3.53
  -1   4   3   90.22    3.51
  -1   4   3   92.81    3.47
  -1   4   3   92.38    3.52
  -1   4   3   91.84    3.48
   0  -4  -3    9.74    0.46
   0  -4  -3    9.32    0.58
   0  -4  -3   10.18    0.58
   0  -4  -3    9.48    0.55
   0  -4  -3    9.45    0.53
   0  -4  -3    9.65    0.48
   0  -4  -3   10.56    0.61
   0   4   3   10.40    0.57
   0   4   3    9.70    0.54
   0   4   3   10.50    0.58
   0   4   3    9.40    0.59
   0   4   3   10.43    0.57
   0   4   3    9.85    0.59
  -1  -4  -3  237.07    8.84
  -1  -4  -3  248.78    8.85
  -1  -4  -3  237.18    8.84
  -1  -4  -3  235.25    8.81
  -1  -4  -3  238.10    8.77
  -1  -4  -3  241.98    8.77
   1   4   3  235.48    8.84
   1   4   3  243.31    8.82
   1   4   3  250.44    8.83
   1   4   3  249.15    8.85
   1   4   3  244.08    8.85
   1   4   3  239.78    8.77
  -2  -4  -3    8.48    0.50
  -2  -4  -3    8.16    0.48
  -2  -4  -3    8.86    0.54
  -2  -4  -3    9.37    0.56
  -2  -4  -3    9.54    0.56
   2   4   3    9.09    0.55
   2   4   3    9.48    0.53
   2   4   3    8.42    0.55
   2   4   3    8.96    0.56
   2   4   3    8.53    0.53
  -3  -4  -3   16.16    0.83
  -3  -4  -3   17.08    0.82
  -3  -4  -3   15.90    0.85
  -3  -4  -3   17.72    0.77
  -3  -4  -3   18.50    0.87
   3   4   3   17.81    0.86
   3   4   3   18.37    0.91
   3   4   3   18.22    0.87
   3   4   3   17.26    0.84
  -4  -4  -3    2.35    0.39
  -4  -4  -3    2.10    0.44
  -4  -4  -3    1.82    0.43
  -4  -4  -3    2.05    0.37
   4   4   3    2.06    0.38
   4   4   3    1.77    0.39
   4   4   3    2.26    0.27
   4   4   3    2.00    0.42
   4   4   3    1.81    0.38
   4   4   3    1.64    0.46
  -5  -4  -3    0.36    0.30
  -5  -4  -3    0.12    0.33
  -5  -4  -3    0.41    0.31
  -5  -4  -3    0.49    0.23
   5   4   3    0.45    0.40
   5   4   3    0.39    0.21
   5   4   3    0.70    0.39
   5   4   3    1.10    0.28
   5   4   3    0.55    0.30
   5   4   3    0.02    0.25
  -6  -4  -3    0.09    0.40
  -6  -4  -3   -0.36    0.37
   6   4   3    0.31    0.30
   6   4   3   -0.24    0.33
   6   4   3   -0.52    0.66
   6   4   3    0.14    0.31
   6   4   3   -0.17    0.52
  -7  -4  -3   20.87    1.27
   7   4   3   19.76    1.11
   7   4   3   15.91    1.15
   7   4   3   19.84    1.18
  -8  -4  -3    0.91    0.74
   8   4   3   -0.01    0.69
   6  -5  -3  118.35    4.77
   6  -5  -3  121.99    4.62
   6  -5  -3  114.64    4.60
   6  -5  -3  109.77    4.65
  -6   5   3  120.45    4.52
  -6   5   3  111.67    4.95
   5  -5  -3   24.21    1.27
   5  -5  -3   22.19    1.24
   5  -5  -3   21.62    1.38
   5  -5  -3   22.90    1.35
   5  -5  -3   23.19    1.27
   5  -5  -3   22.84    1.38
  -5   5   3   24.00    1.31
  -5   5   3   20.92    1.21
  -5   5   3   22.46    1.15
  -5   5   3   22.57    1.56
   4  -5  -3  196.79    7.61
   4  -5  -3  204.16    7.60
   4  -5  -3  207.90    7.60
   4  -5  -3  191.23    7.61
   4  -5  -3  204.73    7.69
   4  -5  -3  196.12    7.60
  -4   5   3  194.10    7.50
  -4   5   3  203.46    7.52
  -4   5   3  215.37    7.63
  -4   5   3  209.57    7.50
  -4   5   3  201.00    7.84
  -4   5   3  213.57    7.46
   3  -5  -3   36.07    1.62
   3  -5  -3   35.22    1.66
   3  -5  -3   36.34    1.64
   3  -5  -3   36.70    1.61
   3  -5  -3   38.06    1.62
   3  -5  -3   35.91    1.55
   3  -5  -3   34.73    1.64
  -3   5   3   37.73    1.53
  -3   5   3   35.65    1.61
  -3   5   3   36.47    1.72
  -3   5   3   36.84    1.51
  -3   5   3   36.50    1.56
  -3   5   3   35.69    1.65
  -3   5   3   35.89    1.80
  -3   5   3   34.55    1.61
   2  -5  -3   76.48    3.02
   2  -5  -3   77.05    3.01
   2  -5  -3   78.31    2.96
   2  -5  -3   79.28    3.05
   2  -5  -3   77.03    3.04
   2  -5  -3   75.16    3.02
  -2   5   3   75.35    3.01
  -2   5   3   74.96    3.02
  -2   5   3   78.34    3.04
  -2   5   3   74.88    3.15
  -2   5   3   69.87    2.94
  -2   5   3   78.12    3.03
   1  -5  -3    1.15    0.26
   1  -5  -3    1.16    0.27
   1  -5  -3    0.93    0.29
   1  -5  -3    1.04    0.26
   1  -5  -3    1.24    0.27
   1  -5  -3    1.18    0.27
  -1   5   3    0.81    0.26
  -1   5   3    1.81    0.37
  -1   5   3    1.08    0.28
  -1   5   3    1.03    0.24
  -1   5   3    0.99    0.27
  -1   5   3    1.22    0.30
   0  -5  -3   15.55    0.84
   0  -5  -3   15.61    0.78
   0  -5  -3   13.77    0.82
   0  -5  -3   15.59    0.72
   0  -5  -3   16.14    0.71
   0  -5  -3   16.67    0.82
   0   5   3   15.29    0.81
   0   5   3   16.47    0.85
   0   5   3   15.45    0.84
   0   5   3   15.22    0.85
   0   5   3   15.18    0.79
   0   5   3   17.69    0.83
  -1  -5  -3    7.19    0.45
  -1  -5  -3    8.15    0.47
  -1  -5  -3    6.70    0.50
  -1  -5  -3    8.48    0.56
  -1  -5  -3    7.50    0.55
  -1  -5  -3    7.75    0.55
   1   5   3    7.55    0.56
   1   5   3    7.10    0.47
   1   5   3    7.02    0.52
   1   5   3    6.93    0.57
   1   5   3    7.37    0.54
   1   5   3    8.02    0.56
  -2  -5  -3    1.12    0.29
  -2  -5  -3    0.37    0.22
  -2  -5  -3    1.12    0.30
  -2  -5  -3    1.25    0.28
   2   5   3    1.01    0.26
   2   5   3    1.00    0.27
   2   5   3    0.80    0.25
   2   5   3    1.06    0.28
  -3  -5  -3   20.22    0.96
  -3  -5  -3   21.46    1.07
  -3  -5  -3   20.88    1.06
  -3  -5  -3   21.94    1.05
  -3  -5  -3   23.08    1.04
  -3  -5  -3   21.84    1.03
   3   5   3   22.38    1.08
   3   5   3   21.41    1.05
   3   5   3   22.46    1.06
   3   5   3   23.08    1.08
   3   5   3   21.82    1.07
   3   5   3   22.41    1.07
  -4  -5  -3   74.32    2.75
  -4  -5  -3   75.01    2.92
  -4  -5  -3   72.32    2.91
  -4  -5  -3   70.47    2.78
  -4  -5  -3   72.40    2.89
  -4  -5  -3   77.11    2.88
   4   5   3   71.79    2.87
   4   5   3   73.14    2.90
   4   5   3   72.87    2.91
   4   5   3   73.88    2.95
   4   5   3   73.32    2.90
  -5  -5  -3    4.31    0.59
  -5  -5  -3    5.29    0.56
  -5  -5  -3    5.47    0.70
  -5  -5  -3    4.65    0.71
   5   5   3    4.20    0.61
   5   5   3    4.08    0.80
   5   5   3    4.60    0.44
   5   5   3    4.77    0.63
   5   5   3    5.31    0.62
   5   5   3    5.35    0.71
  -6  -5  -3    4.25    0.72
  -6  -5  -3    5.49    0.78
   6   5   3    4.17    0.78
   6   5   3    3.33    0.72
   6   5   3    3.52    0.60
   6   5   3    3.26    0.67
   6   5   3    2.00    0.53
  -7  -5  -3    1.40    0.62
   7   5   3   -0.11    0.56
   7   5   3   -0.23    0.45
   7   5   3    0.40    0.47
   7   5   3    0.94    0.62
   8   5   3    7.54    1.12
   6  -6  -3    7.77    1.09
   6  -6  -3   10.29    1.23
   6  -6  -3    9.11    1.10
  -6   6   3    8.26    0.88
  -6   6   3    8.86    1.53
   5  -6  -3    9.17    0.90
   5  -6  -3    9.66    1.10
   5  -6  -3   11.28    1.07
   5  -6  -3   10.97    0.98
   5  -6  -3    8.82    0.95
  -5   6   3    9.87    1.27
  -5   6   3    8.59    0.98
  -5   6   3    8.92    0.99
   4  -6  -3    2.59    0.69
   4  -6  -3    1.37    0.42
   4  -6  -3    2.57    0.65
   4  -6  -3    2.16    0.60
   4  -6  -3    0.85    0.44
  -4   6   3    1.49    0.60
  -4   6   3    1.41    0.42
  -4   6   3    1.62    0.47
  -4   6   3    1.38    0.43
  -4   6   3    1.53    0.37
   3  -6  -3    0.75    0.29
   3  -6  -3    0.38    0.30
   3  -6  -3    0.01    0.30
   3  -6  -3    0.06    0.31
   3  -6  -3    0.64    0.39
   3  -6  -3    0.11    0.36
   3  -6  -3    0.41    0.34
  -3   6   3    0.87    0.55
  -3   6   3    0.18    0.35
  -3   6   3    0.81    0.34
  -3   6   3   -0.13    0.32
  -3   6   3    0.53    0.30
  -3   6   3   -0.28    0.30
   2  -6  -3   15.59    0.91
   2  -6  -3   15.39    0.96
   2  -6  -3   16.43    0.88
   2  -6  -3   16.31    0.99
   2  -6  -3   15.61    0.96
   2  -6  -3   16.40    0.96
   2  -6  -3   16.40    0.88
  -2   6   3   16.03    0.91
  -2   6   3   14.48    0.93
  -2   6   3   15.93    0.87
  -2   6   3   16.47    0.99
  -2   6   3   15.94    0.98
  -2   6   3   16.10    0.98
  -2   6   3   16.43    1.09
   1  -6  -3    0.10    0.19
   1  -6  -3    0.39    0.26
   1  -6  -3    0.48    0.28
   1  -6  -3    0.02    0.24
   1  -6  -3    0.03    0.20
   1  -6  -3    0.33    0.27
   1  -6  -3    0.31    0.26
  -1   6   3    0.31    0.29
  -1   6   3   -0.13    0.26
  -1   6   3    0.63    0.29
  -1   6   3   -0.13    0.25
  -1   6   3    0.13    0.27
  -1   6   3    0.50    0.30
   0  -6  -3    8.64    0.69
   0  -6  -3    9.17    0.55
   0  -6  -3    9.78    0.65
   0  -6  -3   10.21    0.70
   0  -6  -3   10.03    0.56
   0  -6  -3    9.28    0.63
   0  -6  -3    9.89    0.72
   0   6   3   10.02    0.74
   0   6   3    9.02    0.67
   0   6   3   10.24    0.73
   0   6   3   10.04    0.69
   0   6   3   10.58    0.72
   0   6   3    9.41    0.65
  -1  -6  -3   81.08    3.16
  -1  -6  -3   79.55    3.25
  -1  -6  -3   84.71    3.24
  -1  -6  -3   86.81    3.29
  -1  -6  -3   83.23    3.27
   1   6   3   80.51    3.26
   1   6   3   81.55    3.15
   1   6   3   81.23    3.23
   1   6   3   83.26    3.27
   1   6   3   86.38    3.30
   1   6   3   80.82    3.22
  -2  -6  -3   10.45    0.75
  -2  -6  -3   11.08    0.77
  -2  -6  -3   10.15    0.65
  -2  -6  -3   10.04    0.74
  -2  -6  -3   10.33    0.66
   2   6   3   10.90    0.68
   2   6   3   10.64    0.72
   2   6   3   10.79    0.73
   2   6   3   11.42    0.76
   2   6   3   11.85    0.79
  -3  -6  -3  242.84    9.11
  -3  -6  -3  246.53    9.17
  -3  -6  -3  246.00    9.07
  -3  -6  -3  241.93    9.13
  -3  -6  -3  257.36    9.15
   3   6   3  251.12    9.13
   3   6   3  239.24    9.15
   3   6   3  251.74    9.18
   3   6   3  244.38    9.13
   3   6   3  253.52    9.18
   3   6   3  250.34    9.13
  -4  -6  -3    0.81    0.27
  -4  -6  -3    0.99    0.33
  -4  -6  -3    1.34    0.37
  -4  -6  -3    1.45    0.38
  -4  -6  -3    1.98    0.47
   4   6   3    1.26    0.42
   4   6   3    2.09    0.47
   4   6   3    1.92    0.50
   4   6   3    1.05    0.40
   4   6   3    1.39    0.37
   4   6   3    1.61    0.39
  -5  -6  -3  172.31    6.64
  -5  -6  -3  173.82    6.56
  -5  -6  -3  176.37    6.64
   5   6   3  180.11    6.65
   5   6   3  177.24    6.61
   5   6   3  181.34    6.61
   5   6   3  175.63    6.59
   5   6   3  169.46    6.66
  -6  -6  -3    0.99    0.62
  -6  -6  -3    2.62    0.73
  -6  -6  -3    2.79    0.84
  -6  -6  -3    1.88    0.56
   6   6   3    1.17    0.57
   6   6   3    1.00    0.37
   6   6   3    1.75    0.50
   6   6   3    0.93    0.53
   6   6   3    1.31    0.57
  -7  -6  -3   45.69    2.20
   7   6   3   45.76    2.01
   7   6   3   45.24    2.23
   7   6   3   41.33    2.31
   7   6   3   40.98    2.07
   7   6   3   45.43    2.26
   5  -7  -3    0.09    0.68
   5  -7  -3    0.54    0.52
   5  -7  -3    0.67    0.53
  -5   7   3    0.38    0.78
   4  -7  -3   63.07    2.72
   4  -7  -3   65.64    2.71
   4  -7  -3   61.00    2.71
   4  -7  -3   63.37    2.67
   4  -7  -3   63.04    2.79
   4  -7  -3   58.26    2.72
  -4   7   3   56.30    2.69
  -4   7   3   59.30    2.57
  -4   7   3   62.72    2.52
  -4   7   3   62.99    2.97
   3  -7  -3    3.25    0.72
   3  -7  -3    3.00    0.81
   3  -7  -3    4.13    0.63
   3  -7  -3    2.63    0.46
   3  -7  -3    3.00    0.71
   3  -7  -3    2.41    0.68
   3  -7  -3    3.05    0.57
  -3   7   3    2.72    0.54
  -3   7   3    3.29    0.76
  -3   7   3    2.12    0.53
  -3   7   3    2.75    0.70
  -3   7   3    3.57    0.76
  -3   7   3    2.77    0.64
  -3   7   3    2.44    0.46
   2  -7  -3  282.13   11.42
   2  -7  -3  315.77   11.46
   2  -7  -3  310.11   11.39
   2  -7  -3  326.76   11.38
   2  -7  -3  321.09   11.48
   2  -7  -3  285.07   11.43
   2  -7  -3  307.78   11.46
  -2   7   3  316.80   11.40
  -2   7   3  319.45   11.45
  -2   7   3  302.81   11.46
  -2   7   3  303.11   11.43
  -2   7   3  311.21   11.45
  -2   7   3  318.59   11.37
  -2   7   3  314.27   11.64
   1  -7  -3   18.10    1.11
   1  -7  -3   19.03    0.93
   1  -7  -3   19.19    1.13
   1  -7  -3   20.18    1.08
   1  -7  -3   18.47    0.99
   1  -7  -3   20.52    1.15
   1  -7  -3   20.27    1.07
  -1   7   3   19.49    1.14
  -1   7   3   18.91    1.09
  -1   7   3   19.00    1.04
  -1   7   3   19.60    1.15
  -1   7   3   18.85    1.13
  -1   7   3   19.12    1.10
   0  -7  -3  271.22   10.36
   0  -7  -3  281.65   10.38
   0  -7  -3  274.03   10.22
   0  -7  -3  269.60   10.33
   0  -7  -3  286.52   10.29
   0  -7  -3  298.82   10.41
   0   7   3  282.72   10.32
   0   7   3  283.58   10.40
   0   7   3  290.48   10.29
   0   7   3  276.10   10.32
   0   7   3  270.62   10.37
   0   7   3  275.27   10.37
  -1  -7  -3    4.17    0.48
  -1  -7  -3    5.08    0.64
  -1  -7  -3    4.45    0.48
  -1  -7  -3    3.05    0.51
  -1  -7  -3    3.65    0.61
  -1  -7  -3    4.23    0.64
   1   7   3    3.61    0.51
   1   7   3    4.74    0.61
   1   7   3    3.64    0.61
   1   7   3    4.15    0.67
   1   7   3    4.40    0.65
  -2  -7  -3  246.14    9.42
  -2  -7  -3  247.66    9.43
  -2  -7  -3  250.45    9.34
  -2  -7  -3  264.72    9.45
  -2  -7  -3  257.31    9.38
   2   7   3  256.24    9.32
   2   7   3  253.66    9.39
   2   7   3  251.09    9.40
   2   7   3  250.24    9.43
   2   7   3  261.84    9.48
  -3  -7  -3    4.24    0.69
  -3  -7  -3    3.58    0.51
  -3  -7  -3    2.19    0.52
  -3  -7  -3    2.40    0.62
  -3  -7  -3    2.72    0.70
   3   7   3    2.89    0.62
   3   7   3    2.41    0.68
   3   7   3    3.25    0.65
   3   7   3    2.12    0.61
   3   7   3    2.37    0.47
   3   7   3    3.47    0.65
  -4  -7  -3   88.75    3.34
  -4  -7  -3   81.40    3.34
  -4  -7  -3   77.33    3.30
  -4  -7  -3   81.29    3.21
  -4  -7  -3   82.88    3.29
   4   7   3   83.59    3.36
   4   7   3   85.01    3.36
   4   7   3   78.94    3.33
   4   7   3   84.69    3.41
   4   7   3   86.08    3.43
   4   7   3   82.31    3.34
  -5  -7  -3   22.97    1.30
  -5  -7  -3   24.14    1.29
   5   7   3   22.77    1.49
   5   7   3   21.70    1.51
   5   7   3   21.43    1.39
   5   7   3   22.80    1.27
   5   7   3   25.02    1.42
   5   7   3   19.80    1.36
  -6  -7  -3    0.60    0.52
  -6  -7  -3   -0.30    0.52
  -6  -7  -3   -0.35    0.56
   6   7   3    0.76    0.70
   6   7   3    0.74    0.53
   6   7   3   -0.23    0.74
   6   7   3    0.35    0.66
   6   7   3    0.31    0.35
  -7  -7  -3   23.26    1.68
   7   7   3   26.90    1.66
   7   7   3   23.51    1.84
   7   7   3   22.25    1.90
   5  -8  -3   84.29    3.81
   5  -8  -3   89.89    3.97
   5  -8  -3   91.12    3.83
  -5   8   3   92.73    4.17
   4  -8  -3   12.68    1.28
   4  -8  -3   10.36    1.13
   4  -8  -3   11.34    1.08
  -4   8   3   10.00    1.01
  -4   8   3    9.28    1.06
  -4   8   3   12.24    1.34
  -4   8   3   13.01    1.58
  -4   8   3   10.14    1.18
   3  -8  -3   76.93    3.19
   3  -8  -3   74.56    3.21
   3  -8  -3   74.73    3.19
   3  -8  -3   70.41    3.12
  -3   8   3   75.09    3.14
  -3   8   3   72.12    3.19
  -3   8   3   81.67    3.47
  -3   8   3   67.73    3.12
  -3   8   3   73.24    3.03
   2  -8  -3    0.49    0.40
   2  -8  -3    0.07    0.50
   2  -8  -3    0.38    0.44
   2  -8  -3    0.84    0.49
   2  -8  -3   -0.09    0.47
   2  -8  -3    0.06    0.41
  -2   8   3    0.65    0.47
  -2   8   3    0.33    0.47
  -2   8   3    0.11    0.52
  -2   8   3    0.58    0.42
  -2   8   3    0.46    0.61
  -2   8   3   -0.32    0.56
   1  -8  -3   50.43    2.05
   1  -8  -3   48.04    1.97
   1  -8  -3   49.77    2.13
   1  -8  -3   44.20    2.17
   1  -8  -3   44.78    2.12
   1  -8  -3   47.35    2.20
  -1   8   3   47.51    2.20
  -1   8   3   48.65    2.23
  -1   8   3   45.54    2.20
  -1   8   3   49.12    2.16
   0  -8  -3   12.20    0.86
   0  -8  -3   13.20    1.01
   0  -8  -3   12.87    0.92
   0  -8  -3   11.79    0.79
   0  -8  -3   11.94    0.98
   0   8   3   13.60    1.06
   0   8   3   13.03    0.96
   0   8   3   13.71    1.06
   0   8   3   12.70    1.03
  -1  -8  -3   18.91    1.02
  -1  -8  -3   19.62    1.21
  -1  -8  -3   20.05    1.22
  -1  -8  -3   18.46    1.23
  -1  -8  -3   15.23    1.05
  -1  -8  -3   18.42    1.01
   1   8   3   19.54    1.23
   1   8   3   19.10    1.21
   1   8   3   19.32    0.99
  -2  -8  -3   23.26    1.37
  -2  -8  -3   20.82    1.19
  -2  -8  -3   23.82    1.18
  -2  -8  -3   21.52    1.32
  -2  -8  -3   23.61    1.40
   2   8   3   22.07    1.33
   2   8   3   19.46    1.32
   2   8   3   23.58    1.32
   2   8   3   23.19    1.18
   2   8   3   23.43    1.31
  -3  -8  -3    0.57    0.55
  -3  -8  -3    1.04    0.53
  -3  -8  -3    2.57    0.62
  -3  -8  -3    1.06    0.48
  -3  -8  -3    0.85    0.43
   3   8   3    0.85    0.51
   3   8   3    1.36    0.56
   3   8   3    2.13    0.54
   3   8   3    0.70    0.46
   3   8   3    1.53    0.43
   3   8   3    1.25    0.48
  -4  -8  -3   21.15    1.17
  -4  -8  -3   22.05    1.26
  -4  -8  -3   22.81    1.34
  -4  -8  -3   20.92    1.38
  -4  -8  -3   19.82    1.49
  -4  -8  -3   22.01    1.19
   4   8   3   23.64    1.55
   4   8   3   22.36    1.34
   4   8   3   21.53    1.43
   4   8   3   17.52    1.36
   4   8   3   23.67    1.41
  -5  -8  -3   19.30    1.06
  -5  -8  -3   19.92    1.32
  -5  -8  -3   19.34    1.23
  -5  -8  -3   19.53    1.34
   5   8   3   18.71    1.51
   5   8   3   21.14    1.33
   5   8   3   19.72    1.52
   5   8   3   19.65    1.65
   5   8   3   21.85    1.46
  -6  -8  -3   18.32    1.44
  -6  -8  -3   17.55    1.37
   6   8   3   14.00    1.62
   6   8   3   16.87    1.51
   7   8   3   73.49    3.41
   4  -9  -3   17.77    1.58
   4  -9  -3   21.98    1.55
   4  -9  -3   20.37    1.72
  -4   9   3   20.46    1.52
  -4   9   3   24.25    2.05
   3  -9  -3   10.77    1.11
   3  -9  -3    7.42    1.23
   3  -9  -3    9.75    1.24
   3  -9  -3    8.88    1.26
   3  -9  -3    9.38    1.89
  -3   9   3    7.01    1.27
  -3   9   3    8.05    1.17
  -3   9   3    9.42    1.55
   2  -9  -3    2.41    0.65
   2  -9  -3    4.26    0.69
   2  -9  -3    5.03    0.96
   2  -9  -3    2.46    0.63
   2  -9  -3    3.31    0.72
   2  -9  -3    3.83    0.93
  -2   9   3    2.95    0.92
  -2   9   3    3.96    1.10
  -2   9   3    2.49    0.65
  -2   9   3    4.77    1.04
   1  -9  -3   10.98    1.12
   1  -9  -3   10.20    1.16
   1  -9  -3    8.12    0.96
   1  -9  -3    8.96    0.95
   1  -9  -3   10.45    0.80
  -1   9   3    8.39    1.07
  -1   9   3    7.32    1.14
  -1   9   3   10.13    1.18
  -1   9   3    9.57    1.20
  -1   9   3    8.88    1.19
   0  -9  -3   38.67    1.92
   0  -9  -3   38.19    1.77
   0  -9  -3   38.77    1.84
   0  -9  -3   43.42    2.05
   0  -9  -3   39.95    2.04
   0   9   3   40.17    2.08
   0   9   3   38.99    2.06
   0   9   3   38.60    2.03
   0   9   3   40.77    1.98
  -1  -9  -3    0.40    0.57
  -1  -9  -3    0.65    0.44
  -1  -9  -3   -0.42    0.42
  -1  -9  -3   -0.66    0.46
  -1  -9  -3    0.57    0.57
  -1  -9  -3   -0.01    0.39
   1   9   3    0.24    0.47
   1   9   3   -0.13    0.37
   1   9   3    0.61    0.53
   1   9   3   -0.02    0.55
  -2  -9  -3   83.84    3.48
  -2  -9  -3   83.47    3.38
  -2  -9  -3   83.79    3.54
  -2  -9  -3   81.09    3.32
   2   9   3   86.28    3.53
   2   9   3   76.46    3.42
   2   9   3   84.99    3.25
   2   9   3   79.54    3.49
   2   9   3   77.98    3.44
  -3  -9  -3    2.86    0.75
  -3  -9  -3    1.60    0.73
  -3  -9  -3    2.87    0.81
  -3  -9  -3    3.02    0.67
   3   9   3    2.67    0.69
   3   9   3    5.94    1.11
   3   9   3    4.65    0.90
   3   9   3    0.98    0.79
   3   9   3    3.09    0.77
  -4  -9  -3  102.25    3.98
  -4  -9  -3  104.73    3.98
  -4  -9  -3   94.67    4.12
  -4  -9  -3  101.81    4.06
  -4  -9  -3  100.26    4.12
   4   9   3  100.45    4.08
   4   9   3  100.69    4.15
   4   9   3  102.34    4.28
   4   9   3   93.29    4.18
  -5  -9  -3    0.04    0.67
  -5  -9  -3   -0.90    0.50
  -5  -9  -3   -1.22    0.61
  -5  -9  -3   -0.50    0.46
   5   9   3    0.14    0.71
  -6  -9  -3   97.19    4.21
   6   9   3  101.09    4.34
   3 -10  -3    9.93    1.55
   3 -10  -3   13.28    1.41
   3 -10  -3   12.32    1.60
  -3  10   3   11.98    1.90
  -3  10   3    8.48    1.44
   2 -10  -3   15.51    1.41
   2 -10  -3   12.87    1.41
   2 -10  -3   12.05    1.51
   2 -10  -3   15.29    1.11
  -2  10   3   16.10    1.81
  -2  10   3   12.19    1.62
  -2  10   3   14.55    1.53
   1 -10  -3   33.38    1.88
   1 -10  -3   35.09    2.14
   1 -10  -3   33.51    2.04
   1 -10  -3   34.52    1.69
   1 -10  -3   35.64    1.88
  -1  10   3   35.15    2.11
  -1  10   3   33.22    2.11
   0 -10  -3   11.66    1.11
   0 -10  -3   10.57    0.94
   0 -10  -3   11.08    1.16
   0 -10  -3   10.36    1.49
   0  10   3    9.73    1.39
   0  10   3   11.10    1.44
   0  10   3    9.86    1.42
  -1 -10  -3   25.82    1.45
  -1 -10  -3   27.75    1.48
  -1 -10  -3   25.77    1.89
  -1 -10  -3   28.43    1.74
  -1 -10  -3   26.13    1.59
   1  10   3   25.17    1.81
   1  10   3   27.48    1.82
   1  10   3   27.71    1.74
  -2 -10  -3    0.66    0.57
  -2 -10  -3    0.50    0.53
  -2 -10  -3    0.65    0.62
  -2 -10  -3    1.79    0.86
   2  10   3    1.04    0.75
   2  10   3    0.48    0.77
   2  10   3    1.39    0.62
  -3 -10  -3    1.72    0.83
  -3 -10  -3    1.92    0.66
  -3 -10  -3    1.95    0.79
  -3 -10  -3    1.89    0.62
   3  10   3    2.10    0.82
   3  10   3    2.62    0.98
  -4 -10  -3    6.78    1.65
  -4 -10  -3    5.84    1.12
  -4 -10  -3    4.28    1.00
  -4 -10  -3    5.68    1.04
   4  10   3    4.86    1.04
   4  10   3    2.64    0.89
  -5 -10  -3   32.74    1.96
  -5 -10  -3   30.15    1.68
   5  10   3   29.97    2.27
   2 -11  -3   64.76    3.41
   2 -11  -3   66.27    3.27
   2 -11  -3   66.52    2.90
  -2  11   3   73.23    3.40
   1 -11  -3    9.29    1.13
   1 -11  -3   11.20    1.50
   1 -11  -3   10.66    1.68
   1 -11  -3    7.81    1.42
  -1  11   3   10.19    1.85
  -1  11   3   13.12    1.83
   0 -11  -3   96.23    4.31
   0 -11  -3  106.00    4.23
   0 -11  -3   98.53    4.48
   0 -11  -3  102.85    4.61
   0 -11  -3  101.24    4.13
   0  11   3  107.58    4.58
   0  11   3  104.47    4.52
  -1 -11  -3   14.01    1.42
  -1 -11  -3   14.51    1.26
  -1 -11  -3   13.65    1.24
  -1 -11  -3   13.68    1.61
   1  11   3    9.08    2.02
   1  11   3   13.56    1.79
   1  11   3   15.35    1.67
  -2 -11  -3   21.02    1.49
  -2 -11  -3   21.41    1.60
  -2 -11  -3   22.47    1.83
   2  11   3   19.31    1.83
   2  11   3   18.90    1.94
   2  11   3   23.83    3.03
  -3 -11  -3   12.09    1.37
  -3 -11  -3    9.07    1.31
  -3 -11  -3    7.53    1.52
   3  11   3    7.66    1.31
   3  11   3    7.75    1.74
   4  11   3    1.36    1.13
   1  11  -4  108.87    4.57
   1  11  -4   98.51    5.07
  -1 -11   4  112.14    4.54
  -1 -11   4  106.95    5.05
  -1 -11   4  104.30    4.76
  -1 -11   4  104.05    4.55
   0  11  -4   14.73    2.41
   0  11  -4   17.49    1.79
   0  11  -4   18.63    2.11
   0 -11   4   18.55    1.95
   0 -11   4   20.50    1.89
   0 -11   4   20.79    2.38
   0 -11   4   16.88    1.85
  -1  11  -4  115.79    4.83
  -1  11  -4  105.71    5.24
  -1  11  -4  117.87    4.97
   1 -11   4  107.96    4.92
   1 -11   4  117.16    5.00
   1 -11   4  116.09    5.26
   3  10  -4    1.90    1.18
   3  10  -4    1.07    1.20
  -3 -10   4    2.47    0.96
   2  10  -4   10.32    2.00
   2  10  -4   13.75    1.77
   2  10  -4   13.42    2.06
   2  10  -4   10.80    1.40
  -2 -10   4   14.06    1.95
  -2 -10   4   11.69    1.39
  -2 -10   4   12.12    1.57
   1  10  -4   -0.22    0.97
   1  10  -4   -1.59    1.27
   1  10  -4    0.59    0.85
   1  10  -4    0.30    0.64
  -1 -10   4    0.94    0.67
  -1 -10   4   -0.74    0.76
  -1 -10   4    0.01    0.86
  -1 -10   4    0.54    0.81
  -1 -10   4    0.37    1.05
   0  10  -4    1.02    0.80
   0  10  -4   -0.20    0.96
   0  10  -4    1.00    0.65
   0 -10   4   -0.99    0.75
   0 -10   4   -0.68    0.70
   0 -10   4   -1.35    0.93
   0 -10   4    0.21    0.91
   0 -10   4    1.53    0.72
   0 -10   4    0.26    0.82
  -1  10  -4   -1.07    0.63
  -1  10  -4   -0.38    0.93
  -1  10  -4    0.06    0.75
   1 -10   4    0.80    0.75
   1 -10   4    0.50    1.04
   1 -10   4   -1.28    0.93
   1 -10   4    0.70    0.78
   1 -10   4    1.50    0.86
  -2  10  -4    5.27    1.33
  -2  10  -4    1.88    0.75
  -2  10  -4    2.04    1.00
   2 -10   4    0.63    0.86
   2 -10   4   -0.93    0.87
   2 -10   4    1.47    0.92
   2 -10   4    2.70    1.01
   2 -10   4    0.96    0.81
  -3  10  -4    1.09    1.00
  -3  10  -4    2.65    0.91
  -3  10  -4    1.93    1.03
  -3  10  -4    1.50    0.79
   3 -10   4    0.49    0.94
   3 -10   4    2.23    1.10
   3 -10   4    2.31    0.95
   3 -10   4    2.54    0.97
  -4  10  -4    3.59    1.05
  -4  10  -4    0.74    1.12
   4 -10   4    0.66    0.99
   4 -10   4    1.05    1.23
   4 -10   4   -0.04    1.06
   4   9  -4    0.88    1.00
   4   9  -4    1.19    1.12
  -4  -9   4   -0.12    0.76
  -4  -9   4    2.13    0.85
  -4  -9   4    1.46    0.91
   3   9  -4    2.77    1.03
   3   9  -4    2.59    1.06
   3   9  -4    1.61    1.60
   3   9  -4    5.97    1.14
  -3  -9   4    4.92    1.14
  -3  -9   4    4.86    1.00
  -3  -9   4    5.85    1.58
  -3  -9   4    6.42    1.23
   2   9  -4    0.49    0.92
   2   9  -4    0.19    1.21
   2   9  -4    0.83    0.75
   2   9  -4   -1.45    0.81
  -2  -9   4    0.58    0.64
  -2  -9   4    0.60    1.04
  -2  -9   4   -0.05    0.59
  -2  -9   4    0.71    0.77
  -2  -9   4    0.26    0.54
   1   9  -4   15.39    1.88
   1   9  -4   15.71    1.49
   1   9  -4   12.34    1.65
   1   9  -4   12.45    1.58
   1   9  -4   12.29    1.16
  -1  -9   4   13.28    1.10
  -1  -9   4   15.12    1.60
  -1  -9   4   14.53    1.86
  -1  -9   4   11.78    1.17
  -1  -9   4   14.29    1.29
   0   9  -4   12.93    1.54
   0   9  -4   12.69    1.17
   0   9  -4   18.29    1.72
   0   9  -4   10.66    1.56
   0   9  -4   15.08    1.41
   0  -9   4   13.24    1.35
   0  -9   4   12.32    1.19
   0  -9   4   14.00    1.21
   0  -9   4   13.84    1.57
   0  -9   4   14.95    1.62
   0  -9   4   15.57    1.34
  -1   9  -4   59.68    2.77
  -1   9  -4   59.87    2.96
  -1   9  -4   59.12    2.68
  -1   9  -4   51.32    2.91
  -1   9  -4   56.29    2.77
   1  -9   4   56.94    2.90
   1  -9   4   59.98    2.91
   1  -9   4   58.42    2.78
   1  -9   4   58.98    2.71
   1  -9   4   58.27    2.69
   1  -9   4   61.58    2.80
  -2   9  -4   43.31    2.32
  -2   9  -4   38.83    2.06
  -2   9  -4   41.69    2.10
   2  -9   4   40.10    2.21
   2  -9   4   38.28    2.29
   2  -9   4   42.46    2.21
   2  -9   4   41.92    2.35
   2  -9   4   38.56    2.27
  -3   9  -4  154.36    6.74
  -3   9  -4  199.20    7.01
  -3   9  -4  175.64    7.00
  -3   9  -4  178.39    6.95
   3  -9   4  183.62    7.06
   3  -9   4  178.26    7.02
   3  -9   4  162.45    6.96
   3  -9   4  173.12    7.07
   3  -9   4  189.53    7.05
  -4   9  -4   42.93    2.37
  -4   9  -4   43.24    2.40
   4  -9   4   41.89    2.53
   4  -9   4   39.65    2.30
   4  -9   4   41.64    2.52
   4  -9   4   40.96    2.36
  -5   9  -4  104.52    4.18
  -5   9  -4   92.57    4.13
   5  -9   4   87.70    4.25
   5  -9   4   74.45    3.91
   5  -9   4   89.40    4.05
   5  -9   4   91.94    4.25
   5   8  -4   -0.06    1.11
   5   8  -4    0.39    0.95
  -5  -8   4    0.87    0.71
  -5  -8   4   -0.67    0.88
  -5  -8   4    1.36    0.81
   4   8  -4   70.90    3.61
   4   8  -4   75.22    3.59
   4   8  -4   72.67    3.31
  -4  -8   4   75.00    3.28
  -4  -8   4   75.36    3.21
  -4  -8   4   74.46    3.48
  -4  -8   4   68.19    3.32
  -4  -8   4   77.62    3.18
   3   8  -4    4.28    1.23
   3   8  -4    5.08    1.35
   3   8  -4    3.13    0.83
   3   8  -4    2.51    0.86
  -3  -8   4    6.69    1.44
  -3  -8   4    3.55    0.60
  -3  -8   4    5.44    1.32
  -3  -8   4    4.26    0.97
  -3  -8   4    3.45    0.71
   2   8  -4  217.79    8.27
   2   8  -4  207.99    8.59
   2   8  -4  210.94    8.54
   2   8  -4  223.63    8.53
  -2  -8   4  225.55    8.54
  -2  -8   4  220.49    8.22
  -2  -8   4  231.17    8.35
  -2  -8   4  221.11    8.17
  -2  -8   4  214.58    8.57
   1   8  -4   14.32    1.25
   1   8  -4   12.58    1.41
   1   8  -4   12.54    1.55
   1   8  -4   13.86    1.29
  -1  -8   4   14.60    1.36
  -1  -8   4   14.50    0.96
  -1  -8   4   15.01    1.15
  -1  -8   4   14.96    1.54
  -1  -8   4   15.07    1.07
  -1  -8   4   13.17    1.36
   0   8  -4  103.36    4.53
   0   8  -4  108.09    4.37
   0   8  -4  105.21    4.32
   0   8  -4  105.40    4.50
   0   8  -4  102.29    4.39
   0  -8   4  107.50    4.31
   0  -8   4  108.34    4.53
   0  -8   4  117.40    4.53
   0  -8   4  113.85    4.42
  -1   8  -4   10.87    1.29
  -1   8  -4   11.64    1.01
  -1   8  -4   10.95    1.10
  -1   8  -4   11.49    1.30
  -1   8  -4   12.73    1.25
   1  -8   4   10.01    1.23
   1  -8   4   12.09    1.10
   1  -8   4   12.40    1.25
   1  -8   4   10.72    1.17
   1  -8   4   12.43    1.05
   1  -8   4   12.67    1.06
  -2   8  -4    6.57    1.21
  -2   8  -4    9.47    0.99
  -2   8  -4    7.46    1.05
  -2   8  -4   10.30    1.19
  -2   8  -4    5.98    0.87
   2  -8   4    7.44    1.14
   2  -8   4    9.78    1.05
   2  -8   4    7.63    1.14
   2  -8   4    8.84    1.10
   2  -8   4   10.77    1.15
   2  -8   4    7.41    1.03
   2  -8   4    8.52    1.14
  -3   8  -4    2.83    0.57
  -3   8  -4    0.98    0.68
  -3   8  -4    2.78    0.69
  -3   8  -4    2.39    0.68
  -3   8  -4    4.08    0.98
  -3   8  -4    2.52    0.60
   3  -8   4    4.02    1.00
   3  -8   4    4.44    1.08
   3  -8   4    2.52    0.79
   3  -8   4    2.85    0.66
   3  -8   4    5.27    1.09
   3  -8   4    4.03    1.09
   3  -8   4    5.25    0.99
  -4   8  -4    1.60    0.62
  -4   8  -4    1.17    0.43
  -4   8  -4    1.97    0.71
  -4   8  -4    2.04    0.70
  -4   8  -4    1.95    0.66
   4  -8   4    1.21    0.75
   4  -8   4    0.69    0.64
   4  -8   4    1.50    0.81
   4  -8   4    0.97    0.60
   4  -8   4    0.34    0.60
   4  -8   4    0.75    0.66
  -5   8  -4    0.86    0.80
  -5   8  -4    2.12    0.79
   5  -8   4    0.70    0.62
   5  -8   4    0.59    0.70
   5  -8   4    0.90    0.87
   5  -8   4    2.44    1.04
  -6   8  -4    2.80    0.95
  -6   8  -4    5.18    1.17
   6  -8   4    5.22    1.39
   6  -8   4    4.28    1.14
   6  -8   4    5.38    1.38
   6  -8   4    3.99    1.12
   5   7  -4    1.25    0.82
   5   7  -4    1.49    0.95
  -5  -7   4   -0.06    0.68
  -5  -7   4    0.53    0.68
  -5  -7   4    1.06    0.77
  -5  -7   4   -0.04    0.56
   4   7  -4   -0.86    0.65
   4   7  -4    0.71    1.11
   4   7  -4   -0.35    0.73
  -4  -7   4    0.51    0.60
  -4  -7   4    0.49    0.49
  -4  -7   4    0.30    0.62
  -4  -7   4    0.11    0.64
  -4  -7   4    0.83    0.56
   3   7  -4   19.38    1.60
   3   7  -4   25.65    2.07
   3   7  -4   22.35    1.40
   3   7  -4   23.68    1.64
   3   7  -4   23.64    1.63
  -3  -7   4   19.43    1.31
  -3  -7   4   22.58    1.30
  -3  -7   4   21.36    1.85
  -3  -7   4   23.35    1.58
  -3  -7   4   23.31    1.21
   2   7  -4    1.22    0.56
   2   7  -4    1.65    0.61
   2   7  -4    1.40    0.77
   2   7  -4    1.70    0.56
  -2  -7   4    1.25    0.46
  -2  -7   4    2.26    0.48
  -2  -7   4    1.38    0.43
  -2  -7   4    2.17    0.58
  -2  -7   4    2.04    0.49
  -2  -7   4    0.61    0.62
   1   7  -4   33.48    1.86
   1   7  -4   33.67    1.66
   1   7  -4   32.21    1.74
   1   7  -4   30.52    1.90
  -1  -7   4   31.71    1.49
  -1  -7   4   31.77    1.43
  -1  -7   4   31.23    1.81
  -1  -7   4   31.87    1.55
  -1  -7   4   30.82    1.74
  -1  -7   4   33.17    1.88
  -1  -7   4   36.42    1.69
   0   7  -4    3.88    0.80
   0   7  -4    3.41    0.62
   0   7  -4    5.03    0.94
   0   7  -4    2.67    0.58
   0   7  -4    4.13    0.75
   0   7  -4    3.34    0.94
   0  -7   4    3.64    0.62
   0  -7   4    3.12    0.60
   0  -7   4    2.52    0.65
   0  -7   4    2.32    0.51
   0  -7   4    2.99    0.83
  -1   7  -4   27.23    1.56
  -1   7  -4   28.87    1.65
  -1   7  -4   30.29    1.64
  -1   7  -4   29.05    1.52
  -1   7  -4   29.46    1.50
  -1   7  -4   29.35    1.51
   1  -7   4   28.59    1.58
   1  -7   4   30.15    1.63
   1  -7   4   27.99    1.50
   1  -7   4   28.79    1.54
   1  -7   4   28.42    1.47
   1  -7   4   28.23    1.64
  -2   7  -4    1.03    0.42
  -2   7  -4   -0.35    0.49
  -2   7  -4    0.90    0.46
  -2   7  -4    0.72    0.47
  -2   7  -4    1.24    0.37
   2  -7   4    0.57    0.46
   2  -7   4    0.37    0.43
   2  -7   4    0.26    0.45
   2  -7   4    0.59    0.44
   2  -7   4    1.50    0.44
   2  -7   4    0.17    0.41
  -3   7  -4    0.94    0.45
  -3   7  -4    1.18    0.59
  -3   7  -4    1.23    0.49
  -3   7  -4    2.20    0.53
  -3   7  -4    1.32    0.42
  -3   7  -4    0.98    0.48
   3  -7   4    1.68    0.50
   3  -7   4    2.23    0.54
   3  -7   4    1.07    0.51
   3  -7   4    1.72    0.50
   3  -7   4    1.14    0.58
   3  -7   4    1.64    0.56
   3  -7   4    1.09    0.49
  -4   7  -4    6.30    1.38
  -4   7  -4    9.95    1.05
  -4   7  -4    9.46    1.03
   4  -7   4    7.93    1.13
   4  -7   4    9.36    1.05
   4  -7   4    7.56    1.11
   4  -7   4    8.44    0.91
   4  -7   4    8.56    1.05
   4  -7   4    8.28    0.97
   4  -7   4    8.56    1.26
  -5   7  -4   26.68    1.57
  -5   7  -4   27.68    1.72
  -5   7  -4   31.54    1.75
   5  -7   4   28.08    1.86
   5  -7   4   26.46    1.54
   5  -7   4   23.44    1.62
   5  -7   4   28.03    1.61
   5  -7   4   27.45    1.67
   5  -7   4   27.36    1.80
  -6   7  -4   20.26    1.69
  -6   7  -4   20.26    1.64
   6  -7   4   22.02    1.48
   6  -7   4   16.35    1.82
   6  -7   4   19.61    1.79
   6  -7   4   18.46    1.55
   6  -7   4   18.57    1.32
   6   6  -4   59.06    3.14
   6   6  -4   75.07    3.52
  -6  -6   4   70.58    3.02
  -6  -6   4   64.31    3.15
   5   6  -4    1.26    0.70
   5   6  -4    1.78    0.80
   5   6  -4    0.86    1.16
  -5  -6   4    0.94    0.59
  -5  -6   4   -0.20    0.64
  -5  -6   4   -0.29    0.63
  -5  -6   4    0.14    0.47
  -5  -6   4    0.77    0.59
   4   6  -4   93.24    4.01
   4   6  -4   97.48    4.06
   4   6  -4   97.41    4.22
   4   6  -4   90.61    4.03
  -4  -6   4   95.20    3.77
  -4  -6   4   80.44    4.02
  -4  -6   4   95.03    3.72
  -4  -6   4   96.81    3.97
  -4  -6   4   98.51    3.85
  -4  -6   4   94.59    3.75
   3   6  -4    2.19    0.63
   3   6  -4    1.93    0.63
   3   6  -4    1.18    0.54
   3   6  -4    1.62    0.83
   3   6  -4    1.63    0.51
  -3  -6   4    1.30    0.61
  -3  -6   4    1.46    0.55
  -3  -6   4    1.55    0.53
  -3  -6   4    1.64    0.49
  -3  -6   4    1.75    0.45
  -3  -6   4    1.43    0.37
   2   6  -4   46.02    2.28
   2   6  -4   51.48    2.39
   2   6  -4   51.31    2.56
   2   6  -4   45.58    2.40
   2   6  -4   51.83    2.20
  -2  -6   4   54.64    2.19
  -2  -6   4   51.89    2.13
  -2  -6   4   51.80    2.13
  -2  -6   4   50.57    2.34
  -2  -6   4   53.78    2.26
  -2  -6   4   52.77    2.43
  -2  -6   4   55.73    2.52
   1   6  -4    0.62    0.40
   1   6  -4    0.25    0.41
   1   6  -4    0.51    0.40
   1   6  -4    0.71    0.41
   1   6  -4    0.66    0.56
  -1  -6   4   -0.60    0.37
  -1  -6   4    0.10    0.46
  -1  -6   4   -0.18    0.28
  -1  -6   4    0.08    0.32
  -1  -6   4    0.12    0.24
  -1  -6   4    0.63    0.41
  -1  -6   4    0.28    0.29
   0   6  -4   56.10    2.39
   0   6  -4   53.61    2.51
   0   6  -4   56.47    2.37
   0   6  -4   54.02    2.50
   0   6  -4   59.15    2.45
   0  -6   4   56.22    2.45
   0  -6   4   52.72    2.48
   0  -6   4   57.71    2.51
   0  -6   4   56.08    2.35
   0  -6   4   56.25    2.41
   0  -6   4   55.45    2.30
  -1   6  -4    2.77    0.67
  -1   6  -4    2.03    0.43
  -1   6  -4    1.84    0.50
  -1   6  -4    2.10    0.48
  -1   6  -4    1.54    0.48
  -1   6  -4    2.23    0.44
   1  -6   4    2.54    0.50
   1  -6   4    1.87    0.57
   1  -6   4    1.52    0.43
   1  -6   4    1.44    0.39
   1  -6   4    1.75    0.42
   1  -6   4    2.15    0.47
  -2   6  -4   75.53    3.15
  -2   6  -4   78.41    3.05
  -2   6  -4   74.67    3.13
  -2   6  -4   74.41    3.13
  -2   6  -4   75.01    3.10
  -2   6  -4   81.40    3.06
   2  -6   4   73.81    3.11
   2  -6   4   71.79    3.14
   2  -6   4   72.54    3.12
   2  -6   4   75.65    3.14
   2  -6   4   80.41    3.11
   2  -6   4   73.76    3.12
  -3   6  -4    9.31    0.84
  -3   6  -4    9.02    0.89
  -3   6  -4   10.17    0.85
  -3   6  -4    9.93    0.80
  -3   6  -4    8.70    0.96
  -3   6  -4    9.52    0.71
   3  -6   4    8.95    0.80
   3  -6   4    8.93    0.86
   3  -6   4    8.85    0.91
   3  -6   4    9.44    0.87
   3  -6   4   10.12    0.86
   3  -6   4    9.86    0.96
  -4   6  -4   45.94    2.09
  -4   6  -4   41.07    1.98
  -4   6  -4   44.80    2.10
   4  -6   4   44.90    1.99
   4  -6   4   45.52    2.05
   4  -6   4   44.89    2.01
   4  -6   4   46.43    2.19
   4  -6   4   43.84    2.05
   4  -6   4   44.33    2.20
  -5   6  -4    1.15    0.42
  -5   6  -4    1.04    0.60
  -5   6  -4    0.92    0.78
  -5   6  -4    3.97    0.89
  -5   6  -4    1.05    0.53
   5  -6   4    1.74    0.75
   5  -6   4    1.13    0.45
   5  -6   4   -0.35    0.56
   5  -6   4    0.32    0.44
   5  -6   4    0.63    0.41
   5  -6   4    0.69    0.48
   5  -6   4    0.30    0.55
   5  -6   4   -0.22    0.56
  -6   6  -4    0.52    0.59
  -6   6  -4   -0.80    0.65
   6  -6   4    1.51    0.75
   6  -6   4   -0.67    0.49
   6  -6   4    0.08    0.48
   6  -6   4    0.05    0.51
   6  -6   4   -0.08    0.39
   6  -6   4    0.04    0.68
  -7   6  -4    1.76    0.88
   7  -6   4   -0.31    0.85
   7  -6   4    0.43    0.66
   7  -6   4    0.84    0.97
   6   5  -4    0.57    0.85
   6   5  -4   -0.55    0.66
  -6  -5   4    1.17    0.78
  -6  -5   4    1.04    0.62
   5   5  -4    3.22    0.78
   5   5  -4    1.85    1.03
   5   5  -4    5.52    1.11
   5   5  -4   -0.17    1.50
   5   5  -4    2.68    0.96
  -5  -5   4    3.55    0.71
  -5  -5   4    2.05    0.69
  -5  -5   4    3.15    0.66
  -5  -5   4    2.71    0.58
  -5  -5   4    3.48    0.80
   4   5  -4    0.19    0.54
   4   5  -4    0.87    0.54
   4   5  -4    1.41    0.79
   4   5  -4    1.62    0.68
  -4  -5   4    0.87    0.43
  -4  -5   4    0.77    0.60
  -4  -5   4    1.46    0.46
  -4  -5   4    0.61    0.48
  -4  -5   4    0.66    0.43
  -4  -5   4    1.14    0.39
   3   5  -4   10.69    1.00
   3   5  -4   10.23    1.05
   3   5  -4   10.66    0.99
   3   5  -4   10.26    1.32
  -3  -5   4   10.00    0.78
  -3  -5   4   10.32    1.04
  -3  -5   4   10.69    0.72
  -3  -5   4    9.85    0.82
  -3  -5   4    9.04    1.11
  -3  -5   4   10.73    0.87
   2   5  -4    0.68    0.43
   2   5  -4    0.95    0.39
   2   5  -4    0.81    0.55
   2   5  -4    1.31    0.38
   2   5  -4    0.41    0.39
  -2  -5   4    0.39    0.41
  -2  -5   4    0.84    0.31
  -2  -5   4    0.87    0.32
  -2  -5   4    0.62    0.34
  -2  -5   4    0.54    0.42
  -2  -5   4    0.45    0.45
  -2  -5   4    0.91    0.27
   1   5  -4   19.42    1.10
   1   5  -4   18.40    1.11
   1   5  -4   18.58    1.30
   1   5  -4   18.83    1.04
   1   5  -4   18.60    1.19
  -1  -5   4   18.21    0.95
  -1  -5   4   18.27    0.94
  -1  -5   4   19.56    1.25
  -1  -5   4   19.53    1.20
  -1  -5   4   19.49    0.84
  -1  -5   4   20.35    1.07
   0   5  -4   12.44    0.96
   0   5  -4   13.34    0.86
   0   5  -4   13.03    0.86
   0   5  -4   13.94    1.04
   0   5  -4   15.24    0.91
   0  -5   4   12.62    0.98
   0  -5   4   14.12    0.82
   0  -5   4   13.48    0.96
   0  -5   4   13.84    0.91
   0  -5   4   13.51    0.80
   0  -5   4   13.62    0.86
  -1   5  -4   36.46    1.62
  -1   5  -4   36.12    1.71
  -1   5  -4   35.06    1.63
  -1   5  -4   37.25    1.62
  -1   5  -4   35.04    1.60
   1  -5   4   37.91    1.67
   1  -5   4   37.04    1.63
   1  -5   4   34.45    1.69
   1  -5   4   35.03    1.60
   1  -5   4   34.75    1.64
   1  -5   4   33.89    1.67
  -2   5  -4   22.07    1.11
  -2   5  -4   22.12    1.15
  -2   5  -4   22.00    1.20
  -2   5  -4   21.39    1.09
  -2   5  -4   23.64    1.22
  -2   5  -4   20.16    1.19
   2  -5   4   23.47    1.20
   2  -5   4   22.63    1.21
   2  -5   4   21.64    1.19
   2  -5   4   21.16    1.13
   2  -5   4   22.36    1.18
   2  -5   4   21.90    1.20
  -3   5  -4  178.09    6.73
  -3   5  -4  166.37    6.50
  -3   5  -4  179.60    6.65
  -3   5  -4  178.74    6.62
  -3   5  -4  181.79    6.65
  -3   5  -4  181.81    6.53
  -3   5  -4  176.42    6.68
   3  -5   4  177.57    6.66
   3  -5   4  174.00    6.74
   3  -5   4  171.38    6.72
   3  -5   4  188.89    6.62
   3  -5   4  170.68    6.64
   3  -5   4  169.97    6.65
  -4   5  -4   41.35    1.87
  -4   5  -4   38.46    1.75
  -4   5  -4   38.50    1.81
  -4   5  -4   40.29    1.84
  -4   5  -4   38.22    1.97
   4  -5   4   39.40    1.95
   4  -5   4   40.65    1.80
   4  -5   4   40.30    1.94
   4  -5   4   39.54    1.77
   4  -5   4   40.53    1.82
   4  -5   4   41.28    2.00
   4  -5   4   39.24    1.74
  -5   5  -4  164.27    6.01
  -5   5  -4  164.61    6.22
  -5   5  -4  164.78    6.23
   5  -5   4  162.58    6.04
   5  -5   4  159.94    6.04
   5  -5   4  157.05    6.10
   5  -5   4  154.45    6.27
   5  -5   4  158.62    6.06
   5  -5   4  161.65    6.29
  -6   5  -4    9.15    1.12
  -6   5  -4   12.52    1.17
   6  -5   4   10.62    1.28
   6  -5   4   10.13    0.89
   6  -5   4   10.25    0.90
   6  -5   4   10.22    1.16
   6  -5   4    9.39    1.24
  -7   5  -4   49.13    2.48
   7  -5   4   48.54    2.53
   7  -5   4   45.88    2.09
   7  -5   4   42.58    2.36
   7  -5   4   43.23    2.47
   7   4  -4    3.44    1.18
  -7  -4   4    5.81    1.19
   6   4  -4   44.75    2.37
   6   4  -4   45.09    3.04
   6   4  -4   49.56    2.53
  -6  -4   4   50.23    2.17
  -6  -4   4   47.39    2.36
   5   4  -4    2.21    0.77
   5   4  -4    0.98    1.00
   5   4  -4    2.46    0.64
   5   4  -4    0.76    0.87
   5   4  -4    1.08    0.58
  -5  -4   4    2.59    0.67
  -5  -4   4    1.50    0.54
  -5  -4   4    2.72    0.69
  -5  -4   4    1.88    0.58
   4   4  -4  120.56    4.97
   4   4  -4  121.77    4.87
   4   4  -4  114.24    4.84
   4   4  -4  117.77    4.91
   4   4  -4  128.93    4.85
  -4  -4   4  122.13    4.73
  -4  -4   4  130.19    4.61
  -4  -4   4  122.30    4.59
  -4  -4   4  124.30    4.84
  -4  -4   4  100.33    4.86
  -4  -4   4  125.65    4.60
   3   4  -4   -0.08    0.35
   3   4  -4    0.24    0.46
   3   4  -4    0.01    0.37
   3   4  -4    0.58    0.56
   3   4  -4    0.11    0.47
  -3  -4   4    0.23    0.28
  -3  -4   4    0.36    0.29
  -3  -4   4    0.67    0.32
  -3  -4   4   -0.20    0.29
  -3  -4   4   -0.37    0.41
  -3  -4   4    0.58    0.39
   2   4  -4  348.67   13.26
   2   4  -4  391.39   13.41
   2   4  -4  336.52   13.31
   2   4  -4  346.96   13.08
   2   4  -4  370.86   13.24
  -2  -4   4  347.24   13.03
  -2  -4   4  354.43   13.17
  -2  -4   4  350.83   13.14
  -2  -4   4  372.59   13.09
  -2  -4   4  371.36   13.34
  -2  -4   4  362.32   13.33
  -2  -4   4  372.18   13.19
   1   4  -4   26.46    1.25
   1   4  -4   27.12    1.43
   1   4  -4   22.08    1.30
   1   4  -4   23.02    1.14
   1   4  -4   23.21    1.20
  -1  -4   4   24.47    1.09
  -1  -4   4   22.90    1.29
  -1  -4   4   25.61    1.35
  -1  -4   4   22.63    1.17
  -1  -4   4   23.91    1.10
  -1  -4   4   25.22    1.25
   0   4  -4  453.11   16.64
   0   4  -4  444.86   16.69
   0   4  -4  465.14   16.78
   0   4  -4  416.44   16.65
   0   4  -4  510.35   16.82
   0  -4   4  434.50   16.55
   0  -4   4  467.60   16.78
   0  -4   4  443.80   16.62
   0  -4   4  455.14   16.59
   0  -4   4  442.40   16.69
   0  -4   4  495.67   16.74
   0  -4   4  477.08   16.79
  -1   4  -4   16.00    0.95
  -1   4  -4   14.98    0.81
  -1   4  -4   13.45    0.88
  -1   4  -4   13.07    0.84
  -1   4  -4   14.83    0.82
  -1   4  -4   13.20    0.80
   1  -4   4   14.56    0.91
   1  -4   4   15.05    0.86
   1  -4   4   14.08    0.89
   1  -4   4   14.33    0.86
   1  -4   4   14.27    0.84
   1  -4   4   14.64    0.85
  -2   4  -4  170.14    6.50
  -2   4  -4  178.73    6.52
  -2   4  -4  170.61    6.51
  -2   4  -4  171.72    6.41
  -2   4  -4  172.15    6.43
  -2   4  -4  178.23    6.54
   2  -4   4  170.83    6.54
   2  -4   4  162.94    6.51
   2  -4   4  171.10    6.47
   2  -4   4  179.42    6.51
   2  -4   4  181.30    6.52
   2  -4   4  173.43    6.54
  -3   4  -4   16.90    0.96
  -3   4  -4   16.89    0.81
  -3   4  -4   16.56    0.78
  -3   4  -4   17.20    0.94
  -3   4  -4   15.62    0.87
  -3   4  -4   16.55    1.06
   3  -4   4   17.08    1.05
   3  -4   4   17.27    0.93
   3  -4   4   15.19    0.92
   3  -4   4   15.60    1.03
   3  -4   4   16.78    0.93
   3  -4   4   16.34    0.87
  -4   4  -4    1.10    0.38
  -4   4  -4    1.34    0.30
  -4   4  -4    0.78    0.34
  -4   4  -4    0.94    0.44
  -4   4  -4    1.14    0.35
   4  -4   4    0.98    0.29
   4  -4   4    1.00    0.47
   4  -4   4    1.24    0.35
   4  -4   4    1.77    0.35
   4  -4   4    1.08    0.36
   4  -4   4    1.58    0.30
   4  -4   4    0.83    0.42
  -5   4  -4    5.33    0.72
  -5   4  -4    5.33    0.74
   5  -4   4    4.71    0.75
   5  -4   4    4.39    0.52
   5  -4   4    5.58    1.04
   5  -4   4    6.45    0.79
   5  -4   4    6.28    0.63
   5  -4   4    3.96    0.62
   5  -4   4    4.61    0.55
  -6   4  -4    3.79    0.90
  -6   4  -4    4.12    0.83
   6  -4   4    3.96    0.63
   6  -4   4    3.64    0.70
   6  -4   4    3.44    0.61
   6  -4   4    3.45    0.69
   6  -4   4    3.85    0.89
   6  -4   4    3.03    0.87
   6  -4   4    3.54    0.77
  -7   4  -4    4.78    1.15
   7  -4   4    4.02    0.72
   7  -4   4    4.27    0.96
   7  -4   4    5.03    1.13
   7  -4   4    4.42    1.19
   8  -4   4    6.38    1.55
   8  -4   4    8.98    1.59
   7   3  -4  154.06    6.02
   7   3  -4  145.27    5.83
  -7  -3   4  140.35    5.90
   6   3  -4    0.59    0.69
   6   3  -4    0.55    0.63
   6   3  -4    0.76    1.15
   6   3  -4    0.11    0.60
  -6  -3   4   -0.15    0.57
  -6  -3   4    0.51    0.48
  -6  -3   4    0.35    0.60
   5   3  -4  218.93    8.14
   5   3  -4  215.87    8.29
   5   3  -4  207.61    8.16
   5   3  -4  205.67    8.11
  -5  -3   4  221.63    7.91
  -5  -3   4  208.85    7.91
  -5  -3   4  219.08    8.10
   4   3  -4    0.37    0.58
   4   3  -4    0.07    0.40
   4   3  -4    0.24    0.63
   4   3  -4    0.40    0.54
   4   3  -4   -0.14    0.35
  -4  -3   4    0.46    0.34
  -4  -3   4    0.10    0.30
  -4  -3   4    0.03    0.26
  -4  -3   4    0.29    0.29
  -4  -3   4    0.62    0.32
  -4  -3   4    0.35    0.44
   3   3  -4   21.33    1.14
   3   3  -4   20.31    1.35
   3   3  -4   23.02    1.29
   3   3  -4   21.46    1.31
   3   3  -4   18.65    1.24
  -3  -3   4   20.85    1.05
  -3  -3   4   20.30    1.03
  -3  -3   4   20.84    1.23
  -3  -3   4   21.15    1.08
  -3  -3   4   20.79    1.25
  -3  -3   4   22.17    1.01
   2   3  -4    3.60    0.74
   2   3  -4    3.66    0.62
   2   3  -4    3.91    0.50
   2   3  -4    3.62    0.59
  -2  -3   4    2.89    0.62
  -2  -3   4    4.57    0.52
  -2  -3   4    3.89    0.46
  -2  -3   4    3.65    0.44
  -2  -3   4    4.03    0.64
  -2  -3   4    3.55    0.43
   1   3  -4    1.18    0.26
   1   3  -4    1.02    0.27
   1   3  -4    1.60    0.43
   1   3  -4    1.45    0.35
   1   3  -4    1.19    0.31
   1   3  -4    1.12    0.34
  -1  -3   4    1.53    0.31
  -1  -3   4    1.21    0.31
  -1  -3   4    1.24    0.30
  -1  -3   4    1.41    0.37
  -1  -3   4    1.11    0.33
  -1  -3   4    1.41    0.38
  -1  -3   4    1.44    0.34
   0   3  -4    0.02    0.24
   0   3  -4    0.35    0.25
   0   3  -4    0.21    0.31
   0   3  -4    0.12    0.20
   0   3  -4    0.46    0.26
   0   3  -4    0.39    0.18
   0  -3   4    0.51    0.22
   0  -3   4    0.17    0.18
   0  -3   4    0.40    0.24
   0  -3   4    0.26    0.21
   0  -3   4    0.22    0.25
  -1   3  -4    2.87    0.48
  -1   3  -4    3.86    0.56
  -1   3  -4    3.27    0.43
  -1   3  -4    3.34    0.39
  -1   3  -4    3.47    0.47
   1  -3   4    3.40    0.54
   1  -3   4    2.96    0.43
   1  -3   4    3.41    0.42
   1  -3   4    3.18    0.45
   1  -3   4    4.73    0.48
   1  -3   4    3.97    0.48
  -2   3  -4   19.95    1.03
  -2   3  -4   21.21    1.12
  -2   3  -4   23.15    1.11
  -2   3  -4   22.92    0.96
  -2   3  -4   21.94    1.03
  -2   3  -4   21.08    0.98
   2  -3   4   22.37    1.08
   2  -3   4   20.02    1.04
   2  -3   4   21.01    1.01
   2  -3   4   20.33    1.10
   2  -3   4   21.32    1.11
   2  -3   4   19.81    1.02
  -3   3  -4    8.92    0.75
  -3   3  -4    9.17    0.67
  -3   3  -4    8.31    0.59
  -3   3  -4    8.39    0.56
  -3   3  -4    8.81    0.57
   3  -3   4    8.15    0.54
   3  -3   4    7.21    0.62
   3  -3   4    8.39    0.56
   3  -3   4    7.15    0.72
   3  -3   4    8.95    0.61
   3  -3   4    9.29    0.77
  -4   3  -4   46.23    1.97
  -4   3  -4   47.84    2.00
  -4   3  -4   46.15    1.84
   4  -3   4   47.13    1.90
   4  -3   4   47.11    2.14
   4  -3   4   44.70    2.08
   4  -3   4   47.15    1.98
   4  -3   4   46.35    1.86
   4  -3   4   44.52    1.84
   4  -3   4   45.33    1.90
  -5   3  -4   53.90    2.29
  -5   3  -4   51.95    2.29
   5  -3   4   52.14    2.47
   5  -3   4   54.02    2.32
   5  -3   4   52.79    2.14
   5  -3   4   54.15    2.29
   5  -3   4   50.97    2.36
   5  -3   4   53.10    2.08
   5  -3   4   52.31    2.17
   5  -3   4   52.72    2.26
  -6   3  -4   52.96    2.32
  -6   3  -4   51.88    2.38
   6  -3   4   49.17    2.23
   6  -3   4   53.98    2.43
   6  -3   4   53.01    2.37
   6  -3   4   49.64    2.58
   6  -3   4   51.71    2.34
   6  -3   4   56.01    2.48
   6  -3   4   51.57    2.32
   7  -3   4  147.59    5.75
   7  -3   4  142.95    5.65
   7  -3   4  138.83    5.56
   7  -3   4  142.98    5.62
   7  -3   4  137.22    5.52
   8  -3   4   45.13    2.59
   8  -3   4   50.24    2.52
   8  -3   4   51.16    2.55
   7   2  -4   -0.88    1.65
   7   2  -4    0.13    0.79
   7   2  -4    1.67    0.73
   7   2  -4    0.04    0.68
  -7  -2   4    0.06    0.74
   6   2  -4   32.43    1.66
   6   2  -4   35.12    1.66
   6   2  -4   31.58    2.33
   6   2  -4   33.67    1.78
   6   2  -4   32.42    1.84
  -6  -2   4   31.97    1.75
  -6  -2   4   34.66    1.83
  -6  -2   4   30.90    1.61
   5   2  -4    0.64    0.45
   5   2  -4    1.52    0.46
   5   2  -4    3.08    0.69
   5   2  -4    1.47    0.41
   5   2  -4    1.11    0.76
   5   2  -4    1.24    0.54
  -5  -2   4    1.34    0.47
  -5  -2   4    2.48    0.53
  -5  -2   4    1.01    0.49
  -5  -2   4    1.49    0.40
   4   2  -4    0.73    0.32
   4   2  -4    0.80    0.58
   4   2  -4    0.11    0.31
   4   2  -4    0.94    0.56
   4   2  -4    1.34    0.49
   4   2  -4    0.34    0.40
  -4  -2   4    0.58    0.32
  -4  -2   4    0.65    0.28
  -4  -2   4    0.55    0.26
  -4  -2   4    0.59    0.42
  -4  -2   4    0.29    0.26
  -4  -2   4    0.34    0.30
   3   2  -4    0.20    0.23
   3   2  -4    0.73    0.42
   3   2  -4    1.15    0.46
   3   2  -4    0.37    0.25
   3   2  -4    0.58    0.33
   3   2  -4    0.66    0.43
  -3  -2   4    0.23    0.23
  -3  -2   4    0.48    0.24
  -3  -2   4    0.34    0.23
  -3  -2   4   -0.27    0.33
  -3  -2   4    0.48    0.30
  -3  -2   4    0.50    0.27
   2   2  -4   14.98    0.62
   2   2  -4   14.25    0.87
   2   2  -4   13.63    0.91
   2   2  -4   13.17    0.91
   2   2  -4   14.81    0.97
  -2  -2   4   14.80    0.76
  -2  -2   4   14.64    0.79
  -2  -2   4   13.85    0.77
  -2  -2   4   14.91    0.75
  -2  -2   4   13.56    0.93
  -2  -2   4   13.83    0.88
   1   2  -4    3.89    0.51
   1   2  -4    3.90    0.29
   1   2  -4    3.71    0.42
   1   2  -4    3.70    0.49
   1   2  -4    3.46    0.56
   1   2  -4    3.06    0.38
  -1  -2   4    3.50    0.42
  -1  -2   4    3.37    0.41
  -1  -2   4    4.06    0.37
  -1  -2   4    4.10    0.52
  -1  -2   4    3.00    0.50
  -1  -2   4    3.64    0.36
   0   2  -4  321.50   11.98
   0   2  -4  340.81   12.08
   0   2  -4  320.95   11.94
   0   2  -4  341.87   12.03
   0   2  -4  316.14   11.98
   0   2  -4  357.41   12.10
   0  -2   4  300.77   12.00
   0  -2   4  316.45   11.96
   0  -2   4  347.72   12.10
   0  -2   4  333.61   11.91
   0  -2   4  333.17   12.00
   0  -2   4  322.50   12.06
  -1   2  -4   35.26    1.50
  -1   2  -4   36.84    1.49
  -1   2  -4   36.99    1.57
  -1   2  -4   36.07    1.56
  -1   2  -4   35.80    1.55
  -1   2  -4   35.86    1.55
   1  -2   4   34.95    1.53
   1  -2   4   37.43    1.54
   1  -2   4   36.68    1.57
   1  -2   4   33.08    1.51
   1  -2   4   36.08    1.57
   1  -2   4   36.11    1.53
  -2   2  -4  698.28   24.25
  -2   2  -4  692.68   24.17
  -2   2  -4  693.56   24.17
  -2   2  -4  649.49   24.34
  -2   2  -4  685.08   24.31
  -2   2  -4  666.47   24.25
   2  -2   4  643.10   24.22
   2  -2   4  659.87   24.23
   2  -2   4  682.78   24.34
   2  -2   4  673.60   24.26
   2  -2   4  662.63   24.26
   2  -2   4  663.95   24.30
  -3   2  -4   52.91    2.03
  -3   2  -4   50.86    2.08
  -3   2  -4   49.45    2.21
  -3   2  -4   51.73    2.02
  -3   2  -4   48.58    2.02
   3  -2   4   51.19    2.09
   3  -2   4   50.37    2.04
   3  -2   4   50.96    2.16
   3  -2   4   54.11    2.24
   3  -2   4   53.74    2.06
   3  -2   4   50.07    2.02
   3  -2   4   50.67    2.01
  -4   2  -4  326.22   11.59
  -4   2  -4  295.98   11.55
   4  -2   4  323.96   11.58
   4  -2   4  302.90   11.42
   4  -2   4  322.87   11.46
   4  -2   4  298.51   11.53
   4  -2   4  323.30   11.50
   4  -2   4  328.62   11.67
   4  -2   4  323.72   11.75
  -5   2  -4   28.76    1.46
  -5   2  -4   29.63    1.41
   5  -2   4   29.95    1.42
   5  -2   4   28.22    1.41
   5  -2   4   32.07    1.55
   5  -2   4   29.95    1.63
   5  -2   4   29.92    1.46
   5  -2   4   30.15    1.45
   5  -2   4   30.00    1.39
   6  -2   4   45.78    2.09
   6  -2   4   46.25    2.16
   6  -2   4   46.62    2.36
   6  -2   4   48.85    2.23
   6  -2   4   45.46    2.08
   6  -2   4   44.61    2.05
   6  -2   4   47.36    2.10
   7  -2   4   27.01    1.76
   7  -2   4   28.47    1.71
   7  -2   4   26.78    1.59
   7  -2   4   24.90    1.50
   7  -2   4   26.29    1.99
   7  -2   4   25.30    1.62
   7  -2   4   27.23    1.63
   8  -2   4    0.54    0.83
   8  -2   4    1.72    0.72
   8  -2   4    1.35    0.93
   7   1  -4    0.66    0.72
   7   1  -4    2.25    1.27
   7   1  -4    0.93    0.73
   7   1  -4    1.28    0.72
  -7  -1   4    1.50    0.81
  -7  -1   4    1.14    0.71
   6   1  -4    1.09    0.91
   6   1  -4    1.37    0.63
   6   1  -4    1.21    0.52
   6   1  -4    1.33    0.53
   6   1  -4    0.65    0.52
   6   1  -4    1.52    0.54
  -6  -1   4    0.80    0.55
  -6  -1   4    1.31    0.59
  -6  -1   4    1.12    0.57
   5   1  -4   51.67    2.24
   5   1  -4   52.03    2.16
   5   1  -4   47.91    2.33
   5   1  -4   50.55    2.50
   5   1  -4   52.38    2.21
  -5  -1   4   50.20    2.23
  -5  -1   4   49.96    2.15
  -5  -1   4   51.09    2.33
   4   1  -4   -0.03    0.50
   4   1  -4    0.70    0.37
   4   1  -4    0.25    0.36
   4   1  -4   -0.04    0.27
   4   1  -4    0.14    0.27
   4   1  -4   -0.31    0.50
  -4  -1   4    0.36    0.29
  -4  -1   4    0.70    0.32
  -4  -1   4   -0.07    0.22
  -4  -1   4    0.58    0.24
  -4  -1   4   -0.10    0.28
  -4  -1   4   -0.05    0.41
   3   1  -4  300.36   11.01
   3   1  -4  304.95   11.04
   3   1  -4  305.02   11.10
   3   1  -4  300.40   11.21
   3   1  -4  289.71   11.15
  -3  -1   4  313.31   11.21
  -3  -1   4  313.66   10.98
  -3  -1   4  290.47   11.04
  -3  -1   4  296.11   11.06
  -3  -1   4  310.40   11.02
  -3  -1   4  296.41   11.01
   2   1  -4   -0.14    0.15
   2   1  -4    0.22    0.21
   2   1  -4    0.19    0.27
   2   1  -4   -0.13    0.25
   2   1  -4   -0.06    0.16
   2   1  -4   -0.15    0.31
  -2  -1   4    0.03    0.21
  -2  -1   4    0.43    0.19
  -2  -1   4   -0.21    0.19
  -2  -1   4   -0.13    0.19
  -2  -1   4    0.07    0.26
  -2  -1   4    0.03    0.21
   1   1  -4  174.07    6.61
   1   1  -4  172.67    6.54
   1   1  -4  178.76    6.62
   1   1  -4  187.18    6.65
   1   1  -4  164.71    6.54
   1   1  -4  181.56    6.53
  -1  -1   4  183.13    6.54
  -1  -1   4  170.16    6.59
  -1  -1   4  182.88    6.61
  -1  -1   4  181.59    6.53
   0   1  -4    0.31    0.16
   0   1  -4    0.25    0.21
   0   1  -4    0.19    0.11
   0   1  -4    0.18    0.20
   0  -1   4    0.14    0.16
   0  -1   4    0.26    0.18
   0  -1   4    0.16    0.16
   0  -1   4    0.15    0.18
   0  -1   4   -0.08    0.15
   0  -1   4    0.29    0.19
  -1   1  -4   22.11    0.94
  -1   1  -4   19.91    0.94
  -1   1  -4   20.84    0.97
  -1   1  -4   20.15    0.90
   1  -1   4   21.56    0.96
   1  -1   4   19.69    0.95
   1  -1   4   20.97    0.95
  -2   1  -4    3.99    0.33
  -2   1  -4    3.43    0.42
  -2   1  -4    3.53    0.27
  -2   1  -4    3.79    0.36
  -2   1  -4    3.65    0.29
   2  -1   4    3.51    0.36
   2  -1   4    3.00    0.36
   2  -1   4    3.81    0.34
   2  -1   4    3.01    0.40
   2  -1   4    3.08    0.45
  -3   1  -4   11.70    0.64
  -3   1  -4   12.91    0.80
  -3   1  -4   11.87    0.61
  -3   1  -4   12.13    0.59
   3  -1   4   12.04    0.58
   3  -1   4   11.93    0.61
   3  -1   4   11.62    0.81
   3  -1   4   12.48    0.76
   3  -1   4   11.66    0.66
   3  -1   4   12.19    0.63
   3  -1   4   12.06    0.62
  -4   1  -4    3.17    0.41
  -4   1  -4    2.21    0.53
   4  -1   4    3.26    0.57
   4  -1   4    3.02    0.40
   4  -1   4    3.38    0.47
   4  -1   4    2.11    0.63
   4  -1   4    1.90    0.42
   4  -1   4    2.74    0.42
  -5   1  -4   55.69    2.25
   5  -1   4   54.20    2.25
   5  -1   4   54.56    2.29
   5  -1   4   55.07    2.25
   5  -1   4   53.76    2.26
   5  -1   4   55.09    2.36
   5  -1   4   55.26    2.50
   5  -1   4   51.81    2.25
   6  -1   4   18.99    1.11
   6  -1   4   19.26    1.08
   6  -1   4   17.74    1.15
   6  -1   4   19.34    1.44
   6  -1   4   17.02    1.20
   6  -1   4   18.60    1.15
   6  -1   4   21.18    1.29
   7  -1   4   19.27    1.43
   7  -1   4   19.64    1.56
   7  -1   4   25.70    1.53
   7  -1   4   21.15    1.27
   7  -1   4   22.34    1.81
   7  -1   4   22.12    1.48
   7  -1   4   20.52    1.40
   8  -1   4   13.60    1.20
   8  -1   4   13.22    1.45
   7   0  -4    0.03    0.66
   7   0  -4   -0.15    0.98
   7   0  -4    2.37    0.68
   7   0  -4    0.71    0.67
  -7   0   4    0.71    0.68
  -7   0   4    1.06    0.81
   6   0  -4    0.14    0.45
   6   0  -4    1.11    0.50
   6   0  -4    1.10    0.75
   6   0  -4    0.31    0.56
   6   0  -4    0.86    0.45
   6   0  -4    0.43    0.56
  -6   0   4    0.13    0.47
  -6   0   4    1.50    0.63
   5   0  -4    1.99    0.49
   5   0  -4    1.36    0.40
   5   0  -4    2.35    0.55
   5   0  -4    2.41    0.66
   5   0  -4    2.34    0.52
  -5   0   4    1.83    0.57
  -5   0   4    2.49    0.52
  -5   0   4    1.79    0.46
   4   0  -4   35.28    1.68
   4   0  -4   35.56    1.88
   4   0  -4   36.57    1.58
   4   0  -4   36.00    1.80
   4   0  -4   38.28    1.65
   4   0  -4   34.49    1.56
  -4   0   4   36.40    1.46
  -4   0   4   35.04    1.60
  -4   0   4   34.92    1.58
  -4   0   4   35.42    1.57
  -4   0   4   34.27    1.47
   3   0  -4    1.82    0.46
   3   0  -4    2.21    0.49
   3   0  -4    1.99    0.48
   3   0  -4    1.60    0.45
   3   0  -4    1.96    0.36
   3   0  -4    1.94    0.36
  -3   0   4    2.30    0.39
  -3   0   4    1.76    0.35
  -3   0   4    2.38    0.41
  -3   0   4    2.10    0.56
  -3   0   4    1.61    0.31
  -3   0   4    2.20    0.44
  -3   0   4    1.59    0.37
   2   0  -4  156.98    5.87
   2   0  -4  144.12    5.86
   2   0  -4  163.85    5.84
   2   0  -4  154.43    5.77
   2   0  -4  161.16    5.82
   2   0  -4  154.97    5.76
  -2   0   4  149.40    5.79
  -2   0   4  164.26    5.79
  -2   0   4  162.60    5.85
  -2   0   4  156.81    5.79
  -2   0   4  146.85    5.81
  -2   0   4  153.45    5.74
   1   0  -4    2.48    0.32
   1   0  -4    2.13    0.39
   1   0  -4    1.70    0.30
   1   0  -4    2.19    0.36
   1   0  -4    1.79    0.27
   1   0  -4    1.95    0.27
  -1   0   4    2.21    0.30
  -1   0   4    2.23    0.33
  -1   0   4    1.91    0.33
  -1   0   4    2.35    0.35
  -1   0   4    2.33    0.26
  -1   0   4    1.91    0.27
   0   0  -4  219.42    8.22
   0   0  -4  231.78    8.29
   0   0  -4  223.52    8.27
   0   0  -4  226.99    8.23
   0   0   4  225.32    8.28
   0   0   4  223.79    8.23
   0   0   4  225.96    8.26
   0   0   4  231.00    8.24
   0   0   4  226.23    8.26
  -1   0  -4    4.25    0.35
  -1   0  -4    4.74    0.35
  -1   0  -4    4.12    0.34
  -1   0  -4    4.19    0.32
  -1   0  -4    4.40    0.30
   1   0   4    3.97    0.32
   1   0   4    4.57    0.35
   1   0   4    4.04    0.33
   1   0   4    4.81    0.37
   1   0   4    4.36    0.33
  -2   0  -4   48.87    1.85
  -2   0  -4   46.33    1.89
  -2   0  -4   51.30    1.90
   2   0   4   50.22    1.90
   2   0   4   45.79    1.87
   2   0   4   48.60    1.90
   2   0   4   51.27    2.01
   2   0   4   49.39    1.93
   2   0   4   48.61    1.88
  -3   0  -4    0.64    0.25
  -3   0  -4    0.35    0.14
   3   0   4    0.04    0.16
   3   0   4    0.25    0.13
   3   0   4    0.28    0.15
   3   0   4    0.14    0.15
   3   0   4    0.38    0.21
   3   0   4    0.24    0.14
   3   0   4    0.31    0.28
   3   0   4    0.08    0.12
  -4   0  -4   34.47    1.66
  -4   0  -4   34.46    1.47
   4   0   4   34.62    1.49
   4   0   4   36.71    1.53
   4   0   4   35.98    1.48
   4   0   4   35.38    1.71
   4   0   4   33.64    1.56
  -5   0  -4    7.09    0.80
  -5   0  -4    7.57    0.57
   5   0   4    9.28    0.79
   5   0   4    8.00    0.62
   5   0   4    6.91    0.67
   5   0   4    8.59    0.74
   5   0   4    8.85    0.70
   5   0   4    8.90    0.92
   6   0   4  173.21    6.30
   6   0   4  159.39    6.19
   6   0   4  175.50    6.48
   6   0   4  160.68    6.23
   6   0   4  155.61    6.13
   6   0   4  159.11    6.17
   6   0   4  163.08    6.28
   7   0   4    2.25    0.86
   7   0   4    2.76    0.70
   7   0   4    2.45    0.73
   7   0   4    4.66    0.87
   7   0   4    4.51    0.72
   7   0   4    2.20    0.80
   7   0   4    4.39    1.06
   8   0   4   40.23    2.10
   8   0   4   35.06    1.84
   7  -1  -4  108.30    4.47
   7  -1  -4  112.34    4.52
   7  -1  -4  109.64    4.57
   7  -1  -4  109.51    4.67
  -7   1   4  113.58    4.53
   6  -1  -4    7.91    1.19
   6  -1  -4   10.02    0.93
   6  -1  -4    7.54    0.87
   6  -1  -4    7.60    1.08
   6  -1  -4    6.23    0.84
  -6   1   4   10.38    1.24
  -6   1   4    8.43    0.90
  -6   1   4    7.10    1.02
   5  -1  -4  152.04    5.97
   5  -1  -4  153.38    5.92
   5  -1  -4  155.38    5.89
   5  -1  -4  163.25    5.91
   5  -1  -4  162.07    6.01
  -5   1   4  152.08    5.93
  -5   1   4  156.15    5.94
  -5   1   4  155.49    6.01
  -5   1   4  150.37    6.08
   4  -1  -4    0.90    0.34
   4  -1  -4    0.54    0.48
   4  -1  -4    0.63    0.41
   4  -1  -4    0.51    0.27
   4  -1  -4    0.76    0.32
   4  -1  -4    0.86    0.33
  -4   1   4    0.71    0.23
  -4   1   4    0.54    0.32
  -4   1   4    0.70    0.36
  -4   1   4    0.46    0.28
  -4   1   4    1.01    0.36
  -4   1   4    0.37    0.23
   3  -1  -4  107.69    4.10
   3  -1  -4  109.09    4.10
   3  -1  -4  105.66    4.06
   3  -1  -4  110.02    4.17
   3  -1  -4  103.02    4.26
   3  -1  -4  107.18    4.12
  -3   1   4  106.04    4.12
  -3   1   4  110.56    4.11
  -3   1   4  103.38    4.07
  -3   1   4  106.01    4.18
  -3   1   4  110.02    4.02
  -3   1   4  105.55    4.07
  -3   1   4  110.08    4.10
   2  -1  -4    7.27    0.49
   2  -1  -4    7.84    0.56
   2  -1  -4    8.19    0.53
   2  -1  -4    7.28    0.62
   2  -1  -4    7.71    0.62
   2  -1  -4    7.22    0.51
  -2   1   4    7.41    0.56
  -2   1   4    7.49    0.53
  -2   1   4    7.94    0.50
  -2   1   4    7.43    0.54
  -2   1   4    7.88    0.54
  -2   1   4    7.70    0.53
   1  -1  -4   25.19    1.14
   1  -1  -4   25.05    1.07
   1  -1  -4   23.22    1.10
   1  -1  -4   24.86    1.10
   1  -1  -4   24.62    1.09
   1  -1  -4   25.32    1.08
  -1   1   4   25.24    1.09
  -1   1   4   25.04    1.13
  -1   1   4   24.02    1.08
  -1   1   4   26.17    1.07
  -1   1   4   24.14    1.09
  -1   1   4   25.24    1.08
   0  -1  -4   13.53    0.65
   0  -1  -4   13.55    0.69
   0  -1  -4   13.63    0.66
   0  -1  -4   14.23    0.70
   0  -1  -4   13.51    0.67
   0   1   4   14.00    0.67
   0   1   4   13.79    0.67
   0   1   4   13.53    0.69
   0   1   4   14.48    0.69
   0   1   4   12.99    0.66
  -1  -1  -4    0.48    0.17
  -1  -1  -4    0.72    0.17
  -1  -1  -4    1.16    0.23
  -1  -1  -4    0.66    0.18
  -1  -1  -4    0.97    0.20
   1   1   4    0.86    0.20
   1   1   4    1.42    0.22
   1   1   4    0.69    0.18
   1   1   4    0.43    0.14
   1   1   4    0.87    0.21
   1   1   4    1.22    0.24
  -2  -1  -4   39.78    1.45
  -2  -1  -4   38.50    1.57
  -2  -1  -4   37.19    1.47
  -2  -1  -4   35.30    1.45
  -2  -1  -4   38.72    1.49
   2   1   4   34.27    1.47
   2   1   4   37.73    1.51
   2   1   4   39.15    1.49
   2   1   4   37.65    1.48
   2   1   4   39.59    1.52
   2   1   4   37.97    1.50
  -3  -1  -4   16.25    0.89
  -3  -1  -4   17.26    0.75
  -3  -1  -4   16.82    0.72
  -3  -1  -4   17.69    0.73
   3   1   4   16.86    0.92
   3   1   4   16.41    0.73
   3   1   4   16.47    0.72
   3   1   4   16.84    0.81
   3   1   4   16.59    0.71
   3   1   4   16.87    0.76
  -4  -1  -4    4.73    0.57
  -4  -1  -4    4.45    0.36
   4   1   4    4.51    0.48
   4   1   4    4.30    0.64
   4   1   4    4.47    0.49
   4   1   4    5.14    0.54
   4   1   4    4.28    0.40
  -5  -1  -4    2.95    0.61
   5   1   4    2.20    0.51
   5   1   4    1.86    0.43
   5   1   4    2.37    0.42
   5   1   4    4.17    0.57
   5   1   4    2.89    0.57
   6   1   4    4.34    0.52
   6   1   4    3.84    0.82
   6   1   4    3.69    0.74
   6   1   4    3.89    0.78
   6   1   4    3.88    0.85
   6   1   4    4.13    0.60
   6   1   4    4.37    0.74
   7   1   4   11.80    0.86
   7   1   4   11.85    1.19
   7   1   4   11.75    1.03
   7   1   4   13.59    1.54
   7   1   4   14.26    1.26
   7   1   4   14.49    1.46
   7   1   4   10.30    1.29
   8   1   4    2.30    0.73
   8   1   4    1.28    0.84
   8   1   4    1.53    1.11
   7  -2  -4    1.17    0.69
   7  -2  -4    1.05    0.73
   7  -2  -4    0.86    0.88
   7  -2  -4    1.82    0.78
  -7   2   4    1.80    0.67
   6  -2  -4    9.13    0.91
   6  -2  -4    7.68    0.94
   6  -2  -4    6.01    0.90
   6  -2  -4    6.63    1.01
   6  -2  -4    7.76    1.20
  -6   2   4    7.50    1.09
  -6   2   4    7.05    0.84
  -6   2   4    8.42    1.31
  -6   2   4    7.53    1.15
   5  -2  -4   -0.32    0.36
   5  -2  -4    0.86    0.40
   5  -2  -4    0.84    0.72
   5  -2  -4   -0.69    0.42
   5  -2  -4    0.16    0.39
   5  -2  -4    1.25    0.54
   5  -2  -4    0.31    0.34
  -5   2   4   -0.16    0.35
  -5   2   4    0.01    0.43
  -5   2   4    0.00    0.45
  -5   2   4    0.25    0.35
   4  -2  -4    1.00    0.57
   4  -2  -4    0.13    0.29
   4  -2  -4    0.39    0.38
   4  -2  -4    0.38    0.32
   4  -2  -4    0.42    0.31
   4  -2  -4    1.01    0.30
  -4   2   4    0.48    0.37
  -4   2   4    0.52    0.21
  -4   2   4    0.23    0.28
  -4   2   4    0.05    0.33
  -4   2   4    0.39    0.29
   3  -2  -4    0.66    0.27
   3  -2  -4    0.12    0.19
   3  -2  -4    0.23    0.24
   3  -2  -4    0.73    0.25
   3  -2  -4    0.70    0.31
   3  -2  -4    0.50    0.37
  -3   2   4    0.38    0.30
  -3   2   4    0.60    0.28
  -3   2   4    0.36    0.25
  -3   2   4    0.30    0.27
  -3   2   4    0.48    0.26
  -3   2   4    0.41    0.21
  -3   2   4    0.28    0.24
   2  -2  -4   58.61    2.33
   2  -2  -4   57.42    2.44
   2  -2  -4   57.05    2.29
   2  -2  -4   61.51    2.34
   2  -2  -4   56.15    2.32
   2  -2  -4   60.94    2.38
  -2   2   4   55.41    2.32
  -2   2   4   57.27    2.33
  -2   2   4   56.83    2.34
  -2   2   4   61.45    2.29
  -2   2   4   57.69    2.40
  -2   2   4   58.55    2.31
   1  -2  -4    0.17    0.16
   1  -2  -4    0.03    0.18
   1  -2  -4    0.08    0.20
   1  -2  -4    0.13    0.14
   1  -2  -4    0.12    0.16
  -1   2   4    0.21    0.17
  -1   2   4    0.07    0.16
  -1   2   4    0.11    0.19
  -1   2   4    0.13    0.16
  -1   2   4    0.03    0.18
  -1   2   4   -0.10    0.16
   0  -2  -4  149.20    5.41
   0  -2  -4  141.82    5.38
   0  -2  -4  154.07    5.40
   0  -2  -4  144.18    5.37
   0  -2  -4  137.32    5.36
   0   2   4  147.05    5.39
   0   2   4  145.97    5.40
   0   2   4  144.69    5.39
   0   2   4  146.48    5.37
   0   2   4  144.63    5.37
  -1  -2  -4    1.53    0.20
  -1  -2  -4    1.31    0.27
  -1  -2  -4    1.44    0.22
  -1  -2  -4    1.37    0.22
  -1  -2  -4    1.65    0.28
  -1  -2  -4    0.99    0.24
   1   2   4    1.52    0.28
   1   2   4    1.59    0.24
   1   2   4    1.55    0.22
   1   2   4    1.23    0.23
   1   2   4    1.54    0.25
   1   2   4    1.49    0.25
  -2  -2  -4  558.98   20.24
  -2  -2  -4  572.67   20.29
  -2  -2  -4  570.94   20.35
  -2  -2  -4  561.76   20.25
  -2  -2  -4  561.45   20.27
   2   2   4  557.66   20.27
   2   2   4  538.57   20.27
   2   2   4  591.37   20.29
   2   2   4  564.94   20.27
   2   2   4  554.44   20.27
   2   2   4  566.48   20.26
  -3  -2  -4    5.82    0.34
  -3  -2  -4    6.34    0.50
  -3  -2  -4    6.26    0.39
  -3  -2  -4    6.07    0.40
  -3  -2  -4    6.53    0.44
   3   2   4    7.41    0.48
   3   2   4    6.12    0.38
   3   2   4    6.16    0.39
   3   2   4    6.59    0.39
   3   2   4    6.70    0.43
   3   2   4    6.05    0.38
   3   2   4    6.24    0.42
  -4  -2  -4  362.01   13.59
  -4  -2  -4  368.17   13.47
   4   2   4  381.88   13.58
   4   2   4  364.51   13.48
   4   2   4  384.07   13.54
   4   2   4  366.46   13.36
   4   2   4  374.06   13.37
   4   2   4  366.19   13.40
  -5  -2  -4   19.49    1.16
  -5  -2  -4   19.44    1.00
   5   2   4   19.96    0.94
   5   2   4   17.87    1.10
   5   2   4   19.95    1.14
   5   2   4   18.73    1.18
   5   2   4   18.95    1.04
  -6  -2  -4  113.37    4.57
  -6  -2  -4  116.34    4.41
   6   2   4  116.47    4.36
   6   2   4  112.74    4.43
   6   2   4  109.52    4.51
   6   2   4  120.53    4.58
   6   2   4  108.95    4.59
   7   2   4   11.40    1.45
   7   2   4   11.42    1.19
   7   2   4   10.52    1.49
   7   2   4   10.67    1.31
   7   2   4   12.98    1.23
   7   2   4   11.64    0.96
   8   2   4    0.42    1.06
   8   2   4    0.08    0.67
   8   2   4    3.19    0.90
   7  -3  -4   15.50    1.56
   7  -3  -4   17.25    1.44
   7  -3  -4   14.36    1.50
  -7   3   4   15.63    1.34
  -7   3   4   14.75    1.88
   6  -3  -4   12.59    1.16
   6  -3  -4   13.85    1.07
   6  -3  -4   10.85    1.11
   6  -3  -4   10.98    1.32
  -6   3   4   12.54    1.32
  -6   3   4   12.02    1.33
  -6   3   4   11.80    0.99
   5  -3  -4  139.67    5.55
   5  -3  -4  152.61    5.53
   5  -3  -4  142.56    5.54
   5  -3  -4  131.68    5.90
   5  -3  -4  148.49    5.59
   5  -3  -4  153.98    5.52
   5  -3  -4  140.35    5.58
  -5   3   4  135.77    5.61
  -5   3   4  149.82    5.50
  -5   3   4  142.57    5.54
  -5   3   4  144.48    5.76
   4  -3  -4    9.93    1.14
   4  -3  -4   10.63    0.77
   4  -3  -4   10.21    0.74
   4  -3  -4   11.38    0.83
   4  -3  -4    9.24    0.74
   4  -3  -4    9.87    0.85
   4  -3  -4   10.81    0.79
  -4   3   4   10.07    0.83
  -4   3   4   10.00    0.71
  -4   3   4   11.01    0.63
  -4   3   4    9.98    0.77
  -4   3   4   10.71    0.72
  -4   3   4   10.90    0.94
   3  -3  -4  441.32   16.48
   3  -3  -4  448.67   16.50
   3  -3  -4  446.95   16.45
   3  -3  -4  481.76   16.49
   3  -3  -4  450.52   16.51
  -3   3   4  455.70   16.46
  -3   3   4  428.62   16.47
  -3   3   4  448.32   16.44
  -3   3   4  464.02   16.48
  -3   3   4  454.01   16.39
  -3   3   4  466.31   16.51
  -3   3   4  453.53   16.63
   2  -3  -4    0.20    0.25
   2  -3  -4    0.00    0.18
   2  -3  -4    0.07    0.19
   2  -3  -4   -0.20    0.20
   2  -3  -4   -0.05    0.22
  -2   3   4    0.45    0.22
  -2   3   4    0.00    0.27
  -2   3   4   -0.14    0.20
  -2   3   4    0.25    0.20
  -2   3   4    0.14    0.17
  -2   3   4   -0.22    0.18
  -2   3   4    0.01    0.24
   1  -3  -4  518.29   19.34
   1  -3  -4  521.92   19.36
   1  -3  -4  512.36   19.35
   1  -3  -4  533.20   19.39
   1  -3  -4  562.80   19.38
  -1   3   4  551.35   19.37
  -1   3   4  540.72   19.37
  -1   3   4  531.95   19.36
  -1   3   4  536.52   19.29
  -1   3   4  551.77   19.34
  -1   3   4  541.33   19.39
  -1   3   4  526.73   19.42
   0  -3  -4   12.87    0.70
   0  -3  -4   13.06    0.57
   0  -3  -4   12.60    0.66
   0  -3  -4   12.53    0.66
   0  -3  -4   13.86    0.72
   0   3   4   13.76    0.72
   0   3   4   13.02    0.67
   0   3   4   13.61    0.68
   0   3   4   12.84    0.69
   0   3   4   13.44    0.71
  -1  -3  -4  149.15    5.60
  -1  -3  -4  154.38    5.63
  -1  -3  -4  144.67    5.66
  -1  -3  -4  148.04    5.64
  -1  -3  -4  146.46    5.67
  -1  -3  -4  158.85    5.69
   1   3   4  156.99    5.64
   1   3   4  155.18    5.60
   1   3   4  149.40    5.66
   1   3   4  148.54    5.67
   1   3   4  158.34    5.67
   1   3   4  169.46    5.70
  -2  -3  -4   24.50    1.05
  -2  -3  -4   23.93    1.08
  -2  -3  -4   25.78    1.09
  -2  -3  -4   25.25    1.11
  -2  -3  -4   24.67    1.07
   2   3   4   24.50    1.09
   2   3   4   26.84    1.10
   2   3   4   26.51    1.09
   2   3   4   25.24    1.08
   2   3   4   26.07    1.12
  -3  -3  -4   -0.03    0.15
  -3  -3  -4    1.16    0.32
  -3  -3  -4    0.25    0.15
  -3  -3  -4    0.26    0.12
  -3  -3  -4    0.12    0.16
  -3  -3  -4    0.29    0.17
   3   3   4    0.07    0.18
   3   3   4    0.00    0.15
   3   3   4    0.05    0.21
   3   3   4    0.56    0.17
  -4  -3  -4   44.20    1.83
  -4  -3  -4   43.66    1.91
  -4  -3  -4   45.64    1.74
  -4  -3  -4   45.87    1.77
   4   3   4   45.84    1.91
   4   3   4   43.44    1.74
   4   3   4   45.03    1.78
   4   3   4   45.22    1.86
   4   3   4   42.91    1.72
   4   3   4   41.55    1.75
   4   3   4   45.18    1.76
  -5  -3  -4    0.75    0.36
  -5  -3  -4    1.00    0.33
   5   3   4    2.00    0.39
   5   3   4    1.24    0.45
   5   3   4    1.79    0.41
   5   3   4    1.12    0.26
   5   3   4    1.88    0.35
  -6  -3  -4   38.17    1.87
  -6  -3  -4   36.11    1.71
   6   3   4   38.09    1.97
   6   3   4   38.01    1.89
   6   3   4   36.09    1.88
   6   3   4   37.17    1.78
   6   3   4   38.16    1.63
  -7  -3  -4    3.46    0.77
   7   3   4    2.48    0.79
   7   3   4    2.63    0.75
   7   3   4    2.38    0.98
   7   3   4    3.09    0.53
   8   3   4   19.47    1.76
   8   3   4   18.95    1.48
   8   3   4   19.40    1.99
   6  -4  -4   97.46    4.36
   6  -4  -4  106.71    4.42
   6  -4  -4  112.56    4.32
   6  -4  -4  111.30    4.37
  -6   4   4  106.22    4.62
  -6   4   4  110.27    4.27
   5  -4  -4   -0.10    0.50
   5  -4  -4    0.03    0.40
   5  -4  -4   -0.11    0.45
   5  -4  -4    0.61    0.42
   5  -4  -4   -0.18    0.40
   5  -4  -4    0.13    0.49
  -5   4   4    0.86    0.61
  -5   4   4    0.05    0.41
  -5   4   4    0.19    0.54
  -5   4   4   -0.13    0.35
   4  -4  -4   11.60    0.86
   4  -4  -4   10.73    0.83
   4  -4  -4   12.25    0.93
   4  -4  -4   12.31    0.81
  -4   4   4   11.46    0.86
  -4   4   4   10.72    0.76
  -4   4   4   10.72    0.82
  -4   4   4   10.64    1.01
  -4   4   4   12.35    0.70
   3  -4  -4    4.17    0.55
   3  -4  -4    5.12    0.53
   3  -4  -4    5.13    0.52
   3  -4  -4    4.84    0.57
   3  -4  -4    4.68    0.62
  -3   4   4    5.00    0.63
  -3   4   4    4.39    0.57
  -3   4   4    4.64    0.45
  -3   4   4    4.96    0.51
  -3   4   4    4.10    0.55
  -3   4   4    4.88    0.49
  -3   4   4    4.56    0.70
  -3   4   4    5.55    0.60
   2  -4  -4    7.21    0.57
   2  -4  -4    8.13    0.64
   2  -4  -4    6.55    0.52
   2  -4  -4    6.82    0.63
   2  -4  -4    7.61    0.51
  -2   4   4    6.94    0.61
  -2   4   4    7.45    0.50
  -2   4   4    6.93    0.59
  -2   4   4    8.08    0.55
  -2   4   4    7.08    0.60
  -2   4   4    6.33    0.66
  -2   4   4    6.82    0.61
   1  -4  -4   10.94    0.63
   1  -4  -4    9.70    0.65
   1  -4  -4    9.69    0.61
   1  -4  -4    9.56    0.54
   1  -4  -4   10.11    0.68
  -1   4   4    9.66    0.62
  -1   4   4   10.57    0.61
  -1   4   4   10.36    0.71
  -1   4   4   10.26    0.66
  -1   4   4   10.44    0.66
  -1   4   4   10.46    0.67
   0  -4  -4    0.40    0.20
   0  -4  -4    0.65    0.21
   0  -4  -4    0.48    0.18
   0  -4  -4    0.35    0.21
   0  -4  -4    0.41    0.12
   0  -4  -4    0.55    0.15
   0   4   4    0.55    0.23
   0   4   4    0.31    0.20
   0   4   4    0.47    0.22
   0   4   4    0.43    0.20
   0   4   4    0.53    0.21
   0   4   4    0.36    0.20
  -1  -4  -4   14.08    0.69
  -1  -4  -4   15.37    0.77
  -1  -4  -4   14.41    0.75
  -1  -4  -4   14.41    0.67
  -1  -4  -4   13.70    0.72
  -1  -4  -4   14.49    0.79
   1   4   4   14.74    0.76
   1   4   4   14.48    0.77
   1   4   4   13.98    0.74
   1   4   4   14.35    0.78
   1   4   4   14.69    0.76
   1   4   4   14.47    0.71
  -2  -4  -4    0.85    0.22
  -2  -4  -4    0.34    0.17
  -2  -4  -4    0.50    0.21
  -2  -4  -4    0.21    0.19
  -2  -4  -4    0.54    0.18
  -2  -4  -4    0.40    0.18
   2   4   4    0.28    0.23
   2   4   4    0.47    0.21
   2   4   4    0.31    0.21
   2   4   4    0.46    0.18
   2   4   4    0.40    0.19
   2   4   4    0.61    0.19
  -3  -4  -4   11.91    0.65
  -3  -4  -4   11.43    0.59
  -3  -4  -4   11.66    0.65
  -3  -4  -4   11.98    0.70
  -3  -4  -4   11.62    0.67
   3   4   4   12.01    0.67
   3   4   4   10.94    0.68
   3   4   4   12.05    0.69
   3   4   4   11.59    0.64
   3   4   4   11.38    0.67
  -4  -4  -4   56.03    2.26
  -4  -4  -4   55.74    2.29
  -4  -4  -4   57.34    2.37
  -4  -4  -4   54.23    2.22
   4   4   4   57.84    2.37
   4   4   4   57.34    2.27
   4   4   4   55.40    2.25
   4   4   4   58.86    2.32
   4   4   4   59.63    2.26
   4   4   4   56.04    2.23
  -5  -4  -4   24.92    1.21
  -5  -4  -4   23.31    1.30
  -5  -4  -4   24.71    1.07
   5   4   4   24.31    1.16
   5   4   4   24.46    1.14
   5   4   4   23.82    1.08
   5   4   4   24.02    1.12
   5   4   4   23.57    1.05
   5   4   4   24.32    1.26
  -6  -4  -4  242.51    8.93
  -6  -4  -4  238.92    9.06
   6   4   4  235.53    8.79
   6   4   4  240.10    8.79
   6   4   4  234.07    8.95
   6   4   4  254.64    9.14
   6   4   4  234.56    8.80
  -7  -4  -4   24.00    1.39
   7   4   4   23.84    1.28
   7   4   4   23.31    1.17
   7   4   4   22.67    1.24
   7   4   4   19.69    1.96
  -8  -4  -4  198.06    7.54
   8   4   4  198.25    7.57
   8   4   4  192.63    7.44
   6  -5  -4    6.31    1.17
   6  -5  -4    5.18    1.08
   6  -5  -4    6.40    1.08
  -6   5   4    5.22    1.29
  -6   5   4    5.73    0.86
   5  -5  -4    9.84    0.92
   5  -5  -4    8.69    0.89
   5  -5  -4   11.80    1.04
   5  -5  -4   10.07    1.15
   5  -5  -4    9.72    0.96
  -5   5   4    8.95    0.82
  -5   5   4   10.37    1.30
  -5   5   4    9.90    1.02
   4  -5  -4    0.34    0.32
   4  -5  -4    0.60    0.37
   4  -5  -4    0.65    0.46
   4  -5  -4    0.68    0.41
   4  -5  -4    0.83    0.37
  -4   5   4    0.72    0.42
  -4   5   4    1.04    0.31
  -4   5   4    0.22    0.40
  -4   5   4   -0.04    0.76
  -4   5   4    0.75    0.53
  -4   5   4    1.09    0.35
  -4   5   4    0.59    0.34
   3  -5  -4   13.19    0.87
   3  -5  -4   11.91    0.93
   3  -5  -4   12.99    0.82
   3  -5  -4   12.12    0.88
   3  -5  -4   12.47    0.82
  -3   5   4   12.72    0.88
  -3   5   4   14.09    0.79
  -3   5   4   13.85    0.89
  -3   5   4   12.61    0.88
  -3   5   4   14.62    1.08
  -3   5   4   12.16    0.78
  -3   5   4   12.80    0.80
   2  -5  -4    2.22    0.48
   2  -5  -4    2.53    0.56
   2  -5  -4    2.82    0.52
   2  -5  -4    3.28    0.53
   2  -5  -4    3.06    0.42
   2  -5  -4    3.08    0.45
  -2   5   4    2.69    0.46
  -2   5   4    3.88    0.66
  -2   5   4    2.40    0.54
  -2   5   4    2.29    0.53
  -2   5   4    3.73    0.54
  -2   5   4    2.14    0.47
  -2   5   4    3.17    0.54
   1  -5  -4   99.94    3.92
   1  -5  -4  101.98    3.79
   1  -5  -4  100.37    3.91
   1  -5  -4   99.68    3.89
   1  -5  -4   98.23    3.88
   1  -5  -4  106.82    3.95
  -1   5   4  105.98    3.93
  -1   5   4  100.51    3.89
  -1   5   4   99.24    4.01
  -1   5   4  101.84    3.85
  -1   5   4  101.30    3.93
  -1   5   4  100.59    3.87
  -1   5   4   94.76    3.90
   0  -5  -4    1.00    0.26
   0  -5  -4    1.45    0.42
   0  -5  -4    1.18    0.24
   0  -5  -4    0.69    0.26
   0  -5  -4    1.14    0.27
   0  -5  -4    1.05    0.25
   0  -5  -4    1.26    0.33
   0   5   4    1.10    0.29
   0   5   4    1.02    0.28
   0   5   4    1.10    0.26
   0   5   4    1.31    0.30
   0   5   4    0.61    0.25
   0   5   4    1.19    0.27
  -1  -5  -4  291.16   10.82
  -1  -5  -4  314.25   10.88
  -1  -5  -4  290.32   10.74
  -1  -5  -4  301.34   10.77
  -1  -5  -4  294.82   10.85
  -1  -5  -4  271.79   10.84
   1   5   4  310.10   10.78
   1   5   4  299.56   10.86
   1   5   4  300.55   10.84
   1   5   4  306.31   10.83
   1   5   4  286.67   10.84
   1   5   4  288.03   10.86
  -2  -5  -4    0.67    0.24
  -2  -5  -4    1.42    0.32
  -2  -5  -4    1.32    0.31
  -2  -5  -4    0.84    0.27
  -2  -5  -4    0.93    0.22
  -2  -5  -4    1.82    0.34
   2   5   4    1.16    0.28
   2   5   4    1.15    0.28
   2   5   4    1.29    0.29
   2   5   4    1.07    0.28
   2   5   4    1.14    0.29
   2   5   4    1.15    0.31
  -3  -5  -4  281.49   10.40
  -3  -5  -4  294.83   10.42
  -3  -5  -4  281.24   10.40
  -3  -5  -4  296.14   10.45
  -3  -5  -4  285.83   10.45
  -3  -5  -4  273.37   10.34
   3   5   4  273.57   10.40
   3   5   4  288.67   10.43
   3   5   4  278.82   10.42
   3   5   4  295.33   10.45
   3   5   4  281.07   10.43
  -4  -5  -4    2.20    0.55
  -4  -5  -4    2.51    0.35
  -4  -5  -4    3.06    0.50
  -4  -5  -4    3.36    0.47
  -4  -5  -4    2.74    0.52
   4   5   4    2.77    0.51
   4   5   4    3.18    0.55
   4   5   4    3.04    0.62
   4   5   4    4.51    0.63
   4   5   4    3.19    0.45
   4   5   4    2.62    0.49
  -5  -5  -4   49.17    2.17
  -5  -5  -4   45.29    2.06
  -5  -5  -4   47.12    1.98
  -5  -5  -4   48.33    2.08
   5   5   4   51.74    2.09
   5   5   4   47.17    2.20
   5   5   4   50.68    2.00
   5   5   4   50.68    2.05
   5   5   4   45.87    2.02
  -6  -5  -4   11.13    1.07
  -6  -5  -4   12.03    0.94
   6   5   4   13.17    0.79
   6   5   4   12.13    0.76
   6   5   4   13.41    0.90
   6   5   4   12.41    0.94
   6   5   4   13.14    0.98
  -7  -5  -4    2.38    0.66
  -7  -5  -4    3.57    0.99
   7   5   4    1.37    0.60
   7   5   4    1.86    0.69
   7   5   4    1.25    0.51
   7   5   4    1.79    0.49
  -8  -5  -4   19.86    1.60
   8   5   4   21.62    1.38
   6  -6  -4   15.95    1.40
   6  -6  -4   16.11    1.50
  -6   6   4   16.68    1.16
  -6   6   4   14.14    2.01
   5  -6  -4    1.89    0.71
   5  -6  -4    3.22    0.85
   5  -6  -4    2.56    0.59
  -5   6   4    2.46    0.59
  -5   6   4    2.72    0.69
  -5   6   4    1.79    0.84
   4  -6  -4   64.76    2.82
   4  -6  -4   60.56    2.75
   4  -6  -4   63.66    2.72
   4  -6  -4   62.44    2.75
   4  -6  -4   66.63    2.77
   4  -6  -4   62.78    2.79
  -4   6   4   64.43    3.02
  -4   6   4   66.03    2.59
  -4   6   4   62.25    2.64
  -4   6   4   64.88    2.76
  -4   6   4   62.54    2.67
  -4   6   4   65.86    2.59
   3  -6  -4    4.61    0.62
   3  -6  -4    5.06    0.70
   3  -6  -4    4.11    0.78
   3  -6  -4    4.22    0.62
   3  -6  -4    5.44    0.70
   3  -6  -4    4.80    0.70
  -3   6   4    4.11    0.74
  -3   6   4    5.97    0.58
  -3   6   4    4.16    0.74
  -3   6   4    3.82    0.66
  -3   6   4    6.18    0.76
  -3   6   4    4.20    0.59
  -3   6   4    5.33    0.76
   2  -6  -4   26.55    1.33
   2  -6  -4   25.83    1.37
   2  -6  -4   25.57    1.29
   2  -6  -4   24.18    1.20
   2  -6  -4   24.71    1.32
   2  -6  -4   25.70    1.32
  -2   6   4   25.64    1.37
  -2   6   4   26.71    1.35
  -2   6   4   26.14    1.27
  -2   6   4   26.11    1.36
  -2   6   4   25.36    1.48
  -2   6   4   25.58    1.33
  -2   6   4   26.11    1.27
   1  -6  -4    0.49    0.22
   1  -6  -4    0.68    0.31
   1  -6  -4    0.51    0.26
   1  -6  -4    0.34    0.29
   1  -6  -4   -0.11    0.29
   1  -6  -4    0.40    0.33
  -1   6   4    0.03    0.32
  -1   6   4    0.77    0.33
  -1   6   4    0.72    0.30
  -1   6   4    0.51    0.30
  -1   6   4    0.32    0.32
  -1   6   4    0.21    0.29
   0  -6  -4    1.26    0.31
   0  -6  -4    0.27    0.29
   0  -6  -4    1.35    0.35
   0  -6  -4    1.11    0.29
   0  -6  -4    0.38    0.23
   0  -6  -4    0.25    0.28
   0  -6  -4    1.12    0.31
   0   6   4    1.45    0.34
   0   6   4    0.28    0.30
   0   6   4    0.33    0.29
   0   6   4    0.82    0.32
   0   6   4    0.74    0.30
   0   6   4    0.23    0.29
  -1  -6  -4    6.69    0.57
  -1  -6  -4    5.53    0.64
  -1  -6  -4    6.02    0.51
  -1  -6  -4    7.39    0.63
  -1  -6  -4    6.42    0.64
  -1  -6  -4    6.64    0.49
   1   6   4    6.23    0.60
   1   6   4    6.26    0.61
   1   6   4    7.49    0.64
   1   6   4    6.34    0.55
   1   6   4    7.01    0.65
   1   6   4    6.87    0.65
  -2  -6  -4    1.02    0.30
  -2  -6  -4    2.06    0.51
  -2  -6  -4    0.75    0.27
  -2  -6  -4    1.86    0.50
  -2  -6  -4    1.04    0.35
   2   6   4    1.90    0.48
   2   6   4    1.67    0.48
   2   6   4    1.25    0.37
   2   6   4    1.66    0.36
   2   6   4    1.18    0.37
  -3  -6  -4   16.60    0.89
  -3  -6  -4   16.62    0.98
  -3  -6  -4   16.28    0.95
  -3  -6  -4   16.05    0.95
  -3  -6  -4   15.47    0.84
   3   6   4   16.70    0.99
   3   6   4   15.05    0.93
   3   6   4   15.81    0.96
   3   6   4   16.50    0.97
   3   6   4   15.43    0.94
   3   6   4   15.51    0.91
  -4  -6  -4   49.74    2.01
  -4  -6  -4   48.44    2.08
  -4  -6  -4   52.92    2.15
  -4  -6  -4   51.25    2.16
  -4  -6  -4   49.75    2.14
   4   6   4   51.06    2.15
   4   6   4   51.19    2.17
   4   6   4   51.99    2.20
   4   6   4   49.18    2.21
   4   6   4   51.30    2.18
   4   6   4   50.74    2.14
  -5  -6  -4   12.58    0.88
  -5  -6  -4   11.66    0.85
  -5  -6  -4   11.64    0.93
   5   6   4   11.72    1.01
   5   6   4   10.64    0.89
   5   6   4   11.25    0.82
   5   6   4   12.20    0.98
   5   6   4   13.36    0.94
  -6  -6  -4   38.86    1.92
  -6  -6  -4   38.27    1.69
  -6  -6  -4   35.92    1.82
   6   6   4   38.94    1.70
   6   6   4   35.74    1.86
   6   6   4   34.52    1.86
   6   6   4   38.42    1.79
   6   6   4   35.01    1.81
  -7  -6  -4    7.31    1.14
  -7  -6  -4    9.21    1.16
   7   6   4    6.85    1.34
   7   6   4    6.44    0.84
   7   6   4    7.56    1.26
   7   6   4    5.15    1.00
  -8  -6  -4    0.49    0.90
   8   6   4    0.49    0.71
   5  -7  -4   38.68    2.15
   5  -7  -4   37.73    2.05
   5  -7  -4   40.49    2.04
  -5   7   4   37.93    2.40
   4  -7  -4   13.44    1.22
   4  -7  -4   13.85    1.08
   4  -7  -4   12.97    1.21
   4  -7  -4   14.15    1.17
   4  -7  -4   15.24    1.24
  -4   7   4   16.05    1.52
  -4   7   4   12.97    1.10
  -4   7   4   15.05    1.03
  -4   7   4   14.11    1.18
   3  -7  -4  108.15    4.47
   3  -7  -4  117.63    4.50
   3  -7  -4   97.78    4.32
   3  -7  -4  114.18    4.45
   3  -7  -4  108.42    4.43
   3  -7  -4  117.54    4.42
  -3   7   4  108.67    4.42
  -3   7   4  107.60    4.43
  -3   7   4  108.12    4.46
  -3   7   4  117.25    4.32
  -3   7   4  109.94    4.40
  -3   7   4  115.87    4.68
  -3   7   4  110.05    4.35
   2  -7  -4   13.39    0.96
   2  -7  -4   11.98    0.96
   2  -7  -4   13.47    0.93
   2  -7  -4   11.81    0.99
   2  -7  -4   11.94    1.06
   2  -7  -4   12.38    0.85
  -2   7   4   12.34    1.04
  -2   7   4   12.64    1.01
  -2   7   4   12.71    0.96
  -2   7   4   12.31    1.17
  -2   7   4   12.06    0.99
  -2   7   4   12.10    0.88
  -2   7   4   13.79    1.02
   1  -7  -4  261.42    9.66
   1  -7  -4  262.60    9.71
   1  -7  -4  257.43    9.47
   1  -7  -4  251.48    9.70
   1  -7  -4  257.61    9.67
   1  -7  -4  269.09    9.56
  -1   7   4  261.82    9.72
  -1   7   4  263.51    9.71
  -1   7   4  260.58    9.64
  -1   7   4  261.80    9.65
  -1   7   4  258.27    9.69
  -1   7   4  257.34    9.63
   0  -7  -4    0.43    0.32
   0  -7  -4    0.57    0.23
   0  -7  -4    1.16    0.40
   0  -7  -4    0.20    0.32
   0  -7  -4    0.39    0.36
   0  -7  -4    0.59    0.26
   0  -7  -4    0.27    0.34
   0   7   4    0.60    0.36
   0   7   4    0.45    0.39
   0   7   4    0.86    0.39
   0   7   4    0.70    0.36
   0   7   4    0.66    0.33
   0   7   4   -0.08    0.35
  -1  -7  -4   84.66    3.32
  -1  -7  -4   82.79    3.40
  -1  -7  -4   85.99    3.31
  -1  -7  -4   83.70    3.45
  -1  -7  -4   87.64    3.46
  -1  -7  -4   89.71    3.49
   1   7   4   81.58    3.46
   1   7   4   87.48    3.47
   1   7   4   90.52    3.48
   1   7   4   83.11    3.45
  -2  -7  -4    2.07    0.48
  -2  -7  -4    2.37    0.48
  -2  -7  -4    2.54    0.49
  -2  -7  -4    2.50    0.70
  -2  -7  -4    2.92    0.53
   2   7   4    2.41    0.62
   2   7   4    3.30    0.67
   2   7   4    3.61    0.64
   2   7   4    2.88    0.59
   2   7   4    3.83    0.71
  -3  -7  -4    4.60    0.57
  -3  -7  -4    3.65    0.74
  -3  -7  -4    4.82    0.70
  -3  -7  -4    4.32    0.58
  -3  -7  -4    5.67    0.81
   3   7   4    4.49    0.69
   3   7   4    3.76    0.76
   3   7   4    4.36    0.72
   3   7   4    4.49    0.76
   3   7   4    4.15    0.66
   3   7   4    4.29    0.71
  -4  -7  -4    5.34    0.80
  -4  -7  -4    5.11    0.67
  -4  -7  -4    4.96    0.67
  -4  -7  -4    4.23    0.75
  -4  -7  -4    4.66    0.57
   4   7   4    4.52    0.83
   4   7   4    4.84    0.83
   4   7   4    4.42    0.87
   4   7   4    4.04    0.76
   4   7   4    5.17    0.73
   4   7   4    3.78    0.86
  -5  -7  -4   56.81    3.19
  -5  -7  -4   66.57    2.78
  -5  -7  -4   67.15    2.77
   5   7   4   65.19    2.78
   5   7   4   66.86    2.72
   5   7   4   63.82    2.89
   5   7   4   63.25    2.81
   5   7   4   70.27    2.88
   5   7   4   63.72    2.77
  -6  -7  -4    9.04    1.04
  -6  -7  -4   10.79    1.14
  -6  -7  -4    9.72    1.05
   6   7   4    8.04    0.92
   6   7   4    8.61    1.05
   6   7   4    7.10    1.21
   6   7   4    7.96    1.32
   6   7   4    9.53    1.35
  -7  -7  -4   19.44    1.50
  -7  -7  -4   20.18    1.54
   7   7   4   17.50    1.44
   7   7   4   18.08    1.82
   7   7   4   16.97    1.74
   7   7   4   17.43    1.27
   4  -8  -4   38.48    2.12
   4  -8  -4   38.87    2.00
   4  -8  -4   36.46    2.07
  -4   8   4   36.66    2.38
  -4   8   4   34.40    2.06
  -4   8   4   37.46    1.93
  -4   8   4   41.39    1.86
   3  -8  -4    0.23    0.49
   3  -8  -4    2.05    0.70
   3  -8  -4    0.89    0.60
   3  -8  -4    1.12    0.54
  -3   8   4    1.27    0.58
  -3   8   4    0.99    0.61
  -3   8   4    0.99    0.56
  -3   8   4    1.70    0.84
   2  -8  -4    2.05    0.52
   2  -8  -4    3.59    0.77
   2  -8  -4    2.82    0.78
   2  -8  -4    2.25    0.58
   2  -8  -4    1.05    0.58
   2  -8  -4    2.62    0.55
  -2   8   4    1.72    0.65
  -2   8   4    2.33    0.57
  -2   8   4    5.11    1.00
  -2   8   4    3.13    0.63
  -2   8   4    2.51    0.72
   1  -8  -4    5.26    0.58
   1  -8  -4    4.15    0.75
   1  -8  -4    5.19    0.86
   1  -8  -4    5.13    0.91
   1  -8  -4    5.10    0.67
   1  -8  -4    4.78    0.77
  -1   8   4    4.48    0.90
  -1   8   4    5.63    0.92
  -1   8   4    4.47    0.87
  -1   8   4    4.67    0.86
   0  -8  -4    2.31    0.64
   0  -8  -4    3.59    0.77
   0  -8  -4    2.08    0.54
   0  -8  -4    2.78    0.52
   0  -8  -4    2.32    0.63
   0   8   4    1.71    0.52
   0   8   4    3.65    0.83
   0   8   4    4.27    0.82
   0   8   4    2.91    0.60
  -1  -8  -4   27.30    1.29
  -1  -8  -4   28.01    1.52
  -1  -8  -4   26.88    1.50
  -1  -8  -4   27.23    1.42
  -1  -8  -4   28.37    1.33
   1   8   4   26.74    1.35
   1   8   4   26.35    1.54
   1   8   4   27.29    1.51
   1   8   4   26.17    1.46
  -2  -8  -4    0.24    0.35
  -2  -8  -4    0.02    0.47
  -2  -8  -4    0.18    0.34
  -2  -8  -4    0.56    0.43
  -2  -8  -4    0.25    0.46
   2   8   4   -0.06    0.42
   2   8   4   -0.07    0.47
   2   8   4    0.59    0.42
   2   8   4    0.16    0.44
   2   8   4    0.38    0.43
  -3  -8  -4    6.13    0.75
  -3  -8  -4    6.99    1.03
  -3  -8  -4    6.54    0.71
  -3  -8  -4    6.02    0.99
  -3  -8  -4    6.37    0.88
   3   8   4    6.51    0.92
   3   8   4    7.17    0.97
   3   8   4    6.03    0.87
   3   8   4    7.38    0.89
   3   8   4    6.48    0.95
   3   8   4    6.90    0.84
  -4  -8  -4   21.04    1.45
  -4  -8  -4   24.04    1.40
  -4  -8  -4   24.91    1.23
  -4  -8  -4   24.45    1.33
  -4  -8  -4   25.05    1.36
  -4  -8  -4   19.71    1.52
   4   8   4   24.21    1.44
   4   8   4   24.54    1.39
   4   8   4   23.90    1.50
   4   8   4   21.97    1.53
   4   8   4   24.88    1.53
  -5  -8  -4    1.76    0.53
  -5  -8  -4    1.09    0.57
  -5  -8  -4    0.99    0.39
  -5  -8  -4    1.18    0.58
   5   8   4    0.28    0.66
   5   8   4    1.18    0.74
   5   8   4   -0.16    0.50
   5   8   4    0.80    0.73
   5   8   4    0.71    0.52
  -6  -8  -4   31.21    1.87
  -6  -8  -4   34.03    1.88
   6   8   4   32.47    1.94
   6   8   4   36.62    1.81
   7   8   4    1.22    0.80
   4  -9  -4    0.75    0.71
   4  -9  -4    1.53    0.90
   4  -9  -4    0.99    0.79
  -4   9   4    1.78    0.73
  -4   9   4    1.03    1.34
   3  -9  -4   12.95    1.36
   3  -9  -4   11.01    1.26
   3  -9  -4   11.19    1.37
   3  -9  -4   14.93    1.40
  -3   9   4   11.65    1.26
  -3   9   4   12.21    1.45
  -3   9   4   14.32    1.34
  -3   9   4   10.66    1.69
   2  -9  -4    2.13    0.74
   2  -9  -4    2.05    0.73
   2  -9  -4    2.17    0.60
   2  -9  -4    1.27    0.58
   2  -9  -4    3.39    0.78
  -2   9   4    1.49    0.65
  -2   9   4    2.27    0.69
  -2   9   4    3.06    0.86
  -2   9   4    2.37    0.73
   1  -9  -4   41.00    1.77
   1  -9  -4   42.21    1.90
   1  -9  -4   43.21    2.02
   1  -9  -4   44.38    2.14
   1  -9  -4   43.42    2.17
   1  -9  -4   37.49    1.98
  -1   9   4   40.66    2.10
  -1   9   4   37.25    2.11
  -1   9   4   38.85    2.13
  -1   9   4   37.77    2.05
  -1   9   4   39.19    2.20
   0  -9  -4    3.37    0.79
   0  -9  -4    4.07    0.79
   0  -9  -4    4.41    0.74
   0  -9  -4    5.84    1.02
   0  -9  -4    4.09    0.68
   0   9   4    4.78    1.15
   0   9   4    3.81    1.02
   0   9   4    2.10    0.65
   0   9   4    2.97    0.66
   0   9   4    3.53    0.98
  -1  -9  -4  239.32    8.60
  -1  -9  -4  224.46    8.70
  -1  -9  -4  238.17    8.81
  -1  -9  -4  234.27    8.79
  -1  -9  -4  231.02    8.59
  -1  -9  -4  208.64    8.76
   1   9   4  231.28    8.54
   1   9   4  244.47    8.86
   1   9   4  234.49    8.80
   1   9   4  225.36    8.77
  -2  -9  -4    1.00    0.49
  -2  -9  -4    2.21    0.67
  -2  -9  -4    1.07    0.58
  -2  -9  -4    1.51    0.68
  -2  -9  -4    1.42    0.49
   2   9   4    1.36    0.61
   2   9   4    1.75    0.60
   2   9   4    0.90    0.52
   2   9   4    0.50    0.69
   2   9   4    1.12    0.81
   2   9   4    1.92    0.57
  -3  -9  -4  282.42   10.51
  -3  -9  -4  276.40   10.61
  -3  -9  -4  292.51   10.52
   3   9   4  296.77   10.71
   3   9   4  280.70   10.61
   3   9   4  268.76   10.63
  -4  -9  -4    4.24    0.89
  -4  -9  -4    5.95    0.96
  -4  -9  -4    2.95    0.78
  -4  -9  -4    3.55    0.82
  -4  -9  -4    3.90    1.05
   4   9   4    3.87    0.98
   4   9   4    4.01    0.91
   4   9   4    5.48    1.22
   4   9   4    2.95    0.74
  -5  -9  -4   96.19    3.95
  -5  -9  -4   94.71    3.95
  -5  -9  -4   98.29    4.01
  -5  -9  -4   97.55    3.77
   5   9   4   98.78    4.16
   5   9   4   93.52    4.00
  -6  -9  -4    6.92    1.49
  -6  -9  -4    9.57    1.35
   6   9   4    7.06    1.25
   6   9   4    8.41    1.49
   3 -10  -4   13.47    1.55
   3 -10  -4   15.43    1.68
   3 -10  -4   16.58    1.72
  -3  10   4   14.25    1.63
   2 -10  -4  153.47    5.92
   2 -10  -4  149.78    5.90
   2 -10  -4  146.47    5.96
  -2  10   4  142.70    5.96
  -2  10   4  146.20    5.95
  -2  10   4  140.29    6.12
   1 -10  -4    0.69    0.82
   1 -10  -4   -0.75    0.46
   1 -10  -4   -0.15    0.67
   1 -10  -4    0.46    0.61
   1 -10  -4    0.82    0.72
  -1  10   4    0.86    0.80
  -1  10   4   -0.31    0.73
   0 -10  -4   51.24    2.33
   0 -10  -4   54.10    2.72
   0 -10  -4   47.62    2.52
   0 -10  -4   51.45    2.22
   0 -10  -4   49.88    2.43
   0  10   4   50.84    2.68
   0  10   4   48.91    2.59
   0  10   4   47.74    2.60
  -1 -10  -4    3.84    0.94
  -1 -10  -4    4.55    0.91
  -1 -10  -4    4.33    0.84
  -1 -10  -4    3.63    1.02
  -1 -10  -4    4.80    0.85
   1  10   4    6.22    1.38
   1  10   4    4.07    0.89
   1  10   4    4.72    1.31
   1  10   4    5.62    1.15
  -2 -10  -4    5.81    0.94
  -2 -10  -4    6.32    1.03
  -2 -10  -4    6.25    1.27
   2  10   4    6.93    1.01
   2  10   4    8.47    1.47
   2  10   4    8.09    1.23
   2  10   4    8.35    1.31
  -3 -10  -4   33.71    1.81
  -3 -10  -4   33.96    1.82
  -3 -10  -4   37.63    2.06
   3  10   4   31.03    2.23
   3  10   4   32.54    2.09
   3  10   4   34.79    2.00
  -4 -10  -4    2.42    0.66
  -4 -10  -4    1.08    0.73
  -4 -10  -4    0.97    0.94
  -4 -10  -4    2.22    0.67
   4  10   4    1.13    0.69
   4  10   4   -0.37    0.80
  -5 -10  -4   35.45    1.96
  -5 -10  -4   34.07    1.76
  -5 -10  -4   32.37    2.03
   5  10   4   35.66    2.29
   5  10   4   30.23    2.04
   1 -11  -4    1.76    0.87
   1 -11  -4    2.49    1.03
   1 -11  -4    2.14    0.96
   1 -11  -4    1.42    0.69
  -1  11   4    2.11    1.09
  -1  11   4    2.70    1.03
   0 -11  -4    9.31    1.68
   0 -11  -4   11.61    1.36
   0 -11  -4   13.62    2.08
   0 -11  -4   10.39    1.15
   0 -11  -4    6.88    1.37
   0  11   4    9.65    1.77
   0  11   4    9.74    1.76
  -1 -11  -4   -0.13    0.64
  -1 -11  -4   -0.01    0.69
  -1 -11  -4    1.11    0.76
  -1 -11  -4   -0.21    0.88
   1  11   4   -0.18    0.94
   1  11   4    1.68    0.92
   1  11   4   -1.50    0.99
  -2 -11  -4    0.05    0.75
  -2 -11  -4    0.87    0.92
  -2 -11  -4   -0.31    0.70
   2  11   4   -0.35    0.82
   2  11   4   -1.58    0.92
  -3 -11  -4   10.05    1.30
   3  11   4    5.55    1.66
   3  11   4    4.89    1.20
   3  11   4    7.51    1.58
   2  10  -5    0.61    1.20
   2  10  -5    0.80    1.04
   2  10  -5    3.54    0.89
  -2 -10   5    2.07    1.21
  -2 -10   5    2.20    1.01
  -2 -10   5    1.91    0.84
   1  10  -5   24.20    2.08
   1  10  -5   26.40    1.80
  -1 -10   5   29.33    2.40
  -1 -10   5   25.45    2.02
  -1 -10   5   26.18    2.00
  -1 -10   5   28.66    1.90
   0  10  -5    1.51    0.90
   0  10  -5    1.70    1.10
   0  10  -5    0.33    0.74
   0 -10   5    0.78    1.21
   0 -10   5    0.79    0.99
   0 -10   5    0.94    0.93
   0 -10   5    0.53    0.86
   0 -10   5    1.28    0.83
  -1  10  -5   10.12    1.63
  -1  10  -5    7.92    1.96
  -1  10  -5    7.61    1.38
   1 -10   5    9.72    1.76
   1 -10   5   10.68    1.55
   1 -10   5    8.29    1.93
   1 -10   5   12.06    1.66
  -2  10  -5   -1.84    0.95
  -2  10  -5    0.60    0.86
  -2  10  -5   -0.25    0.79
   2 -10   5   -0.18    0.95
   2 -10   5   -0.31    1.06
   2 -10   5   -0.82    0.89
   2 -10   5    0.07    0.89
  -3  10  -5    0.31    0.81
  -3  10  -5   -1.25    2.04
  -3  10  -5    0.54    1.05
  -3  10  -5    0.45    0.83
   3 -10   5    0.94    0.98
   3 -10   5   -0.54    1.05
   3 -10   5    0.79    1.15
   3 -10   5    1.20    0.99
   3   9  -5    1.61    1.14
   3   9  -5    0.48    1.23
   3   9  -5    2.43    1.03
  -3  -9   5   -0.64    0.79
  -3  -9   5    1.48    0.81
  -3  -9   5    0.43    0.64
  -3  -9   5   -0.97    0.90
   2   9  -5   78.16    3.75
   2   9  -5   73.06    3.95
   2   9  -5   68.04    4.25
   2   9  -5   86.29    3.85
  -2  -9   5   88.37    3.49
  -2  -9   5   86.85    3.95
  -2  -9   5   89.32    3.67
  -2  -9   5   80.49    3.43
  -2  -9   5   79.59    3.44
   1   9  -5    7.59    1.11
   1   9  -5    9.42    1.72
   1   9  -5    5.15    1.44
   1   9  -5    8.13    1.43
  -1  -9   5    8.22    1.12
  -1  -9   5    9.30    1.62
  -1  -9   5    7.68    1.94
  -1  -9   5    6.99    0.93
  -1  -9   5    9.04    1.32
   0   9  -5  157.58    6.69
   0   9  -5  162.55    6.41
   0   9  -5  172.23    6.54
   0   9  -5  151.67    6.75
   0  -9   5  168.99    6.43
   0  -9   5  164.61    6.72
   0  -9   5  173.59    6.31
   0  -9   5  167.24    6.55
   0  -9   5  152.17    6.62
  -1   9  -5   26.78    1.97
  -1   9  -5   22.18    1.55
  -1   9  -5   21.21    1.63
   1  -9   5   20.39    1.85
   1  -9   5   22.51    1.68
   1  -9   5   24.60    1.98
   1  -9   5   24.23    1.65
   1  -9   5   22.87    1.67
  -2   9  -5  132.34    5.47
  -2   9  -5  135.90    5.50
  -2   9  -5  143.44    5.45
  -2   9  -5  134.31    5.67
   2  -9   5  127.95    5.63
   2  -9   5  137.34    5.67
   2  -9   5  134.99    5.66
   2  -9   5  145.48    5.63
   2  -9   5  135.73    5.61
  -3   9  -5   20.25    1.62
  -3   9  -5   22.09    1.67
  -3   9  -5   14.15    1.73
  -3   9  -5   20.25    1.44
   3  -9   5   18.80    1.89
   3  -9   5   18.05    1.71
   3  -9   5   21.78    1.79
   3  -9   5   21.50    1.76
  -4   9  -5   12.18    1.59
  -4   9  -5    9.84    1.15
  -4   9  -5   12.83    1.54
   4  -9   5   11.59    1.46
   4  -9   5   13.88    1.82
   4  -9   5   14.97    1.75
   4  -9   5   12.59    1.75
  -5   9  -5    1.77    1.05
   5  -9   5    3.38    1.23
   5  -9   5    2.55    1.11
   4   8  -5    6.85    1.25
   4   8  -5    7.98    1.84
  -4  -8   5    8.05    1.35
  -4  -8   5    6.86    1.38
  -4  -8   5    7.71    1.27
   3   8  -5   94.07    4.21
   3   8  -5   87.04    4.53
   3   8  -5   91.65    3.99
   3   8  -5   87.17    4.24
  -3  -8   5   96.42    3.92
  -3  -8   5   96.08    3.91
  -3  -8   5   89.00    3.72
  -3  -8   5  103.43    4.24
   2   8  -5    7.52    1.26
   2   8  -5    6.69    1.93
   2   8  -5    7.88    1.42
   2   8  -5    5.25    1.47
  -2  -8   5    4.66    1.07
  -2  -8   5    7.53    1.10
  -2  -8   5    6.97    0.97
  -2  -8   5    9.45    1.05
  -2  -8   5    7.68    1.42
  -2  -8   5    6.99    1.01
   1   8  -5   22.78    1.83
   1   8  -5   22.99    1.66
   1   8  -5   22.13    2.10
   1   8  -5   23.68    1.71
  -1  -8   5   28.04    1.82
  -1  -8   5   22.70    1.57
  -1  -8   5   24.71    1.91
  -1  -8   5   24.87    1.42
  -1  -8   5   24.61    1.21
   0   8  -5    8.94    1.61
   0   8  -5    7.95    1.35
   0   8  -5    8.98    1.32
   0   8  -5    8.79    1.28
   0   8  -5    7.86    1.12
   0   8  -5    9.11    0.91
   0  -8   5    9.01    0.98
   0  -8   5    9.75    1.45
   0  -8   5    8.01    1.09
   0  -8   5    7.01    1.23
   0  -8   5    8.01    1.00
  -1   8  -5    1.80    0.69
  -1   8  -5    1.09    0.49
  -1   8  -5    1.70    0.76
  -1   8  -5    0.28    0.51
  -1   8  -5    0.75    0.85
   1  -8   5   -0.39    0.55
   1  -8   5    0.05    0.64
   1  -8   5    0.75    0.54
   1  -8   5    0.65    0.54
   1  -8   5    0.44    0.64
  -2   8  -5    1.51    0.73
  -2   8  -5    0.94    0.57
  -2   8  -5    1.51    0.67
  -2   8  -5    1.70    0.82
  -2   8  -5    3.69    0.83
   2  -8   5    2.02    0.70
   2  -8   5    2.28    0.70
   2  -8   5    1.93    0.63
   2  -8   5    1.85    0.70
   2  -8   5    1.88    0.67
   2  -8   5    1.93    0.65
  -3   8  -5   11.16    1.07
  -3   8  -5   10.75    1.27
  -3   8  -5    8.94    1.30
  -3   8  -5   10.59    1.14
  -3   8  -5   13.04    1.21
   3  -8   5   10.82    1.33
   3  -8   5    9.48    1.25
   3  -8   5    9.22    1.36
   3  -8   5   10.14    1.39
   3  -8   5    9.16    1.31
   3  -8   5   10.08    1.29
   3  -8   5   11.92    1.46
  -4   8  -5    2.42    0.69
  -4   8  -5    2.72    0.77
  -4   8  -5    2.85    0.79
  -4   8  -5    3.30    0.75
   4  -8   5    4.23    1.00
   4  -8   5    1.76    0.84
   4  -8   5    2.63    0.73
   4  -8   5    5.52    1.29
   4  -8   5    4.59    1.22
  -5   8  -5    9.62    1.45
  -5   8  -5    8.38    1.42
   5  -8   5   10.49    1.23
   5  -8   5    9.82    1.78
   5  -8   5    9.23    1.44
   5  -8   5    7.75    1.59
   5   7  -5    1.10    0.94
   5   7  -5    0.77    1.03
  -5  -7   5    1.26    0.70
  -5  -7   5    0.67    0.79
  -5  -7   5    1.25    0.90
   4   7  -5    0.04    0.78
   4   7  -5    1.07    0.85
  -4  -7   5    0.41    0.56
  -4  -7   5    0.27    0.75
  -4  -7   5   -0.79    0.64
  -4  -7   5    1.01    0.71
  -4  -7   5   -0.19    0.74
   3   7  -5    1.03    0.68
   3   7  -5    1.36    0.71
   3   7  -5    0.40    0.68
   3   7  -5    0.74    1.01
  -3  -7   5    1.47    0.71
  -3  -7   5    0.14    0.86
  -3  -7   5    1.21    0.60
  -3  -7   5    0.78    0.52
  -3  -7   5    0.80    0.74
  -3  -7   5    1.25    0.44
   2   7  -5    0.85    0.65
   2   7  -5    1.58    0.94
   2   7  -5    2.74    0.69
   2   7  -5    1.40    0.66
  -2  -7   5    0.95    0.65
  -2  -7   5    1.74    0.78
  -2  -7   5    2.64    0.56
  -2  -7   5    1.69    0.57
  -2  -7   5    1.70    0.47
  -2  -7   5    1.74    0.56
   1   7  -5    0.15    0.55
   1   7  -5    0.82    0.53
   1   7  -5    0.70    0.74
   1   7  -5    1.04    0.62
  -1  -7   5    1.34    0.31
  -1  -7   5    1.38    0.59
  -1  -7   5    0.96    0.43
  -1  -7   5    2.85    0.68
  -1  -7   5    0.92    0.46
  -1  -7   5    1.03    0.61
   0   7  -5   11.34    1.21
   0   7  -5   11.48    1.08
   0   7  -5    9.19    1.10
   0   7  -5    8.58    1.32
   0   7  -5   10.57    0.91
   0  -7   5   11.34    0.92
   0  -7   5   10.40    0.93
   0  -7   5   12.81    1.05
   0  -7   5   11.07    1.14
   0  -7   5   10.66    1.22
  -1   7  -5   10.57    1.11
  -1   7  -5   10.96    0.91
  -1   7  -5    9.67    0.97
  -1   7  -5    9.08    1.00
  -1   7  -5   12.55    1.30
  -1   7  -5   11.96    1.22
   1  -7   5    8.02    1.10
   1  -7   5   11.11    1.05
   1  -7   5   10.13    0.99
   1  -7   5   12.01    1.21
   1  -7   5   10.74    0.97
   1  -7   5    9.85    1.10
  -2   7  -5  175.12    6.96
  -2   7  -5  196.02    6.86
  -2   7  -5  171.36    6.96
  -2   7  -5  197.85    6.87
  -2   7  -5  178.62    6.91
  -2   7  -5  172.70    6.98
   2  -7   5  168.78    6.96
   2  -7   5  174.28    6.91
   2  -7   5  175.13    6.96
   2  -7   5  184.56    6.95
   2  -7   5  175.82    6.96
   2  -7   5  185.76    6.92
  -3   7  -5   37.78    1.99
  -3   7  -5   41.95    2.08
  -3   7  -5   44.28    2.01
  -3   7  -5   42.22    1.90
  -3   7  -5   43.58    1.96
  -3   7  -5   38.20    2.17
   3  -7   5   42.60    2.11
   3  -7   5   42.42    2.06
   3  -7   5   40.28    2.13
   3  -7   5   43.51    2.11
   3  -7   5   38.61    2.04
  -4   7  -5  197.60    7.54
  -4   7  -5  216.94    7.49
   4  -7   5  187.10    7.51
   4  -7   5  197.91    7.50
   4  -7   5  192.87    7.64
   4  -7   5  185.53    7.46
   4  -7   5  195.42    7.67
   4  -7   5  198.88    7.64
   4  -7   5  185.43    7.43
  -5   7  -5   59.18    2.65
  -5   7  -5   62.41    2.82
  -5   7  -5   61.77    2.76
   5  -7   5   59.44    2.91
   5  -7   5   57.22    2.63
   5  -7   5   55.50    2.68
   5  -7   5   56.52    2.90
   5  -7   5   57.63    2.76
   5  -7   5   61.41    2.78
  -6   7  -5  105.38    4.25
  -6   7  -5   99.98    4.26
   6  -7   5   93.14    4.37
   6  -7   5   94.91    3.98
   6  -7   5   97.06    4.12
   6  -7   5   97.97    4.38
   6  -7   5   98.37    4.13
   5   6  -5   12.48    1.60
   5   6  -5   14.32    1.76
  -5  -6   5   11.92    1.37
  -5  -6   5   12.81    1.27
  -5  -6   5   12.75    1.31
  -5  -6   5   13.05    1.14
   4   6  -5    1.27    1.08
   4   6  -5    0.47    1.10
   4   6  -5    0.51    0.68
   4   6  -5    0.58    0.71
  -4  -6   5    1.30    0.57
  -4  -6   5    0.59    0.67
  -4  -6   5    0.21    0.48
  -4  -6   5    0.73    0.58
  -4  -6   5    0.84    0.64
   3   6  -5  171.83    7.29
   3   6  -5  185.79    7.00
   3   6  -5  172.24    7.21
   3   6  -5  187.60    7.25
   3   6  -5  188.43    7.41
  -3  -6   5  184.51    6.87
  -3  -6   5  188.81    6.93
  -3  -6   5  171.55    7.29
  -3  -6   5  198.74    7.31
  -3  -6   5  197.59    7.07
  -3  -6   5  192.39    7.08
   2   6  -5   18.26    1.43
   2   6  -5   19.11    1.30
   2   6  -5   16.60    1.59
   2   6  -5   18.36    1.18
  -2  -6   5   17.67    1.11
  -2  -6   5   20.33    1.42
  -2  -6   5   15.41    1.42
  -2  -6   5   17.23    1.05
  -2  -6   5   18.43    1.01
  -2  -6   5   17.62    1.34
  -2  -6   5   14.76    1.11
   1   6  -5  322.95   11.99
   1   6  -5  319.71   11.72
   1   6  -5  314.21   11.85
   1   6  -5  312.73   11.96
  -1  -6   5  326.78   11.96
  -1  -6   5  309.29   11.79
  -1  -6   5  328.63   11.67
  -1  -6   5  315.40   11.94
  -1  -6   5  320.07   11.51
  -1  -6   5  309.73   11.66
   0   6  -5   23.27    1.35
   0   6  -5   21.87    1.33
   0   6  -5   24.55    1.50
   0   6  -5   23.67    1.35
   0   6  -5   24.50    1.57
   0  -6   5   22.75    1.45
   0  -6   5   26.06    1.51
   0  -6   5   23.97    1.25
   0  -6   5   22.02    1.32
   0  -6   5   24.66    1.22
  -1   6  -5  205.56    8.16
  -1   6  -5  220.06    8.19
  -1   6  -5  224.32    8.17
  -1   6  -5  227.21    8.32
  -1   6  -5  221.31    8.18
  -1   6  -5  211.78    8.28
   1  -6   5  228.00    8.33
   1  -6   5  219.86    8.23
   1  -6   5  211.52    8.26
   1  -6   5  205.96    8.12
   1  -6   5  218.80    8.19
   1  -6   5  217.02    8.24
  -2   6  -5   29.74    1.49
  -2   6  -5   33.02    1.48
  -2   6  -5   27.66    1.65
  -2   6  -5   28.56    1.61
  -2   6  -5   30.50    1.52
  -2   6  -5   28.38    1.61
   2  -6   5   30.50    1.62
   2  -6   5   26.47    1.58
   2  -6   5   29.38    1.55
   2  -6   5   29.22    1.55
   2  -6   5   29.81    1.59
   2  -6   5   31.40    1.56
  -3   6  -5   34.65    1.65
  -3   6  -5   33.84    1.57
  -3   6  -5   34.95    1.61
   3  -6   5   35.35    1.83
   3  -6   5   35.68    1.83
   3  -6   5   31.70    1.74
   3  -6   5   35.98    1.72
   3  -6   5   35.23    1.75
   3  -6   5   34.59    1.75
  -4   6  -5   20.08    1.20
  -4   6  -5   20.98    1.28
  -4   6  -5   19.22    1.23
   4  -6   5   18.39    1.19
   4  -6   5   18.53    1.20
   4  -6   5   19.69    1.44
   4  -6   5   21.08    1.32
   4  -6   5   20.37    1.33
  -5   6  -5    0.01    0.92
  -5   6  -5    1.60    0.55
  -5   6  -5    1.86    0.63
  -5   6  -5    1.69    0.81
  -5   6  -5    1.74    0.49
   5  -6   5    1.52    0.52
   5  -6   5    1.02    0.51
   5  -6   5    1.39    0.72
   5  -6   5    0.75    0.52
   5  -6   5    1.83    0.48
   5  -6   5    1.30    0.68
  -6   6  -5    9.17    1.26
  -6   6  -5    9.32    1.29
   6  -6   5   10.10    1.18
   6  -6   5    6.98    1.43
   6  -6   5    8.99    1.14
   6  -6   5   10.14    1.12
   6  -6   5    9.64    0.93
   6  -6   5    6.97    1.49
  -7   6  -5   60.13    2.86
  -7   6  -5   51.72    2.75
   7  -6   5   53.50    2.60
   7  -6   5   54.50    3.00
   7  -6   5   54.02    2.97
   6   5  -5   52.14    2.92
   6   5  -5   43.50    2.64
  -6  -5   5   47.77    2.58
  -6  -5   5   50.99    2.34
   5   5  -5   -0.24    1.80
   5   5  -5   -0.26    0.75
   5   5  -5    0.94    0.71
  -5  -5   5    0.47    0.45
  -5  -5   5    0.94    0.64
  -5  -5   5    1.24    0.69
  -5  -5   5    0.62    0.57
  -5  -5   5   -0.70    0.54
   4   5  -5   39.96    2.35
   4   5  -5   39.12    2.07
   4   5  -5   38.47    2.30
   4   5  -5   35.39    2.06
  -4  -5   5   33.95    1.72
  -4  -5   5   36.64    1.75
  -4  -5   5   40.29    1.83
  -4  -5   5   37.65    2.08
  -4  -5   5   32.04    2.09
  -4  -5   5   38.68    1.89
   3   5  -5    1.00    0.54
   3   5  -5    0.59    0.67
   3   5  -5    0.39    0.49
   3   5  -5    0.90    0.72
   3   5  -5    0.62    0.66
  -3  -5   5   -0.22    0.53
  -3  -5   5    0.54    0.42
  -3  -5   5    0.51    0.41
  -3  -5   5    0.18    0.46
  -3  -5   5   -0.19    0.54
  -3  -5   5    0.58    0.40
   2   5  -5    2.12    0.71
   2   5  -5    2.94    0.84
   2   5  -5    1.57    0.57
   2   5  -5    3.26    0.73
   2   5  -5    1.82    0.51
  -2  -5   5    2.78    0.80
  -2  -5   5    3.43    0.63
  -2  -5   5    4.09    0.69
  -2  -5   5    2.08    0.47
  -2  -5   5    2.27    0.55
  -2  -5   5    2.33    0.57
  -2  -5   5    1.86    0.45
   1   5  -5    0.43    0.40
   1   5  -5    0.95    0.54
   1   5  -5    0.10    0.43
   1   5  -5    0.84    0.44
   1   5  -5    0.39    0.35
  -1  -5   5   -0.33    0.41
  -1  -5   5    0.17    0.29
  -1  -5   5    0.32    0.29
  -1  -5   5   -0.30    0.41
  -1  -5   5    0.09    0.31
  -1  -5   5    0.16    0.40
  -1  -5   5    0.32    0.37
   0   5  -5   69.50    3.00
   0   5  -5   68.52    2.81
   0   5  -5   68.58    2.96
   0   5  -5   64.41    2.81
   0   5  -5   66.32    2.83
   0  -5   5   70.24    2.71
   0  -5   5   70.13    2.89
   0  -5   5   67.80    2.67
   0  -5   5   65.49    2.75
   0  -5   5   69.98    2.97
   0  -5   5   67.58    2.85
   0  -5   5   68.69    2.95
  -1   5  -5    0.09    0.38
  -1   5  -5   -0.08    0.36
  -1   5  -5    0.32    0.37
  -1   5  -5    0.18    0.24
  -1   5  -5   -0.44    0.44
  -1   5  -5   -0.14    0.27
   1  -5   5    0.15    0.30
   1  -5   5    0.51    0.33
   1  -5   5   -0.02    0.32
   1  -5   5    0.04    0.32
   1  -5   5   -0.14    0.32
   1  -5   5    0.17    0.35
  -2   5  -5   86.08    3.57
  -2   5  -5   88.75    3.58
  -2   5  -5   90.04    3.59
  -2   5  -5   92.22    3.46
  -2   5  -5   83.69    3.45
  -2   5  -5   89.13    3.53
   2  -5   5   90.93    3.57
   2  -5   5   85.03    3.54
   2  -5   5   88.09    3.56
   2  -5   5   87.72    3.52
   2  -5   5   84.80    3.57
   2  -5   5   86.06    3.56
  -3   5  -5    6.23    0.91
  -3   5  -5    4.96    0.83
  -3   5  -5    5.51    0.56
  -3   5  -5    3.28    0.59
  -3   5  -5    6.17    0.61
  -3   5  -5    4.15    0.68
  -3   5  -5    4.33    0.60
   3  -5   5    4.35    0.72
   3  -5   5    5.03    0.71
   3  -5   5    4.56    0.80
   3  -5   5    5.33    0.82
   3  -5   5    4.87    0.75
   3  -5   5    5.39    0.67
  -4   5  -5    1.93    0.60
  -4   5  -5    1.25    0.41
  -4   5  -5    2.31    0.49
  -4   5  -5    1.06    0.41
  -4   5  -5    3.39    0.87
   4  -5   5    1.97    0.43
   4  -5   5    1.48    0.39
   4  -5   5    2.28    0.50
   4  -5   5    0.60    0.49
   4  -5   5    1.12    0.51
   4  -5   5    1.04    0.42
  -5   5  -5    7.38    0.92
  -5   5  -5    8.63    0.94
  -5   5  -5    7.45    0.75
   5  -5   5    7.34    1.14
   5  -5   5    8.52    0.88
   5  -5   5    8.39    0.76
   5  -5   5    8.39    0.81
   5  -5   5    8.30    1.04
   5  -5   5    9.41    0.92
  -6   5  -5   48.01    2.56
  -6   5  -5   57.53    2.66
   6  -5   5   60.47    2.46
   6  -5   5   58.74    2.78
   6  -5   5   61.62    2.78
   6  -5   5   57.43    2.50
  -7   5  -5   23.96    1.66
  -7   5  -5   22.39    1.71
   7  -5   5   20.82    1.40
   7  -5   5   24.66    1.92
   7  -5   5   23.20    1.84
   6   4  -5    0.11    0.73
   6   4  -5    0.75    0.87
  -6  -4   5    0.83    0.79
  -6  -4   5   -0.20    0.60
   5   4  -5  141.82    5.59
   5   4  -5  135.70    5.60
   5   4  -5  140.72    5.81
   5   4  -5  140.99    5.56
  -5  -4   5  142.06    5.18
  -5  -4   5  131.21    5.22
  -5  -4   5  141.65    5.44
  -5  -4   5  142.79    5.25
  -5  -4   5  119.83    5.49
  -5  -4   5  134.98    5.19
   4   4  -5    0.01    0.49
   4   4  -5    1.42    0.76
   4   4  -5   -0.71    0.78
   4   4  -5   -0.12    0.46
   4   4  -5   -0.11    0.78
  -4  -4   5   -0.30    0.42
  -4  -4   5   -0.05    0.37
  -4  -4   5    0.32    0.37
  -4  -4   5    0.28    0.39
  -4  -4   5   -0.02    0.45
  -4  -4   5    0.62    0.52
  -4  -4   5   -0.21    0.63
   3   4  -5  165.12    6.39
   3   4  -5  159.20    6.42
   3   4  -5  166.26    6.35
   3   4  -5  160.02    6.46
   3   4  -5  170.88    6.40
  -3  -4   5  159.95    6.38
  -3  -4   5  163.23    6.20
  -3  -4   5  160.61    6.39
  -3  -4   5  170.46    6.15
  -3  -4   5  168.76    6.25
  -3  -4   5  158.98    6.19
   2   4  -5    0.83    0.52
   2   4  -5    0.94    0.46
   2   4  -5    0.39    0.40
   2   4  -5    1.36    0.38
   2   4  -5    1.44    0.49
  -2  -4   5    0.87    0.45
  -2  -4   5    1.15    0.39
  -2  -4   5    1.56    0.36
  -2  -4   5    0.70    0.35
  -2  -4   5    0.59    0.42
  -2  -4   5    1.67    0.43
   1   4  -5    6.40    0.76
   1   4  -5    9.66    0.98
   1   4  -5    8.80    0.83
   1   4  -5    8.07    0.70
   1   4  -5    6.74    0.71
  -1  -4   5    7.03    0.62
  -1  -4   5    6.40    0.57
  -1  -4   5    6.03    0.79
  -1  -4   5    6.43    0.85
  -1  -4   5    7.76    0.67
  -1  -4   5    6.98    0.56
  -1  -4   5    4.90    0.73
   0   4  -5    0.76    0.35
   0   4  -5    0.03    0.33
   0   4  -5   -0.19    0.33
   0   4  -5    0.06    0.37
   0   4  -5    0.18    0.24
   0  -4   5   -0.12    0.25
   0  -4   5    0.00    0.32
   0  -4   5    0.23    0.23
   0  -4   5    0.27    0.33
   0  -4   5    0.20    0.28
   0  -4   5    0.14    0.22
  -1   4  -5   47.28    2.10
  -1   4  -5   46.99    2.06
  -1   4  -5   48.01    1.99
  -1   4  -5   43.35    2.01
  -1   4  -5   43.57    1.94
   1  -4   5   44.10    1.98
   1  -4   5   47.30    1.98
   1  -4   5   45.34    2.01
   1  -4   5   45.00    2.06
   1  -4   5   45.48    2.01
   1  -4   5   47.45    2.09
  -2   4  -5    1.51    0.35
  -2   4  -5    2.32    0.47
  -2   4  -5    2.44    0.45
  -2   4  -5    2.39    0.44
  -2   4  -5    1.43    0.38
  -2   4  -5    2.87    0.65
   2  -4   5    1.84    0.52
   2  -4   5    3.02    0.56
   2  -4   5    2.71    0.58
   2  -4   5    1.64    0.42
   2  -4   5    2.69    0.61
   2  -4   5    2.21    0.51
  -3   4  -5  143.44    5.15
  -3   4  -5  138.72    5.38
  -3   4  -5  149.59    5.32
  -3   4  -5  139.11    5.19
  -3   4  -5  129.88    5.30
  -3   4  -5  139.03    5.15
   3  -4   5  141.56    5.41
   3  -4   5  132.78    5.29
   3  -4   5  135.93    5.30
   3  -4   5  133.71    5.37
   3  -4   5  134.94    5.26
   3  -4   5  145.42    5.32
  -4   4  -5    1.04    0.50
  -4   4  -5    1.23    0.35
  -4   4  -5    1.80    0.41
  -4   4  -5    1.20    0.37
  -4   4  -5    1.43    0.43
   4  -4   5    1.45    0.35
   4  -4   5    2.08    0.54
   4  -4   5    2.01    0.41
   4  -4   5    1.74    0.37
   4  -4   5    1.75    0.43
   4  -4   5    1.41    0.51
  -5   4  -5  132.22    5.06
  -5   4  -5  135.20    5.13
   5  -4   5  130.30    5.11
   5  -4   5  133.33    4.93
   5  -4   5  134.36    4.94
   5  -4   5  132.62    4.95
   5  -4   5  134.80    5.01
   5  -4   5  131.44    5.19
   5  -4   5  110.13    5.13
  -6   4  -5    7.47    0.99
  -6   4  -5    7.59    0.98
   6  -4   5    6.61    0.81
   6  -4   5    7.47    0.77
   6  -4   5    7.03    1.05
   6  -4   5    8.35    1.01
   6  -4   5    9.14    1.22
   6  -4   5    7.32    1.12
  -7   4  -5   15.72    1.39
  -7   4  -5   15.17    1.36
   7  -4   5   17.72    1.59
   7  -4   5   13.33    1.43
   7  -4   5   13.98    1.07
   8  -4   5    3.09    1.01
   8  -4   5    1.56    1.06
   6   3  -5    1.14    0.72
   6   3  -5    0.84    0.77
  -6  -3   5    0.45    0.63
  -6  -3   5    1.05    0.56
  -6  -3   5    2.54    0.73
   5   3  -5    4.24    1.01
   5   3  -5    3.96    1.14
   5   3  -5    2.91    1.11
   5   3  -5    3.96    0.83
   5   3  -5    3.94    1.08
  -5  -3   5    3.16    0.86
  -5  -3   5    2.85    0.72
  -5  -3   5    3.03    0.53
  -5  -3   5    3.90    0.64
  -5  -3   5    6.90    1.15
  -5  -3   5    3.06    0.76
   4   3  -5    9.11    1.20
   4   3  -5    8.69    1.04
   4   3  -5    7.13    0.89
   4   3  -5    9.20    1.37
   4   3  -5    9.30    1.40
  -4  -3   5    9.79    0.78
  -4  -3   5    7.80    1.01
  -4  -3   5    8.03    0.84
  -4  -3   5    7.62    1.06
  -4  -3   5    9.34    0.76
  -4  -3   5    9.45    0.75
  -4  -3   5    8.11    0.70
   3   3  -5    0.75    0.54
   3   3  -5    0.59    0.55
   3   3  -5    0.13    0.52
   3   3  -5    0.18    0.41
   3   3  -5   -0.36    0.31
  -3  -3   5    0.41    0.31
  -3  -3   5   -0.16    0.31
  -3  -3   5    0.05    0.33
  -3  -3   5    0.23    0.42
  -3  -3   5   -0.17    0.33
  -3  -3   5   -0.30    0.43
   2   3  -5   32.86    1.56
   2   3  -5   32.25    1.73
   2   3  -5   31.44    1.67
   2   3  -5   32.58    1.61
   2   3  -5   35.11    1.69
  -2  -3   5   32.49    1.67
  -2  -3   5   33.06    1.69
  -2  -3   5   33.56    1.49
  -2  -3   5   31.45    1.52
  -2  -3   5   32.22    1.51
  -2  -3   5   34.17    1.47
   1   3  -5    2.84    0.40
   1   3  -5    2.40    0.58
   1   3  -5    3.48    0.56
   1   3  -5    2.67    0.70
   1   3  -5    2.01    0.57
   1   3  -5    2.82    0.46
  -1  -3   5    3.67    0.51
  -1  -3   5    2.50    0.41
  -1  -3   5    2.94    0.65
  -1  -3   5    3.26    0.45
  -1  -3   5    2.81    0.54
  -1  -3   5    3.40    0.44
  -1  -3   5    3.68    0.63
   0   3  -5    0.46    0.26
   0   3  -5    0.56    0.31
   0   3  -5    0.38    0.32
   0   3  -5    0.88    0.24
   0   3  -5    0.26    0.34
   0   3  -5    0.54    0.33
   0  -3   5    0.87    0.33
   0  -3   5    0.74    0.28
   0  -3   5    0.85    0.21
   0  -3   5    1.40    0.32
   0  -3   5    0.92    0.33
   0  -3   5    0.75    0.35
  -1   3  -5    1.42    0.37
  -1   3  -5    1.10    0.29
  -1   3  -5    1.32    0.39
  -1   3  -5    0.71    0.37
  -1   3  -5    0.89    0.31
  -1   3  -5    0.51    0.30
   1  -3   5    0.88    0.29
   1  -3   5    1.03    0.34
   1  -3   5    1.14    0.34
   1  -3   5    1.15    0.32
   1  -3   5    0.80    0.27
  -2   3  -5   44.08    1.82
  -2   3  -5   42.87    1.90
  -2   3  -5   44.61    1.75
  -2   3  -5   39.50    1.74
  -2   3  -5   38.81    1.85
  -2   3  -5   42.85    1.90
  -2   3  -5   40.57    1.85
   2  -3   5   44.05    1.83
   2  -3   5   43.85    1.90
   2  -3   5   44.74    1.84
   2  -3   5   44.21    1.88
   2  -3   5   39.31    1.84
   2  -3   5   41.19    1.86
  -3   3  -5   12.85    0.66
  -3   3  -5   12.98    0.64
  -3   3  -5   12.51    0.79
  -3   3  -5   12.88    0.79
  -3   3  -5   12.62    0.80
   3  -3   5   14.09    0.95
   3  -3   5   13.09    0.81
   3  -3   5   12.34    0.90
   3  -3   5   15.26    0.87
   3  -3   5   13.57    0.79
   3  -3   5   11.86    0.78
  -4   3  -5  300.11   10.96
  -4   3  -5  292.98   11.01
  -4   3  -5  300.70   11.09
  -4   3  -5  312.06   10.98
   4  -3   5  312.95   11.26
   4  -3   5  291.14   10.97
   4  -3   5  312.77   11.01
   4  -3   5  299.83   11.17
   4  -3   5  291.07   10.99
   4  -3   5  295.37   11.01
  -5   3  -5    3.15    0.64
  -5   3  -5    3.05    0.65
   5  -3   5    3.79    0.88
   5  -3   5    3.14    0.51
   5  -3   5    3.26    0.65
   5  -3   5    3.51    0.59
   5  -3   5    3.34    0.60
  -6   3  -5  118.29    4.55
  -6   3  -5  119.01    4.56
   6  -3   5  119.50    4.65
   6  -3   5  111.73    4.78
   6  -3   5  115.45    4.44
   6  -3   5  116.03    4.60
   6  -3   5  104.39    4.50
   6  -3   5  113.63    4.34
   6  -3   5  109.06    4.54
   7  -3   5    5.44    1.11
   7  -3   5    4.88    0.96
   7  -3   5    5.77    1.06
   7  -3   5    6.76    1.32
   8  -3   5   14.85    1.77
   8  -3   5   16.97    1.64
   8  -3   5   18.41    1.76
   6   2  -5   -0.77    1.20
   6   2  -5   -0.58    0.66
   6   2  -5   -0.04    0.60
  -6  -2   5   -0.66    0.60
  -6  -2   5   -0.21    0.62
   5   2  -5   11.13    0.91
   5   2  -5   11.22    1.14
   5   2  -5   11.64    1.72
   5   2  -5    8.87    1.66
   5   2  -5    9.33    1.20
  -5  -2   5   12.04    0.96
  -5  -2   5   11.69    0.78
  -5  -2   5    9.81    0.98
  -5  -2   5   11.89    1.35
   4   2  -5    1.32    0.70
   4   2  -5    0.98    0.39
   4   2  -5    0.46    0.65
   4   2  -5   -0.21    0.51
   4   2  -5    1.21    0.39
   4   2  -5    0.61    0.47
  -4  -2   5    1.01    0.42
  -4  -2   5    0.46    0.33
  -4  -2   5    0.71    0.41
  -4  -2   5    1.03    0.34
  -4  -2   5    0.73    0.51
   3   2  -5  360.63   13.19
   3   2  -5  350.16   13.08
   3   2  -5  353.00   13.23
   3   2  -5  364.69   13.24
   3   2  -5  349.67   13.24
  -3  -2   5  361.09   13.13
  -3  -2   5  351.82   13.08
  -3  -2   5  362.88   13.03
  -3  -2   5  356.35   13.00
  -3  -2   5  346.24   13.04
  -3  -2   5  370.75   13.27
   2   2  -5   11.29    0.98
   2   2  -5   12.43    0.89
   2   2  -5   13.48    0.60
   2   2  -5   12.21    0.96
   2   2  -5   13.40    0.93
  -2  -2   5   11.91    0.78
  -2  -2   5   12.31    0.75
  -2  -2   5   12.23    0.74
  -2  -2   5   13.32    0.95
  -2  -2   5   12.79    0.90
  -2  -2   5   10.08    0.75
   1   2  -5  493.66   18.86
   1   2  -5  520.96   18.78
   1   2  -5  503.67   19.01
   1   2  -5  507.65   18.90
   1   2  -5  494.78   18.99
   1   2  -5  530.50   18.99
  -1  -2   5  514.68   19.02
  -1  -2   5  518.36   18.81
  -1  -2   5  562.09   18.88
  -1  -2   5  514.98   18.94
  -1  -2   5  552.82   18.91
  -1  -2   5  544.02   19.01
   0   2  -5    7.71    0.69
   0   2  -5    7.89    0.52
   0   2  -5    7.82    0.54
   0   2  -5    8.05    0.67
   0   2  -5    8.13    0.65
   0  -2   5    7.01    0.66
   0  -2   5    6.75    0.60
   0  -2   5    7.98    0.58
   0  -2   5    7.31    0.65
   0  -2   5    7.95    0.61
   0  -2   5    8.59    0.58
  -1   2  -5  450.16   16.44
  -1   2  -5  460.96   16.46
  -1   2  -5  462.06   16.50
  -1   2  -5  475.41   16.53
   1  -2   5  445.94   16.48
   1  -2   5  453.49   16.46
   1  -2   5  475.25   16.55
   1  -2   5  451.89   16.48
   1  -2   5  436.73   16.51
   1  -2   5  425.90   16.48
  -2   2  -5   43.48    1.85
  -2   2  -5   46.89    1.89
  -2   2  -5   44.55    1.81
  -2   2  -5   48.00    1.91
  -2   2  -5   45.28    1.80
  -2   2  -5   44.72    1.96
   2  -2   5   43.97    1.90
   2  -2   5   44.68    1.93
   2  -2   5   42.16    1.86
   2  -2   5   44.28    1.90
   2  -2   5   45.10    1.96
  -3   2  -5   39.69    1.65
  -3   2  -5   39.43    1.81
  -3   2  -5   39.39    1.65
  -3   2  -5   38.80    1.68
   3  -2   5   38.16    1.65
   3  -2   5   37.57    1.66
   3  -2   5   39.66    1.68
   3  -2   5   42.33    1.86
   3  -2   5   36.54    1.63
   3  -2   5   40.17    1.78
  -4   2  -5   28.79    1.21
  -4   2  -5   29.13    1.21
  -4   2  -5   27.64    1.32
   4  -2   5   28.05    1.25
   4  -2   5   27.75    1.24
   4  -2   5   28.32    1.25
   4  -2   5   27.06    1.51
   4  -2   5   28.04    1.35
   4  -2   5   27.26    1.24
   4  -2   5   27.65    1.43
  -5   2  -5    3.68    0.60
   5  -2   5    2.08    0.56
   5  -2   5    4.23    0.78
   5  -2   5    4.21    0.48
   5  -2   5    3.94    0.51
   5  -2   5    3.54    0.69
   5  -2   5    2.97    0.90
   5  -2   5    3.07    0.59
   5  -2   5    3.28    0.59
  -6   2  -5   23.27    1.30
   6  -2   5   24.21    1.36
   6  -2   5   22.28    1.38
   6  -2   5   25.91    1.53
   6  -2   5   23.43    1.69
   6  -2   5   23.73    1.41
   6  -2   5   23.73    1.37
   6  -2   5   23.57    1.32
   7  -2   5   35.06    2.01
   7  -2   5   32.98    1.94
   7  -2   5   33.63    1.88
   7  -2   5   35.42    1.81
   7  -2   5   33.51    1.87
   7  -2   5   33.55    1.97
   8  -2   5    6.46    1.51
   8  -2   5    4.78    1.21
   8  -2   5    3.72    1.02
   7   1  -5    1.45    0.85
   7   1  -5    1.04    0.88
  -7  -1   5    1.33    0.91
   6   1  -5  259.63    9.42
   6   1  -5  241.97    9.68
   6   1  -5  232.82    9.27
   6   1  -5  240.25    9.51
   6   1  -5  264.73    9.35
  -6  -1   5  255.90    9.44
   5   1  -5    2.50    0.65
   5   1  -5    2.58    0.74
   5   1  -5    2.29    1.00
   5   1  -5    3.90    0.94
   5   1  -5    2.85    0.94
   5   1  -5    2.17    0.52
  -5  -1   5    2.83    0.73
  -5  -1   5    2.20    0.53
   4   1  -5  198.83    7.37
   4   1  -5  181.31    7.54
   4   1  -5  190.12    7.49
   4   1  -5  189.62    7.46
   4   1  -5  190.48    7.30
   4   1  -5  197.45    7.28
  -4  -1   5  197.61    7.28
  -4  -1   5  204.88    7.19
  -4  -1   5  190.75    7.32
  -4  -1   5  206.65    7.50
  -4  -1   5  192.23    7.20
   3   1  -5   -0.08    0.44
   3   1  -5    0.46    0.34
   3   1  -5    0.33    0.49
   3   1  -5   -0.09    0.27
   3   1  -5    0.35    0.26
   3   1  -5    0.23    0.38
  -3  -1   5    0.28    0.29
  -3  -1   5    0.14    0.27
  -3  -1   5    0.34    0.28
  -3  -1   5   -0.18    0.33
  -3  -1   5   -0.50    0.27
  -3  -1   5   -0.04    0.40
   2   1  -5  100.05    3.79
   2   1  -5   94.72    3.78
   2   1  -5   89.88    3.75
   2   1  -5   97.76    3.66
   2   1  -5   90.77    3.81
   2   1  -5   93.36    3.67
  -2  -1   5   99.32    3.67
  -2  -1   5   98.89    3.73
  -2  -1   5   91.33    3.68
  -2  -1   5   94.15    3.65
  -2  -1   5   96.41    3.81
  -2  -1   5   97.91    3.74
   1   1  -5    2.70    0.54
   1   1  -5    3.02    0.57
   1   1  -5    2.84    0.46
   1   1  -5    2.73    0.42
   1   1  -5    2.89    0.37
   1   1  -5    3.40    0.31
  -1  -1   5    3.34    0.49
  -1  -1   5    2.79    0.43
  -1  -1   5    3.08    0.39
  -1  -1   5    2.92    0.40
  -1  -1   5    3.77    0.47
  -1  -1   5    3.05    0.50
   0   1  -5    0.98    0.26
   0   1  -5    0.56    0.15
   0   1  -5    0.51    0.18
   0   1  -5    0.93    0.29
   0   1  -5    0.76    0.28
   0  -1   5    0.67    0.24
   0  -1   5    0.69    0.23
   0  -1   5    0.62    0.23
   0  -1   5    0.57    0.23
   0  -1   5    1.23    0.29
   0  -1   5    0.71    0.24
  -1   1  -5   38.86    1.57
  -1   1  -5   37.96    1.60
  -1   1  -5   36.94    1.63
  -1   1  -5   38.76    1.61
  -1   1  -5   37.86    1.62
   1  -1   5   39.71    1.61
   1  -1   5   36.87    1.61
   1  -1   5   39.68    1.65
   1  -1   5   36.41    1.61
   1  -1   5   37.98    1.62
   1  -1   5   38.81    1.65
  -2   1  -5   35.58    1.43
  -2   1  -5   35.65    1.57
  -2   1  -5   35.82    1.50
  -2   1  -5   35.52    1.51
  -2   1  -5   35.06    1.43
  -2   1  -5   35.65    1.47
   2  -1   5   32.86    1.50
   2  -1   5   34.16    1.50
   2  -1   5   35.81    1.58
   2  -1   5   35.64    1.50
   2  -1   5   33.45    1.47
  -3   1  -5   20.98    1.15
  -3   1  -5   21.17    0.97
  -3   1  -5   21.20    1.01
  -3   1  -5   22.43    1.00
   3  -1   5   21.10    1.18
   3  -1   5   21.43    1.11
   3  -1   5   21.36    0.96
   3  -1   5   21.12    1.01
   3  -1   5   20.81    1.00
  -4   1  -5    2.51    0.42
  -4   1  -5    3.70    0.57
   4  -1   5    2.42    0.40
   4  -1   5    3.37    0.43
   4  -1   5    3.15    0.69
   4  -1   5    2.31    0.38
   4  -1   5    2.87    0.62
   4  -1   5    2.11    0.35
   4  -1   5    2.41    0.52
   4  -1   5    2.81    0.47
  -5   1  -5   34.30    1.54
   5  -1   5   33.94    1.54
   5  -1   5   33.69    1.70
   5  -1   5   35.83    1.84
   5  -1   5   34.56    1.56
   5  -1   5   33.69    1.56
   5  -1   5   31.65    1.58
  -6   1  -5  106.19    4.12
   6  -1   5  108.85    4.26
   6  -1   5  105.52    4.15
   6  -1   5  106.45    4.16
   6  -1   5  103.73    4.15
   6  -1   5  104.82    4.14
   6  -1   5   99.04    4.15
   6  -1   5  104.49    4.41
   7  -1   5   30.67    1.58
   7  -1   5   29.00    1.72
   7  -1   5   28.01    1.64
   7  -1   5   28.31    1.78
   7  -1   5   31.38    2.11
   7  -1   5   29.98    1.78
   7  -1   5   27.29    1.76
   8  -1   5  161.98    6.16
   8  -1   5  147.36    6.01
   7   0  -5    1.72    0.84
   7   0  -5    1.28    0.83
   7   0  -5    1.56    0.81
  -7   0   5    0.74    0.83
   6   0  -5    0.27    0.53
   6   0  -5   -0.17    0.52
   6   0  -5   -0.25    0.69
   6   0  -5    0.67    0.71
   6   0  -5    0.04    0.94
  -6   0   5   -0.33    0.75
  -6   0   5    0.25    0.55
  -6   0   5    0.52    0.70
   5   0  -5    6.86    1.23
   5   0  -5    6.76    0.76
   5   0  -5    6.43    0.77
   5   0  -5    6.85    0.91
   5   0  -5    8.59    1.45
   5   0  -5    5.65    0.96
  -5   0   5    4.75    0.76
  -5   0   5    3.66    0.80
   4   0  -5    3.15    0.74
   4   0  -5    3.76    0.77
   4   0  -5    2.80    0.55
   4   0  -5    4.15    0.73
   4   0  -5    3.22    0.56
   4   0  -5    4.12    1.04
  -4   0   5    3.26    0.51
  -4   0   5    3.23    0.53
  -4   0   5    3.41    0.61
  -4   0   5    2.34    0.46
  -4   0   5    4.37    0.88
   3   0  -5   22.15    1.21
   3   0  -5   22.30    1.34
   3   0  -5   23.19    1.10
   3   0  -5   21.22    1.30
   3   0  -5   22.19    1.22
   3   0  -5   21.05    1.09
  -3   0   5   23.07    1.13
  -3   0   5   21.54    1.06
  -3   0   5   24.08    1.28
  -3   0   5   22.10    1.15
  -3   0   5   21.67    1.12
  -3   0   5   22.66    1.13
   2   0  -5    1.27    0.35
   2   0  -5    1.84    0.44
   2   0  -5    1.61    0.40
   2   0  -5    1.72    0.35
   2   0  -5    1.52    0.37
   2   0  -5    2.16    0.52
  -2   0   5    1.74    0.35
  -2   0   5    1.59    0.34
  -2   0   5    1.85    0.46
  -2   0   5    1.15    0.33
  -2   0   5    2.22    0.40
  -2   0   5    1.26    0.32
   1   0  -5    9.50    0.70
   1   0  -5   10.32    0.74
   1   0  -5   10.57    0.62
   1   0  -5   10.40    0.60
   1   0  -5   10.42    0.63
  -1   0   5   11.05    0.70
  -1   0   5   12.28    0.66
  -1   0   5   10.80    0.68
  -1   0   5   10.56    0.62
  -1   0   5   10.68    0.56
  -1   0   5   10.85    0.69
   0   0  -5   22.61    1.06
   0   0  -5   21.47    1.08
   0   0  -5   24.14    1.02
   0   0  -5   22.32    1.01
   0   0  -5   23.98    1.11
   0   0   5   21.23    1.04
   0   0   5   24.41    1.06
   0   0   5   22.57    1.04
   0   0   5   22.22    1.08
   0   0   5   23.02    1.08
  -1   0  -5  383.83   14.57
  -1   0  -5  413.30   14.63
  -1   0  -5  386.01   14.62
  -1   0  -5  379.14   14.60
  -1   0  -5  398.00   14.62
   1   0   5  399.28   14.62
   1   0   5  402.56   14.61
   1   0   5  416.14   14.63
   1   0   5  424.39   14.63
   1   0   5  430.35   14.62
  -2   0  -5   15.52    0.78
  -2   0  -5   17.10    0.76
  -2   0  -5   15.44    0.76
  -2   0  -5   15.74    0.72
  -2   0  -5   15.65    0.73
  -2   0  -5   16.23    0.83
   2   0   5   16.05    0.80
   2   0   5   14.56    0.76
   2   0   5   15.80    0.87
   2   0   5   15.11    0.78
   2   0   5   16.14    0.76
  -3   0  -5  421.30   15.34
  -3   0  -5  417.52   15.49
  -3   0  -5  416.97   15.31
  -3   0  -5  430.85   15.30
   3   0   5  418.57   15.29
   3   0   5  448.46   15.32
   3   0   5  413.60   15.32
   3   0   5  417.84   15.31
   3   0   5  438.51   15.38
   3   0   5  415.92   15.50
  -4   0  -5   34.87    1.68
  -4   0  -5   37.02    1.50
   4   0   5   32.66    1.43
   4   0   5   36.30    1.51
   4   0   5   34.85    1.73
   4   0   5   33.79    1.38
   4   0   5   33.88    1.46
   4   0   5   35.52    1.55
   4   0   5   34.64    1.59
  -5   0  -5  258.24    9.84
  -5   0  -5  256.39    9.61
   5   0   5  267.96    9.64
   5   0   5  258.64    9.63
   5   0   5  262.79    9.89
   5   0   5  258.43    9.67
   5   0   5  268.89    9.68
   5   0   5  262.08    9.73
   6   0   5   51.82    2.23
   6   0   5   52.32    2.58
   6   0   5   51.61    2.31
   6   0   5   54.65    2.41
   6   0   5   53.15    2.33
   6   0   5   51.57    2.24
   6   0   5   52.20    2.33
   7   0   5  100.81    4.18
   7   0   5  100.30    3.98
   7   0   5   94.13    4.09
   7   0   5  106.30    4.18
   7   0   5   96.95    4.13
   7   0   5  104.03    4.45
   7   0   5  101.84    4.06
   8   0   5   33.78    1.83
   8   0   5   38.33    2.17
   7  -1  -5    1.69    0.81
   6  -1  -5    7.82    1.01
   6  -1  -5    6.16    1.24
   6  -1  -5   10.44    1.58
   6  -1  -5    8.38    1.01
  -6   1   5    9.54    1.00
   5  -1  -5   -0.19    0.36
   5  -1  -5    1.05    0.46
   5  -1  -5    0.40    0.83
   5  -1  -5   -0.73    0.65
   5  -1  -5    0.29    0.44
   5  -1  -5    0.47    0.46
  -5   1   5   -0.68    0.58
  -5   1   5    0.20    0.41
  -5   1   5    0.35    0.48
   4  -1  -5  102.99    4.18
   4  -1  -5   94.54    4.36
   4  -1  -5  103.38    4.24
   4  -1  -5  106.46    4.12
   4  -1  -5  105.40    4.14
   4  -1  -5  111.65    4.12
  -4   1   5  107.75    4.24
  -4   1   5  101.58    4.02
  -4   1   5  108.78    4.15
  -4   1   5  108.53    3.99
  -4   1   5  107.65    4.22
  -4   1   5  105.16    4.12
   3  -1  -5    0.96    0.32
   3  -1  -5    1.16    0.37
   3  -1  -5    0.78    0.31
   3  -1  -5    1.18    0.48
   3  -1  -5    0.74    0.43
   3  -1  -5    0.88    0.26
  -3   1   5    1.06    0.31
  -3   1   5    1.08    0.31
  -3   1   5    1.44    0.36
  -3   1   5    0.84    0.28
  -3   1   5    0.54    0.30
  -3   1   5    1.25    0.34
  -3   1   5    1.05    0.36
   2  -1  -5  244.86    8.88
   2  -1  -5  249.60    8.91
   2  -1  -5  237.45    8.90
   2  -1  -5  233.24    8.96
   2  -1  -5  240.31    8.96
   2  -1  -5  235.16    8.85
  -2   1   5  236.40    8.90
  -2   1   5  247.96    8.89
  -2   1   5  235.59    8.92
  -2   1   5  246.80    8.89
  -2   1   5  249.14    8.84
  -2   1   5  235.29    8.89
   1  -1  -5    0.24    0.21
   1  -1  -5    0.03    0.15
   1  -1  -5   -0.21    0.16
   1  -1  -5    0.06    0.17
   1  -1  -5   -0.01    0.21
   1  -1  -5    0.08    0.26
  -1   1   5    0.13    0.24
  -1   1   5    0.00    0.18
  -1   1   5    0.30    0.18
  -1   1   5    0.13    0.16
  -1   1   5    0.13    0.21
  -1   1   5    0.17    0.21
   0  -1  -5  329.56   11.77
   0  -1  -5  313.61   11.75
   0  -1  -5  326.27   11.78
   0  -1  -5  336.02   11.80
   0  -1  -5  313.39   11.81
   0   1   5  307.59   11.77
   0   1   5  332.13   11.77
   0   1   5  326.14   11.76
   0   1   5  323.09   11.67
   0   1   5  314.05   11.80
   0   1   5  338.34   11.80
  -1  -1  -5   15.27    0.79
  -1  -1  -5   16.64    0.79
  -1  -1  -5   16.16    0.80
  -1  -1  -5   16.09    0.74
  -1  -1  -5   15.94    0.77
   1   1   5   15.84    0.78
   1   1   5   14.42    0.76
   1   1   5   15.12    0.76
   1   1   5   15.91    0.79
   1   1   5   15.93    0.73
   1   1   5   17.68    0.83
  -2  -1  -5  135.47    5.07
  -2  -1  -5  135.89    5.05
  -2  -1  -5  135.63    5.16
  -2  -1  -5  137.74    5.10
  -2  -1  -5  137.14    5.05
  -2  -1  -5  142.44    5.09
   2   1   5  135.59    5.09
   2   1   5  132.96    5.08
   2   1   5  137.29    5.09
   2   1   5  135.89    5.10
   2   1   5  140.66    5.10
   2   1   5  143.51    5.12
  -3  -1  -5   30.02    1.18
  -3  -1  -5   28.30    1.16
  -3  -1  -5   26.49    1.15
   3   1   5   25.32    1.15
   3   1   5   28.22    1.24
   3   1   5   28.77    1.36
   3   1   5   28.74    1.19
   3   1   5   28.10    1.18
   3   1   5   26.89    1.15
  -4  -1  -5    0.52    0.28
  -4  -1  -5    0.01    0.19
   4   1   5    0.41    0.26
   4   1   5    0.89    0.30
   4   1   5    0.67    0.35
   4   1   5    0.54    0.18
   4   1   5    0.19    0.18
   4   1   5    0.39    0.21
   4   1   5    0.25    0.15
   4   1   5    0.49    0.21
  -5  -1  -5   33.31    1.68
  -5  -1  -5   32.91    1.43
   5   1   5   34.48    1.55
   5   1   5   32.95    1.56
   5   1   5   31.41    1.53
   5   1   5   34.18    1.47
   5   1   5   31.45    1.71
  -6  -1  -5  105.47    4.27
   6   1   5  105.43    4.15
   6   1   5  107.98    4.04
   6   1   5  102.29    4.11
   6   1   5  105.43    4.16
   6   1   5  102.53    4.15
   6   1   5   97.76    4.31
   6   1   5  103.14    3.99
   7   1   5   16.26    1.49
   7   1   5   16.76    1.42
   7   1   5   16.33    1.15
   7   1   5   16.72    1.69
   7   1   5   15.55    1.34
   7   1   5   15.54    1.42
   7   1   5   15.34    1.00
   8   1   5   10.08    1.49
   8   1   5    9.28    1.34
   6  -2  -5    0.98    0.88
   6  -2  -5    0.09    0.61
   6  -2  -5   -0.43    0.60
   6  -2  -5   -0.20    0.55
  -6   2   5   -0.08    0.66
  -6   2   5    0.74    0.55
   5  -2  -5    7.61    0.83
   5  -2  -5    8.64    0.90
   5  -2  -5    8.26    1.18
   5  -2  -5    8.55    0.91
   5  -2  -5    7.80    1.51
   5  -2  -5    8.10    0.92
  -5   2   5    8.43    0.82
  -5   2   5    7.67    1.01
  -5   2   5    8.33    1.01
  -5   2   5    8.56    1.16
   4  -2  -5    1.43    0.61
   4  -2  -5    0.45    0.39
   4  -2  -5   -0.69    0.33
   4  -2  -5   -0.11    0.34
   4  -2  -5    0.55    0.50
   4  -2  -5    0.33    0.32
  -4   2   5   -0.72    0.35
  -4   2   5    0.23    0.30
  -4   2   5   -0.12    0.39
  -4   2   5    0.74    0.34
  -4   2   5    0.10    0.34
  -4   2   5    0.40    0.39
   3  -2  -5   20.50    1.02
   3  -2  -5   18.60    1.05
   3  -2  -5   20.41    1.11
   3  -2  -5   18.87    1.14
   3  -2  -5   18.36    1.25
   3  -2  -5   20.17    1.04
  -3   2   5   20.03    0.98
  -3   2   5   20.57    1.14
  -3   2   5   18.87    1.03
  -3   2   5   20.02    1.09
  -3   2   5   19.06    1.03
  -3   2   5   19.20    1.08
  -3   2   5   18.35    1.05
   2  -2  -5    1.18    0.37
   2  -2  -5    1.06    0.28
   2  -2  -5    1.65    0.31
   2  -2  -5    1.16    0.32
   2  -2  -5    0.71    0.24
  -2   2   5    0.82    0.30
  -2   2   5    1.14    0.31
  -2   2   5    0.96    0.28
  -2   2   5    1.18    0.30
  -2   2   5    1.36    0.29
  -2   2   5    1.48    0.35
   1  -2  -5  182.82    7.13
   1  -2  -5  197.44    7.09
   1  -2  -5  186.90    7.08
   1  -2  -5  185.37    7.10
   1  -2  -5  199.86    7.12
  -1   2   5  193.65    7.10
  -1   2   5  185.35    7.13
  -1   2   5  199.68    7.08
  -1   2   5  189.68    7.11
  -1   2   5  191.58    7.10
  -1   2   5  196.74    7.11
   0  -2  -5    0.08    0.17
   0  -2  -5    0.18    0.22
   0  -2  -5   -0.06    0.16
   0  -2  -5    0.02    0.20
   0  -2  -5    0.14    0.15
   0   2   5   -0.02    0.16
   0   2   5    0.00    0.19
   0   2   5    0.09    0.16
   0   2   5    0.39    0.20
   0   2   5    0.29    0.19
   0   2   5    0.24    0.21
  -1  -2  -5  220.30    7.78
  -1  -2  -5  206.86    7.78
  -1  -2  -5  214.23    7.76
  -1  -2  -5  201.11    7.79
  -1  -2  -5  210.18    7.80
   1   2   5  214.20    7.81
   1   2   5  212.68    7.80
   1   2   5  208.80    7.71
   1   2   5  212.23    7.79
   1   2   5  215.10    7.78
   1   2   5  218.97    7.78
  -2  -2  -5    1.27    0.29
  -2  -2  -5    1.07    0.30
  -2  -2  -5    1.00    0.24
  -2  -2  -5    0.92    0.20
  -2  -2  -5    1.24    0.20
  -2  -2  -5    0.84    0.21
   2   2   5    1.10    0.29
   2   2   5    1.36    0.31
   2   2   5    0.80    0.19
   2   2   5    0.83    0.23
   2   2   5    1.23    0.30
   2   2   5    0.70    0.21
  -3  -2  -5    3.64    0.29
  -3  -2  -5    3.65    0.35
  -3  -2  -5    3.52    0.43
  -3  -2  -5    4.00    0.39
   3   2   5    3.61    0.42
   3   2   5    4.24    0.41
   3   2   5    3.28    0.33
   3   2   5    3.60    0.41
   3   2   5    3.22    0.38
   3   2   5    3.83    0.34
  -4  -2  -5    4.60    0.46
  -4  -2  -5    4.82    0.36
  -4  -2  -5    4.71    0.60
  -4  -2  -5    4.50    0.40
   4   2   5    4.31    0.66
   4   2   5    4.44    0.38
   4   2   5    5.40    0.52
   4   2   5    4.51    0.37
   4   2   5    4.81    0.43
   4   2   5    4.15    0.41
   4   2   5    4.68    0.44
  -5  -2  -5   61.31    2.73
   5   2   5   65.06    2.51
   5   2   5   63.86    2.61
   5   2   5   63.01    2.65
   5   2   5   62.07    2.43
   5   2   5   62.67    2.75
   5   2   5   63.06    2.42
   5   2   5   66.98    2.64
  -6  -2  -5    0.83    0.44
   6   2   5    0.68    0.61
   6   2   5    0.75    0.56
   6   2   5    0.94    0.56
   6   2   5    1.20    0.35
   6   2   5    0.97    0.52
   7   2   5   48.82    2.60
   7   2   5   48.85    2.36
   7   2   5   51.05    2.22
   7   2   5   49.69    2.57
   7   2   5   51.06    2.42
   8   2   5    4.36    1.23
   8   2   5    5.58    1.11
   8   2   5    4.59    0.86
   6  -3  -5  162.17    6.36
   6  -3  -5  163.45    6.36
   6  -3  -5  161.29    6.28
  -6   3   5  160.48    6.58
  -6   3   5  163.64    6.28
   5  -3  -5    3.66    0.80
   5  -3  -5    3.82    0.79
   5  -3  -5    5.64    0.92
   5  -3  -5    3.18    0.83
   5  -3  -5    3.67    0.58
  -5   3   5    3.51    0.94
  -5   3   5    3.73    0.90
  -5   3   5    3.43    0.69
   4  -3  -5  169.01    6.62
   4  -3  -5  177.06    6.63
   4  -3  -5  176.03    6.59
   4  -3  -5  173.38    6.56
   4  -3  -5  171.22    6.60
  -4   3   5  174.76    6.76
  -4   3   5  176.97    6.55
  -4   3   5  178.77    6.43
  -4   3   5  170.99    6.60
  -4   3   5  167.45    6.50
   3  -3  -5    4.59    0.60
   3  -3  -5    4.47    0.64
   3  -3  -5    4.27    0.70
   3  -3  -5    4.91    0.56
   3  -3  -5    5.42    0.52
  -3   3   5    4.32    0.61
  -3   3   5    4.93    0.62
  -3   3   5    4.10    0.64
  -3   3   5    3.80    0.52
  -3   3   5    4.49    0.61
  -3   3   5    5.36    0.69
   2  -3  -5    5.87    0.55
   2  -3  -5    5.87    0.65
   2  -3  -5    5.40    0.52
   2  -3  -5    5.91    0.61
   2  -3  -5    5.01    0.48
  -2   3   5    4.94    0.43
  -2   3   5    5.93    0.62
  -2   3   5    5.85    0.54
  -2   3   5    6.49    0.61
  -2   3   5    6.00    0.59
  -2   3   5    5.95    0.58
  -2   3   5    4.90    0.56
   1  -3  -5    0.59    0.28
   1  -3  -5    0.38    0.23
   1  -3  -5    0.66    0.27
   1  -3  -5    0.77    0.26
   1  -3  -5    0.57    0.20
  -1   3   5    0.49    0.25
  -1   3   5    0.69    0.30
  -1   3   5    0.41    0.24
  -1   3   5    0.23    0.25
  -1   3   5    0.61    0.25
  -1   3   5    0.72    0.22
  -1   3   5    0.51    0.22
   0  -3  -5    5.39    0.43
   0  -3  -5    5.27    0.52
   0  -3  -5    5.41    0.51
   0  -3  -5    4.25    0.44
   0  -3  -5    4.72    0.40
   0   3   5    4.92    0.45
   0   3   5    5.53    0.47
   0   3   5    5.71    0.47
   0   3   5    6.00    0.48
   0   3   5    5.22    0.46
   0   3   5    5.31    0.49
  -1  -3  -5    7.29    0.47
  -1  -3  -5    6.67    0.46
  -1  -3  -5    6.95    0.52
  -1  -3  -5    7.36    0.51
  -1  -3  -5    7.20    0.53
  -1  -3  -5    6.86    0.42
   1   3   5    6.58    0.51
   1   3   5    7.06    0.49
   1   3   5    6.79    0.50
   1   3   5    7.47    0.53
   1   3   5    6.77    0.48
   1   3   5    7.36    0.43
  -2  -3  -5   74.04    2.85
  -2  -3  -5   73.56    2.86
  -2  -3  -5   77.41    2.96
  -2  -3  -5   71.88    2.88
  -2  -3  -5   77.50    2.90
   2   3   5   75.47    2.86
   2   3   5   71.86    2.88
   2   3   5   78.15    2.90
   2   3   5   73.03    2.90
   2   3   5   77.32    2.92
   2   3   5   75.44    2.86
  -3  -3  -5    3.20    0.35
  -3  -3  -5    2.39    0.40
  -3  -3  -5    3.03    0.30
  -3  -3  -5    3.06    0.41
  -3  -3  -5    2.40    0.37
   3   3   5    2.72    0.35
   3   3   5    2.69    0.38
   3   3   5    2.86    0.34
   3   3   5    3.33    0.38
   3   3   5    2.56    0.42
   3   3   5    2.82    0.41
  -4  -3  -5   81.63    3.14
  -4  -3  -5   85.90    3.12
  -4  -3  -5   81.12    3.20
  -4  -3  -5   81.40    3.31
   4   3   5   81.09    3.12
   4   3   5   82.21    3.14
   4   3   5   78.95    3.13
   4   3   5   85.89    3.16
   4   3   5   82.75    3.22
  -5  -3  -5    2.06    0.48
  -5  -3  -5    1.62    0.41
   5   3   5    1.89    0.53
   5   3   5    1.63    0.30
   5   3   5    2.16    0.45
   5   3   5    2.37    0.47
   5   3   5    1.61    0.38
   5   3   5    1.95    0.45
  -6  -3  -5    3.07    0.77
  -6  -3  -5    3.06    0.64
   6   3   5    1.85    0.60
   6   3   5    3.57    0.73
   6   3   5    3.14    0.58
   6   3   5    2.13    0.55
   6   3   5    2.93    0.47
   6   3   5    2.67    0.67
  -7  -3  -5    0.37    0.57
   7   3   5    0.61    0.91
   7   3   5   -0.19    0.44
   8   3   5   41.10    2.23
   8   3   5   48.73    2.46
   6  -4  -5    2.71    0.76
   6  -4  -5    3.20    0.86
   6  -4  -5    2.95    0.73
  -6   4   5    3.86    0.77
  -6   4   5    4.77    1.36
   5  -4  -5    1.24    0.53
   5  -4  -5    1.15    0.61
   5  -4  -5    1.17    0.47
   5  -4  -5    1.07    0.68
  -5   4   5    2.71    0.73
  -5   4   5    1.49    0.49
   4  -4  -5    1.71    0.42
   4  -4  -5    2.34    0.63
   4  -4  -5    1.27    0.48
   4  -4  -5    2.33    0.55
   4  -4  -5    1.48    0.55
  -4   4   5    1.86    0.46
  -4   4   5    1.42    0.60
  -4   4   5    1.89    0.38
  -4   4   5    1.28    0.46
  -4   4   5    1.19    0.45
  -4   4   5    2.03    0.59
   3  -4  -5   17.73    0.99
   3  -4  -5   16.38    1.07
   3  -4  -5   16.66    1.00
   3  -4  -5   16.02    1.10
   3  -4  -5   17.44    0.98
  -3   4   5   16.33    1.17
  -3   4   5   17.83    1.05
  -3   4   5   17.92    1.04
  -3   4   5   17.04    0.86
  -3   4   5   16.10    1.04
  -3   4   5   16.26    0.92
   2  -4  -5    4.78    0.63
   2  -4  -5    4.44    0.51
   2  -4  -5    4.55    0.47
   2  -4  -5    5.80    0.68
   2  -4  -5    5.11    0.55
   2  -4  -5    5.14    0.57
  -2   4   5    5.61    0.64
  -2   4   5    5.08    0.47
  -2   4   5    3.43    0.54
  -2   4   5    4.97    0.54
  -2   4   5    4.81    0.59
  -2   4   5    4.45    0.58
  -2   4   5    5.30    0.69
   1  -4  -5    0.12    0.24
   1  -4  -5    0.28    0.26
   1  -4  -5    0.21    0.28
   1  -4  -5    0.48    0.25
   1  -4  -5    0.50    0.23
  -1   4   5    0.40    0.23
  -1   4   5    0.31    0.24
  -1   4   5    0.23    0.29
  -1   4   5   -0.04    0.28
  -1   4   5    0.21    0.26
  -1   4   5   -0.22    0.24
  -1   4   5   -0.06    0.25
   0  -4  -5   13.53    0.75
   0  -4  -5   13.39    0.74
   0  -4  -5   13.86    0.82
   0  -4  -5   13.50    0.82
   0  -4  -5   12.90    0.78
   0   4   5   14.47    0.83
   0   4   5   14.35    0.78
   0   4   5   14.06    0.78
   0   4   5   13.19    0.76
   0   4   5   13.56    0.78
   0   4   5   14.35    0.82
  -1  -4  -5   92.55    3.70
  -1  -4  -5   94.34    3.76
  -1  -4  -5   96.27    3.64
  -1  -4  -5   98.79    3.75
  -1  -4  -5   95.69    3.69
   1   4   5   97.86    3.75
   1   4   5  100.27    3.71
   1   4   5  104.40    3.75
   1   4   5   96.19    3.64
   1   4   5  101.00    3.78
   1   4   5   96.71    3.77
  -2  -4  -5   19.40    0.86
  -2  -4  -5   17.25    0.90
  -2  -4  -5   18.57    0.96
  -2  -4  -5   17.89    0.86
  -2  -4  -5   18.08    0.92
  -2  -4  -5   18.51    0.86
   2   4   5   17.24    0.90
   2   4   5   18.72    0.87
   2   4   5   18.38    0.92
   2   4   5   17.80    0.95
   2   4   5   19.07    0.88
   2   4   5   17.32    0.91
  -3  -4  -5  554.06   20.06
  -3  -4  -5  516.67   19.93
  -3  -4  -5  544.74   19.91
  -3  -4  -5  549.79   19.96
  -3  -4  -5  547.20   19.97
  -3  -4  -5  592.38   20.01
   3   4   5  555.51   19.97
   3   4   5  552.71   19.99
   3   4   5  560.77   20.00
   3   4   5  556.38   19.98
   3   4   5  551.22   19.97
  -4  -4  -5   12.37    0.77
  -4  -4  -5   12.55    0.84
  -4  -4  -5   12.31    0.75
  -4  -4  -5   12.57    0.73
   4   4   5   13.58    0.75
   4   4   5   12.89    0.83
   4   4   5   12.93    0.79
   4   4   5   13.25    0.77
   4   4   5   13.51    0.71
  -5  -4  -5  245.28    8.86
  -5  -4  -5  236.75    8.98
  -5  -4  -5  233.95    8.75
  -5  -4  -5  236.31    8.71
   5   4   5  229.67    8.68
   5   4   5  245.22    8.78
   5   4   5  237.48    8.74
   5   4   5  247.80    8.78
   5   4   5  238.06    8.77
  -6  -4  -5    2.75    0.60
  -6  -4  -5    2.82    0.68
   6   4   5    3.40    0.57
   6   4   5    4.35    0.66
   6   4   5    3.05    0.42
   6   4   5    4.10    0.94
  -7  -4  -5   44.34    2.18
  -7  -4  -5   39.76    2.00
   7   4   5   39.67    1.85
   7   4   5   41.10    1.79
   7   4   5   42.98    1.89
   7   4   5   39.13    2.51
   6  -5  -5    4.98    1.03
   6  -5  -5    2.36    0.80
  -6   5   5    4.32    1.05
  -6   5   5    4.45    1.01
   5  -5  -5    0.71    0.63
   5  -5  -5   -0.10    0.51
   5  -5  -5    0.77    0.53
  -5   5   5    1.12    0.51
  -5   5   5    0.20    0.74
  -5   5   5    0.66    0.57
   4  -5  -5  171.51    6.63
   4  -5  -5  172.46    6.56
   4  -5  -5  172.86    6.60
   4  -5  -5  163.22    6.62
   4  -5  -5  174.02    6.61
   4  -5  -5  166.81    6.56
  -4   5   5  170.13    6.40
  -4   5   5  182.89    6.44
  -4   5   5  167.43    6.58
  -4   5   5  176.67    6.83
  -4   5   5  165.28    6.50
  -4   5   5  180.92    6.50
   3  -5  -5    0.44    0.35
   3  -5  -5   -0.24    0.36
   3  -5  -5    0.05    0.41
   3  -5  -5    0.26    0.37
   3  -5  -5    0.41    0.35
  -3   5   5    0.00    0.51
  -3   5   5   -0.06    0.29
  -3   5   5    0.07    0.39
  -3   5   5    0.37    0.34
  -3   5   5    0.07    0.35
  -3   5   5    0.28    0.41
   2  -5  -5  414.43   15.39
   2  -5  -5  421.42   15.29
   2  -5  -5  401.78   15.38
   2  -5  -5  432.89   15.43
   2  -5  -5  414.39   15.36
  -2   5   5  414.03   15.39
  -2   5   5  424.88   15.28
  -2   5   5  416.03   15.39
  -2   5   5  434.33   15.39
  -2   5   5  434.90   15.33
  -2   5   5  423.41   15.39
  -2   5   5  416.22   15.51
   1  -5  -5    2.24    0.36
   1  -5  -5    3.30    0.58
   1  -5  -5    2.95    0.51
   1  -5  -5    2.19    0.43
   1  -5  -5    3.09    0.48
   1  -5  -5    2.35    0.45
  -1   5   5    2.79    0.59
  -1   5   5    2.29    0.42
  -1   5   5    2.05    0.52
  -1   5   5    2.90    0.50
  -1   5   5    3.02    0.53
  -1   5   5    2.44    0.50
  -1   5   5    3.03    0.60
   0  -5  -5  419.53   15.39
   0  -5  -5  430.12   15.47
   0  -5  -5  429.99   15.44
   0  -5  -5  413.34   15.41
   0  -5  -5  406.39   15.26
   0  -5  -5  422.34   15.46
   0   5   5  438.52   15.40
   0   5   5  418.02   15.46
   0   5   5  425.71   15.42
   0   5   5  434.49   15.40
   0   5   5  396.22   15.42
   0   5   5  448.33   15.47
  -1  -5  -5    0.02    0.25
  -1  -5  -5   -0.50    0.24
  -1  -5  -5    0.41    0.24
  -1  -5  -5    0.31    0.21
  -1  -5  -5    0.43    0.24
  -1  -5  -5    0.03    0.19
   1   5   5    0.31    0.27
   1   5   5   -0.25    0.25
   1   5   5    0.00    0.23
   1   5   5    0.16    0.27
   1   5   5   -0.08    0.26
   1   5   5    0.18    0.26
  -2  -5  -5   98.35    3.68
  -2  -5  -5  100.82    3.80
  -2  -5  -5   85.56    3.74
  -2  -5  -5   97.71    3.69
  -2  -5  -5  101.38    3.78
  -2  -5  -5   98.46    3.72
   2   5   5  102.88    3.80
   2   5   5   94.98    3.76
   2   5   5  100.43    3.77
   2   5   5   98.23    3.68
   2   5   5   93.41    3.75
   2   5   5   96.71    3.79
  -3  -5  -5   19.20    1.01
  -3  -5  -5   18.48    0.94
  -3  -5  -5   18.55    0.91
  -3  -5  -5   19.21    1.02
  -3  -5  -5   16.84    0.98
  -3  -5  -5   19.10    0.99
   3   5   5   18.72    0.99
   3   5   5   18.99    0.98
   3   5   5   18.54    0.99
   3   5   5   18.38    0.95
   3   5   5   18.77    1.02
  -4  -5  -5   37.59    1.53
  -4  -5  -5   38.04    1.76
  -4  -5  -5   38.26    1.68
  -4  -5  -5   37.92    1.75
  -4  -5  -5   35.90    1.57
   4   5   5   38.73    1.72
   4   5   5   39.77    1.68
   4   5   5   37.63    1.78
   4   5   5   37.26    1.67
   4   5   5   40.37    1.72
   4   5   5   38.47    1.64
  -5  -5  -5   37.73    1.70
  -5  -5  -5   37.13    1.77
  -5  -5  -5   36.96    1.59
   5   5   5   30.68    1.66
   5   5   5   38.05    1.61
   5   5   5   38.78    1.69
   5   5   5   38.14    1.65
  -6  -5  -5   25.55    1.56
  -6  -5  -5   25.86    1.41
   6   5   5   26.58    1.22
   6   5   5   25.98    1.37
   6   5   5   25.29    1.66
   6   5   5   25.74    1.37
   6   5   5   25.15    1.30
  -7  -5  -5   35.00    1.90
  -7  -5  -5   33.98    1.76
   7   5   5   29.86    1.69
   7   5   5   29.97    1.55
   7   5   5   31.59    1.55
  -8  -5  -5   17.58    1.58
   8   5   5   20.50    2.79
   8   5   5   18.55    1.35
   5  -6  -5   59.24    2.70
   5  -6  -5   54.61    2.68
   5  -6  -5   59.11    2.78
  -5   6   5   57.90    3.05
  -5   6   5   61.10    2.53
   4  -6  -5    6.33    0.90
   4  -6  -5    7.63    1.00
   4  -6  -5    7.29    0.96
   4  -6  -5    6.21    0.90
   4  -6  -5    4.71    0.82
  -4   6   5    6.78    0.77
  -4   6   5    5.79    0.94
  -4   6   5    6.83    0.75
  -4   6   5    6.86    1.24
  -4   6   5    5.60    0.80
  -4   6   5    5.23    0.92
   3  -6  -5   68.51    2.71
   3  -6  -5   63.52    2.72
   3  -6  -5   59.47    2.81
   3  -6  -5   65.90    2.79
   3  -6  -5   64.54    2.79
   3  -6  -5   64.52    2.78
  -3   6   5   64.75    2.64
  -3   6   5   60.59    2.74
  -3   6   5   64.42    2.77
  -3   6   5   63.34    2.77
  -3   6   5   68.90    2.69
  -3   6   5   63.58    2.97
   2  -6  -5    3.11    0.53
   2  -6  -5    3.01    0.64
   2  -6  -5    2.43    0.57
   2  -6  -5    2.59    0.55
   2  -6  -5    2.35    0.68
   2  -6  -5    2.94    0.62
  -2   6   5    1.84    0.48
  -2   6   5    2.89    0.52
  -2   6   5    2.25    0.56
  -2   6   5    3.56    0.66
  -2   6   5    3.24    0.61
  -2   6   5    2.18    0.50
  -2   6   5    3.28    0.87
   1  -6  -5    4.09    0.59
   1  -6  -5    4.42    0.56
   1  -6  -5    2.31    0.62
   1  -6  -5    3.67    0.45
   1  -6  -5    4.76    0.64
  -1   6   5    4.80    0.68
  -1   6   5    3.10    0.67
  -1   6   5    4.19    0.64
  -1   6   5    4.72    0.72
  -1   6   5    4.08    0.60
  -1   6   5    3.36    0.64
  -1   6   5    4.50    0.66
   0  -6  -5   31.98    1.45
   0  -6  -5   31.43    1.44
   0  -6  -5   29.73    1.28
   0  -6  -5   32.49    1.51
   0  -6  -5   29.78    1.29
   0  -6  -5   29.45    1.51
   0   6   5   28.99    1.47
   0   6   5   31.60    1.52
   0   6   5   31.89    1.46
   0   6   5   31.51    1.47
   0   6   5   31.80    1.53
   0   6   5   31.05    1.47
  -1  -6  -5   14.88    0.82
  -1  -6  -5   15.37    0.95
  -1  -6  -5   14.33    0.91
  -1  -6  -5   14.14    0.96
  -1  -6  -5   13.88    0.85
  -1  -6  -5   15.28    0.76
   1   6   5   14.57    0.90
   1   6   5   14.43    0.92
   1   6   5   14.65    0.88
   1   6   5   15.22    0.94
   1   6   5   14.77    0.96
   1   6   5   12.78    0.83
  -2  -6  -5   37.32    1.67
  -2  -6  -5   35.11    1.56
  -2  -6  -5   34.67    1.52
  -2  -6  -5   33.93    1.48
  -2  -6  -5   36.06    1.63
  -2  -6  -5   35.65    1.62
   2   6   5   36.94    1.52
   2   6   5   32.23    1.59
   2   6   5   35.88    1.62
   2   6   5   35.07    1.64
   2   6   5   35.39    1.62
   2   6   5   35.42    1.64
  -3  -6  -5    1.40    0.31
  -3  -6  -5    1.60    0.42
  -3  -6  -5    0.47    0.32
  -3  -6  -5    1.03    0.32
  -3  -6  -5    1.04    0.36
   3   6   5    1.40    0.42
   3   6   5    0.55    0.36
   3   6   5    1.10    0.41
   3   6   5    0.84    0.31
   3   6   5    0.46    0.32
  -4  -6  -5   33.78    1.62
  -4  -6  -5   34.77    1.62
  -4  -6  -5   35.15    1.59
  -4  -6  -5   36.57    1.68
  -4  -6  -5   36.91    1.51
   4   6   5   38.23    1.78
   4   6   5   38.05    1.72
   4   6   5   34.07    1.62
   4   6   5   36.21    1.67
   4   6   5   34.82    1.66
   4   6   5   35.37    1.71
  -5  -6  -5   64.12    2.70
  -5  -6  -5   63.35    2.84
  -5  -6  -5   67.56    2.79
   5   6   5   64.85    2.82
   5   6   5   69.65    2.81
   5   6   5   66.40    2.76
   5   6   5   70.88    2.73
   5   6   5   68.14    2.81
  -6  -6  -5   17.63    1.11
  -6  -6  -5   19.27    1.23
  -6  -6  -5   17.62    1.32
   6   6   5   18.48    1.18
   6   6   5   17.61    1.28
   6   6   5   17.14    1.27
   6   6   5   18.70    1.08
   6   6   5   16.49    1.38
  -7  -6  -5  146.59    5.56
  -7  -6  -5  147.35    5.67
   7   6   5  136.77    5.48
   7   6   5  137.93    5.56
   7   6   5  147.62    5.33
   7   6   5  125.72    5.39
   5  -7  -5    4.38    1.18
   5  -7  -5    7.99    1.22
   5  -7  -5    7.05    1.30
  -5   7   5    5.28    1.59
  -5   7   5    5.60    0.92
   4  -7  -5   23.93    1.54
   4  -7  -5   24.15    1.60
   4  -7  -5   24.78    1.64
  -4   7   5   23.91    1.42
  -4   7   5   27.49    1.35
  -4   7   5   25.66    1.55
  -4   7   5   23.63    1.56
  -4   7   5   26.06    2.00
   3  -7  -5    5.05    0.77
   3  -7  -5    6.18    0.99
   3  -7  -5    4.32    0.85
   3  -7  -5    4.76    0.89
  -3   7   5    5.13    0.91
  -3   7   5    5.86    1.21
  -3   7   5    4.24    0.94
   2  -7  -5    6.89    0.84
   2  -7  -5    5.96    0.70
   2  -7  -5    5.42    0.74
   2  -7  -5    4.98    1.03
   2  -7  -5    5.13    0.79
   2  -7  -5    5.25    0.91
  -2   7   5    5.12    0.91
  -2   7   5    6.76    0.90
  -2   7   5    3.49    1.04
  -2   7   5    7.08    0.97
  -2   7   5    5.64    0.99
  -2   7   5    7.20    0.89
   1  -7  -5    7.75    0.78
   1  -7  -5    8.58    0.87
   1  -7  -5    8.79    0.79
   1  -7  -5   11.02    0.72
   1  -7  -5    8.98    0.94
  -1   7   5    9.39    1.07
  -1   7   5   10.91    0.99
  -1   7   5   10.61    0.92
  -1   7   5    8.38    0.88
  -1   7   5    7.44    0.93
  -1   7   5    8.96    0.89
   0  -7  -5  182.29    6.87
   0  -7  -5  189.74    7.09
   0  -7  -5  186.49    7.00
   0  -7  -5  194.24    7.12
   0  -7  -5  183.89    6.85
   0  -7  -5  194.00    7.06
   0   7   5  187.71    7.00
   0   7   5  174.96    7.06
   0   7   5  194.71    7.13
   0   7   5  181.95    7.04
   0   7   5  184.82    7.09
   0   7   5  184.88    7.03
  -1  -7  -5    0.05    0.38
  -1  -7  -5   -0.27    0.32
  -1  -7  -5    0.32    0.28
  -1  -7  -5    0.90    0.39
  -1  -7  -5    0.47    0.33
   1   7   5   -0.13    0.36
   1   7   5   -0.11    0.34
   1   7   5    0.17    0.36
   1   7   5   -0.74    0.38
   1   7   5    0.00    0.43
  -2  -7  -5  257.17    9.35
  -2  -7  -5  260.46    9.55
  -2  -7  -5  269.45    9.47
  -2  -7  -5  263.25    9.53
  -2  -7  -5  249.18    9.51
  -2  -7  -5  257.57    9.40
   2   7   5  253.21    9.50
   2   7   5  264.36    9.36
   2   7   5  257.03    9.54
   2   7   5  227.07    9.50
   2   7   5  250.77    9.50
  -3  -7  -5    0.63    0.42
  -3  -7  -5    0.46    0.33
  -3  -7  -5    0.37    0.42
  -3  -7  -5   -0.17    0.39
  -3  -7  -5    0.06    0.35
   3   7   5    0.21    0.37
   3   7   5   -0.30    0.47
   3   7   5    0.15    0.46
   3   7   5    0.57    0.53
   3   7   5    0.21    0.44
   3   7   5   -0.44    0.33
  -4  -7  -5  132.30    5.15
  -4  -7  -5  133.95    5.23
  -4  -7  -5  142.63    5.08
  -4  -7  -5  136.73    5.18
  -4  -7  -5  133.94    5.20
   4   7   5  134.98    5.20
   4   7   5  131.60    5.24
   4   7   5  140.76    5.26
   4   7   5  132.76    5.25
   4   7   5  127.51    5.20
  -5  -7  -5    2.66    0.58
  -5  -7  -5    4.70    0.78
   5   7   5    4.86    1.04
   5   7   5    3.78    0.86
   5   7   5    6.09    1.13
   5   7   5    4.41    1.16
   5   7   5    2.54    0.73
   5   7   5    2.02    0.64
  -6  -7  -5   71.61    3.03
  -6  -7  -5   71.65    3.13
  -6  -7  -5   76.22    2.95
   6   7   5   75.53    2.94
   6   7   5   72.84    3.02
   6   7   5   64.58    3.05
   6   7   5   63.44    3.12
   6   7   5   62.84    3.07
  -7  -7  -5   19.93    1.73
  -7  -7  -5   23.27    1.63
   7   7   5   18.67    1.81
   7   7   5   20.95    1.52
   7   7   5   21.55    1.33
   4  -8  -5    2.84    0.71
   4  -8  -5    2.46    0.86
   4  -8  -5    2.10    0.74
  -4   8   5    2.48    0.75
  -4   8   5    0.92    0.76
  -4   8   5    1.87    1.03
   3  -8  -5   55.21    2.70
   3  -8  -5   51.56    2.50
   3  -8  -5   54.94    2.52
   3  -8  -5   56.86    2.60
   3  -8  -5   53.52    2.58
  -3   8   5   53.00    2.46
  -3   8   5   56.84    2.90
  -3   8   5   51.25    2.51
  -3   8   5   56.37    2.58
  -3   8   5   53.08    2.60
   2  -8  -5   11.55    1.01
   2  -8  -5   10.60    1.08
   2  -8  -5   11.83    1.06
   2  -8  -5   11.71    1.26
   2  -8  -5    9.88    1.06
  -2   8   5   11.44    1.05
  -2   8   5    9.41    1.27
  -2   8   5    9.46    1.15
  -2   8   5   11.76    1.43
  -2   8   5    9.97    1.15
  -2   8   5    9.31    1.16
   1  -8  -5   31.04    1.57
   1  -8  -5   29.27    1.56
   1  -8  -5   32.85    1.74
   1  -8  -5   28.18    1.62
   1  -8  -5   30.12    1.45
  -1   8   5   26.10    1.64
  -1   8   5   29.36    1.69
  -1   8   5   28.44    1.83
  -1   8   5   28.29    1.65
  -1   8   5   29.42    1.67
  -1   8   5   28.88    1.73
  -1   8   5   33.06    1.70
   0  -8  -5    2.97    0.80
   0  -8  -5    1.33    0.48
   0  -8  -5    2.13    0.49
   0  -8  -5    1.37    0.33
   0  -8  -5    2.07    0.52
   0  -8  -5    0.74    0.52
   0  -8  -5   -0.09    0.53
   0   8   5    1.12    0.57
   0   8   5    1.31    0.55
   0   8   5    0.15    0.60
   0   8   5    1.94    0.51
   0   8   5    1.32    0.56
   0   8   5    1.78    0.57
  -1  -8  -5   16.34    0.89
  -1  -8  -5   15.05    1.01
  -1  -8  -5   11.75    1.10
  -1  -8  -5   14.41    0.96
  -1  -8  -5   11.60    1.16
   1   8   5   14.48    1.12
   1   8   5   14.21    1.06
   1   8   5   13.62    1.15
   1   8   5   14.52    1.00
  -2  -8  -5    1.77    0.56
  -2  -8  -5    2.22    0.59
  -2  -8  -5    1.00    0.51
  -2  -8  -5    2.83    0.69
  -2  -8  -5    2.96    0.57
   2   8   5    2.68    0.75
   2   8   5    2.13    0.57
   2   8   5    2.11    0.57
   2   8   5    2.49    0.65
   2   8   5    1.85    0.49
  -3  -8  -5   20.66    1.18
  -3  -8  -5   21.15    1.32
  -3  -8  -5   19.87    1.40
  -3  -8  -5   21.50    1.18
  -3  -8  -5   20.13    1.43
   3   8   5   20.17    1.26
   3   8   5   21.64    1.43
   3   8   5   18.56    1.39
   3   8   5   21.08    1.33
   3   8   5   18.86    1.38
  -4  -8  -5   12.97    1.19
  -4  -8  -5   12.37    0.90
  -4  -8  -5   12.22    1.02
  -4  -8  -5   13.86    1.02
  -4  -8  -5   12.31    1.12
   4   8   5   14.25    1.32
   4   8   5   11.26    1.28
   4   8   5   13.21    1.07
   4   8   5   11.78    1.30
   4   8   5   13.55    1.28
   4   8   5   14.14    1.18
  -5  -8  -5   55.55    2.18
  -5  -8  -5   44.98    2.40
  -5  -8  -5   55.82    2.46
  -5  -8  -5   56.33    2.44
   5   8   5   55.04    2.43
   5   8   5   55.99    2.61
   5   8   5   55.12    2.50
   5   8   5   46.32    2.51
  -6  -8  -5   13.90    1.43
  -6  -8  -5   15.03    1.38
   6   8   5   13.00    1.35
   6   8   5   15.10    1.25
   3  -9  -5    2.89    0.78
   3  -9  -5    4.86    1.37
   3  -9  -5    3.54    0.93
   3  -9  -5    5.05    1.27
  -3   9   5    2.62    1.16
  -3   9   5    6.06    1.39
   2  -9  -5  108.61    4.43
   2  -9  -5  110.94    4.70
   2  -9  -5  112.74    4.57
   2  -9  -5  112.88    4.57
   2  -9  -5  106.38    4.60
  -2   9   5  111.71    4.65
  -2   9   5  112.87    4.64
  -2   9   5  111.67    4.89
   1  -9  -5    2.40    0.58
   1  -9  -5    5.62    0.98
   1  -9  -5    2.83    0.78
   1  -9  -5    2.50    0.64
   1  -9  -5    1.22    0.68
  -1   9   5    2.03    0.91
  -1   9   5    3.44    0.78
  -1   9   5    3.06    0.72
  -1   9   5    2.36    0.79
  -1   9   5    2.50    0.80
   0  -9  -5  127.60    4.88
   0  -9  -5  114.45    4.77
   0  -9  -5  121.67    4.65
   0  -9  -5  116.72    4.50
   0  -9  -5  119.37    4.73
   0   9   5  120.05    4.69
   0   9   5  114.29    4.81
   0   9   5  107.87    4.74
   0   9   5  115.41    4.83
  -1  -9  -5    8.01    0.88
  -1  -9  -5    6.25    1.19
  -1  -9  -5    6.17    1.08
  -1  -9  -5    6.88    0.91
  -1  -9  -5    5.15    0.75
   1   9   5    7.85    1.18
   1   9   5    7.25    1.27
   1   9   5    7.81    1.05
   1   9   5    8.25    1.01
  -2  -9  -5   17.46    1.38
  -2  -9  -5   17.77    1.55
  -2  -9  -5   17.40    1.57
  -2  -9  -5   18.95    1.23
  -2  -9  -5   17.40    1.09
  -2  -9  -5   19.99    1.15
   2   9   5   17.84    1.33
   2   9   5   17.98    1.45
   2   9   5   19.47    1.28
   2   9   5   20.14    1.53
  -3  -9  -5    1.42    1.06
  -3  -9  -5    1.23    0.65
  -3  -9  -5    1.99    0.56
  -3  -9  -5    1.27    0.52
   3   9   5    1.01    0.73
   3   9   5    1.28    0.61
   3   9   5    1.26    0.64
  -4  -9  -5   12.81    1.22
  -4  -9  -5   16.29    1.34
  -4  -9  -5   13.78    1.19
  -4  -9  -5   14.64    1.10
   4   9   5   15.83    1.43
   4   9   5   13.07    1.44
   4   9   5   12.76    1.24
   4   9   5   13.39    1.57
  -5  -9  -5    2.56    0.55
  -5  -9  -5    1.58    0.66
  -5  -9  -5    1.69    0.74
   5   9   5    2.37    0.76
   5   9   5    3.46    0.83
  -6  -9  -5   18.46    1.85
  -6  -9  -5   25.96    1.83
   6   9   5   29.21    1.93
   2 -10  -5    1.19    0.92
   2 -10  -5    0.15    0.87
   2 -10  -5    0.39    0.77
  -2  10   5   -0.46    1.12
  -2  10   5    1.39    0.87
  -2  10   5   -0.07    0.87
   1 -10  -5    1.88    0.99
   1 -10  -5    2.74    0.76
   1 -10  -5    3.60    0.87
   1 -10  -5    5.78    1.28
  -1  10   5    1.62    0.80
  -1  10   5    3.82    0.96
  -1  10   5    2.58    1.15
   0 -10  -5   13.57    1.09
   0 -10  -5   18.10    1.55
   0 -10  -5   15.69    1.30
   0 -10  -5   14.22    1.35
   0 -10  -5   12.02    1.67
   0  10   5   13.61    1.59
   0  10   5   15.75    1.52
   0  10   5   13.97    1.80
  -1 -10  -5    1.30    0.85
  -1 -10  -5    0.82    0.53
  -1 -10  -5   -0.33    0.61
  -1 -10  -5    2.24    0.68
  -1 -10  -5    0.37    0.69
   1  10   5    1.10    0.66
   1  10   5    0.80    0.67
   1  10   5    0.99    0.78
   1  10   5    0.65    0.87
  -2 -10  -5   17.27    1.35
  -2 -10  -5   15.08    1.18
  -2 -10  -5   16.53    1.12
  -2 -10  -5   14.96    1.55
   2  10   5   15.06    1.50
   2  10   5   15.49    1.84
   2  10   5   14.89    1.58
  -3 -10  -5    8.69    1.18
  -3 -10  -5   10.33    1.15
  -3 -10  -5    9.45    1.40
   3  10   5    9.21    1.38
   3  10   5    7.30    1.33
   3  10   5   10.47    1.53
  -4 -10  -5   11.78    1.32
  -4 -10  -5    9.32    1.76
  -4 -10  -5    7.03    1.25
  -4 -10  -5    9.49    1.15
   4  10   5   10.34    1.61
   4  10   5   10.64    1.40
  -5 -10  -5    0.79    0.75
  -5 -10  -5    0.27    0.88
  -5 -10  -5    0.57    0.75
   5  10   5   -0.87    0.93
   5  10   5   -0.35    0.83
   0 -11  -5   38.34    2.12
   0 -11  -5   33.81    1.83
   0 -11  -5   32.59    2.13
   0 -11  -5   39.35    2.41
   0  11   5   33.44    2.33
   0  11   5   29.36    2.49
  -1 -11  -5    0.10    0.92
  -1 -11  -5   -0.39    0.66
  -1 -11  -5   -0.45    0.77
  -1 -11  -5   -1.32    0.76
   1  11   5    0.87    1.17
   1  11   5   -0.24    0.86
   1  11   5   -1.42    0.98
  -2 -11  -5  146.57    5.90
  -2 -11  -5  148.60    6.06
  -2 -11  -5  148.09    5.77
   2  11   5  145.82    6.06
   2  11   5  146.67    6.16
  -3 -11  -5    0.51    0.81
  -3 -11  -5    1.97    0.86
   3  11   5   -1.33    0.92
   3  11   5   -0.94    1.10
   1  10  -6    4.71    1.40
   1  10  -6    9.87    1.47
   1  10  -6    7.29    1.70
  -1 -10   6    9.08    1.55
  -1 -10   6    8.46    1.71
  -1 -10   6    8.93    1.63
   0  10  -6   32.98    2.73
   0  10  -6   34.96    2.12
   0  10  -6   35.16    2.38
   0 -10   6   33.49    2.25
   0 -10   6   37.06    2.72
   0 -10   6   33.11    2.42
  -1  10  -6    5.15    1.01
  -1  10  -6    8.18    1.65
  -1  10  -6    4.08    1.27
   1 -10   6    8.45    1.87
   1 -10   6    4.51    1.10
   1 -10   6    5.12    1.25
   1 -10   6    4.96    1.18
  -2  10  -6    1.31    0.78
  -2  10  -6    0.19    0.85
   2 -10   6    0.16    1.16
   2 -10   6    0.79    1.11
   2 -10   6   -1.23    0.98
   2 -10   6    1.75    1.08
   3   9  -6    6.09    1.46
   2   9  -6    1.11    1.12
   2   9  -6    1.19    1.61
   2   9  -6    0.05    0.91
  -2  -9   6    0.87    0.87
  -2  -9   6    1.28    0.75
  -2  -9   6    0.02    0.77
  -2  -9   6   -0.49    0.95
   1   9  -6   21.33    1.85
   1   9  -6   17.80    2.62
   1   9  -6   21.54    2.18
   1   9  -6   20.63    1.58
  -1  -9   6   18.10    1.97
  -1  -9   6   16.74    2.34
  -1  -9   6   22.73    1.59
  -1  -9   6   22.11    1.81
   0   9  -6    1.69    0.79
   0   9  -6    0.27    0.57
   0   9  -6    1.46    2.71
   0   9  -6   -0.53    0.96
   0  -9   6    1.46    0.74
   0  -9   6    0.17    0.82
   0  -9   6    0.28    1.08
   0  -9   6    0.33    0.68
   0  -9   6    1.16    0.77
  -1   9  -6    1.39    0.74
  -1   9  -6   -0.32    0.93
  -1   9  -6    2.17    0.66
   1  -9   6    1.35    0.77
   1  -9   6    1.35    0.96
   1  -9   6    0.52    0.81
   1  -9   6    2.39    0.90
   1  -9   6   -0.40    0.73
  -2   9  -6    3.53    1.05
  -2   9  -6    2.53    0.70
  -2   9  -6    3.11    0.79
  -2   9  -6    2.91    1.00
   2  -9   6    3.50    0.99
   2  -9   6    2.89    0.95
   2  -9   6    3.13    0.93
   2  -9   6    3.47    0.96
  -3   9  -6   -0.40    0.73
  -3   9  -6    0.51    0.81
  -3   9  -6    0.28    0.68
   3  -9   6   -0.35    0.93
   3  -9   6   -1.04    0.82
   3  -9   6    1.47    1.02
   3  -9   6    0.45    0.86
  -4   9  -6   23.22    1.78
  -4   9  -6   16.82    1.44
  -4   9  -6   22.18    1.77
   4  -9   6   19.70    2.04
   4  -9   6   15.87    1.73
   4  -9   6   20.52    2.20
   4  -9   6   21.41    2.12
   4   8  -6   19.91    2.32
  -4  -8   6   19.09    1.70
  -4  -8   6   23.05    1.88
  -4  -8   6   16.37    1.72
   3   8  -6    0.36    1.20
   3   8  -6   -0.05    0.88
   3   8  -6    0.23    1.00
  -3  -8   6    0.30    0.58
  -3  -8   6   -1.79    0.83
  -3  -8   6   -0.54    0.89
  -3  -8   6    0.93    0.74
  -3  -8   6    0.49    0.76
   2   8  -6   -0.06    1.22
   2   8  -6   -0.07    0.76
   2   8  -6    0.74    0.84
   2   8  -6    1.12    1.03
  -2  -8   6    0.22    0.65
  -2  -8   6   -0.64    0.65
  -2  -8   6   -0.15    0.76
  -2  -8   6    1.21    0.57
  -2  -8   6   -0.17    0.64
   1   8  -6    1.87    0.97
   1   8  -6    2.42    1.13
   1   8  -6    2.00    0.71
   1   8  -6    2.87    0.86
  -1  -8   6    2.66    0.87
  -1  -8   6    2.38    0.62
  -1  -8   6    2.97    1.02
  -1  -8   6    1.60    0.61
  -1  -8   6    0.56    0.66
   0   8  -6   39.52    2.04
   0   8  -6   34.54    2.25
   0   8  -6   35.17    1.88
   0   8  -6   34.40    2.21
   0   8  -6   31.57    2.46
   0  -8   6   36.83    2.31
   0  -8   6   35.49    2.17
   0  -8   6   37.18    1.90
   0  -8   6   37.56    2.03
   0  -8   6   31.67    1.78
  -1   8  -6    2.70    0.90
  -1   8  -6    3.18    0.69
  -1   8  -6    3.03    0.85
  -1   8  -6    2.33    0.87
  -1   8  -6    2.15    1.03
  -1   8  -6    3.54    0.89
   1  -8   6    3.57    0.78
   1  -8   6    4.81    1.23
   1  -8   6    4.66    0.92
   1  -8   6    3.67    1.10
   1  -8   6    6.45    1.09
  -2   8  -6   52.58    2.77
  -2   8  -6   53.46    2.59
  -2   8  -6   60.40    2.56
   2  -8   6   50.56    2.73
   2  -8   6   51.99    2.70
   2  -8   6   57.24    2.70
   2  -8   6   56.81    2.83
  -3   8  -6    3.58    0.98
  -3   8  -6    4.15    1.11
  -3   8  -6    5.85    1.30
  -3   8  -6    3.44    0.80
  -3   8  -6    2.33    0.67
   3  -8   6    4.92    1.31
   3  -8   6    2.17    0.78
   3  -8   6    3.33    0.80
   3  -8   6    3.23    0.92
   3  -8   6    2.81    0.78
  -4   8  -6    4.78    1.17
  -4   8  -6    5.20    0.91
  -4   8  -6    3.31    0.89
   4  -8   6    3.97    1.12
   4  -8   6    3.21    1.03
   4  -8   6    6.13    1.41
   4  -8   6    4.31    0.98
  -5   8  -6    0.05    0.81
  -5   8  -6    0.82    0.79
   5  -8   6    0.10    0.66
   5  -8   6    1.31    0.89
   5  -8   6    1.82    1.04
   5  -8   6   -1.12    0.96
   4   7  -6   -0.93    0.88
   4   7  -6    0.02    0.87
  -4  -7   6    0.46    0.80
  -4  -7   6    0.21    1.09
  -4  -7   6    0.85    0.69
  -4  -7   6   -0.01    0.75
   3   7  -6    0.45    0.78
   3   7  -6    1.46    1.26
   3   7  -6   -0.81    0.74
   3   7  -6   -0.79    0.90
  -3  -7   6    0.07    0.68
  -3  -7   6    0.46    0.60
  -3  -7   6    0.47    0.79
  -3  -7   6   -0.38    0.90
  -3  -7   6   -0.37    0.46
  -3  -7   6    0.57    0.63
   2   7  -6    2.17    0.82
   2   7  -6    4.54    1.13
   2   7  -6    4.75    1.27
   2   7  -6    1.54    1.13
  -2  -7   6    2.51    0.64
  -2  -7   6    2.42    0.53
  -2  -7   6    2.92    0.96
  -2  -7   6    1.50    0.65
  -2  -7   6    5.06    0.95
  -2  -7   6    1.57    0.75
  -2  -7   6    2.52    0.88
   1   7  -6   15.19    1.78
   1   7  -6   20.53    1.66
   1   7  -6   17.61    1.51
   1   7  -6   19.10    1.41
  -1  -7   6   20.36    1.61
  -1  -7   6   18.56    1.36
  -1  -7   6   20.14    1.66
  -1  -7   6   19.98    1.36
  -1  -7   6   20.05    1.22
  -1  -7   6   16.27    1.68
  -1  -7   6   20.66    1.24
   0   7  -6   10.09    1.07
   0   7  -6    9.66    1.52
   0   7  -6    8.35    1.26
   0   7  -6   10.35    1.35
   0   7  -6   12.33    1.30
   0  -7   6   12.37    0.96
   0  -7   6   12.07    1.29
   0  -7   6   11.47    1.04
   0  -7   6   10.53    1.36
   0  -7   6   10.67    1.10
  -1   7  -6   43.09    2.47
  -1   7  -6   49.77    2.24
  -1   7  -6   47.31    2.42
  -1   7  -6   43.58    2.35
  -1   7  -6   46.75    2.19
   1  -7   6   47.69    2.23
   1  -7   6   46.48    2.40
   1  -7   6   46.98    2.17
   1  -7   6   45.54    2.29
   1  -7   6   48.62    2.36
   1  -7   6   46.24    2.38
  -2   7  -6   20.35    1.63
  -2   7  -6   19.32    1.47
  -2   7  -6   20.24    1.31
  -2   7  -6   21.83    1.30
  -2   7  -6   18.36    1.39
  -2   7  -6   20.84    1.67
   2  -7   6   17.95    1.49
   2  -7   6   20.22    1.44
   2  -7   6   18.27    1.46
   2  -7   6   18.90    1.39
   2  -7   6   19.96    1.46
   2  -7   6   21.86    1.46
  -3   7  -6   74.55    3.01
  -3   7  -6   75.49    3.24
  -3   7  -6   75.86    3.07
  -3   7  -6   69.49    3.32
  -3   7  -6   70.99    3.16
  -3   7  -6   76.91    3.07
   3  -7   6   76.44    3.25
   3  -7   6   69.30    3.24
   3  -7   6   69.19    3.21
   3  -7   6   73.81    3.30
   3  -7   6   69.45    3.21
  -4   7  -6   15.53    1.10
  -4   7  -6   16.17    0.98
  -4   7  -6   15.79    1.31
  -4   7  -6   16.33    1.25
  -4   7  -6   14.34    1.36
   4  -7   6   14.49    1.26
   4  -7   6   18.28    1.57
   4  -7   6   14.12    1.43
   4  -7   6   16.30    1.41
   4  -7   6   11.71    1.77
   4  -7   6   17.37    1.46
  -5   7  -6   58.16    2.71
  -5   7  -6   57.63    2.83
   5  -7   6   59.55    3.03
   5  -7   6   57.94    2.98
   5  -7   6   60.78    2.83
   5  -7   6   61.07    2.82
   5  -7   6   56.35    2.67
  -6   7  -6    1.31    0.87
  -6   7  -6    2.14    0.88
   6  -7   6    2.56    0.87
   6  -7   6    2.86    0.70
   6  -7   6    2.11    1.42
   6  -7   6    1.91    1.03
   6  -7   6    3.57    1.14
   5   6  -6   -0.42    0.95
   5   6  -6    0.35    0.97
  -5  -6   6    0.33    0.65
  -5  -6   6   -0.51    0.76
  -5  -6   6    0.04    0.89
   4   6  -6  138.94    6.20
   4   6  -6  151.10    6.16
  -4  -6   6  150.51    5.97
  -4  -6   6  155.63    6.11
  -4  -6   6  155.88    5.89
  -4  -6   6  155.89    6.20
  -4  -6   6  149.11    5.83
   3   6  -6    1.10    0.74
   3   6  -6    2.29    1.05
   3   6  -6    2.44    0.69
  -3  -6   6    1.33    0.56
  -3  -6   6    4.96    1.38
  -3  -6   6    0.63    0.69
  -3  -6   6    1.91    0.65
  -3  -6   6    2.39    0.62
  -3  -6   6    1.30    0.85
   2   6  -6  150.82    6.60
   2   6  -6  167.00    6.53
   2   6  -6  166.29    6.39
   2   6  -6  166.43    6.71
  -2  -6   6  169.59    6.66
  -2  -6   6  169.76    6.44
  -2  -6   6  164.23    6.63
  -2  -6   6  167.51    6.31
  -2  -6   6  165.84    6.24
  -2  -6   6  171.99    6.36
   1   6  -6   11.57    1.14
   1   6  -6   10.80    1.46
   1   6  -6   10.94    1.04
   1   6  -6   12.93    1.29
  -1  -6   6    9.52    1.22
  -1  -6   6    9.91    0.88
  -1  -6   6   11.42    1.03
  -1  -6   6   10.89    0.88
  -1  -6   6    9.56    1.31
  -1  -6   6   10.98    1.02
   0   6  -6  162.14    6.54
   0   6  -6  169.92    6.56
   0   6  -6  161.13    6.67
   0   6  -6  166.51    6.53
   0   6  -6  177.55    6.73
   0  -6   6  172.85    6.48
   0  -6   6  168.50    6.68
   0  -6   6  167.42    6.58
   0  -6   6  172.50    6.68
   0  -6   6  177.98    6.37
   0  -6   6  171.75    6.36
  -1   6  -6    7.65    0.83
  -1   6  -6    5.17    0.73
  -1   6  -6    7.52    0.97
  -1   6  -6    6.22    1.14
  -1   6  -6    6.40    1.01
  -1   6  -6    8.73    1.03
   1  -6   6    6.96    1.07
   1  -6   6    7.50    0.89
   1  -6   6    6.70    0.98
   1  -6   6    5.47    0.88
   1  -6   6    8.58    1.00
   1  -6   6    5.85    0.85
  -2   6  -6    3.34    0.73
  -2   6  -6    2.89    0.54
  -2   6  -6    1.72    0.55
  -2   6  -6    3.55    0.69
  -2   6  -6    2.51    0.70
  -2   6  -6    3.15    0.80
   2  -6   6    1.84    0.56
   2  -6   6    1.75    0.50
   2  -6   6    2.79    0.61
   2  -6   6    3.15    0.78
   2  -6   6    3.35    0.86
   2  -6   6    3.28    0.86
  -3   6  -6    6.26    0.81
  -3   6  -6    8.67    0.81
  -3   6  -6    8.06    0.98
  -3   6  -6    9.84    0.84
  -3   6  -6    8.78    1.43
  -3   6  -6    8.36    0.87
   3  -6   6    8.09    0.98
   3  -6   6    8.01    1.11
   3  -6   6    9.43    1.08
   3  -6   6    8.63    1.05
   3  -6   6    7.88    0.99
   3  -6   6    8.94    0.99
  -4   6  -6    9.07    0.90
  -4   6  -6    5.93    0.92
   4  -6   6    6.39    1.13
   4  -6   6    6.52    1.22
   4  -6   6    7.35    0.99
   4  -6   6    8.60    1.02
   4  -6   6    6.84    0.87
   4  -6   6    8.77    1.09
  -5   6  -6    4.38    0.93
  -5   6  -6    3.50    0.97
  -5   6  -6    3.62    0.98
   5  -6   6    4.81    0.97
   5  -6   6    5.03    0.87
   5  -6   6    5.46    1.05
   5  -6   6    4.78    1.15
   5  -6   6    4.34    1.03
   5  -6   6    4.09    1.07
  -6   6  -6    0.80    0.70
  -6   6  -6    1.00    0.69
   6  -6   6   -1.00    0.83
   6  -6   6    0.51    0.62
   6  -6   6    0.65    0.67
   6  -6   6    0.54    0.54
   6  -6   6    1.12    0.74
   6  -6   6    3.21    0.95
  -7   6  -6    3.93    0.93
  -7   6  -6    2.24    0.94
   7  -6   6    5.96    1.29
   7  -6   6    7.21    1.88
   7  -6   6    5.32    1.32
   5   5  -6   61.27    2.99
   5   5  -6   53.10    2.93
  -5  -5   6   57.06    2.52
  -5  -5   6   54.83    2.44
  -5  -5   6   60.70    2.75
  -5  -5   6   51.26    2.50
  -5  -5   6   53.37    2.59
   4   5  -6    1.68    0.71
   4   5  -6    2.84    1.10
   4   5  -6    1.90    0.76
   4   5  -6    2.36    1.12
  -4  -5   6    2.13    0.76
  -4  -5   6    1.03    0.60
  -4  -5   6    2.07    0.67
  -4  -5   6    1.07    0.56
  -4  -5   6    1.47    0.55
  -4  -5   6    0.22    0.64
   3   5  -6    8.15    1.57
   3   5  -6    8.13    1.05
   3   5  -6    5.30    1.43
   3   5  -6    8.38    1.36
   3   5  -6    6.53    1.16
  -3  -5   6    5.80    0.88
  -3  -5   6    5.20    0.96
  -3  -5   6    6.91    0.86
  -3  -5   6    5.46    0.88
  -3  -5   6    4.67    1.18
   2   5  -6   10.48    1.01
   2   5  -6    9.41    1.12
   2   5  -6    6.14    0.97
   2   5  -6    6.36    1.32
  -2  -5   6    9.50    0.70
  -2  -5   6   10.29    0.91
  -2  -5   6    9.11    0.88
  -2  -5   6    9.01    1.17
  -2  -5   6    9.30    1.22
  -2  -5   6    9.04    1.08
  -2  -5   6    7.38    0.86
   1   5  -6    2.61    0.71
   1   5  -6    4.26    0.92
   1   5  -6    3.26    0.64
   1   5  -6    4.60    1.11
  -1  -5   6    2.88    0.59
  -1  -5   6    3.36    0.68
  -1  -5   6    1.97    0.64
  -1  -5   6    2.56    0.61
  -1  -5   6    3.06    0.67
  -1  -5   6    3.23    0.69
  -1  -5   6    4.24    0.75
   0   5  -6   13.32    1.08
   0   5  -6   12.70    0.96
   0   5  -6   11.71    1.11
   0   5  -6   13.26    1.09
   0   5  -6   13.96    1.28
   0  -5   6   14.22    0.85
   0  -5   6   13.78    1.12
   0  -5   6   14.08    1.02
   0  -5   6   12.49    1.16
   0  -5   6   12.29    0.92
   0  -5   6   13.11    1.34
   0  -5   6   12.56    0.83
  -1   5  -6    8.50    0.97
  -1   5  -6   10.28    0.99
  -1   5  -6   10.52    0.84
  -1   5  -6   11.18    1.06
  -1   5  -6    9.05    0.90
   1  -5   6   11.05    1.03
   1  -5   6   10.81    0.87
   1  -5   6   10.53    0.96
   1  -5   6   10.45    0.97
   1  -5   6    9.25    0.90
   1  -5   6    8.49    0.88
  -2   5  -6   34.65    1.79
  -2   5  -6   35.05    1.78
  -2   5  -6   33.92    1.64
  -2   5  -6   35.07    1.61
  -2   5  -6   34.10    1.76
  -2   5  -6   33.29    1.63
   2  -5   6   33.20    1.73
   2  -5   6   35.77    1.73
   2  -5   6   34.82    1.72
   2  -5   6   36.60    1.72
   2  -5   6   33.15    1.73
   2  -5   6   33.99    1.77
  -3   5  -6   14.31    1.03
  -3   5  -6   17.32    1.17
  -3   5  -6   18.35    1.01
  -3   5  -6   17.00    0.97
   3  -5   6   19.71    1.14
   3  -5   6   16.70    1.10
   3  -5   6   18.57    1.21
   3  -5   6   19.53    1.26
   3  -5   6   16.78    1.14
   3  -5   6   14.46    1.19
  -4   5  -6   37.89    1.85
  -4   5  -6   36.19    1.77
   4  -5   6   38.83    1.86
   4  -5   6   37.08    1.97
   4  -5   6   37.68    1.81
   4  -5   6   36.92    1.80
   4  -5   6   39.45    1.87
  -5   5  -6   59.85    2.76
  -5   5  -6   60.40    2.63
  -5   5  -6   62.37    2.58
  -5   5  -6   64.66    2.66
   5  -5   6   65.65    2.67
   5  -5   6   62.13    2.72
   5  -5   6   56.75    2.96
   5  -5   6   65.92    2.92
   5  -5   6   64.08    2.66
   5  -5   6   57.48    2.60
  -6   5  -6   51.30    2.45
  -6   5  -6   51.36    2.34
   6  -5   6   51.40    2.32
   6  -5   6   49.00    2.64
   6  -5   6   47.96    2.15
   6  -5   6   49.53    2.28
   6  -5   6   46.86    2.54
  -7   5  -6  101.25    4.48
  -7   5  -6  109.43    4.43
   7  -5   6  107.89    4.27
   7  -5   6  110.20    4.63
   7  -5   6   99.23    4.59
   6   4  -6    6.72    1.26
  -6  -4   6    4.02    0.80
   5   4  -6   -0.70    0.74
   5   4  -6    0.23    0.74
  -5  -4   6    0.71    0.74
  -5  -4   6   -0.28    0.56
  -5  -4   6   -0.15    0.64
  -5  -4   6    0.64    0.50
  -5  -4   6    0.65    0.54
  -5  -4   6    0.57    0.77
   4   4  -6    2.43    1.06
   4   4  -6    3.87    0.97
   4   4  -6    3.88    0.77
   4   4  -6    2.29    0.67
  -4  -4   6    3.99    0.94
  -4  -4   6    4.68    0.83
  -4  -4   6    2.39    0.53
  -4  -4   6    3.49    0.84
  -4  -4   6    1.78    0.62
  -4  -4   6    2.50    0.72
   3   4  -6    1.90    0.74
   3   4  -6    2.69    0.84
   3   4  -6    2.85    0.82
   3   4  -6    2.10    0.63
   3   4  -6    2.00    0.81
  -3  -4   6    1.70    0.52
  -3  -4   6    2.33    0.67
  -3  -4   6    2.54    0.71
  -3  -4   6    2.00    0.54
  -3  -4   6    1.56    0.56
  -3  -4   6    2.58    0.68
   2   4  -6   45.80    2.24
   2   4  -6   42.84    2.22
   2   4  -6   43.79    2.10
   2   4  -6   47.70    2.34
   2   4  -6   44.42    2.11
  -2  -4   6   48.13    2.26
  -2  -4   6   44.81    2.08
  -2  -4   6   46.09    2.26
  -2  -4   6   44.26    2.05
  -2  -4   6   42.82    1.84
  -2  -4   6   46.75    1.99
  -2  -4   6   44.46    2.00
   1   4  -6    1.53    0.59
   1   4  -6    1.37    0.38
   1   4  -6    1.46    0.52
   1   4  -6    3.11    0.73
   1   4  -6    1.92    0.51
  -1  -4   6    2.80    0.54
  -1  -4   6    2.74    0.59
  -1  -4   6    1.61    0.49
  -1  -4   6    1.69    0.51
  -1  -4   6    1.18    0.39
  -1  -4   6    1.70    0.55
  -1  -4   6    1.66    0.39
   0   4  -6  228.20    8.90
   0   4  -6  241.60    9.02
   0   4  -6  240.01    8.88
   0   4  -6  237.32    8.89
   0   4  -6  248.34    9.02
   0  -4   6  235.22    9.00
   0  -4   6  263.23    9.05
   0  -4   6  217.80    8.90
   0  -4   6  233.98    8.74
   0  -4   6  234.76    8.83
   0  -4   6  240.42    8.93
  -1   4  -6   32.59    1.61
  -1   4  -6   28.74    1.48
  -1   4  -6   31.55    1.48
  -1   4  -6   32.24    1.64
  -1   4  -6   30.11    1.56
   1  -4   6   31.68    1.49
   1  -4   6   30.66    1.58
   1  -4   6   32.50    1.62
   1  -4   6   30.89    1.53
   1  -4   6   29.10    1.53
  -2   4  -6  412.50   14.36
  -2   4  -6  392.68   14.36
  -2   4  -6  417.57   14.49
  -2   4  -6  401.83   14.48
  -2   4  -6  369.70   14.41
  -2   4  -6  394.49   14.48
   2  -4   6  380.43   14.48
   2  -4   6  378.20   14.45
   2  -4   6  404.67   14.45
   2  -4   6  368.60   14.43
   2  -4   6  405.82   14.48
   2  -4   6  397.57   14.48
  -3   4  -6   37.15    1.65
  -3   4  -6   38.39    1.80
  -3   4  -6   39.22    1.64
  -3   4  -6   39.50    1.82
  -3   4  -6   40.54    1.93
  -3   4  -6   37.49    1.80
   3  -4   6   39.70    1.84
   3  -4   6   37.46    1.88
   3  -4   6   39.50    1.81
   3  -4   6   42.26    1.82
   3  -4   6   36.34    1.79
   3  -4   6   41.44    1.94
  -4   4  -6  155.15    6.16
  -4   4  -6  155.95    6.25
  -4   4  -6  166.29    6.18
   4  -4   6  171.24    6.24
   4  -4   6  153.98    6.19
   4  -4   6  168.74    6.20
   4  -4   6  168.56    6.36
   4  -4   6  168.97    6.22
   4  -4   6  164.95    6.41
  -5   4  -6   38.40    1.78
  -5   4  -6   39.46    1.89
   5  -4   6   38.96    1.78
   5  -4   6   38.39    1.75
   5  -4   6   39.74    1.83
   5  -4   6   39.00    2.03
   5  -4   6   35.53    1.71
  -6   4  -6    0.40    0.50
  -6   4  -6    0.89    0.54
   6  -4   6    0.83    0.65
   6  -4   6    0.81    0.74
   6  -4   6    0.95    0.78
   6  -4   6    1.29    0.50
   6  -4   6    0.33    0.46
  -7   4  -6   25.99    1.69
   7  -4   6   24.03    1.94
   7  -4   6   24.89    1.57
   7  -4   6   21.53    1.40
   7  -4   6   25.56    1.78
   8  -4   6    3.98    1.17
   8  -4   6    1.88    1.08
   6   3  -6    2.50    0.99
   6   3  -6    2.95    0.95
  -6  -3   6    2.66    0.92
   5   3  -6   61.62    3.05
   5   3  -6   61.41    2.90
   5   3  -6   63.53    3.03
  -5  -3   6   60.75    2.52
  -5  -3   6   60.48    2.53
  -5  -3   6   60.86    2.79
  -5  -3   6   60.61    2.98
  -5  -3   6   61.94    2.58
   4   3  -6   -0.41    0.48
   4   3  -6    0.34    0.81
   4   3  -6    0.38    0.95
   4   3  -6    1.16    0.88
   4   3  -6    0.57    0.57
  -4  -3   6    0.18    0.46
  -4  -3   6    0.37    0.40
  -4  -3   6   -0.08    0.59
  -4  -3   6   -0.47    0.45
  -4  -3   6    0.98    0.51
  -4  -3   6    0.22    0.62
  -4  -3   6    0.17    0.36
   3   3  -6  125.40    5.32
   3   3  -6  119.65    5.15
   3   3  -6  123.10    5.29
   3   3  -6  133.30    5.31
   3   3  -6  140.14    5.37
  -3  -3   6  144.31    5.36
  -3  -3   6  132.37    5.11
  -3  -3   6  128.25    5.25
  -3  -3   6  131.87    5.13
  -3  -3   6  136.98    5.07
  -3  -3   6  139.24    5.10
   2   3  -6    0.30    0.45
   2   3  -6    0.34    0.24
   2   3  -6    0.67    0.42
   2   3  -6    0.57    0.53
   2   3  -6    0.52    0.34
   2   3  -6   -0.44    0.53
  -2  -3   6    0.35    0.34
  -2  -3   6    0.55    0.48
  -2  -3   6   -0.02    0.43
  -2  -3   6    0.49    0.35
  -2  -3   6    0.04    0.33
  -2  -3   6    0.69    0.41
   1   3  -6   41.68    1.84
   1   3  -6   46.27    2.09
   1   3  -6   41.53    1.90
   1   3  -6   42.39    1.77
   1   3  -6   44.55    2.01
   1   3  -6   44.91    2.05
  -1  -3   6   41.21    1.78
  -1  -3   6   35.56    2.00
  -1  -3   6   41.99    1.92
  -1  -3   6   43.47    1.94
  -1  -3   6   44.12    2.04
  -1  -3   6   42.78    1.85
   0   3  -6   10.38    0.88
   0   3  -6   13.47    0.93
   0   3  -6   12.84    0.77
   0   3  -6   11.70    0.79
   0   3  -6   12.15    1.00
   0  -3   6   11.97    0.81
   0  -3   6   10.48    0.87
   0  -3   6   11.55    0.82
   0  -3   6   11.64    0.95
   0  -3   6   11.64    0.81
   0  -3   6   11.59    0.91
  -1   3  -6    0.47    0.36
  -1   3  -6    0.04    0.24
  -1   3  -6    0.44    0.35
  -1   3  -6    0.12    0.25
  -1   3  -6    0.54    0.33
   1  -3   6    0.50    0.34
   1  -3   6    0.39    0.31
   1  -3   6    0.24    0.30
   1  -3   6    0.86    0.35
   1  -3   6    0.11    0.27
   1  -3   6    0.51    0.35
  -2   3  -6   14.20    0.91
  -2   3  -6   14.31    0.78
  -2   3  -6   12.43    0.80
  -2   3  -6   12.62    0.88
  -2   3  -6   12.86    0.91
  -2   3  -6   12.55    0.79
   2  -3   6   12.78    0.85
   2  -3   6   13.07    0.89
   2  -3   6   15.24    0.95
   2  -3   6   10.40    0.89
   2  -3   6   13.20    0.89
  -3   3  -6    2.27    0.40
  -3   3  -6    1.58    0.41
  -3   3  -6    1.41    0.30
  -3   3  -6    1.82    0.45
  -3   3  -6    1.59    0.44
   3  -3   6    0.77    0.33
   3  -3   6    1.99    0.40
   3  -3   6    1.65    0.39
   3  -3   6    1.03    0.44
   3  -3   6    2.13    0.61
   3  -3   6    2.39    0.64
  -4   3  -6   13.32    0.85
  -4   3  -6   12.13    0.80
  -4   3  -6   12.57    0.86
   4  -3   6   13.25    1.11
   4  -3   6   12.62    0.86
   4  -3   6   12.49    1.03
   4  -3   6   12.51    0.91
   4  -3   6   13.84    0.86
   4  -3   6   12.72    0.83
  -5   3  -6   10.10    0.88
   5  -3   6   11.86    0.83
   5  -3   6   10.81    1.07
   5  -3   6   11.98    0.85
   5  -3   6   10.94    0.82
   5  -3   6    9.61    0.74
  -6   3  -6   19.69    1.25
   6  -3   6   19.46    1.21
   6  -3   6   18.08    1.34
   6  -3   6   18.69    1.38
   6  -3   6   20.73    1.14
   6  -3   6   21.60    1.50
   6  -3   6   18.08    1.41
   6  -3   6   17.88    1.10
  -7   3  -6    3.39    0.95
   7  -3   6    1.34    0.74
   7  -3   6    1.44    0.82
   7  -3   6    1.58    0.73
   8  -3   6   24.86    2.11
   8  -3   6   19.88    1.83
   6   2  -6    5.95    1.47
  -6  -2   6    5.54    1.19
  -6  -2   6    5.16    1.25
   5   2  -6    1.76    1.18
   5   2  -6    2.21    0.72
   5   2  -6    3.08    0.81
   5   2  -6    2.61    1.19
   5   2  -6    3.26    0.87
  -5  -2   6    0.18    0.66
  -5  -2   6    1.37    0.78
  -5  -2   6    2.14    0.49
  -5  -2   6    1.94    0.63
  -5  -2   6    2.68    0.53
   4   2  -6   34.20    2.27
   4   2  -6   32.77    1.92
   4   2  -6   38.19    1.98
   4   2  -6   31.66    2.11
  -4  -2   6   35.81    1.64
  -4  -2   6   35.33    1.73
  -4  -2   6   34.61    1.70
  -4  -2   6   32.83    1.84
  -4  -2   6   35.93    1.64
  -4  -2   6   36.43    1.98
   3   2  -6    2.87    0.67
   3   2  -6    2.66    0.58
   3   2  -6    3.29    0.39
   3   2  -6    3.23    0.95
   3   2  -6    2.69    0.74
  -3  -2   6    2.45    0.61
  -3  -2   6    2.71    0.59
  -3  -2   6    3.63    0.95
  -3  -2   6    2.65    0.56
  -3  -2   6    2.89    0.62
  -3  -2   6    2.58    0.66
   2   2  -6   40.89    2.01
   2   2  -6   47.22    2.14
   2   2  -6   45.35    2.16
   2   2  -6   46.52    1.79
   2   2  -6   45.04    2.16
  -2  -2   6   45.35    1.93
  -2  -2   6   44.70    1.99
  -2  -2   6   46.10    1.96
  -2  -2   6   45.00    1.96
  -2  -2   6   42.55    2.07
  -2  -2   6   44.89    2.14
   1   2  -6    1.74    0.48
   1   2  -6    1.67    0.45
   1   2  -6    1.48    0.35
   1   2  -6    1.21    0.48
   1   2  -6    1.46    0.39
  -1  -2   6    1.10    0.40
  -1  -2   6    1.38    0.38
  -1  -2   6    1.54    0.44
  -1  -2   6    1.26    0.32
  -1  -2   6    1.68    0.38
  -1  -2   6    1.13    0.35
   0   2  -6   28.52    1.42
   0   2  -6   30.88    1.34
   0   2  -6   28.50    1.47
   0   2  -6   27.21    1.27
   0   2  -6   29.23    1.45
   0  -2   6   28.44    1.38
   0  -2   6   27.08    1.32
   0  -2   6   27.80    1.34
   0  -2   6   30.61    1.47
   0  -2   6   27.35    1.37
  -1   2  -6   -0.14    0.21
  -1   2  -6    0.32    0.29
  -1   2  -6   -0.12    0.28
  -1   2  -6    0.37    0.35
  -1   2  -6    0.23    0.23
   1  -2   6   -0.07    0.23
   1  -2   6    0.16    0.31
   1  -2   6   -0.04    0.29
   1  -2   6    0.24    0.31
   1  -2   6   -0.14    0.29
   1  -2   6    0.38    0.29
  -2   2  -6   12.54    0.75
  -2   2  -6   12.73    0.84
  -2   2  -6   13.09    0.75
  -2   2  -6   13.04    0.71
   2  -2   6   12.03    0.86
   2  -2   6   12.09    0.85
   2  -2   6   13.21    0.86
   2  -2   6   13.07    0.84
   2  -2   6   13.17    0.88
   2  -2   6   11.45    0.77
  -3   2  -6    2.00    0.50
  -3   2  -6    1.72    0.34
  -3   2  -6    1.10    0.30
  -3   2  -6    1.72    0.40
  -3   2  -6    1.59    0.41
   3  -2   6    0.81    0.30
   3  -2   6    0.92    0.39
   3  -2   6    1.18    0.39
   3  -2   6    1.37    0.37
   3  -2   6    1.54    0.33
  -4   2  -6  109.94    4.25
  -4   2  -6  115.90    4.53
  -4   2  -6  112.25    4.24
  -4   2  -6  110.37    4.34
   4  -2   6  107.96    4.28
   4  -2   6  112.02    4.44
   4  -2   6  113.42    4.30
   4  -2   6  115.87    4.55
   4  -2   6  113.78    4.28
   4  -2   6  112.47    4.28
  -5   2  -6   19.37    1.12
   5  -2   6   20.54    1.28
   5  -2   6   16.76    1.18
   5  -2   6   17.77    1.01
   5  -2   6   19.21    1.07
   5  -2   6   18.73    1.01
  -6   2  -6   90.84    3.56
   6  -2   6   80.63    3.58
   6  -2   6   87.53    3.87
   6  -2   6   85.07    3.51
   6  -2   6   89.30    3.53
   6  -2   6   90.44    3.70
   6  -2   6   86.46    3.58
  -7   2  -6   10.55    1.07
   7  -2   6   10.81    1.16
   7  -2   6    8.57    1.21
   7  -2   6    8.45    1.24
   7  -2   6   14.81    1.42
   7  -2   6    9.93    1.29
   8  -2   6   26.93    1.84
   8  -2   6   29.56    2.07
   8  -2   6   27.76    2.14
   8  -2   6   26.51    2.10
   6   1  -6    3.16    0.86
   6   1  -6    3.13    0.77
   6   1  -6    2.34    0.83
  -6  -1   6    4.20    0.83
   5   1  -6   80.59    3.38
   5   1  -6   74.66    3.25
   5   1  -6   67.22    3.70
   5   1  -6   74.37    3.46
   5   1  -6   77.86    3.77
   5   1  -6   83.67    3.23
  -5  -1   6   75.64    3.26
  -5  -1   6   78.00    3.49
  -5  -1   6   74.06    3.02
  -5  -1   6   78.68    3.02
   4   1  -6    3.02    0.86
   4   1  -6    3.18    0.66
   4   1  -6    3.28    0.91
   4   1  -6    3.03    0.67
   4   1  -6    2.64    0.71
   4   1  -6    4.68    0.67
  -4  -1   6    3.06    0.64
  -4  -1   6    3.35    0.65
  -4  -1   6    2.35    0.60
  -4  -1   6    2.84    0.59
  -4  -1   6    3.95    0.69
  -4  -1   6    4.22    1.05
   3   1  -6    4.16    1.07
   3   1  -6    4.01    0.56
   3   1  -6    3.25    0.77
   3   1  -6    3.55    0.92
   3   1  -6    4.40    0.60
   3   1  -6    4.30    0.91
  -3  -1   6    4.62    0.76
  -3  -1   6    4.68    0.63
  -3  -1   6    4.41    0.92
  -3  -1   6    2.78    0.58
  -3  -1   6    5.58    0.64
  -3  -1   6    4.93    0.63
   2   1  -6    3.50    0.67
   2   1  -6    4.03    0.79
   2   1  -6    4.38    0.54
   2   1  -6    3.37    0.47
   2   1  -6    3.82    0.63
   2   1  -6    4.45    0.84
  -2  -1   6    3.57    0.54
  -2  -1   6    4.19    0.73
  -2  -1   6    3.54    0.69
  -2  -1   6    4.19    0.63
  -2  -1   6    3.78    0.58
   1   1  -6   32.13    1.57
   1   1  -6   30.03    1.40
   1   1  -6   32.17    1.33
   1   1  -6   30.35    1.55
   1   1  -6   29.43    1.49
   1   1  -6   31.36    1.41
  -1  -1   6   30.03    1.52
  -1  -1   6   32.90    1.54
  -1  -1   6   30.42    1.43
  -1  -1   6   30.60    1.37
  -1  -1   6   31.62    1.42
  -1  -1   6   34.31    1.52
   0   1  -6    7.03    0.63
   0   1  -6    8.61    0.69
   0   1  -6    8.34    0.73
   0   1  -6    8.45    0.52
   0   1  -6    6.92    0.54
   0  -1   6    6.09    0.62
   0  -1   6    6.98    0.61
   0  -1   6    6.85    0.64
   0  -1   6    6.95    0.70
   0  -1   6    7.32    0.59
   0  -1   6    8.00    0.59
  -1   1  -6   36.96    1.62
  -1   1  -6   35.44    1.57
  -1   1  -6   36.48    1.55
  -1   1  -6   37.40    1.65
  -1   1  -6   36.18    1.60
   1  -1   6   37.42    1.63
   1  -1   6   34.48    1.60
   1  -1   6   35.08    1.64
   1  -1   6   38.52    1.62
   1  -1   6   35.17    1.61
  -2   1  -6   13.94    0.77
  -2   1  -6   15.51    0.77
  -2   1  -6   13.67    0.86
  -2   1  -6   17.39    0.89
  -2   1  -6   14.73    0.88
   2  -1   6   13.85    0.86
   2  -1   6   15.85    0.93
   2  -1   6   14.11    0.86
   2  -1   6   14.55    0.82
   2  -1   6   14.69    0.83
   2  -1   6   14.57    0.89
  -3   1  -6   11.47    0.71
  -3   1  -6   11.03    0.57
  -3   1  -6   11.02    0.72
  -3   1  -6   11.50    0.83
  -3   1  -6   11.31    0.57
  -3   1  -6   11.30    0.68
   3  -1   6   10.95    0.73
   3  -1   6   11.32    0.72
   3  -1   6   10.78    0.80
   3  -1   6   10.98    0.89
   3  -1   6   11.50    0.68
   3  -1   6   11.42    0.78
  -4   1  -6    2.05    0.44
  -4   1  -6    2.67    0.45
  -4   1  -6    2.50    0.44
  -4   1  -6    2.08    0.45
   4  -1   6    2.53    0.76
   4  -1   6    2.99    0.44
   4  -1   6    2.16    0.47
   4  -1   6    1.56    0.32
   4  -1   6    1.86    0.38
   4  -1   6    1.72    0.47
   4  -1   6    1.80    0.33
  -5   1  -6    5.02    0.79
  -5   1  -6    4.08    0.59
   5  -1   6    5.17    0.68
   5  -1   6    3.93    0.59
   5  -1   6    4.70    0.74
   5  -1   6    4.15    0.67
   5  -1   6    4.59    0.59
   5  -1   6    4.79    0.83
   5  -1   6    4.43    0.51
   5  -1   6    3.30    0.92
  -6   1  -6    3.61    0.69
   6  -1   6    3.55    0.84
   6  -1   6    3.56    0.96
   6  -1   6    5.32    0.95
   6  -1   6    4.60    0.80
   6  -1   6    4.17    0.79
   6  -1   6    5.06    1.19
   7  -1   6   25.97    1.66
   7  -1   6   24.95    1.68
   7  -1   6   27.29    1.64
   7  -1   6   27.09    1.76
   7  -1   6   28.18    1.60
   8  -1   6    0.46    0.89
   8  -1   6    1.51    1.05
   8  -1   6    0.07    0.72
   6   0  -6    9.36    1.26
   6   0  -6    5.50    1.42
   6   0  -6    8.94    1.13
  -6   0   6    6.30    1.14
   5   0  -6    0.84    1.04
   5   0  -6    1.13    0.64
   5   0  -6    1.17    0.48
   5   0  -6    1.56    0.54
   5   0  -6    1.41    0.96
   5   0  -6    1.47    0.68
  -5   0   6    1.12    0.52
  -5   0   6    1.73    0.80
  -5   0   6    1.28    0.66
  -5   0   6    1.30    0.42
   4   0  -6    1.82    0.44
   4   0  -6    4.49    1.17
   4   0  -6    2.54    0.63
   4   0  -6    3.94    0.81
   4   0  -6    3.28    0.81
   4   0  -6    2.53    0.61
  -4   0   6    2.45    0.54
  -4   0   6    1.97    0.56
  -4   0   6    2.52    0.66
  -4   0   6    2.75    0.64
  -4   0   6    2.82    0.62
  -4   0   6    3.88    0.65
   3   0  -6    2.41    0.59
   3   0  -6    2.46    0.54
   3   0  -6    1.32    0.42
   3   0  -6    2.31    0.51
   3   0  -6    1.98    0.61
   3   0  -6    2.09    0.52
  -3   0   6    1.74    0.45
  -3   0   6    1.52    0.40
  -3   0   6    1.35    0.52
  -3   0   6    2.01    0.54
  -3   0   6    1.71    0.43
  -3   0   6    1.89    0.45
   2   0  -6   44.28    2.18
   2   0  -6   49.43    2.10
   2   0  -6   46.59    2.01
   2   0  -6   46.52    2.10
   2   0  -6   48.00    2.12
   2   0  -6   46.98    2.01
  -2   0   6   48.22    2.02
  -2   0   6   47.96    2.12
  -2   0   6   47.66    2.08
  -2   0   6   48.41    2.00
  -2   0   6   49.44    2.09
   1   0  -6    0.43    0.35
   1   0  -6   -0.38    0.18
   1   0  -6    0.11    0.23
   1   0  -6   -0.30    0.20
   1   0  -6   -0.30    0.23
   1   0  -6    0.38    0.30
  -1   0   6   -0.03    0.24
  -1   0   6    0.05    0.28
  -1   0   6    0.23    0.26
  -1   0   6    0.14    0.17
  -1   0   6    0.03    0.30
  -1   0   6   -0.14    0.26
   0   0  -6  145.34    5.31
   0   0  -6  140.22    5.40
   0   0  -6  141.16    5.33
   0   0  -6  147.26    5.43
   0   0  -6  138.95    5.37
   0   0   6  145.65    5.35
   0   0   6  136.49    5.37
   0   0   6  142.86    5.35
   0   0   6  147.32    5.41
   0   0   6  137.77    5.39
  -1   0  -6    8.90    0.55
  -1   0  -6    8.90    0.60
  -1   0  -6    9.27    0.64
  -1   0  -6    8.28    0.62
  -1   0  -6    7.93    0.55
   1   0   6    8.45    0.62
   1   0   6    8.75    0.67
   1   0   6    8.36    0.62
   1   0   6    8.78    0.64
   1   0   6    7.59    0.57
  -2   0  -6  326.24   12.06
  -2   0  -6  313.56   11.94
  -2   0  -6  329.90   12.01
  -2   0  -6  330.64   11.96
  -2   0  -6  314.83   11.99
   2   0   6  346.73   12.02
   2   0   6  330.05   12.02
   2   0   6  316.91   11.98
   2   0   6  348.70   12.06
   2   0   6  334.53   12.00
  -3   0  -6    6.65    0.42
  -3   0  -6    7.40    0.56
  -3   0  -6    6.99    0.52
  -3   0  -6    7.85    0.51
  -3   0  -6    7.31    0.65
   3   0   6    7.73    0.62
   3   0   6    8.39    0.74
   3   0   6    7.01    0.52
   3   0   6    6.66    0.60
   3   0   6    7.15    0.59
   3   0   6    6.85    0.52
  -4   0  -6  276.19   10.25
  -4   0  -6  289.47   10.22
  -4   0  -6  283.01   10.30
  -4   0  -6  276.21   10.51
   4   0   6  272.99   10.26
   4   0   6  293.92   10.25
   4   0   6  286.05   10.41
   4   0   6  284.98   10.36
   4   0   6  279.21   10.23
   4   0   6  280.19   10.53
   4   0   6  273.05   10.27
  -5   0  -6   21.73    1.10
  -5   0  -6   21.67    1.33
   5   0   6   21.71    1.12
   5   0   6   19.77    1.05
   5   0   6   21.66    1.22
   5   0   6   22.34    1.22
   5   0   6   22.96    1.28
   5   0   6   20.35    1.47
   5   0   6   24.15    1.19
   5   0   6   21.68    0.99
  -6   0  -6   29.34    1.40
  -6   0  -6   28.92    1.69
   6   0   6   26.37    1.85
   6   0   6   29.96    1.51
   6   0   6   29.87    1.48
   6   0   6   28.00    1.55
   6   0   6   29.15    1.65
   6   0   6   27.13    1.58
   7   0   6    4.21    0.88
   7   0   6    7.24    1.23
   7   0   6    7.18    1.62
   7   0   6    5.39    1.23
   7   0   6    4.90    1.17
   7   0   6    6.00    1.20
   7   0   6    6.05    0.99
   8   0   6   15.14    1.71
   8   0   6   16.43    1.35
   8   0   6   16.38    1.93
   6  -1  -6    9.70    1.24
   6  -1  -6    9.89    1.48
   6  -1  -6    9.35    1.18
  -6   1   6    8.53    1.19
   5  -1  -6  161.69    6.12
   5  -1  -6  153.89    6.31
   5  -1  -6  160.98    6.14
   5  -1  -6  158.82    6.10
   5  -1  -6  156.84    6.23
  -5   1   6  161.99    6.30
  -5   1   6  160.71    6.12
  -5   1   6  147.79    6.11
   4  -1  -6    4.15    0.66
   4  -1  -6    3.85    0.70
   4  -1  -6    3.00    0.75
   4  -1  -6    3.82    0.76
   4  -1  -6    3.32    0.87
  -4   1   6    3.02    0.72
  -4   1   6    3.97    0.66
  -4   1   6    4.82    0.97
  -4   1   6    3.44    0.59
  -4   1   6    3.54    0.63
  -4   1   6    3.73    0.67
   3  -1  -6  328.71   12.08
   3  -1  -6  318.60   12.25
   3  -1  -6  327.59   12.07
   3  -1  -6  351.12   12.15
   3  -1  -6  318.08   12.20
   3  -1  -6  334.61   12.16
  -3   1   6  317.51   12.10
  -3   1   6  317.27   12.08
  -3   1   6  338.90   12.01
  -3   1   6  329.83   12.10
  -3   1   6  318.81   12.09
  -3   1   6  334.65   12.17
  -3   1   6  334.41   12.08
   2  -1  -6    2.59    0.51
   2  -1  -6    2.88    0.53
   2  -1  -6    2.06    0.46
   2  -1  -6    2.31    0.45
   2  -1  -6    2.40    0.64
   2  -1  -6    2.60    0.45
  -2   1   6    2.81    0.50
  -2   1   6    3.08    0.57
  -2   1   6    3.55    0.58
  -2   1   6    2.61    0.56
  -2   1   6    3.53    0.47
  -2   1   6    2.29    0.51
   1  -1  -6  502.44   18.36
   1  -1  -6  487.39   18.41
   1  -1  -6  487.03   18.30
   1  -1  -6  506.90   18.33
   1  -1  -6  517.84   18.38
  -1   1   6  533.35   18.32
  -1   1   6  518.91   18.41
  -1   1   6  537.16   18.37
  -1   1   6  482.95   18.34
  -1   1   6  514.92   18.34
  -1   1   6  470.30   18.26
   0  -1  -6   30.97    1.38
   0  -1  -6   31.61    1.36
   0  -1  -6   30.09    1.39
   0  -1  -6   32.75    1.45
   0  -1  -6   30.87    1.45
   0   1   6   32.89    1.40
   0   1   6   32.82    1.40
   0   1   6   31.33    1.27
   0   1   6   29.51    1.38
   0   1   6   29.92    1.42
   0   1   6   30.54    1.42
  -1  -1  -6   27.46    1.19
  -1  -1  -6   26.24    1.14
  -1  -1  -6   26.45    1.20
  -1  -1  -6   26.47    1.23
  -1  -1  -6   24.84    1.18
   1   1   6   24.05    1.19
   1   1   6   25.78    1.19
   1   1   6   24.98    1.22
   1   1   6   26.03    1.19
   1   1   6   25.93    1.12
   1   1   6   26.58    1.18
  -2  -1  -6   30.21    1.39
  -2  -1  -6   30.00    1.36
  -2  -1  -6   30.37    1.34
  -2  -1  -6   31.51    1.29
  -2  -1  -6   29.87    1.32
   2   1   6   31.72    1.38
   2   1   6   31.29    1.33
   2   1   6   31.44    1.38
   2   1   6   31.79    1.33
   2   1   6   31.99    1.37
   2   1   6   29.48    1.34
  -3  -1  -6    2.81    0.33
  -3  -1  -6    3.12    0.34
  -3  -1  -6    3.07    0.32
  -3  -1  -6    2.66    0.36
  -3  -1  -6    2.84    0.42
  -3  -1  -6    3.65    0.48
   3   1   6    2.50    0.36
   3   1   6    3.52    0.47
   3   1   6    2.88    0.37
   3   1   6    3.51    0.53
   3   1   6    2.93    0.45
   3   1   6    3.93    0.48
  -4  -1  -6   66.63    2.58
  -4  -1  -6   63.45    2.79
  -4  -1  -6   64.63    2.54
  -4  -1  -6   66.66    2.55
   4   1   6   68.32    2.68
   4   1   6   66.74    2.55
   4   1   6   65.75    2.56
   4   1   6   65.18    2.82
   4   1   6   67.10    2.58
   4   1   6   64.94    2.54
  -5  -1  -6    3.75    0.47
  -5  -1  -6    3.91    0.69
   5   1   6    3.31    0.70
   5   1   6    4.04    0.64
   5   1   6    4.40    0.61
   5   1   6    3.71    0.88
   5   1   6    3.81    0.43
   5   1   6    3.80    0.50
   5   1   6    3.75    0.69
  -6  -1  -6   47.15    2.22
   6   1   6   43.95    2.07
   6   1   6   42.06    2.10
   6   1   6   47.27    2.16
   6   1   6   43.06    1.96
   6   1   6   46.53    2.05
   6   1   6   38.28    2.25
   7   1   6    1.05    0.51
   7   1   6    0.33    0.88
   7   1   6   -0.03    0.47
   7   1   6    1.65    0.81
   7   1   6    1.81    0.78
   7   1   6   -0.06    0.80
   7   1   6    0.80    0.79
   8   1   6   26.32    1.79
   8   1   6   28.78    1.96
   8   1   6   24.24    2.12
   8   1   6   26.51    1.53
   6  -2  -6   39.07    2.01
   6  -2  -6   36.16    2.15
   6  -2  -6   34.79    2.01
  -6   2   6   34.14    1.96
   5  -2  -6    0.53    0.54
   5  -2  -6    0.81    0.54
   5  -2  -6    1.27    0.88
   5  -2  -6    0.04    0.57
   5  -2  -6    1.30    0.55
  -5   2   6    0.39    0.75
  -5   2   6    1.64    0.53
  -5   2   6    0.91    0.64
  -5   2   6    1.00    0.40
   4  -2  -6    2.72    0.60
   4  -2  -6    2.93    0.64
   4  -2  -6    3.84    1.10
   4  -2  -6    1.92    0.48
   4  -2  -6    3.23    0.75
  -4   2   6    3.30    0.62
  -4   2   6    3.10    0.79
  -4   2   6    2.97    0.65
  -4   2   6    3.96    0.77
  -4   2   6    2.61    0.53
  -4   2   6    2.60    0.57
   3  -2  -6    6.98    1.00
   3  -2  -6    8.69    0.78
   3  -2  -6    9.07    0.99
   3  -2  -6    8.56    0.87
   3  -2  -6    7.90    0.71
   3  -2  -6    9.48    0.73
  -3   2   6    9.03    0.71
  -3   2   6    8.70    0.82
  -3   2   6    8.28    0.77
  -3   2   6    7.35    0.78
  -3   2   6    7.78    0.72
  -3   2   6    6.80    0.80
  -3   2   6    9.00    0.80
   2  -2  -6    0.46    0.30
   2  -2  -6   -0.02    0.23
   2  -2  -6    0.31    0.39
   2  -2  -6    0.53    0.29
   2  -2  -6    0.09    0.33
  -2   2   6    0.17    0.27
  -2   2   6    0.69    0.35
  -2   2   6    0.35    0.31
  -2   2   6    0.43    0.34
  -2   2   6    0.26    0.30
  -2   2   6    0.45    0.30
   1  -2  -6   50.14    2.05
   1  -2  -6   46.38    1.97
   1  -2  -6   50.15    1.99
   1  -2  -6   45.16    2.06
   1  -2  -6   45.67    2.00
  -1   2   6   45.77    1.97
  -1   2   6   48.27    2.01
  -1   2   6   46.70    1.98
  -1   2   6   47.21    2.02
  -1   2   6   48.87    2.05
  -1   2   6   47.48    2.00
   0  -2  -6   33.45    1.41
   0  -2  -6   32.57    1.46
   0  -2  -6   30.61    1.42
   0  -2  -6   32.65    1.41
   0  -2  -6   32.32    1.49
   0   2   6   33.00    1.46
   0   2   6   33.31    1.43
   0   2   6   32.26    1.43
   0   2   6   29.80    1.36
   0   2   6   30.80    1.45
   0   2   6   33.32    1.43
  -1  -2  -6   23.08    1.15
  -1  -2  -6   24.95    1.11
  -1  -2  -6   24.09    1.09
  -1  -2  -6   24.93    1.13
  -1  -2  -6   22.84    1.13
   1   2   6   21.63    1.11
   1   2   6   23.46    1.11
   1   2   6   24.52    1.03
   1   2   6   23.59    1.12
   1   2   6   25.31    1.13
   1   2   6   25.58    1.17
  -2  -2  -6   13.41    0.67
  -2  -2  -6   13.51    0.71
  -2  -2  -6   12.70    0.76
  -2  -2  -6   12.93    0.76
  -2  -2  -6   12.43    0.72
   2   2   6   12.06    0.71
   2   2   6   13.10    0.74
   2   2   6   12.96    0.77
   2   2   6   14.45    0.76
   2   2   6   13.05    0.72
   2   2   6   12.97    0.70
  -3  -2  -6   30.30    1.33
  -3  -2  -6   30.96    1.43
  -3  -2  -6   29.89    1.24
  -3  -2  -6   29.04    1.25
  -3  -2  -6   30.90    1.24
   3   2   6   30.46    1.30
   3   2   6   30.46    1.35
   3   2   6   28.96    1.30
   3   2   6   31.01    1.36
   3   2   6   30.60    1.33
   3   2   6   30.47    1.35
  -4  -2  -6  104.98    3.87
  -4  -2  -6  105.53    3.88
  -4  -2  -6  100.92    4.10
   4   2   6  103.06    3.99
   4   2   6  104.06    3.91
   4   2   6  103.49    3.89
   4   2   6  106.89    3.98
   4   2   6   99.39    3.89
  -5  -2  -6   21.45    1.33
   5   2   6   21.14    1.06
   5   2   6   21.44    1.02
   5   2   6   23.77    1.29
   5   2   6   24.03    1.46
   5   2   6   23.56    1.05
   5   2   6   23.72    1.22
   6   2   6  236.20    8.28
   6   2   6  211.12    8.27
   6   2   6  201.65    8.41
   6   2   6  217.65    8.31
   6   2   6  231.27    8.15
  -7  -2  -6   27.77    1.77
   7   2   6   29.75    1.56
   7   2   6   27.53    2.11
   7   2   6   32.66    1.86
   7   2   6   29.27    1.95
   8   2   6  109.62    4.62
   8   2   6  119.97    4.88
   6  -3  -6    8.48    1.36
   6  -3  -6    8.54    1.30
   6  -3  -6    9.83    1.34
  -6   3   6    8.93    1.19
  -6   3   6   10.13    1.57
   5  -3  -6    1.46    0.63
   5  -3  -6    0.91    0.51
   5  -3  -6    1.36    0.62
   5  -3  -6    1.21    0.68
  -5   3   6    2.29    0.56
  -5   3   6    2.01    0.69
  -5   3   6   -0.23    0.68
   4  -3  -6    0.62    0.45
   4  -3  -6    0.06    0.48
   4  -3  -6   -0.21    0.62
   4  -3  -6    0.42    0.47
   4  -3  -6    0.36    0.39
  -4   3   6    0.16    0.61
  -4   3   6    0.64    0.47
  -4   3   6   -0.17    0.40
  -4   3   6    0.09    0.50
  -4   3   6   -0.13    0.36
  -4   3   6    0.30    0.48
  -4   3   6    0.27    0.43
   3  -3  -6   14.60    0.96
   3  -3  -6   14.11    0.92
   3  -3  -6   14.41    1.13
   3  -3  -6   12.73    0.94
   3  -3  -6   14.40    1.03
  -3   3   6   12.48    0.97
  -3   3   6   14.32    0.98
  -3   3   6   13.83    1.02
  -3   3   6   13.32    0.89
  -3   3   6   14.68    1.06
  -3   3   6   13.99    0.99
   2  -3  -6    1.99    0.38
   2  -3  -6    3.24    0.62
   2  -3  -6    2.36    0.52
   2  -3  -6    2.73    0.53
   2  -3  -6    1.73    0.38
  -2   3   6    2.66    0.53
  -2   3   6    2.31    0.58
  -2   3   6    2.02    0.60
  -2   3   6    2.38    0.41
  -2   3   6    2.36    0.54
  -2   3   6    2.27    0.46
  -2   3   6    2.49    0.47
   1  -3  -6  153.92    5.92
   1  -3  -6  154.62    5.92
   1  -3  -6  153.72    6.00
   1  -3  -6  153.64    5.95
   1  -3  -6  164.70    5.98
  -1   3   6  158.28    5.92
  -1   3   6  154.94    5.96
  -1   3   6  151.82    5.94
  -1   3   6  160.96    5.97
  -1   3   6  163.23    5.85
  -1   3   6  158.11    5.94
  -1   3   6  164.01    6.00
   0  -3  -6    1.68    0.48
   0  -3  -6    0.97    0.27
   0  -3  -6    1.26    0.34
   0  -3  -6    1.19    0.28
   0  -3  -6    0.85    0.24
   0   3   6    1.44    0.33
   0   3   6    1.56    0.40
   0   3   6    1.31    0.32
   0   3   6    0.82    0.25
   0   3   6    1.17    0.30
   0   3   6    1.82    0.44
  -1  -3  -6  363.56   13.17
  -1  -3  -6  363.16   13.12
  -1  -3  -6  354.58   13.16
  -1  -3  -6  347.15   13.10
  -1  -3  -6  355.39   13.13
   1   3   6  350.88   13.02
   1   3   6  364.06   13.12
   1   3   6  364.24   13.13
   1   3   6  380.99   13.18
   1   3   6  376.00   13.18
   1   3   6  345.79   13.13
  -2  -3  -6    3.99    0.50
  -2  -3  -6    3.80    0.38
  -2  -3  -6    3.11    0.44
  -2  -3  -6    3.39    0.37
  -2  -3  -6    4.08    0.44
  -2  -3  -6    4.48    0.48
   2   3   6    3.36    0.46
   2   3   6    3.46    0.42
   2   3   6    3.20    0.45
   2   3   6    3.45    0.41
   2   3   6    3.14    0.44
   2   3   6    3.53    0.49
  -3  -3  -6  183.73    6.80
  -3  -3  -6  184.67    6.75
  -3  -3  -6  181.17    6.78
  -3  -3  -6  191.51    6.73
  -3  -3  -6  180.36    6.65
  -3  -3  -6  184.14    6.91
   3   3   6  187.17    6.83
   3   3   6  179.38    6.79
   3   3   6  191.03    6.80
   3   3   6  173.64    6.79
   3   3   6  187.54    6.77
   3   3   6  179.93    6.80
  -4  -3  -6   16.89    0.89
  -4  -3  -6   16.24    0.90
  -4  -3  -6   16.98    0.84
  -4  -3  -6   16.59    1.02
   4   3   6   15.88    0.88
   4   3   6   16.51    0.85
   4   3   6   15.94    0.82
   4   3   6   14.77    0.92
   4   3   6   15.73    0.87
   4   3   6   16.82    0.91
  -5  -3  -6    4.54    0.58
  -5  -3  -6    3.79    0.72
   5   3   6    3.60    0.56
   5   3   6    3.70    0.47
   5   3   6    4.68    0.78
   5   3   6    4.68    0.51
   5   3   6    4.83    0.55
  -6  -3  -6   31.13    1.74
   6   3   6   32.82    1.49
   6   3   6   34.46    1.78
   6   3   6   30.77    1.44
   6   3   6   29.27    1.79
   6   3   6   32.26    1.40
  -7  -3  -6   -0.77    0.56
   7   3   6   -0.48    0.45
   7   3   6   -0.06    0.91
   8   3   6   40.64    2.38
   8   3   6   37.58    2.08
   5  -4  -6    5.21    1.02
   5  -4  -6    5.04    1.05
   5  -4  -6    4.04    0.72
  -5   4   6    5.48    0.88
  -5   4   6    2.91    0.84
   4  -4  -6   77.92    3.40
   4  -4  -6   86.47    3.47
   4  -4  -6   79.54    3.54
   4  -4  -6   85.90    3.41
   4  -4  -6   82.51    3.46
   4  -4  -6   83.09    3.47
  -4   4   6   82.05    3.61
  -4   4   6   80.15    3.44
  -4   4   6   86.34    3.38
  -4   4   6   84.66    3.28
  -4   4   6   78.31    3.36
   3  -4  -6    3.90    0.66
   3  -4  -6    3.18    0.63
   3  -4  -6    3.61    0.82
   3  -4  -6    4.19    0.89
   3  -4  -6    3.57    0.63
   3  -4  -6    4.22    0.67
  -3   4   6    3.71    0.86
  -3   4   6    3.04    0.71
  -3   4   6    3.06    0.63
  -3   4   6    3.47    0.76
  -3   4   6    4.58    0.78
  -3   4   6    3.20    0.53
   2  -4  -6    4.86    0.60
   2  -4  -6    4.88    0.56
   2  -4  -6    4.13    0.75
   2  -4  -6    4.51    0.62
   2  -4  -6    5.24    0.71
  -2   4   6    4.47    0.65
  -2   4   6    5.21    0.53
  -2   4   6    4.14    0.68
  -2   4   6    4.55    0.69
  -2   4   6    4.04    0.62
  -2   4   6    4.93    0.74
   1  -4  -6    0.36    0.33
   1  -4  -6    0.38    0.27
   1  -4  -6    0.31    0.31
   1  -4  -6    0.75    0.32
   1  -4  -6    0.46    0.26
  -1   4   6    0.38    0.36
  -1   4   6    1.67    0.46
  -1   4   6    0.41    0.33
  -1   4   6    0.51    0.34
  -1   4   6    0.40    0.30
  -1   4   6    0.36    0.27
  -1   4   6    0.73    0.37
   0  -4  -6   26.20    1.28
   0  -4  -6   25.32    1.32
   0  -4  -6   26.19    1.23
   0  -4  -6   26.33    1.23
   0  -4  -6   24.98    1.31
   0   4   6   26.39    1.31
   0   4   6   25.95    1.26
   0   4   6   28.59    1.33
   0   4   6   27.73    1.32
   0   4   6   28.05    1.29
   0   4   6   27.00    1.23
   0   4   6   24.94    1.27
  -1  -4  -6   22.54    1.07
  -1  -4  -6   23.59    1.14
  -1  -4  -6   24.01    1.09
  -1  -4  -6   24.14    1.17
  -1  -4  -6   22.98    1.00
  -1  -4  -6   21.19    1.14
   1   4   6   22.68    1.11
   1   4   6   24.75    1.17
   1   4   6   22.59    1.17
   1   4   6   19.54    1.08
   1   4   6   22.45    1.01
   1   4   6   22.72    1.13
  -2  -4  -6    4.10    0.41
  -2  -4  -6    3.30    0.49
  -2  -4  -6    4.06    0.45
  -2  -4  -6    3.71    0.42
  -2  -4  -6    4.26    0.51
   2   4   6    4.61    0.51
   2   4   6    4.05    0.49
   2   4   6    3.97    0.51
   2   4   6    3.62    0.57
   2   4   6    3.82    0.45
   2   4   6    5.07    0.49
  -3  -4  -6   42.47    1.71
  -3  -4  -6   42.86    1.87
  -3  -4  -6   43.43    1.82
  -3  -4  -6   42.37    1.75
  -3  -4  -6   40.54    1.78
  -3  -4  -6   41.65    1.76
   3   4   6   42.13    1.77
   3   4   6   39.19    1.77
   3   4   6   43.59    1.84
   3   4   6   40.94    1.72
   3   4   6   43.85    1.80
   3   4   6   42.03    1.78
  -4  -4  -6   18.85    0.94
  -4  -4  -6   18.41    1.08
  -4  -4  -6   17.14    0.97
  -4  -4  -6   19.21    1.03
   4   4   6   17.77    1.04
   4   4   6   17.11    0.93
   4   4   6   18.04    1.00
   4   4   6   19.58    0.97
   4   4   6   18.15    1.02
  -5  -4  -6   15.09    0.92
  -5  -4  -6   13.94    1.05
  -5  -4  -6   15.49    0.83
  -5  -4  -6   15.30    0.94
   5   4   6   14.41    0.82
   5   4   6   13.89    0.93
   5   4   6   15.22    0.87
   5   4   6   15.74    0.91
  -6  -4  -6   -0.30    0.42
  -6  -4  -6    0.97    0.47
   6   4   6   -0.32    0.34
   6   4   6    1.19    0.47
  -7  -4  -6   11.18    1.26
  -7  -4  -6   10.57    1.04
   7   4   6   10.20    1.03
   7   4   6    9.74    1.02
   7   4   6   11.12    0.87
   7   4   6    9.39    1.78
   5  -5  -6   57.48    2.85
   5  -5  -6   60.85    2.82
   5  -5  -6   61.64    2.90
  -5   5   6   67.09    2.72
  -5   5   6   60.69    3.10
   4  -5  -6   29.27    1.58
   4  -5  -6   26.27    1.59
   4  -5  -6   29.05    1.66
  -4   5   6   30.14    1.85
  -4   5   6   27.77    1.65
  -4   5   6   29.08    1.52
  -4   5   6   32.05    1.51
  -4   5   6   27.79    1.60
   3  -5  -6   81.28    3.63
   3  -5  -6   91.08    3.56
   3  -5  -6   88.29    3.59
   3  -5  -6   88.14    3.57
  -3   5   6   82.69    3.56
  -3   5   6   88.29    3.40
  -3   5   6   86.79    3.72
  -3   5   6   85.69    3.57
  -3   5   6   82.54    3.55
  -3   5   6   92.46    3.48
   2  -5  -6   10.04    0.87
   2  -5  -6    8.45    0.98
   2  -5  -6    9.55    0.83
   2  -5  -6   10.17    0.72
   2  -5  -6    8.19    0.78
  -2   5   6    9.82    1.00
  -2   5   6    9.01    0.90
  -2   5   6    9.59    0.73
  -2   5   6    9.53    0.83
  -2   5   6    8.61    0.98
  -2   5   6   10.39    0.92
  -2   5   6   10.22    0.86
   1  -5  -6  141.39    5.26
   1  -5  -6  133.13    5.21
   1  -5  -6  131.10    5.07
   1  -5  -6  132.31    5.20
  -1   5   6  134.29    5.27
  -1   5   6  141.07    5.16
  -1   5   6  136.17    5.21
  -1   5   6  132.86    5.24
  -1   5   6  135.39    5.32
  -1   5   6  135.38    5.23
  -1   5   6  143.87    5.27
   0  -5  -6    1.15    0.35
   0  -5  -6    1.08    0.28
   0  -5  -6    1.10    0.31
   0  -5  -6    0.60    0.32
   0  -5  -6    1.15    0.39
   0   5   6    1.35    0.36
   0   5   6    0.91    0.34
   0   5   6    0.75    0.34
   0   5   6    2.17    0.52
   0   5   6    1.12    0.38
   0   5   6    1.35    0.39
  -1  -5  -6   36.04    1.62
  -1  -5  -6   33.60    1.50
  -1  -5  -6   34.56    1.53
  -1  -5  -6   35.48    1.63
  -1  -5  -6   33.68    1.58
  -1  -5  -6   33.95    1.42
   1   5   6   34.20    1.53
   1   5   6   32.11    1.59
   1   5   6   33.09    1.57
   1   5   6   34.30    1.55
   1   5   6   33.41    1.56
   1   5   6   36.11    1.58
  -2  -5  -6   15.11    0.80
  -2  -5  -6   14.33    0.88
  -2  -5  -6   14.31    0.94
  -2  -5  -6   14.07    0.90
  -2  -5  -6   14.46    0.82
  -2  -5  -6   13.97    0.77
   2   5   6   14.50    0.85
   2   5   6   14.37    0.88
   2   5   6   14.24    0.82
   2   5   6   14.67    0.87
   2   5   6   14.85    0.93
   2   5   6   15.04    0.90
  -3  -5  -6   49.62    2.03
  -3  -5  -6   47.05    2.03
  -3  -5  -6   46.81    2.08
  -3  -5  -6   50.91    2.00
  -3  -5  -6   49.53    2.08
  -3  -5  -6   48.19    1.96
   3   5   6   46.61    2.04
   3   5   6   47.48    2.02
   3   5   6   47.38    2.05
   3   5   6   46.39    2.01
   3   5   6   48.39    1.95
   3   5   6   47.30    2.08
  -4  -5  -6   10.65    0.72
  -4  -5  -6   10.43    0.64
  -4  -5  -6   12.48    0.87
  -4  -5  -6   11.15    0.78
   4   5   6    9.67    0.71
   4   5   6   11.23    0.86
   4   5   6   10.52    0.77
   4   5   6   10.09    0.85
   4   5   6   12.29    0.87
  -5  -5  -6   60.87    2.55
  -5  -5  -6   59.30    2.67
  -5  -5  -6   58.92    2.45
   5   5   6   60.11    2.47
   5   5   6   64.78    2.53
   5   5   6   59.62    2.56
   5   5   6   62.44    2.55
  -6  -5  -6    2.32    0.64
  -6  -5  -6    2.35    0.57
   6   5   6    2.79    0.61
   6   5   6    2.70    0.58
   6   5   6    2.47    0.48
   6   5   6    3.43    0.79
  -7  -5  -6   25.27    1.53
  -7  -5  -6   22.78    1.71
   7   5   6   25.59    1.36
   7   5   6   22.34    1.58
   7   5   6   24.45    1.55
  -8  -5  -6   -0.08    0.78
  -8  -5  -6    0.17    0.86
   5  -6  -6    2.73    0.95
   5  -6  -6    2.68    0.80
   5  -6  -6    4.09    1.17
  -5   6   6    2.57    1.09
  -5   6   6    1.84    0.70
   4  -6  -6   10.66    1.14
   4  -6  -6   11.24    1.20
   4  -6  -6    9.85    1.14
  -4   6   6   10.65    1.01
  -4   6   6   10.76    0.99
  -4   6   6   10.67    1.48
  -4   6   6    9.49    1.18
  -4   6   6    7.11    1.16
  -4   6   6   11.59    0.99
   3  -6  -6    8.83    1.12
   3  -6  -6   11.62    1.08
   3  -6  -6   12.20    1.05
   3  -6  -6   11.69    0.98
  -3   6   6    8.98    1.08
  -3   6   6   11.02    1.28
  -3   6   6   11.02    1.06
  -3   6   6   12.63    0.95
   2  -6  -6    2.42    0.51
   2  -6  -6    3.13    0.67
   2  -6  -6    2.48    0.64
   2  -6  -6    2.19    0.58
   2  -6  -6    3.37    0.73
   2  -6  -6    3.13    0.60
  -2   6   6    4.15    0.86
  -2   6   6    3.47    0.88
  -2   6   6    2.60    0.73
  -2   6   6    3.08    0.94
  -2   6   6    3.42    0.70
  -2   6   6    1.86    0.50
  -2   6   6    2.64    0.58
   1  -6  -6   26.21    1.38
   1  -6  -6   26.18    1.33
   1  -6  -6   20.21    1.37
  -1   6   6   27.69    1.43
  -1   6   6   27.50    1.32
  -1   6   6   25.15    1.37
  -1   6   6   26.71    1.52
  -1   6   6   25.42    1.37
  -1   6   6   19.36    1.34
  -1   6   6   25.45    1.38
   0  -6  -6   17.03    1.11
   0  -6  -6   17.60    1.08
   0  -6  -6   17.08    1.01
   0  -6  -6   17.47    1.01
   0  -6  -6   15.88    0.81
   0  -6  -6   17.60    1.16
   0   6   6   16.78    1.07
   0   6   6   18.06    1.14
   0   6   6   17.70    1.09
   0   6   6   16.13    1.08
   0   6   6   16.09    1.05
   0   6   6   18.71    1.08
  -1  -6  -6   17.20    1.10
  -1  -6  -6   16.74    0.86
  -1  -6  -6   16.59    0.94
  -1  -6  -6   16.86    0.99
  -1  -6  -6   16.19    1.04
  -1  -6  -6   16.68    1.07
   1   6   6   17.33    1.07
   1   6   6   16.24    1.05
   1   6   6   16.98    1.09
   1   6   6   17.78    1.03
   1   6   6   17.75    1.00
  -2  -6  -6   13.23    0.83
  -2  -6  -6   15.19    0.88
  -2  -6  -6   16.80    1.00
  -2  -6  -6   15.15    0.83
  -2  -6  -6   14.48    0.96
  -2  -6  -6   15.91    1.04
   2   6   6   13.15    0.96
   2   6   6   14.22    0.92
   2   6   6   14.71    0.98
   2   6   6   15.31    1.02
   2   6   6   13.75    0.87
  -3  -6  -6    1.90    0.49
  -3  -6  -6    1.71    0.46
  -3  -6  -6    3.05    0.60
  -3  -6  -6    2.08    0.50
  -3  -6  -6    1.96    0.43
  -3  -6  -6    2.86    0.62
   3   6   6    2.00    0.41
   3   6   6    2.71    0.68
   3   6   6    2.09    0.60
   3   6   6    1.95    0.47
  -4  -6  -6   14.42    0.84
  -4  -6  -6   13.56    0.95
  -4  -6  -6   14.76    1.00
  -4  -6  -6   13.86    0.99
  -4  -6  -6   14.63    0.97
   4   6   6   16.26    1.09
   4   6   6   15.51    1.10
   4   6   6   15.47    1.07
   4   6   6   15.73    0.94
  -5  -6  -6    0.59    0.40
  -5  -6  -6    0.47    0.53
  -5  -6  -6    1.10    0.45
  -5  -6  -6    0.61    0.45
   5   6   6    0.40    0.51
   5   6   6    0.80    0.44
   5   6   6    0.99    0.39
   5   6   6    0.46    0.49
   5   6   6   -0.26    0.64
   5   6   6    0.54    0.67
  -6  -6  -6   67.16    2.89
  -6  -6  -6   66.57    2.75
  -6  -6  -6   68.27    3.05
   6   6   6   67.07    2.84
   6   6   6   68.50    2.77
   6   6   6   64.10    2.87
   6   6   6   69.93    2.94
  -7  -6  -6    1.61    0.69
  -7  -6  -6    0.61    0.73
   7   6   6   -0.86    0.45
   7   6   6    0.38    0.59
   7   6   6   -0.33    0.82
   4  -7  -6    2.16    0.84
   4  -7  -6    1.53    0.67
   4  -7  -6    0.32    0.64
  -4   7   6   -0.37    0.68
  -4   7   6    1.04    0.57
  -4   7   6    0.61    0.88
   3  -7  -6   51.21    2.42
   3  -7  -6   57.72    2.59
   3  -7  -6   53.03    2.53
   3  -7  -6   54.94    2.60
   3  -7  -6   54.05    2.50
  -3   7   6   52.88    2.52
  -3   7   6   54.39    2.53
  -3   7   6   52.13    2.78
  -3   7   6   52.26    2.57
   2  -7  -6    5.97    0.83
   2  -7  -6    4.88    0.88
   2  -7  -6    4.65    0.90
   2  -7  -6    5.10    0.98
   2  -7  -6    5.69    0.73
  -2   7   6    5.30    1.17
  -2   7   6    4.77    0.99
  -2   7   6    6.50    1.10
  -2   7   6    4.73    1.09
  -2   7   6    5.99    1.13
  -2   7   6    6.63    0.95
   1  -7  -6   80.19    3.18
   1  -7  -6   81.07    3.40
   1  -7  -6   84.21    3.46
   1  -7  -6   83.48    3.38
   1  -7  -6   83.73    3.38
  -1   7   6   81.28    3.54
  -1   7   6   80.09    3.41
  -1   7   6   75.92    3.41
  -1   7   6   86.43    3.47
  -1   7   6   78.80    3.41
   0  -7  -6    8.01    0.78
   0  -7  -6    6.87    0.87
   0  -7  -6    7.33    0.60
   0  -7  -6    8.34    0.94
   0  -7  -6    7.59    0.78
   0   7   6    8.15    0.91
   0   7   6    7.92    0.99
   0   7   6    9.45    0.89
   0   7   6    6.72    0.87
  -1  -7  -6  225.72    8.20
  -1  -7  -6  215.38    8.15
  -1  -7  -6  210.90    8.09
  -1  -7  -6  211.21    8.03
  -1  -7  -6  214.39    7.96
   1   7   6  216.72    8.05
   1   7   6  216.31    8.18
   1   7   6  222.22    8.18
   1   7   6  212.42    8.14
  -2  -7  -6    0.32    0.44
  -2  -7  -6    0.49    0.41
  -2  -7  -6    0.12    0.33
  -2  -7  -6    0.29    0.46
  -2  -7  -6   -0.45    0.33
  -2  -7  -6    0.57    0.36
   2   7   6    1.03    0.42
   2   7   6    0.35    0.46
   2   7   6    0.21    0.39
   2   7   6    0.07    0.41
   2   7   6    0.82    0.46
  -3  -7  -6  212.22    8.01
  -3  -7  -6  223.59    7.94
  -3  -7  -6  217.24    8.08
  -3  -7  -6  217.12    8.02
  -3  -7  -6  203.40    7.92
   3   7   6  214.11    8.06
   3   7   6  205.61    8.01
   3   7   6  212.47    8.05
   3   7   6  211.92    8.01
  -4  -7  -6   13.95    1.15
  -4  -7  -6   17.61    1.07
  -4  -7  -6   17.11    1.16
  -4  -7  -6   18.09    1.16
  -4  -7  -6   18.48    1.32
  -4  -7  -6   17.01    0.97
   4   7   6   12.45    1.79
   4   7   6   17.62    1.18
   4   7   6   18.81    1.31
   4   7   6   15.69    1.24
   4   7   6   18.17    1.11
   4   7   6   16.77    1.31
  -5  -7  -6   50.48    2.30
  -5  -7  -6   50.07    2.38
   5   7   6   52.73    2.42
   5   7   6   50.72    2.31
   5   7   6   50.72    2.42
   5   7   6   50.92    2.25
  -6  -7  -6   24.20    1.58
  -6  -7  -6   26.74    1.73
   6   7   6   27.53    1.58
   6   7   6   28.39    1.48
   6   7   6   25.23    1.79
  -7  -7  -6    1.43    0.81
  -7  -7  -6   -0.37    0.80
   7   7   6    1.25    0.71
   7   7   6    1.94    1.36
   7   7   6   -0.41    0.54
   3  -8  -6    3.47    0.90
   3  -8  -6    2.49    0.74
   3  -8  -6    4.95    1.22
   3  -8  -6    3.54    0.78
  -3   8   6    0.97    0.74
  -3   8   6    2.74    1.05
  -3   8   6    2.78    0.74
  -3   8   6    5.38    1.23
  -3   8   6    0.89    0.63
  -3   8   6    4.44    0.86
   2  -8  -6  139.61    5.61
   2  -8  -6  141.03    5.70
   2  -8  -6  145.79    5.66
   2  -8  -6  141.60    5.45
   2  -8  -6  145.39    5.64
  -2   8   6  144.28    5.88
  -2   8   6  146.44    5.68
  -2   8   6  131.05    5.53
  -2   8   6  138.37    5.65
   1  -8  -6    4.98    1.00
   1  -8  -6    4.43    0.85
   1  -8  -6    3.65    0.90
   1  -8  -6    5.96    1.15
   1  -8  -6    3.83    0.76
  -1   8   6    4.49    1.03
  -1   8   6    4.61    1.22
  -1   8   6    3.83    0.73
  -1   8   6    3.77    1.05
  -1   8   6    4.00    1.13
  -1   8   6    5.81    1.11
  -1   8   6    4.42    1.21
   0  -8  -6   16.38    1.45
   0  -8  -6   22.26    1.09
   0  -8  -6   22.96    1.54
   0  -8  -6   21.94    1.08
   0  -8  -6   21.93    1.30
   0  -8  -6   21.36    1.42
   0  -8  -6   21.49    1.33
   0   8   6   21.93    1.40
   0   8   6   23.33    1.53
   0   8   6   21.07    1.43
   0   8   6   20.35    1.47
   0   8   6   20.54    1.42
   0   8   6   23.06    1.42
  -1  -8  -6   25.12    1.61
  -1  -8  -6   25.35    1.41
  -1  -8  -6   24.91    1.25
  -1  -8  -6   24.86    1.34
  -1  -8  -6   24.82    1.47
  -1  -8  -6   26.36    1.63
   1   8   6   26.02    1.50
   1   8   6   25.21    1.56
   1   8   6   25.77    1.43
   1   8   6   24.79    1.59
   1   8   6   24.32    1.52
  -2  -8  -6    5.35    0.76
  -2  -8  -6    5.73    0.70
  -2  -8  -6    5.07    0.70
  -2  -8  -6    3.50    0.91
  -2  -8  -6    4.85    1.09
   2   8   6    6.28    0.80
   2   8   6    6.47    0.93
   2   8   6    6.44    1.03
   2   8   6    3.65    1.00
   2   8   6    6.70    0.88
  -3  -8  -6   53.55    2.45
  -3  -8  -6   55.74    2.36
  -3  -8  -6   47.38    2.53
  -3  -8  -6   55.93    2.36
   3   8   6   56.72    2.47
   3   8   6   51.27    2.53
   3   8   6   57.18    2.54
   3   8   6   58.59    2.61
  -4  -8  -6    0.40    0.57
  -4  -8  -6   -0.07    0.50
  -4  -8  -6    0.06    0.52
  -4  -8  -6    0.19    0.42
  -4  -8  -6   -0.48    0.47
   4   8   6    0.87    0.57
   4   8   6   -0.19    0.64
   4   8   6   -0.11    0.65
   4   8   6   -0.06    0.45
   4   8   6    1.01    0.80
  -5  -8  -6   42.81    2.17
  -5  -8  -6   43.87    2.16
  -5  -8  -6   45.38    2.15
   5   8   6   43.46    2.11
   5   8   6   43.92    2.20
  -6  -8  -6    1.66    0.75
  -6  -8  -6    3.11    0.86
   6   8   6    4.43    1.20
   6   8   6    2.50    0.66
   3  -9  -6    5.35    1.49
   3  -9  -6    5.51    1.51
   3  -9  -6    5.48    1.18
  -3   9   6    7.88    1.60
  -3   9   6    7.19    1.95
   2  -9  -6   30.32    1.92
   2  -9  -6   30.11    1.85
   2  -9  -6   30.43    1.93
  -2   9   6   27.33    1.97
  -2   9   6   26.52    1.96
  -2   9   6   30.71    2.28
   1  -9  -6    1.52    0.56
   1  -9  -6    1.72    0.76
   1  -9  -6    1.28    0.66
   1  -9  -6    1.10    0.72
   1  -9  -6    1.99    0.95
  -1   9   6    1.62    0.79
  -1   9   6    2.13    0.97
  -1   9   6    4.89    1.24
   0  -9  -6   11.05    1.12
   0  -9  -6   10.34    1.21
   0  -9  -6    8.85    1.49
   0  -9  -6    9.86    1.07
   0  -9  -6    8.46    0.81
   0   9   6    5.00    1.29
   0   9   6    5.62    1.16
   0   9   6    7.25    1.46
   0   9   6    7.83    1.29
  -1  -9  -6    7.95    0.99
  -1  -9  -6    4.89    1.07
  -1  -9  -6    4.70    0.91
  -1  -9  -6    4.62    0.77
   1   9   6    5.20    1.08
   1   9   6    6.30    1.08
   1   9   6    5.74    1.34
   1   9   6    5.48    1.18
  -2  -9  -6    1.86    0.66
  -2  -9  -6    1.57    0.54
  -2  -9  -6    2.19    0.56
  -2  -9  -6    0.29    0.82
  -2  -9  -6    0.44    0.77
  -2  -9  -6    1.36    0.55
   2   9   6    0.78    0.57
   2   9   6    1.20    0.70
   2   9   6    1.62    0.77
   2   9   6    1.23    0.61
  -3  -9  -6   55.19    2.57
  -3  -9  -6   54.36    2.43
  -3  -9  -6   55.01    2.42
  -3  -9  -6   50.34    2.68
   3   9   6   55.80    2.58
   3   9   6   50.05    2.58
   3   9   6   57.97    2.66
   3   9   6   55.11    2.76
  -4  -9  -6    0.77    0.61
  -4  -9  -6   -0.29    0.64
  -4  -9  -6    0.69    0.60
  -4  -9  -6   -0.23    0.52
   4   9   6   -0.12    0.57
   4   9   6   -0.58    0.67
  -5  -9  -6  131.99    4.93
  -5  -9  -6  117.90    5.18
  -5  -9  -6  132.11    5.17
   5   9   6  131.30    5.20
   5   9   6  130.68    5.27
   1 -10  -6   11.42    1.67
   1 -10  -6   14.42    1.54
   1 -10  -6    9.57    1.47
  -1  10   6    8.30    1.96
  -1  10   6   10.51    1.69
  -1  10   6   10.65    1.68
   0 -10  -6  111.90    4.42
   0 -10  -6  105.02    4.17
   0 -10  -6  105.21    4.54
   0 -10  -6  110.70    4.48
   0 -10  -6  102.04    4.70
   0  10   6  106.24    4.63
   0  10   6  104.55    4.55
  -1 -10  -6    2.46    0.75
  -1 -10  -6    1.49    0.62
  -1 -10  -6    3.02    0.77
  -1 -10  -6    1.36    0.77
   1  10   6    2.89    0.87
   1  10   6    2.07    0.90
   1  10   6    0.66    1.10
   1  10   6    1.78    0.98
  -2 -10  -6   51.11    2.62
  -2 -10  -6   52.97    2.52
  -2 -10  -6   52.29    2.32
  -2 -10  -6   51.98    2.37
   2  10   6   51.46    2.92
   2  10   6   52.69    2.64
   2  10   6   49.89    2.53
   2  10   6   48.88    2.68
  -3 -10  -6    1.10    0.70
  -3 -10  -6    1.97    0.72
  -3 -10  -6    0.63    0.80
   3  10   6    0.79    0.84
   3  10   6    1.84    0.77
  -4 -10  -6    7.78    1.40
  -4 -10  -6    8.83    1.74
  -4 -10  -6    6.91    1.20
  -4 -10  -6   10.30    1.29
   4  10   6    6.31    1.43
   4  10   6    5.56    1.07
  -1 -11  -6   26.76    2.11
  -1 -11  -6   23.69    1.91
  -1 -11  -6   30.27    1.80
  -1 -11  -6   25.81    1.68
   1  11   6   28.05    2.17
  -2 -11  -6   15.63    1.69
  -2 -11  -6   19.78    1.51
   2  11   6   15.41    1.85
   1   9  -7    4.64    1.27
   1   9  -7    2.79    1.01
  -1  -9   7    5.39    1.40
  -1  -9   7    3.23    1.10
  -1  -9   7    2.79    0.88
  -1  -9   7    1.31    0.94
   0   9  -7   25.00    2.02
   0   9  -7   29.67    2.43
   0   9  -7   25.16    1.78
   0  -9   7   25.90    1.90
   0  -9   7   30.23    2.65
   0  -9   7   26.42    2.24
   0  -9   7   26.12    2.04
  -1   9  -7   23.36    2.24
  -1   9  -7   23.40    1.79
  -1   9  -7   26.14    1.85
   1  -9   7   22.68    1.95
   1  -9   7   21.46    2.09
   1  -9   7   23.71    1.94
   1  -9   7   25.82    1.90
  -2   9  -7  139.14    6.27
  -2   9  -7  157.88    6.05
  -2   9  -7  148.95    6.10
   2  -9   7  148.08    6.25
   2  -9   7  146.59    6.11
   2  -9   7  158.22    6.25
   2  -9   7  158.90    6.33
  -3   9  -7   40.20    2.29
  -3   9  -7   38.26    2.22
  -3   9  -7   44.62    2.20
  -3   9  -7   35.28    2.60
   3  -9   7   35.32    2.59
   3  -9   7   34.48    2.44
   3  -9   7   41.52    2.59
   3   8  -7  138.18    6.48
  -3  -8   7  162.82    6.17
  -3  -8   7  158.65    6.10
  -3  -8   7  143.53    5.80
   2   8  -7   19.87    2.20
   2   8  -7   17.67    2.23
   2   8  -7   19.27    2.67
   2   8  -7   18.18    1.80
  -2  -8   7   18.27    1.50
  -2  -8   7   19.62    1.42
  -2  -8   7   18.36    1.72
  -2  -8   7   18.25    2.09
  -2  -8   7   18.07    1.70
   1   8  -7  168.04    6.79
   1   8  -7  174.33    7.03
   1   8  -7  159.46    7.09
   1   8  -7  167.46    6.77
  -1  -8   7  177.43    6.98
  -1  -8   7  173.82    6.58
  -1  -8   7  159.97    6.64
  -1  -8   7  179.77    6.82
  -1  -8   7  158.39    6.98
  -1  -8   7  174.52    6.51
   0   8  -7   23.63    1.58
   0   8  -7   24.82    1.75
   0   8  -7   26.29    2.07
   0  -8   7   22.33    1.95
   0  -8   7   24.57    2.22
   0  -8   7   23.91    1.50
   0  -8   7   25.84    1.65
   0  -8   7   26.95    1.83
  -1   8  -7   79.33    3.73
  -1   8  -7   72.72    3.41
  -1   8  -7   80.63    3.47
   1  -8   7   77.40    3.38
   1  -8   7   79.55    3.66
   1  -8   7   77.41    3.58
   1  -8   7   81.23    3.51
   1  -8   7   79.92    3.76
  -2   8  -7   21.39    1.50
  -2   8  -7   19.16    1.79
  -2   8  -7   21.18    1.52
  -2   8  -7   19.22    1.72
   2  -8   7   19.33    1.74
   2  -8   7   21.74    1.71
   2  -8   7   21.70    1.70
   2  -8   7   20.73    1.98
  -3   8  -7    8.95    1.47
  -3   8  -7   11.17    1.16
  -3   8  -7   10.28    1.17
   3  -8   7    8.93    1.45
   3  -8   7    7.86    1.59
   3  -8   7    5.38    1.19
   3  -8   7    7.27    1.34
  -4   8  -7   12.43    1.33
  -4   8  -7   11.09    1.44
  -4   8  -7   11.17    1.13
   4  -8   7   10.17    1.39
   4  -8   7    9.78    1.60
   4  -8   7   13.29    1.77
  -5   8  -7   19.66    1.70
  -5   8  -7   14.94    1.70
   5  -8   7   19.76    2.11
   5  -8   7   19.06    1.87
   5  -8   7   13.51    1.88
   5  -8   7   13.50    1.65
   4   7  -7    8.84    2.09
   4   7  -7    8.45    2.20
  -4  -7   7    9.53    1.50
  -4  -7   7   10.97    1.53
  -4  -7   7   10.47    1.63
   3   7  -7    0.85    1.22
   3   7  -7   -1.01    0.93
   3   7  -7   -0.15    0.83
  -3  -7   7   -0.40    0.87
  -3  -7   7   -0.15    0.76
  -3  -7   7    0.92    0.71
  -3  -7   7    0.99    0.56
   2   7  -7    1.46    0.76
   2   7  -7    0.61    1.00
   2   7  -7    1.49    1.18
   2   7  -7    0.10    0.82
  -2  -7   7    2.97    0.84
  -2  -7   7    1.18    0.71
  -2  -7   7    1.50    0.57
  -2  -7   7    1.61    1.06
  -2  -7   7    2.26    0.70
   1   7  -7    0.72    0.61
   1   7  -7    0.15    1.00
   1   7  -7    0.95    0.93
   1   7  -7    0.79    0.83
  -1  -7   7    0.82    0.70
  -1  -7   7    0.26    0.51
  -1  -7   7    1.11    0.94
  -1  -7   7    0.61    0.53
  -1  -7   7    0.39    0.60
   0   7  -7   41.11    2.35
   0   7  -7   42.82    2.11
   0   7  -7   36.39    2.51
   0   7  -7   35.95    2.24
   0   7  -7   39.37    2.29
   0  -7   7   39.33    2.30
   0  -7   7   41.49    1.89
   0  -7   7   38.95    2.37
   0  -7   7   43.43    2.19
   0  -7   7   40.54    2.02
   0  -7   7   40.53    1.86
  -1   7  -7   -0.57    0.66
  -1   7  -7    0.60    0.88
  -1   7  -7   -0.20    0.52
  -1   7  -7   -0.06    0.43
  -1   7  -7    0.64    0.76
  -1   7  -7    0.52    0.85
   1  -7   7    0.68    0.65
   1  -7   7    0.67    0.60
   1  -7   7   -0.27    0.68
   1  -7   7    0.18    0.55
   1  -7   7    0.56    0.57
  -2   7  -7   38.14    2.17
  -2   7  -7   38.81    1.95
  -2   7  -7   35.73    1.99
  -2   7  -7   36.98    2.31
   2  -7   7   40.81    2.25
   2  -7   7   40.90    2.14
   2  -7   7   40.92    2.12
   2  -7   7   38.11    2.15
   2  -7   7   42.62    2.16
  -3   7  -7    4.88    1.12
  -3   7  -7    6.59    1.19
  -3   7  -7    4.13    0.90
  -3   7  -7    4.67    0.92
   3  -7   7    4.76    1.25
   3  -7   7    4.75    1.14
   3  -7   7    6.36    1.30
   3  -7   7    5.27    1.35
   3  -7   7    4.83    1.14
   3  -7   7    4.90    1.45
  -4   7  -7   10.32    1.35
  -4   7  -7   11.26    1.25
   4  -7   7   11.48    1.32
   4  -7   7   11.57    1.50
   4  -7   7   11.03    1.51
   4  -7   7   12.74    1.22
  -5   7  -7   19.91    1.46
  -5   7  -7   18.81    1.55
   5  -7   7   15.14    1.39
   5  -7   7   18.41    1.75
   5  -7   7   17.01    1.90
   5  -7   7   17.44    1.66
  -6   7  -7   54.50    2.55
   6  -7   7   42.93    2.40
   6  -7   7   48.97    2.68
   6  -7   7   53.76    3.08
   4   6  -7    0.83    0.87
   4   6  -7    2.31    1.04
  -4  -6   7    1.44    0.74
  -4  -6   7    1.07    0.68
  -4  -6   7    1.30    0.83
   3   6  -7   32.65    2.10
   3   6  -7   32.99    2.30
   3   6  -7   35.55    2.74
  -3  -6   7   42.13    2.41
  -3  -6   7   35.69    1.98
  -3  -6   7   35.94    1.98
   2   6  -7    0.87    0.76
   2   6  -7    0.43    0.97
   2   6  -7    0.31    0.60
   2   6  -7   -0.72    0.70
  -2  -6   7    0.83    0.58
  -2  -6   7    1.13    0.97
  -2  -6   7    0.24    0.44
  -2  -6   7    0.47    0.56
  -2  -6   7    2.16    0.89
  -2  -6   7    0.64    0.78
  -2  -6   7    0.63    0.71
   1   6  -7   25.43    1.83
   1   6  -7   25.70    1.91
   1   6  -7   29.54    1.63
   1   6  -7   23.36    1.69
  -1  -6   7   26.31    1.85
  -1  -6   7   26.80    1.45
  -1  -6   7   28.72    1.63
  -1  -6   7   26.48    1.92
  -1  -6   7   25.07    1.43
  -1  -6   7   24.24    1.78
  -1  -6   7   21.93    1.53
   0   6  -7    2.19    0.84
   0   6  -7    0.87    0.69
   0   6  -7    0.89    0.52
   0   6  -7    2.06    0.65
   0  -6   7    1.16    0.43
   0  -6   7    2.54    0.70
   0  -6   7    2.22    0.71
   0  -6   7    1.28    0.52
   0  -6   7    1.87    0.49
   0  -6   7    1.12    0.54
  -1   6  -7   55.60    2.79
  -1   6  -7   60.37    2.58
  -1   6  -7   55.39    2.56
  -1   6  -7   66.32    2.83
  -1   6  -7   55.23    2.70
   1  -6   7   56.81    2.76
   1  -6   7   60.52    2.63
   1  -6   7   48.69    2.65
   1  -6   7   56.60    2.66
   1  -6   7   63.58    2.56
  -2   6  -7    6.01    1.22
  -2   6  -7    8.98    1.05
  -2   6  -7    5.52    1.06
  -2   6  -7    6.94    0.82
  -2   6  -7    6.20    1.22
  -2   6  -7    7.27    0.85
   2  -6   7    7.94    1.13
   2  -6   7    7.40    1.05
   2  -6   7    6.40    0.97
   2  -6   7    4.40    1.00
   2  -6   7    3.93    1.10
   2  -6   7    7.76    1.06
  -3   6  -7  104.78    4.02
  -3   6  -7   99.46    4.17
  -3   6  -7   98.07    4.29
  -3   6  -7   98.52    4.24
  -3   6  -7  105.32    4.04
  -3   6  -7   98.62    4.18
   3  -6   7  108.00    4.22
   3  -6   7  106.08    4.25
   3  -6   7  101.01    4.26
   3  -6   7  103.26    4.23
   3  -6   7   98.70    4.21
  -4   6  -7   10.67    0.91
  -4   6  -7   10.83    1.05
   4  -6   7   11.18    1.11
   4  -6   7   12.17    1.21
   4  -6   7   12.54    1.25
   4  -6   7   12.73    1.35
   4  -6   7   10.73    1.47
   4  -6   7   10.96    1.26
  -5   6  -7   36.16    2.05
  -5   6  -7   39.60    1.88
  -5   6  -7   34.41    1.94
   5  -6   7   35.08    1.89
   5  -6   7   41.64    2.29
   5  -6   7   37.45    2.05
   5  -6   7   36.44    2.06
   5  -6   7   39.06    2.04
  -6   6  -7   11.30    1.44
  -6   6  -7    9.90    1.26
   6  -6   7   11.97    1.44
   6  -6   7   10.23    1.56
   6  -6   7    8.14    1.53
   6  -6   7    8.16    1.12
   6  -6   7   11.48    1.76
   5   5  -7    1.67    1.07
   5   5  -7    2.94    1.06
  -5  -5   7    2.07    0.98
  -5  -5   7    1.25    0.70
  -5  -5   7    1.34    0.78
   4   5  -7   26.92    1.92
   4   5  -7   24.58    2.01
   4   5  -7   21.88    2.46
  -4  -5   7   27.31    1.52
  -4  -5   7   19.67    1.78
  -4  -5   7   25.29    2.04
  -4  -5   7   26.12    1.59
  -4  -5   7   26.77    1.71
   3   5  -7   -0.27    0.64
   3   5  -7    0.63    1.00
   3   5  -7    0.75    0.65
   3   5  -7    0.99    0.95
  -3  -5   7   -0.34    0.90
  -3  -5   7   -0.58    0.50
  -3  -5   7    1.03    0.72
  -3  -5   7    0.04    0.66
  -3  -5   7   -0.02    0.77
  -3  -5   7   -0.61    0.55
   2   5  -7   16.11    1.40
   2   5  -7   15.53    1.68
   2   5  -7   14.91    1.23
   2   5  -7   13.10    1.30
  -2  -5   7   12.60    1.42
  -2  -5   7   13.43    1.08
  -2  -5   7   14.10    1.15
  -2  -5   7   13.91    1.63
  -2  -5   7   12.91    1.18
  -2  -5   7   13.83    0.92
   1   5  -7    0.74    0.75
   1   5  -7   -0.53    0.40
   1   5  -7    1.10    0.61
  -1  -5   7    0.93    0.45
  -1  -5   7   -0.11    0.44
  -1  -5   7    0.21    0.52
  -1  -5   7    0.58    0.67
  -1  -5   7    1.03    0.54
  -1  -5   7   -0.21    0.38
   0   5  -7    7.39    1.04
   0   5  -7    4.30    0.79
   0   5  -7    4.56    1.09
   0   5  -7    5.47    1.00
   0   5  -7    4.15    0.73
   0  -5   7    6.89    0.99
   0  -5   7    4.63    0.92
   0  -5   7    5.51    0.80
   0  -5   7    6.48    1.10
   0  -5   7    5.11    0.70
   0  -5   7    5.09    0.85
  -1   5  -7    1.37    0.43
  -1   5  -7    0.88    0.57
  -1   5  -7    0.92    0.54
  -1   5  -7    0.87    0.52
  -1   5  -7    1.12    0.59
   1  -5   7    0.90    0.48
   1  -5   7    0.97    0.45
   1  -5   7    1.50    0.50
   1  -5   7    1.13    0.45
   1  -5   7    1.25    0.54
   1  -5   7    3.58    0.97
  -2   5  -7   73.31    3.37
  -2   5  -7   89.22    3.53
  -2   5  -7   80.52    3.37
  -2   5  -7   82.04    3.51
  -2   5  -7   85.62    3.35
  -2   5  -7   79.17    3.47
   2  -5   7   82.94    3.51
   2  -5   7   89.07    3.55
   2  -5   7   87.32    3.48
   2  -5   7   79.26    3.45
  -3   5  -7    9.40    1.05
  -3   5  -7   10.58    0.89
  -3   5  -7   11.19    0.93
  -3   5  -7   11.17    0.84
   3  -5   7   12.73    1.03
   3  -5   7   10.19    0.94
   3  -5   7   11.13    1.08
   3  -5   7   10.33    1.08
   3  -5   7    9.22    1.14
   3  -5   7   11.90    1.11
  -4   5  -7  160.76    6.52
  -4   5  -7  158.19    6.51
   4  -5   7  173.11    6.49
   4  -5   7  169.89    6.49
   4  -5   7  181.92    6.55
   4  -5   7  178.49    6.65
   4  -5   7  160.94    6.48
  -5   5  -7    6.85    1.05
  -5   5  -7    7.65    0.96
   5  -5   7    8.46    0.90
   5  -5   7    7.32    1.05
   5  -5   7    8.07    1.29
   5  -5   7    7.26    1.08
   5  -5   7    8.44    1.06
  -6   5  -7   83.73    3.47
  -6   5  -7   80.69    3.63
   6  -5   7   86.97    3.43
   6  -5   7   87.60    3.58
   6  -5   7   79.77    3.39
   6  -5   7   84.54    3.54
   6  -5   7   84.48    3.81
   6  -5   7   83.39    3.81
  -7   5  -7    2.22    0.83
   7  -5   7    3.87    1.15
   7  -5   7    4.70    1.31
   7  -5   7    3.04    1.11
   5   4  -7   30.99    2.28
   5   4  -7   31.27    2.24
  -5  -4   7   34.78    1.75
  -5  -4   7   33.85    1.74
  -5  -4   7   31.59    2.04
  -5  -4   7   30.04    1.93
   4   4  -7    4.19    0.84
   4   4  -7    2.40    0.88
   4   4  -7    1.64    1.15
   4   4  -7    3.21    1.21
  -4  -4   7    4.04    0.81
  -4  -4   7    5.34    0.99
  -4  -4   7    5.88    1.42
  -4  -4   7    4.25    0.86
   3   4  -7  208.79    8.31
   3   4  -7  218.21    8.25
   3   4  -7  213.78    8.32
   3   4  -7  206.70    8.16
  -3  -4   7  218.25    8.07
  -3  -4   7  212.26    8.00
  -3  -4   7  215.83    8.07
  -3  -4   7  226.72    8.32
  -3  -4   7  191.38    8.24
   2   4  -7   17.59    1.69
   2   4  -7   20.56    1.50
   2   4  -7   20.68    1.43
   2   4  -7   20.49    1.32
  -2  -4   7   20.09    1.05
  -2  -4   7   20.09    1.28
  -2  -4   7   20.77    1.59
  -2  -4   7   20.19    1.28
  -2  -4   7   21.09    1.53
  -2  -4   7   20.33    1.24
   1   4  -7  458.52   16.87
   1   4  -7  434.42   16.77
   1   4  -7  483.58   17.03
   1   4  -7  479.82   17.14
   1   4  -7  458.31   17.13
  -1  -4   7  455.72   16.83
  -1  -4   7  461.70   17.02
  -1  -4   7  475.01   17.14
  -1  -4   7  463.95   17.01
  -1  -4   7  474.64   17.14
  -1  -4   7  456.82   16.89
  -1  -4   7  454.97   16.91
   0   4  -7   36.01    1.87
   0   4  -7   33.18    1.54
   0   4  -7   32.54    1.64
   0   4  -7   30.45    1.70
   0   4  -7   33.96    1.78
   0  -4   7   33.85    1.77
   0  -4   7   30.51    1.65
   0  -4   7   33.68    1.61
   0  -4   7   34.66    1.84
   0  -4   7   32.26    1.67
  -1   4  -7  136.03    5.26
  -1   4  -7  145.97    5.30
  -1   4  -7  127.84    5.13
  -1   4  -7  136.67    5.18
  -1   4  -7  127.44    5.12
   1  -4   7  119.58    5.17
   1  -4   7  134.41    5.27
   1  -4   7  143.09    5.29
   1  -4   7  132.28    5.17
   1  -4   7  127.50    5.21
  -2   4  -7   33.59    1.70
  -2   4  -7   33.45    1.59
  -2   4  -7   32.34    1.69
  -2   4  -7   31.19    1.58
  -2   4  -7   34.98    1.56
   2  -4   7   33.39    1.68
   2  -4   7   32.09    1.66
   2  -4   7   32.60    1.64
   2  -4   7   31.93    1.67
   2  -4   7   34.19    1.72
   2  -4   7   33.07    1.72
  -3   4  -7    6.80    0.85
  -3   4  -7    7.26    0.66
  -3   4  -7    7.04    0.71
  -3   4  -7    6.22    0.72
   3  -4   7    5.93    0.88
   3  -4   7    7.26    0.78
   3  -4   7    6.86    0.81
   3  -4   7    8.51    0.93
   3  -4   7    7.85    0.89
   3  -4   7    7.73    0.94
  -4   4  -7   12.24    0.97
  -4   4  -7   11.87    0.94
   4  -4   7   12.52    1.00
   4  -4   7   12.82    0.93
   4  -4   7   11.55    1.15
   4  -4   7   10.97    1.01
   4  -4   7   12.66    1.05
  -5   4  -7   14.86    1.10
  -5   4  -7   13.88    0.97
  -5   4  -7   13.25    1.10
   5  -4   7   14.37    1.10
   5  -4   7   11.91    1.04
   5  -4   7   15.87    1.32
   5  -4   7   13.80    0.98
   5  -4   7   14.20    1.10
   5  -4   7   16.54    1.51
  -6   4  -7    5.60    1.05
   6  -4   7    5.36    1.32
   6  -4   7    6.90    1.00
   6  -4   7    6.80    0.97
  -7   4  -7   48.28    2.54
   7  -4   7   51.92    2.72
   7  -4   7   52.25    2.80
   7  -4   7   51.39    2.38
   5   3  -7   -0.52    0.81
   5   3  -7    0.31    0.79
  -5  -3   7    1.32    0.74
  -5  -3   7    0.86    0.84
  -5  -3   7   -0.01    0.69
  -5  -3   7    0.85    0.59
   4   3  -7   76.52    3.54
   4   3  -7   71.12    3.61
   4   3  -7   82.22    3.40
  -4  -3   7   65.10    3.14
  -4  -3   7   83.25    3.56
  -4  -3   7   77.01    3.22
  -4  -3   7   76.60    3.03
  -4  -3   7   79.12    3.30
   3   3  -7    3.36    0.84
   3   3  -7    3.78    0.95
   3   3  -7    4.08    0.99
   3   3  -7    2.49    0.94
   3   3  -7    3.33    0.83
  -3  -3   7    3.24    0.63
  -3  -3   7    2.85    0.64
  -3  -3   7    3.43    0.80
  -3  -3   7    3.76    0.78
  -3  -3   7    2.63    0.64
  -3  -3   7    2.88    0.82
   2   3  -7   30.14    1.64
   2   3  -7   29.48    1.55
   2   3  -7   28.73    1.89
   2   3  -7   29.20    1.32
   2   3  -7   29.55    1.73
  -2  -3   7   28.77    1.51
  -2  -3   7   27.24    1.78
  -2  -3   7   29.13    1.59
  -2  -3   7   29.16    1.55
  -2  -3   7   32.60    1.54
  -2  -3   7   32.15    1.78
   1   3  -7    3.42    0.70
   1   3  -7    3.53    0.77
   1   3  -7    3.25    0.57
   1   3  -7    2.53    0.80
   1   3  -7    4.27    0.85
   1   3  -7    4.07    0.65
  -1  -3   7    3.15    0.83
  -1  -3   7    4.41    0.87
  -1  -3   7    4.51    0.98
  -1  -3   7    3.81    0.70
  -1  -3   7    3.31    0.69
  -1  -3   7    2.46    0.61
   0   3  -7    1.98    0.60
   0   3  -7    2.39    0.54
   0   3  -7    1.59    0.49
   0   3  -7    3.11    0.55
   0   3  -7    1.73    0.41
   0  -3   7    1.70    0.45
   0  -3   7    1.29    0.49
   0  -3   7    2.32    0.63
   0  -3   7    0.65    0.47
   0  -3   7    2.61    0.52
   0  -3   7    1.07    0.44
  -1   3  -7   12.70    0.96
  -1   3  -7   14.32    0.93
  -1   3  -7   14.36    1.03
  -1   3  -7   15.16    1.09
  -1   3  -7   13.32    0.88
   1  -3   7   13.03    0.96
   1  -3   7   15.12    1.10
   1  -3   7   13.47    1.06
   1  -3   7   12.79    0.92
   1  -3   7   14.79    1.03
   1  -3   7   13.83    0.96
  -2   3  -7   39.07    1.88
  -2   3  -7   40.41    1.79
  -2   3  -7   40.29    1.74
  -2   3  -7   39.19    1.87
  -2   3  -7   39.55    1.86
   2  -3   7   39.64    1.91
   2  -3   7   37.32    1.82
   2  -3   7   39.74    1.86
   2  -3   7   38.97    1.87
   2  -3   7   41.74    1.90
   2  -3   7   39.04    1.87
  -3   3  -7    9.30    0.81
  -3   3  -7    8.09    0.73
  -3   3  -7    7.62    0.83
  -3   3  -7   10.00    0.87
  -3   3  -7    9.59    0.68
  -3   3  -7    9.78    0.67
   3  -3   7    9.73    0.90
   3  -3   7   10.69    0.94
   3  -3   7    9.65    0.93
   3  -3   7    9.21    0.96
   3  -3   7   10.37    0.81
   3  -3   7    9.39    0.82
  -4   3  -7    2.21    0.61
  -4   3  -7    3.05    0.71
  -4   3  -7    1.97    0.40
   4  -3   7    2.47    0.46
   4  -3   7    3.39    0.78
   4  -3   7    2.43    0.61
   4  -3   7    2.26    0.50
   4  -3   7    2.80    0.68
  -5   3  -7   39.31    1.86
   5  -3   7   38.83    1.78
   5  -3   7   38.13    1.99
   5  -3   7   38.87    1.75
   5  -3   7   35.64    1.70
   5  -3   7   38.72    1.79
   5  -3   7   37.10    1.73
  -6   3  -7   79.49    3.47
   6  -3   7   83.28    3.36
   6  -3   7   87.27    3.37
   6  -3   7   81.03    3.40
   6  -3   7   86.64    3.65
  -7   3  -7   35.87    2.03
   7  -3   7   42.22    2.37
   7  -3   7   40.19    1.86
   7  -3   7   36.25    2.10
   7  -3   7   37.30    2.17
   8  -3   7  158.98    6.38
   8  -3   7  150.89    6.30
   5   2  -7    5.56    1.37
  -5  -2   7    1.85    0.59
  -5  -2   7    3.87    1.03
  -5  -2   7    1.65    0.84
  -5  -2   7    3.01    0.81
   4   2  -7    0.72    0.63
   4   2  -7    0.42    0.30
   4   2  -7   -0.14    1.05
   4   2  -7    0.45    0.83
  -4  -2   7   -0.02    0.52
  -4  -2   7   -0.58    0.45
  -4  -2   7    1.07    0.69
  -4  -2   7    0.33    0.52
   3   2  -7   12.97    1.26
   3   2  -7   15.30    0.80
   3   2  -7   14.86    1.37
   3   2  -7   13.29    1.46
   3   2  -7   16.36    1.58
  -3  -2   7   15.40    1.08
  -3  -2   7   15.92    1.43
  -3  -2   7   14.74    1.09
  -3  -2   7   16.40    1.14
  -3  -2   7   14.48    1.05
  -3  -2   7   12.66    1.31
   2   2  -7    3.09    0.79
   2   2  -7    2.99    0.79
   2   2  -7    2.56    0.69
   2   2  -7    2.68    0.71
   2   2  -7    3.13    0.45
  -2  -2   7    1.93    0.57
  -2  -2   7    2.90    0.67
  -2  -2   7    2.84    0.80
  -2  -2   7    3.37    0.70
  -2  -2   7    2.39    0.53
  -2  -2   7    3.38    0.64
   1   2  -7   57.97    2.63
   1   2  -7   58.85    2.36
   1   2  -7   55.62    2.66
   1   2  -7   60.72    2.64
   1   2  -7   58.90    2.49
  -1  -2   7   61.71    2.66
  -1  -2   7   57.69    2.47
  -1  -2   7   59.03    2.40
  -1  -2   7   61.11    2.56
  -1  -2   7   59.28    2.52
  -1  -2   7   56.26    2.63
   0   2  -7   43.55    1.98
   0   2  -7   41.56    1.99
   0   2  -7   43.26    1.82
   0   2  -7   42.39    1.87
   0  -2   7   42.74    2.02
   0  -2   7   42.62    1.95
   0  -2   7   41.22    2.03
   0  -2   7   42.75    1.95
   0  -2   7   42.20    1.87
   0  -2   7   42.98    1.91
  -1   2  -7  390.78   13.60
  -1   2  -7  363.25   13.58
  -1   2  -7  343.93   13.46
  -1   2  -7  360.12   13.51
  -1   2  -7  356.59   13.49
   1  -2   7  380.21   13.55
   1  -2   7  381.55   13.60
   1  -2   7  365.56   13.59
   1  -2   7  387.42   13.56
   1  -2   7  368.61   13.50
   1  -2   7  355.23   13.54
  -2   2  -7   58.59    2.39
  -2   2  -7   57.31    2.48
  -2   2  -7   55.47    2.35
  -2   2  -7   55.45    2.47
  -2   2  -7   63.45    2.50
   2  -2   7   54.35    2.42
   2  -2   7   58.24    2.50
   2  -2   7   59.60    2.49
   2  -2   7   57.98    2.48
   2  -2   7   59.57    2.50
   2  -2   7   58.44    2.51
  -3   2  -7  400.45   14.76
  -3   2  -7  395.74   14.62
  -3   2  -7  401.48   14.63
  -3   2  -7  397.97   14.90
  -3   2  -7  412.14   14.74
  -3   2  -7  394.23   14.76
   3  -2   7  395.58   14.78
   3  -2   7  401.94   14.75
   3  -2   7  415.89   14.91
   3  -2   7  417.91   14.79
   3  -2   7  415.17   14.79
   3  -2   7  397.49   14.83
  -4   2  -7   66.42    2.73
  -4   2  -7   65.37    2.66
  -4   2  -7   66.39    2.89
  -4   2  -7   69.80    2.67
   4  -2   7   67.94    2.97
   4  -2   7   68.54    2.72
   4  -2   7   66.55    2.84
   4  -2   7   62.14    2.72
   4  -2   7   64.00    2.67
   4  -2   7   61.95    2.68
  -5   2  -7  162.56    6.43
  -5   2  -7  159.96    6.21
   5  -2   7  159.49    6.09
   5  -2   7  162.60    6.32
   5  -2   7  169.87    6.14
   5  -2   7  166.29    6.12
   5  -2   7  158.28    6.07
  -6   2  -7   43.19    2.10
   6  -2   7   41.35    2.24
   6  -2   7   45.68    1.98
   6  -2   7   49.43    2.15
   6  -2   7   46.78    2.64
   6  -2   7   47.14    2.30
  -7   2  -7   23.41    1.51
   7  -2   7   25.35    1.72
   7  -2   7   24.75    1.70
   7  -2   7   25.64    1.84
   7  -2   7   23.50    1.63
   8  -2   7   24.96    1.88
   8  -2   7   26.68    3.19
   8  -2   7   25.93    2.18
   6   1  -7   26.23    1.84
   6   1  -7   27.37    2.05
   5   1  -7    4.54    1.14
   5   1  -7    4.10    0.97
   5   1  -7    3.47    0.89
  -5  -1   7    4.97    0.95
  -5  -1   7    2.50    0.91
  -5  -1   7    2.72    0.61
  -5  -1   7    2.41    0.75
  -5  -1   7    1.89    0.86
   4   1  -7  167.84    7.48
   4   1  -7  197.97    7.18
   4   1  -7  195.55    7.22
   4   1  -7  183.90    7.39
   4   1  -7  195.74    7.34
  -4  -1   7  186.96    7.10
  -4  -1   7  188.33    7.20
  -4  -1   7  190.45    7.42
  -4  -1   7  184.60    7.06
   3   1  -7    0.39    0.58
   3   1  -7    0.20    0.67
   3   1  -7    0.94    0.40
   3   1  -7    0.14    0.45
   3   1  -7    0.65    0.38
   3   1  -7    0.46    0.57
  -3  -1   7    0.66    0.60
  -3  -1   7    1.11    0.50
  -3  -1   7    0.84    0.42
  -3  -1   7    0.79    0.62
  -3  -1   7    0.90    0.44
  -3  -1   7    0.74    0.45
   2   1  -7  187.60    7.52
   2   1  -7  203.02    7.23
   2   1  -7  195.10    7.50
   2   1  -7  199.29    7.37
   2   1  -7  194.31    7.39
   2   1  -7  185.97    7.47
  -2  -1   7  200.56    7.44
  -2  -1   7  193.20    7.34
  -2  -1   7  199.19    7.53
  -2  -1   7  197.64    7.33
  -2  -1   7  194.14    7.45
   1   1  -7    6.28    0.86
   1   1  -7    7.30    0.91
   1   1  -7    8.15    0.65
   1   1  -7    6.87    0.75
   1   1  -7    6.67    0.55
  -1  -1   7    7.02    0.89
  -1  -1   7    6.33    0.68
  -1  -1   7    6.65    0.73
  -1  -1   7    6.70    0.69
  -1  -1   7    6.78    0.77
  -1  -1   7    7.80    0.79
   0   1  -7  109.75    4.51
   0   1  -7  117.85    4.50
   0   1  -7  114.55    4.36
   0   1  -7  118.28    4.52
   0  -1   7  118.82    4.45
   0  -1   7  107.50    4.38
   0  -1   7  116.19    4.51
   0  -1   7  118.46    4.53
   0  -1   7  114.91    4.42
   0  -1   7  107.92    4.47
  -1   1  -7    5.82    0.61
  -1   1  -7    4.81    0.65
  -1   1  -7    6.02    0.55
  -1   1  -7    4.51    0.50
  -1   1  -7    4.92    0.70
   1  -1   7    5.14    0.61
   1  -1   7    5.36    0.65
   1  -1   7    4.47    0.62
   1  -1   7    5.15    0.68
   1  -1   7    5.07    0.62
   1  -1   7    4.83    0.71
  -2   1  -7   41.31    1.68
  -2   1  -7   38.77    1.69
  -2   1  -7   39.56    1.79
  -2   1  -7   39.37    1.77
  -2   1  -7   38.45    1.76
   2  -1   7   37.79    1.73
   2  -1   7   39.56    1.79
   2  -1   7   40.13    1.79
   2  -1   7   40.29    1.82
   2  -1   7   37.01    1.74
   2  -1   7   38.52    1.78
  -3   1  -7   28.90    1.48
  -3   1  -7   29.75    1.33
  -3   1  -7   29.21    1.23
  -3   1  -7   26.51    1.22
  -3   1  -7   29.34    1.36
   3  -1   7   27.35    1.36
   3  -1   7   28.46    1.52
   3  -1   7   26.96    1.32
   3  -1   7   26.86    1.43
   3  -1   7   28.11    1.40
   3  -1   7   29.73    1.45
  -4   1  -7   31.58    1.35
  -4   1  -7   28.29    1.34
  -4   1  -7   30.42    1.57
  -4   1  -7   29.64    1.37
   4  -1   7   26.69    1.36
   4  -1   7   28.62    1.39
   4  -1   7   29.39    1.34
   4  -1   7   29.72    1.53
   4  -1   7   27.34    1.62
   4  -1   7   27.55    1.45
   4  -1   7   26.17    1.40
  -5   1  -7   24.05    1.44
  -5   1  -7   24.89    1.26
   5  -1   7   24.79    1.48
   5  -1   7   23.52    1.15
   5  -1   7   22.15    1.17
   5  -1   7   23.25    1.26
  -6   1  -7   47.02    2.41
  -6   1  -7   44.42    2.11
   6  -1   7   52.10    2.02
   6  -1   7   46.29    2.05
   6  -1   7   44.09    2.09
   6  -1   7   46.04    2.57
   6  -1   7   47.22    2.32
   6  -1   7   53.16    2.38
   6  -1   7   49.68    2.23
  -7   1  -7   23.72    1.42
   7  -1   7   23.60    1.68
   7  -1   7   22.65    1.64
   7  -1   7   22.96    1.57
   7  -1   7   25.05    1.75
   7  -1   7   22.12    1.53
   8  -1   7    7.83    1.80
   8  -1   7    7.16    1.32
   8  -1   7    9.52    1.72
   6   0  -7   -0.51    0.82
   6   0  -7    1.59    0.89
  -6   0   7   -1.21    0.87
   5   0  -7    1.43    0.64
   5   0  -7    0.78    0.77
   5   0  -7    2.02    0.69
  -5   0   7    1.62    0.64
  -5   0   7    0.66    0.91
  -5   0   7    1.83    0.52
  -5   0   7    3.41    0.88
   4   0  -7    0.17    0.65
   4   0  -7    0.29    0.56
   4   0  -7   -0.27    0.44
   4   0  -7   -0.25    0.45
   4   0  -7   -0.60    0.89
  -4   0   7   -0.16    0.58
  -4   0   7   -0.01    0.45
  -4   0   7    0.59    0.52
  -4   0   7    0.28    0.64
  -4   0   7   -0.02    0.70
  -4   0   7    0.16    0.46
   3   0  -7   22.09    1.31
   3   0  -7   26.36    1.51
   3   0  -7   26.59    1.38
   3   0  -7   25.68    1.58
   3   0  -7   25.91    1.77
   3   0  -7   26.65    1.62
  -3   0   7   25.98    1.51
  -3   0   7   24.76    1.40
  -3   0   7   24.49    1.40
  -3   0   7   24.54    1.33
  -3   0   7   26.29    1.38
  -3   0   7   29.26    1.65
   2   0  -7    0.58    0.47
   2   0  -7    0.02    0.32
   2   0  -7    0.10    0.41
   2   0  -7   -0.38    0.28
   2   0  -7    0.47    0.32
   2   0  -7   -0.36    0.52
  -2   0   7    0.32    0.40
  -2   0   7    0.39    0.40
  -2   0   7    0.42    0.46
  -2   0   7    0.29    0.35
  -2   0   7    0.85    0.45
   1   0  -7  208.06    7.59
   1   0  -7  191.01    7.53
   1   0  -7  191.67    7.43
   1   0  -7  197.13    7.43
   1   0  -7  195.14    7.39
   1   0  -7  210.15    7.54
  -1   0   7  196.05    7.36
  -1   0   7  203.09    7.53
  -1   0   7  203.95    7.45
  -1   0   7  193.13    7.51
  -1   0   7  202.40    7.54
  -1   0   7  199.40    7.45
   0   0  -7   -0.06    0.23
   0   0  -7    0.74    0.36
   0   0  -7    0.53    0.39
   0   0  -7    0.46    0.23
   0   0  -7    0.05    0.20
   0   0   7    0.28    0.30
   0   0   7    0.26    0.35
   0   0   7    0.94    0.35
   0   0   7    0.33    0.33
   0   0   7    0.24    0.32
  -1   0  -7  150.68    5.60
  -1   0  -7  146.43    5.58
  -1   0  -7  148.98    5.53
  -1   0  -7  152.88    5.57
  -1   0  -7  124.99    5.57
   1   0   7  143.35    5.60
   1   0   7  150.41    5.59
   1   0   7  159.73    5.60
   1   0   7  146.66    5.58
   1   0   7  149.09    5.63
  -2   0  -7    4.90    0.60
  -2   0  -7    5.50    0.54
  -2   0  -7    5.02    0.56
  -2   0  -7    5.51    0.49
  -2   0  -7    4.88    0.56
   2   0   7    5.36    0.65
   2   0   7    5.22    0.56
   2   0   7    5.61    0.55
   2   0   7    5.16    0.65
   2   0   7    4.90    0.64
  -3   0  -7   16.29    1.00
  -3   0  -7   15.02    0.91
  -3   0  -7   15.16    0.79
  -3   0  -7   16.61    0.86
  -3   0  -7   18.29    0.81
   3   0   7   15.33    0.95
   3   0   7   16.46    0.99
   3   0   7   16.00    1.08
   3   0   7   15.28    0.94
   3   0   7   14.77    0.87
   3   0   7   15.38    0.87
  -4   0  -7   16.31    0.86
  -4   0  -7   15.52    1.07
  -4   0  -7   13.94    0.86
  -4   0  -7   14.64    0.84
   4   0   7   14.37    1.02
   4   0   7   15.25    0.92
   4   0   7   14.82    0.96
   4   0   7   15.46    0.96
   4   0   7   14.20    0.82
   4   0   7   13.96    1.14
   4   0   7   14.01    0.85
  -5   0  -7  152.62    5.45
  -5   0  -7  139.98    5.68
   5   0   7  143.61    5.34
   5   0   7  146.76    5.60
   5   0   7  148.03    5.34
   5   0   7  140.61    5.39
   5   0   7  129.78    5.74
  -6   0  -7    9.07    0.81
  -6   0  -7    8.81    1.06
   6   0   7    6.63    1.16
   6   0   7    9.36    1.13
   6   0   7    8.89    1.07
   6   0   7    8.67    0.70
   6   0   7    8.60    0.93
   6   0   7    9.77    1.41
   7   0   7  110.01    4.57
   7   0   7  107.19    4.67
   7   0   7  114.24    4.56
   7   0   7  116.37    4.59
   7   0   7  122.29    4.78
   8   0   7   16.06    1.96
   8   0   7   15.25    1.39
   8   0   7   11.76    1.80
   6  -1  -7  153.25    6.03
   6  -1  -7  156.56    6.09
  -6   1   7  143.29    6.02
   5  -1  -7    0.16    0.62
   5  -1  -7    1.03    0.70
   5  -1  -7    0.61    0.59
  -5   1   7   -0.38    0.80
  -5   1   7    0.23    0.51
  -5   1   7    0.06    0.46
  -5   1   7    0.70    0.62
   4  -1  -7   78.46    3.81
   4  -1  -7   86.14    3.62
   4  -1  -7   84.01    3.50
   4  -1  -7   85.71    3.52
   4  -1  -7   90.69    3.67
  -4   1   7   88.09    3.42
  -4   1   7   83.57    3.51
  -4   1   7   86.73    3.72
  -4   1   7   86.67    3.46
  -4   1   7   80.94    3.56
   3  -1  -7    1.28    0.43
   3  -1  -7    0.55    0.46
   3  -1  -7    0.91    0.44
   3  -1  -7    0.91    0.66
   3  -1  -7    1.53    0.55
   3  -1  -7    1.59    0.64
  -3   1   7    1.19    0.45
  -3   1   7    1.23    0.53
  -3   1   7    1.29    0.50
  -3   1   7   -0.02    0.80
  -3   1   7    0.65    0.43
  -3   1   7    0.64    0.43
  -3   1   7    1.45    0.42
   2  -1  -7   11.66    0.97
   2  -1  -7   11.43    1.14
   2  -1  -7   11.81    1.02
   2  -1  -7   11.76    0.89
   2  -1  -7   10.98    0.79
   2  -1  -7   11.12    0.82
  -2   1   7   11.94    0.91
  -2   1   7   10.39    0.87
  -2   1   7   11.30    0.94
  -2   1   7   11.42    0.94
  -2   1   7   12.65    0.79
  -2   1   7   12.12    0.85
   1  -1  -7   -0.16    0.28
   1  -1  -7    0.42    0.38
   1  -1  -7    0.28    0.28
   1  -1  -7    0.28    0.42
   1  -1  -7    0.30    0.25
  -1   1   7    0.30    0.34
  -1   1   7   -0.26    0.35
  -1   1   7   -0.33    0.30
  -1   1   7   -0.06    0.23
  -1   1   7    0.07    0.35
  -1   1   7   -0.21    0.29
   0  -1  -7   70.64    2.89
   0  -1  -7   73.96    2.95
   0  -1  -7   71.80    2.99
   0  -1  -7   73.00    2.91
   0  -1  -7   70.27    2.99
   0   1   7   73.80    2.93
   0   1   7   72.97    2.92
   0   1   7   72.94    2.94
   0   1   7   78.26    3.00
   0   1   7   73.47    2.78
   0   1   7   71.14    2.97
  -1  -1  -7    2.10    0.45
  -1  -1  -7    2.86    0.52
  -1  -1  -7    1.24    0.36
  -1  -1  -7    2.10    0.42
  -1  -1  -7    2.23    0.39
   1   1   7    1.57    0.36
   1   1   7    2.12    0.48
   1   1   7    1.92    0.50
   1   1   7    2.17    0.41
   1   1   7    1.88    0.42
   1   1   7    2.52    0.58
  -2  -1  -7  162.57    5.78
  -2  -1  -7  155.05    5.80
  -2  -1  -7  155.99    5.73
  -2  -1  -7  153.47    5.69
  -2  -1  -7  148.11    5.73
   2   1   7  146.93    5.76
   2   1   7  152.24    5.75
   2   1   7  148.37    5.72
   2   1   7  151.99    5.71
   2   1   7  153.41    5.76
   2   1   7  152.61    5.75
  -3  -1  -7    0.12    0.23
  -3  -1  -7    0.56    0.30
  -3  -1  -7    0.76    0.23
  -3  -1  -7    0.78    0.22
  -3  -1  -7    0.36    0.21
  -3  -1  -7    0.37    0.26
   3   1   7    0.54    0.40
   3   1   7    0.45    0.28
   3   1   7    0.66    0.31
   3   1   7    0.61    0.35
   3   1   7    0.91    0.35
   3   1   7    0.54    0.25
  -4  -1  -7   35.56    1.56
  -4  -1  -7   37.92    1.57
  -4  -1  -7   36.57    1.58
  -4  -1  -7   35.10    1.79
   4   1   7   36.91    1.69
   4   1   7   36.80    1.62
   4   1   7   35.98    1.87
   4   1   7   38.93    1.64
   4   1   7   36.01    1.56
   4   1   7   37.58    1.58
  -5  -1  -7   -0.09    0.37
  -5  -1  -7    0.07    0.27
   5   1   7    0.25    0.58
   5   1   7   -0.10    0.29
   5   1   7   -0.31    0.29
   5   1   7    0.35    0.28
   5   1   7   -0.21    0.35
  -6  -1  -7    0.68    0.36
  -6  -1  -7    0.51    0.48
   6   1   7    1.16    0.51
   6   1   7    1.78    0.70
   6   1   7   -0.59    0.63
   6   1   7   -0.28    0.72
   6   1   7    0.15    0.40
  -7  -1  -7    2.32    0.71
   7   1   7    2.51    0.67
   7   1   7    2.36    0.77
   7   1   7    2.13    0.87
   7   1   7    0.72    0.86
   8   1   7   92.53    3.91
   8   1   7   79.35    3.88
   8   1   7   82.65    3.67
   8   1   7   81.94    3.48
   5  -2  -7    2.14    0.63
   5  -2  -7    0.49    0.70
   5  -2  -7    1.41    0.69
  -5   2   7    1.55    0.55
  -5   2   7    3.49    0.85
  -5   2   7    2.29    0.75
  -5   2   7    1.73    0.64
   4  -2  -7    3.07    0.71
   4  -2  -7    2.33    0.60
   4  -2  -7    1.02    0.97
   4  -2  -7    4.47    0.91
   4  -2  -7    1.88    0.93
   4  -2  -7    2.39    0.56
  -4   2   7    1.32    0.67
  -4   2   7    3.92    1.06
  -4   2   7    1.71    0.52
  -4   2   7    1.65    0.59
  -4   2   7    1.95    0.57
  -4   2   7    1.83    0.55
   3  -2  -7    1.50    0.48
   3  -2  -7    2.11    0.56
   3  -2  -7    0.39    0.67
   3  -2  -7    0.85    0.39
   3  -2  -7    2.37    0.53
  -3   2   7    1.42    0.52
  -3   2   7    0.85    0.47
  -3   2   7    0.75    0.45
  -3   2   7    1.09    0.50
  -3   2   7    0.94    0.42
   2  -2  -7    6.01    0.67
   2  -2  -7    5.75    0.94
   2  -2  -7    6.34    0.63
   2  -2  -7    5.03    0.67
   2  -2  -7    4.72    0.81
  -2   2   7    5.84    0.66
  -2   2   7    4.44    0.76
  -2   2   7    5.61    0.76
  -2   2   7    5.13    0.72
  -2   2   7    5.78    0.78
  -2   2   7    5.56    0.69
   1  -2  -7    0.24    0.36
   1  -2  -7   -0.14    0.24
   1  -2  -7    0.24    0.28
   1  -2  -7    0.88    0.42
   1  -2  -7    0.34    0.28
  -1   2   7    0.41    0.37
  -1   2   7   -0.19    0.31
  -1   2   7   -0.07    0.32
  -1   2   7    0.30    0.29
  -1   2   7    0.38    0.29
  -1   2   7    1.07    0.41
   0  -2  -7    5.87    0.70
   0  -2  -7    7.05    0.71
   0  -2  -7    5.95    0.55
   0  -2  -7    6.16    0.55
   0  -2  -7    6.17    0.60
   0   2   7    6.88    0.63
   0   2   7    6.44    0.53
   0   2   7    5.36    0.69
   0   2   7    6.79    0.62
   0   2   7    6.78    0.61
   0   2   7    5.82    0.63
  -1  -2  -7  200.98    7.24
  -1  -2  -7  184.03    7.18
  -1  -2  -7  197.70    7.27
  -1  -2  -7  196.79    7.26
  -1  -2  -7  204.85    7.28
   1   2   7  192.61    7.22
   1   2   7  199.09    7.23
   1   2   7  197.54    7.23
   1   2   7  179.35    7.24
   1   2   7  188.81    7.11
   1   2   7  193.32    7.26
  -2  -2  -7    9.74    0.64
  -2  -2  -7   10.90    0.72
  -2  -2  -7   11.72    0.71
  -2  -2  -7   10.91    0.74
  -2  -2  -7   10.64    0.76
   2   2   7    9.63    0.72
   2   2   7   10.76    0.75
   2   2   7   10.70    0.78
   2   2   7   11.36    0.70
   2   2   7   11.51    0.68
   2   2   7    9.04    0.69
  -3  -2  -7  367.69   12.91
  -3  -2  -7  334.61   12.84
  -3  -2  -7  353.23   13.04
  -3  -2  -7  354.33   12.84
  -3  -2  -7  374.84   12.94
  -3  -2  -7  343.26   12.83
   3   2   7  345.85   12.93
   3   2   7  374.07   12.94
   3   2   7  331.24   12.91
   3   2   7  356.50   12.94
   3   2   7  365.61   12.93
   3   2   7  350.34   12.90
  -4  -2  -7   21.87    1.05
  -4  -2  -7   21.97    1.23
  -4  -2  -7   21.47    1.08
  -4  -2  -7   21.41    1.00
   4   2   7   20.74    1.03
   4   2   7   23.44    1.13
   4   2   7   22.48    1.18
   4   2   7   22.34    1.13
   4   2   7   20.66    1.19
   4   2   7   20.33    1.04
  -5  -2  -7  220.19    8.23
  -5  -2  -7  218.22    8.21
  -5  -2  -7  215.88    8.54
  -5  -2  -7  214.39    8.20
   5   2   7  220.48    8.24
   5   2   7  236.14    8.31
   5   2   7  240.86    8.40
   5   2   7  219.90    8.24
   5   2   7  227.88    8.23
   5   2   7  228.67    8.27
  -6  -2  -7    3.54    0.87
   6   2   7    4.23    1.05
   6   2   7    6.79    0.98
   6   2   7    4.66    0.58
   6   2   7    3.39    0.69
   6   2   7    1.72    0.90
  -7  -2  -7    9.06    1.23
   7   2   7    8.59    1.13
   7   2   7    8.86    1.36
   7   2   7    6.03    1.41
   7   2   7    5.74    1.24
   8   2   7    8.91    1.44
   8   2   7    7.03    1.82
   8   2   7    8.45    1.92
   5  -3  -7    0.41    0.68
   5  -3  -7    0.23    0.73
   5  -3  -7   -0.58    0.61
  -5   3   7    0.59    0.54
  -5   3   7   -0.82    0.70
  -5   3   7    0.89    0.64
   4  -3  -7  178.90    7.08
   4  -3  -7  181.25    7.07
   4  -3  -7  187.79    7.05
   4  -3  -7  187.48    7.13
  -4   3   7  186.08    6.91
  -4   3   7  182.22    7.02
  -4   3   7  179.01    6.99
  -4   3   7  188.25    7.18
  -4   3   7  182.40    7.12
   3  -3  -7    0.95    0.40
   3  -3  -7    0.70    0.43
   3  -3  -7    0.89    0.50
   3  -3  -7    0.60    0.41
   3  -3  -7    0.12    0.61
  -3   3   7    0.57    0.49
  -3   3   7    0.31    0.49
  -3   3   7    0.28    0.43
  -3   3   7    1.04    0.45
  -3   3   7    0.99    0.50
  -3   3   7   -0.05    0.56
   2  -3  -7  462.26   16.79
   2  -3  -7  454.34   16.84
   2  -3  -7  433.22   16.89
   2  -3  -7  462.91   16.84
   2  -3  -7  454.73   16.81
  -2   3   7  469.87   16.84
  -2   3   7  472.73   16.78
  -2   3   7  447.21   16.83
  -2   3   7  470.46   16.88
  -2   3   7  468.98   16.64
  -2   3   7  462.05   16.86
   1  -3  -7    2.09    0.47
   1  -3  -7    2.19    0.55
   1  -3  -7    2.32    0.41
   1  -3  -7    3.06    0.72
   1  -3  -7    2.84    0.51
  -1   3   7    2.73    0.67
  -1   3   7    2.13    0.60
  -1   3   7    1.93    0.54
  -1   3   7    2.74    0.60
  -1   3   7    2.08    0.48
  -1   3   7    2.35    0.56
   0  -3  -7  160.89    6.10
   0  -3  -7  166.07    6.21
   0  -3  -7  157.79    6.14
   0  -3  -7  160.63    6.12
   0  -3  -7  160.71    6.18
   0   3   7  156.59    6.09
   0   3   7  163.58    6.14
   0   3   7  171.48    6.20
   0   3   7  167.38    6.18
   0   3   7  163.99    6.15
   0   3   7  159.94    6.13
  -1  -3  -7    5.08    0.63
  -1  -3  -7    4.65    0.62
  -1  -3  -7    4.94    0.51
  -1  -3  -7    4.92    0.56
  -1  -3  -7    4.91    0.52
   1   3   7    5.05    0.54
   1   3   7    4.75    0.43
   1   3   7    4.73    0.59
   1   3   7    5.41    0.58
   1   3   7    4.18    0.60
   1   3   7    4.55    0.66
  -2  -3  -7   49.58    2.04
  -2  -3  -7   48.09    1.99
  -2  -3  -7   47.78    2.07
  -2  -3  -7   48.22    2.09
   2   3   7   48.33    2.09
   2   3   7   48.37    2.03
   2   3   7   49.13    2.05
   2   3   7   46.92    2.03
   2   3   7   48.74    2.05
   2   3   7   50.36    1.98
  -3  -3  -7   39.45    1.61
  -3  -3  -7   40.86    1.68
  -3  -3  -7   44.76    1.81
  -3  -3  -7   39.15    1.71
  -3  -3  -7   42.12    1.87
  -3  -3  -7   43.46    1.77
   3   3   7   42.28    1.78
   3   3   7   40.69    1.81
   3   3   7   39.89    1.77
   3   3   7   40.19    1.74
   3   3   7   39.51    1.75
   3   3   7   39.85    1.77
  -4  -3  -7    0.72    0.19
  -4  -3  -7    0.51    0.33
  -4  -3  -7    0.25    0.33
  -4  -3  -7    0.64    0.26
   4   3   7    0.03    0.38
   4   3   7    0.28    0.37
   4   3   7    0.10    0.25
   4   3   7    0.83    0.40
   4   3   7    0.54    0.35
   4   3   7    0.54    0.29
  -5  -3  -7   32.67    1.74
  -5  -3  -7   32.78    1.44
  -5  -3  -7   31.59    1.48
   5   3   7   34.20    1.44
   5   3   7   30.65    1.46
   5   3   7   32.59    1.49
   5   3   7   33.92    1.52
  -6  -3  -7   27.04    1.67
   6   3   7   29.07    1.35
   6   3   7   28.69    1.41
   6   3   7   23.98    1.73
   6   3   7   31.86    1.66
  -7  -3  -7   23.65    1.69
   7   3   7   23.16    1.39
   7   3   7   25.79    1.26
   7   3   7   23.93    1.92
  -8  -3  -7   14.97    1.72
   8   3   7   11.52    1.89
   5  -4  -7   31.40    1.82
   5  -4  -7   25.87    1.89
   5  -4  -7   27.89    1.83
  -5   4   7   28.73    1.98
  -5   4   7   29.36    1.62
  -5   4   7   28.07    1.71
   4  -4  -7    0.41    0.60
   4  -4  -7   -0.11    0.54
   4  -4  -7    0.23    0.51
   4  -4  -7    0.04    0.65
  -4   4   7    0.19    0.50
  -4   4   7   -0.49    0.50
  -4   4   7    1.28    0.63
  -4   4   7   -0.94    0.63
  -4   4   7   -0.30    0.59
   3  -4  -7   16.66    1.14
   3  -4  -7   17.73    1.44
   3  -4  -7   17.78    1.32
   3  -4  -7   17.55    1.16
   3  -4  -7   16.97    1.18
  -3   4   7   17.66    1.15
  -3   4   7   16.54    0.96
  -3   4   7   18.43    1.30
  -3   4   7   16.86    1.29
  -3   4   7   16.24    1.19
  -3   4   7   17.82    1.27
   2  -4  -7   11.44    1.03
   2  -4  -7   12.38    0.88
   2  -4  -7   11.93    1.13
   2  -4  -7   11.99    0.93
   2  -4  -7   11.16    0.89
  -2   4   7   12.40    1.03
  -2   4   7   11.71    0.96
  -2   4   7   11.40    1.05
  -2   4   7   11.88    0.80
  -2   4   7   12.05    1.02
  -2   4   7   11.44    0.94
   1  -4  -7    0.09    0.34
   1  -4  -7   -0.20    0.31
   1  -4  -7    0.27    0.38
   1  -4  -7   -0.59    0.27
  -1   4   7   -0.03    0.38
  -1   4   7    0.59    0.43
  -1   4   7   -0.29    0.31
  -1   4   7    0.48    0.39
  -1   4   7    0.33    0.41
  -1   4   7    0.17    0.32
  -1   4   7   -0.56    0.36
   0  -4  -7   29.91    1.52
   0  -4  -7   30.26    1.54
   0  -4  -7   29.10    1.41
   0  -4  -7   29.03    1.41
   0  -4  -7   28.09    1.45
   0   4   7   31.61    1.50
   0   4   7   32.10    1.49
   0   4   7   29.51    1.46
   0   4   7   30.90    1.47
   0   4   7   31.39    1.47
  -1  -4  -7    2.13    0.45
  -1  -4  -7    3.67    0.57
  -1  -4  -7    2.20    0.59
  -1  -4  -7    2.78    0.47
  -1  -4  -7    2.69    0.60
   1   4   7    2.47    0.42
   1   4   7    2.33    0.56
   1   4   7    2.65    0.54
   1   4   7    3.45    0.62
   1   4   7    3.15    0.58
   1   4   7    2.30    0.52
  -2  -4  -7   39.97    1.70
  -2  -4  -7   38.41    1.67
  -2  -4  -7   39.88    1.76
  -2  -4  -7   39.39    1.78
  -2  -4  -7   38.52    1.64
  -2  -4  -7   40.80    1.75
   2   4   7   37.51    1.74
   2   4   7   40.44    1.80
   2   4   7   38.31    1.66
   2   4   7   40.07    1.72
   2   4   7   40.80    1.77
   2   4   7   38.16    1.73
  -3  -4  -7    5.86    0.62
  -3  -4  -7    6.07    0.75
  -3  -4  -7    6.05    0.53
  -3  -4  -7    6.35    0.66
  -3  -4  -7    5.16    0.62
  -3  -4  -7    5.49    0.56
   3   4   7    5.77    0.58
   3   4   7    6.62    0.62
   3   4   7    5.54    0.62
   3   4   7    5.35    0.66
   3   4   7    6.30    0.65
   3   4   7    6.19    0.70
  -4  -4  -7   32.90    1.55
  -4  -4  -7   33.21    1.68
  -4  -4  -7   34.29    1.41
  -4  -4  -7   33.45    1.44
   4   4   7   35.75    1.57
   4   4   7   33.35    1.58
   4   4   7   37.29    1.62
   4   4   7   33.17    1.52
   4   4   7   33.43    1.60
   4   4   7   34.24    1.54
  -5  -4  -7  118.58    4.57
  -5  -4  -7  115.14    4.44
  -5  -4  -7  117.33    4.72
   5   4   7  119.99    4.47
   5   4   7  115.38    4.51
   5   4   7  118.96    4.50
   5   4   7  116.09    4.52
  -6  -4  -7   31.39    1.84
   6   4   7   35.98    1.51
   6   4   7   30.88    1.63
   6   4   7   31.59    1.56
   6   4   7   34.69    1.56
  -7  -4  -7  151.92    6.17
   7   4   7  151.82    5.76
   7   4   7  153.93    6.18
   7   4   7  151.73    5.81
  -8  -4  -7   20.78    1.87
   5  -5  -7    1.98    0.91
   5  -5  -7    0.28    0.75
  -5   5   7    1.38    0.95
  -5   5   7    1.20    0.74
   4  -5  -7   15.64    1.34
   4  -5  -7   17.32    1.41
   4  -5  -7   16.35    1.33
  -4   5   7   18.34    1.63
  -4   5   7   17.67    1.25
  -4   5   7   15.73    1.38
  -4   5   7   15.49    1.37
   3  -5  -7    1.62    0.50
   3  -5  -7    2.16    0.56
   3  -5  -7    2.66    0.68
   3  -5  -7    1.20    0.58
  -3   5   7    1.89    0.65
  -3   5   7    1.81    0.70
  -3   5   7    3.49    0.89
  -3   5   7    2.14    0.49
   2  -5  -7   30.87    1.45
   2  -5  -7   25.98    1.71
   2  -5  -7   29.40    1.51
   2  -5  -7   29.11    1.54
   2  -5  -7   30.12    1.59
   2  -5  -7   29.93    1.68
  -2   5   7   28.95    1.64
  -2   5   7   27.60    1.65
  -2   5   7   30.52    1.61
  -2   5   7   31.93    1.44
  -2   5   7   27.31    1.62
  -2   5   7   30.83    1.71
   1  -5  -7    2.32    0.63
   1  -5  -7    4.54    0.62
   1  -5  -7    3.12    0.61
   1  -5  -7    2.51    0.68
   1  -5  -7    2.23    0.49
  -1   5   7    4.69    0.79
  -1   5   7    2.69    0.76
  -1   5   7    3.27    0.60
  -1   5   7    4.10    0.65
  -1   5   7    3.98    0.72
  -1   5   7    3.79    0.66
  -1   5   7    3.60    0.74
   0  -5  -7  264.34    9.66
   0  -5  -7  266.97    9.75
   0  -5  -7  266.02    9.66
   0  -5  -7  262.93    9.70
   0   5   7  255.41    9.69
   0   5   7  260.00    9.72
   0   5   7  242.51    9.64
   0   5   7  257.02    9.66
   0   5   7  263.76    9.74
   0   5   7  263.77    9.73
   0   5   7  260.85    9.62
  -1  -5  -7   12.20    0.93
  -1  -5  -7   10.67    0.87
  -1  -5  -7   11.75    0.68
  -1  -5  -7   11.37    0.79
  -1  -5  -7   12.02    0.77
   1   5   7   10.33    0.85
   1   5   7   10.25    0.85
   1   5   7   10.08    0.86
   1   5   7   11.90    0.94
   1   5   7   10.94    0.83
  -2  -5  -7  346.86   13.02
  -2  -5  -7  347.33   13.07
  -2  -5  -7  363.01   13.14
  -2  -5  -7  362.46   12.97
  -2  -5  -7  353.28   13.01
  -2  -5  -7  346.28   13.07
   2   5   7  373.84   13.03
   2   5   7  350.43   13.08
   2   5   7  364.66   13.11
   2   5   7  355.63   13.12
   2   5   7  357.56   13.08
   2   5   7  356.73   12.97
  -3  -5  -7    5.33    0.67
  -3  -5  -7    5.53    0.58
  -3  -5  -7    5.85    0.79
  -3  -5  -7    4.93    0.67
  -3  -5  -7    5.08    0.67
  -3  -5  -7    5.72    0.56
   3   5   7    5.34    0.63
   3   5   7    6.06    0.67
   3   5   7    6.53    0.68
   3   5   7    5.49    0.75
   3   5   7    5.32    0.68
   3   5   7    5.33    0.73
  -4  -5  -7  160.00    5.76
  -4  -5  -7  154.26    5.79
  -4  -5  -7  155.94    5.87
  -4  -5  -7  143.33    5.98
  -4  -5  -7  150.12    5.87
   4   5   7  164.02    5.95
   4   5   7  156.00    5.91
   4   5   7  159.68    5.91
   4   5   7  151.57    5.90
   4   5   7  157.84    5.88
  -5  -5  -7   21.66    1.39
  -5  -5  -7   24.08    1.22
  -5  -5  -7   23.61    1.28
   5   5   7   21.77    1.43
   5   5   7   22.66    1.18
   5   5   7   23.38    1.26
   5   5   7   23.35    1.37
   5   5   7   22.61    1.35
  -6  -5  -7   33.70    1.58
  -6  -5  -7   32.58    1.73
  -6  -5  -7   33.67    1.91
   6   5   7   34.04    1.75
   6   5   7   32.55    1.56
   6   5   7   34.10    1.65
   6   5   7   34.39    1.67
  -7  -5  -7   32.12    1.78
  -7  -5  -7   34.24    2.08
   7   5   7   30.33    1.88
   7   5   7   32.72    1.68
  -8  -5  -7    3.23    1.03
   4  -6  -7    0.59    0.79
   4  -6  -7    1.72    0.67
   4  -6  -7    0.42    0.67
  -4   6   7    0.97    0.62
  -4   6   7    0.98    0.74
  -4   6   7    0.78    0.92
   3  -6  -7   64.03    2.79
   3  -6  -7   61.74    2.83
   3  -6  -7   61.71    2.93
   3  -6  -7   59.21    2.70
   3  -6  -7   61.03    2.83
  -3   6   7   61.69    2.84
  -3   6   7   63.74    2.65
  -3   6   7   64.90    3.05
  -3   6   7   61.89    2.74
  -3   6   7   62.03    2.85
   2  -6  -7   -0.25    0.58
   2  -6  -7    0.57    0.56
   2  -6  -7    0.72    0.48
   2  -6  -7    0.85    0.44
   2  -6  -7    0.65    0.48
  -2   6   7    0.99    0.60
  -2   6   7    1.38    0.53
  -2   6   7    0.56    0.45
  -2   6   7   -0.40    0.59
  -2   6   7    1.37    0.66
  -2   6   7   -0.30    0.52
   1  -6  -7   43.51    1.82
   1  -6  -7   44.21    2.00
   1  -6  -7   41.23    1.99
   1  -6  -7   41.26    2.12
   1  -6  -7   41.45    2.03
  -1   6   7   45.57    1.98
  -1   6   7   44.45    2.09
  -1   6   7   42.45    2.06
  -1   6   7   40.90    2.04
  -1   6   7   42.23    2.12
  -1   6   7   43.41    2.18
   0  -6  -7    0.49    0.48
   0  -6  -7    1.23    0.43
   0  -6  -7    1.45    0.42
   0  -6  -7    0.46    0.25
   0  -6  -7    0.99    0.44
   0   6   7    0.76    0.40
   0   6   7    0.89    0.49
   0   6   7    0.90    0.47
   0   6   7    0.98    0.51
   0   6   7    1.35    0.54
   0   6   7   -0.51    0.50
  -1  -6  -7    4.01    0.78
  -1  -6  -7    4.54    0.53
  -1  -6  -7    4.67    0.86
  -1  -6  -7    3.75    0.63
  -1  -6  -7    3.91    0.87
  -1  -6  -7    4.47    0.63
   1   6   7    3.86    0.75
   1   6   7    4.90    0.78
   1   6   7    5.91    0.73
   1   6   7    5.46    0.81
   1   6   7    4.84    0.79
  -2  -6  -7    9.36    0.69
  -2  -6  -7    9.06    0.95
  -2  -6  -7   10.57    0.75
  -2  -6  -7    8.66    0.95
  -2  -6  -7    9.20    0.76
  -2  -6  -7    9.89    0.88
   2   6   7    9.75    0.90
   2   6   7   10.14    0.84
   2   6   7   10.85    0.89
   2   6   7   10.66    0.85
   2   6   7    8.81    0.93
  -3  -6  -7   62.02    2.64
  -3  -6  -7   59.17    2.45
  -3  -6  -7   62.61    2.55
  -3  -6  -7   55.57    2.53
  -3  -6  -7   58.65    2.58
  -3  -6  -7   60.26    2.44
   3   6   7   62.04    2.62
   3   6   7   58.73    2.57
   3   6   7   57.67    2.52
   3   6   7   58.55    2.43
   3   6   7   59.86    2.56
  -4  -6  -7   11.64    0.77
  -4  -6  -7   11.97    0.88
  -4  -6  -7    9.35    0.92
  -4  -6  -7   12.06    0.94
  -4  -6  -7   11.53    0.97
   4   6   7   11.52    0.88
   4   6   7   12.78    0.95
   4   6   7   10.61    1.05
   4   6   7   10.50    1.02
  -5  -6  -7   42.87    2.20
  -5  -6  -7   44.92    2.08
  -5  -6  -7   45.00    2.04
   5   6   7   45.02    2.16
   5   6   7   47.86    2.11
   5   6   7   44.63    2.15
   5   6   7   47.99    2.04
  -6  -6  -7   19.54    1.27
  -6  -6  -7   20.08    1.35
  -6  -6  -7   22.34    1.56
   6   6   7   18.82    1.20
   6   6   7   21.29    1.36
   6   6   7   19.33    1.56
   6   6   7   20.32    1.39
  -7  -6  -7    3.58    0.97
  -7  -6  -7    4.41    1.13
   7   6   7    2.93    0.96
   7   6   7    5.83    0.92
   7   6   7    3.72    0.79
   4  -7  -7   12.53    1.54
   4  -7  -7   13.68    1.53
  -4   7   7   14.74    2.04
  -4   7   7   15.19    1.34
  -4   7   7   16.71    1.66
   3  -7  -7    2.90    0.86
   3  -7  -7    2.56    0.70
   3  -7  -7    2.50    0.73
   3  -7  -7    1.59    0.66
  -3   7   7    2.14    0.77
  -3   7   7    1.99    0.73
  -3   7   7    1.12    0.94
  -3   7   7    2.83    0.75
  -3   7   7    1.73    0.70
   2  -7  -7  105.60    4.23
   2  -7  -7  102.88    4.06
   2  -7  -7   99.50    4.30
   2  -7  -7   99.89    4.25
   2  -7  -7  107.00    4.25
  -2   7   7  109.33    4.47
  -2   7   7  107.46    4.38
  -2   7   7   86.76    4.15
  -2   7   7  105.34    4.31
  -2   7   7  104.46    4.28
   1  -7  -7    0.13    0.37
   1  -7  -7    0.43    0.55
   1  -7  -7    0.91    0.50
   1  -7  -7    0.76    0.54
   1  -7  -7    0.11    0.53
  -1   7   7    0.65    0.61
  -1   7   7    1.19    0.64
  -1   7   7    0.57    0.51
  -1   7   7    1.46    0.72
  -1   7   7   -0.29    0.53
  -1   7   7    1.01    0.71
   0  -7  -7   93.54    3.71
   0  -7  -7   83.94    3.82
   0  -7  -7   90.57    3.79
   0  -7  -7   90.15    3.49
   0  -7  -7   95.62    3.87
   0  -7  -7   92.10    3.73
   0   7   7   89.03    3.82
   0   7   7   96.43    3.95
   0   7   7   92.61    3.76
   0   7   7   92.07    3.83
   0   7   7   95.77    3.80
   0   7   7   87.42    3.77
  -1  -7  -7    1.97    0.40
  -1  -7  -7    1.10    0.45
  -1  -7  -7    1.28    0.48
  -1  -7  -7    1.63    0.59
  -1  -7  -7    2.69    0.66
   1   7   7    1.18    0.51
   1   7   7    1.89    0.57
   1   7   7    2.07    0.62
   1   7   7    1.53    0.49
   1   7   7    1.20    0.59
  -2  -7  -7    3.72    0.62
  -2  -7  -7    3.05    0.71
  -2  -7  -7    3.04    0.63
  -2  -7  -7    5.20    0.85
  -2  -7  -7    4.14    0.99
   2   7   7    4.71    0.95
   2   7   7    4.80    0.81
   2   7   7    3.86    0.83
   2   7   7    3.80    0.96
   2   7   7    4.47    0.80
  -3  -7  -7    0.64    0.44
  -3  -7  -7   -0.14    0.43
  -3  -7  -7    0.85    0.46
  -3  -7  -7    0.94    0.40
  -3  -7  -7    0.26    0.54
  -3  -7  -7    0.89    0.50
   3   7   7    0.67    0.61
   3   7   7    0.88    0.48
   3   7   7    1.04    0.60
   3   7   7    0.12    0.47
   3   7   7   -0.06    0.39
  -4  -7  -7   39.97    1.85
  -4  -7  -7   40.06    1.77
  -4  -7  -7   39.06    1.90
  -4  -7  -7   38.12    1.98
  -4  -7  -7   41.96    1.95
   4   7   7   39.01    1.90
   4   7   7   37.52    2.08
   4   7   7   40.41    1.95
   4   7   7   40.53    2.06
  -5  -7  -7    1.05    0.54
  -5  -7  -7   -0.17    0.53
   5   7   7   -0.19    0.44
   5   7   7   -0.04    0.66
   5   7   7   -0.38    0.51
   5   7   7    0.97    0.73
  -6  -7  -7   68.37    3.17
  -6  -7  -7   71.84    3.04
   6   7   7   68.27    2.99
   6   7   7   70.01    2.92
   6   7   7   61.23    3.16
  -7  -7  -7    0.25    0.90
   7   7   7   -0.07    0.63
   7   7   7    0.93    0.80
   3  -8  -7    5.73    1.40
   3  -8  -7    8.03    1.34
   3  -8  -7    3.65    1.01
  -3   8   7    2.87    0.94
  -3   8   7    5.60    1.28
   2  -8  -7    0.53    0.92
   2  -8  -7    0.87    0.76
   2  -8  -7   -1.20    0.59
   2  -8  -7   -0.16    0.70
   2  -8  -7    0.32    0.62
  -2   8   7    0.18    0.65
  -2   8   7   -0.95    0.92
  -2   8   7   -0.20    0.77
   1  -8  -7    3.87    0.80
   1  -8  -7    1.62    0.64
   1  -8  -7    2.26    0.66
   1  -8  -7    2.14    0.86
   1  -8  -7    3.28    0.57
  -1   8   7    2.87    0.89
  -1   8   7    2.27    0.67
  -1   8   7    2.88    0.75
  -1   8   7    5.88    1.43
   0  -8  -7   13.50    1.12
   0  -8  -7   13.14    0.89
   0  -8  -7   13.46    1.17
   0  -8  -7   15.25    1.47
   0  -8  -7   13.06    1.26
   0   8   7   14.38    1.27
   0   8   7   15.26    1.49
   0   8   7   13.96    1.37
   0   8   7   13.73    1.35
  -1  -8  -7   14.88    1.26
  -1  -8  -7   13.95    1.07
  -1  -8  -7   13.29    0.90
  -1  -8  -7   14.01    1.09
  -1  -8  -7   12.07    1.48
   1   8   7   15.23    1.22
   1   8   7   12.61    1.25
   1   8   7   13.81    1.40
   1   8   7   11.23    1.19
  -2  -8  -7   15.87    1.03
  -2  -8  -7   14.24    1.45
  -2  -8  -7   14.55    1.29
  -2  -8  -7   17.52    1.05
  -2  -8  -7   14.88    1.13
  -2  -8  -7   14.89    1.46
   2   8   7   15.66    1.42
   2   8   7   12.65    1.27
   2   8   7   14.58    1.20
   2   8   7   15.12    1.20
  -3  -8  -7    8.60    1.12
  -3  -8  -7    7.56    0.86
  -3  -8  -7    8.56    0.91
   3   8   7    5.11    0.95
   3   8   7    7.13    1.10
   3   8   7    7.52    1.28
  -4  -8  -7    6.03    0.94
  -4  -8  -7    6.36    1.08
  -4  -8  -7    5.74    1.00
  -4  -8  -7    6.75    0.87
  -4  -8  -7    6.82    1.21
   4   8   7    4.87    1.00
   4   8   7    8.09    1.13
   4   8   7    5.22    1.39
  -5  -8  -7    6.90    1.16
  -5  -8  -7    7.82    1.12
   5   8   7    6.48    1.28
   5   8   7    7.07    1.06
  -6  -8  -7    2.67    0.86
  -6  -8  -7   -0.19    0.80
   6   8   7    1.46    0.83
   6   8   7    1.21    0.67
   2  -9  -7    4.42    1.04
   2  -9  -7    3.77    0.98
   2  -9  -7    2.01    0.88
  -2   9   7    1.74    0.97
  -2   9   7    2.29    1.25
  -2   9   7    2.24    1.00
   1  -9  -7    2.33    0.86
   1  -9  -7    3.11    1.07
   1  -9  -7    2.76    0.80
   1  -9  -7    2.40    0.79
  -1   9   7    4.32    1.12
  -1   9   7    2.89    0.89
  -1   9   7    2.19    0.92
   0  -9  -7  123.17    5.00
   0  -9  -7  124.02    4.94
   0  -9  -7  124.63    5.09
   0  -9  -7  116.73    5.17
   0   9   7  126.13    5.16
   0   9   7  124.11    5.09
   0   9   7  123.90    5.22
  -1  -9  -7    2.01    0.66
  -1  -9  -7    1.50    0.71
  -1  -9  -7    2.07    0.67
  -1  -9  -7    0.37    0.82
  -1  -9  -7    1.36    0.50
   1   9   7    2.13    0.69
   1   9   7    1.12    0.82
   1   9   7    1.90    0.91
   1   9   7    1.17    0.75
  -2  -9  -7  161.76    6.03
  -2  -9  -7  158.14    6.15
  -2  -9  -7  159.37    6.26
  -2  -9  -7  158.72    6.03
   2   9   7  157.36    6.25
   2   9   7  154.50    6.35
   2   9   7  156.25    6.30
   2   9   7  156.91    6.09
  -3  -9  -7   -0.14    0.59
  -3  -9  -7    0.08    0.80
  -3  -9  -7    0.80    0.58
  -3  -9  -7   -0.09    0.73
   3   9   7   -0.23    0.69
   3   9   7   -1.44    1.09
   3   9   7    0.71    0.62
  -4  -9  -7  123.43    4.77
  -4  -9  -7  110.45    4.84
  -4  -9  -7  123.35    4.66
   4   9   7  116.80    4.83
   4   9   7  117.68    4.92
  -5  -9  -7    1.55    0.59
  -5  -9  -7   -0.57    0.73
  -5  -9  -7    1.57    0.81
   5   9   7    0.53    0.83
   5   9   7   -0.06    0.67
   0 -10  -7    0.60    0.92
   0 -10  -7   -0.01    0.77
   0 -10  -7    1.34    0.89
   0  10   7    0.32    0.87
   0  10   7   -0.41    1.26
   0  10   7    0.68    1.04
  -1 -10  -7   28.46    1.82
  -1 -10  -7   30.39    1.67
  -1 -10  -7   33.53    1.93
  -1 -10  -7   30.50    2.15
   1  10   7   28.41    2.18
   1  10   7   32.53    2.14
   1  10   7   28.63    2.50
  -2 -10  -7   14.42    1.73
  -2 -10  -7   14.51    1.27
  -2 -10  -7   15.40    1.28
  -2 -10  -7   12.30    1.44
   2  10   7   12.53    1.68
   2  10   7   13.07    1.59
  -3 -10  -7   -0.54    0.70
  -3 -10  -7   -0.18    0.71
   3  10   7    1.00    0.82
   3  10   7   -1.98    0.86
  -4 -10  -7   28.91    2.06
  -4 -10  -7   31.82    1.82
  -4 -10  -7   31.91    1.91
   4  10   7   26.41    2.03
   4  10   7   28.21    2.16
   0   9  -8    7.30    1.41
   0   9  -8    5.82    1.69
   0   9  -8    5.40    1.41
   0  -9   8    7.10    1.99
   0  -9   8    6.85    1.64
  -1   9  -8   41.11    2.45
  -1   9  -8   39.44    2.37
  -1   9  -8   39.33    2.82
   1  -9   8   35.75    2.52
   1  -9   8   41.06    2.77
   1  -9   8   43.50    2.52
  -2   9  -8    9.15    1.58
  -2   9  -8    6.97    1.13
   2  -9   8    8.73    1.76
   2  -9   8   11.69    1.97
   2  -9   8    6.98    1.30
   2   8  -8   82.68    4.25
  -2  -8   8   77.43    3.50
  -2  -8   8   78.98    3.63
  -2  -8   8   90.93    4.24
  -2  -8   8   78.09    3.79
   1   8  -8    7.70    1.54
   1   8  -8   11.25    1.99
  -1  -8   8   11.78    1.36
  -1  -8   8    9.19    1.61
  -1  -8   8    6.67    1.35
  -1  -8   8    7.90    1.86
   0   8  -8   22.63    1.84
   0   8  -8   23.64    1.72
   0   8  -8   23.16    2.21
   0  -8   8   20.58    2.14
   0  -8   8   23.32    2.57
   0  -8   8   25.10    1.97
   0  -8   8   25.57    1.79
  -1   8  -8    6.69    1.71
  -1   8  -8    6.38    1.21
  -1   8  -8    9.05    1.36
   1  -8   8    7.68    2.07
   1  -8   8    8.02    1.46
   1  -8   8    9.84    1.41
   1  -8   8    9.74    1.68
   1  -8   8    8.38    1.48
  -2   8  -8    6.20    1.26
  -2   8  -8    5.14    1.22
  -2   8  -8    3.64    1.00
   2  -8   8    7.04    1.57
   2  -8   8    4.36    1.09
   2  -8   8    3.01    0.94
   2  -8   8    4.76    1.01
  -3   8  -8    1.07    1.90
  -3   8  -8    2.23    0.74
  -3   8  -8    2.20    0.65
   3  -8   8    1.50    0.95
   3  -8   8    1.70    0.83
   3  -8   8    1.55    0.86
  -4   8  -8   21.29    1.76
   4  -8   8   20.15    2.20
   4  -8   8   16.72    1.68
   4  -8   8   21.73    2.01
   3   7  -8    0.56    1.15
   3   7  -8   -0.81    0.98
  -3  -7   8    0.27    0.92
  -3  -7   8    2.16    0.98
   2   7  -8    5.02    1.15
   2   7  -8    4.68    1.02
   2   7  -8    5.37    1.55
  -2  -7   8    5.46    1.28
  -2  -7   8    6.24    1.11
  -2  -7   8    3.72    1.12
  -2  -7   8    6.24    1.79
  -2  -7   8    5.38    1.42
   1   7  -8    0.16    1.19
   1   7  -8    0.16    0.72
   1   7  -8   -0.76    0.84
  -1  -7   8    1.01    0.82
  -1  -7   8    0.18    0.88
  -1  -7   8   -0.44    0.57
  -1  -7   8    0.03    1.04
  -1  -7   8    0.40    0.73
  -1  -7   8    0.75    0.69
   0   7  -8   10.73    1.93
   0   7  -8   11.70    1.38
   0   7  -8   14.56    1.79
   0   7  -8   14.97    1.71
   0  -7   8   14.19    1.60
   0  -7   8   13.01    1.19
   0  -7   8   10.95    1.96
   0  -7   8   15.60    1.33
   0  -7   8   13.08    1.45
  -1   7  -8   11.27    2.52
  -1   7  -8   12.51    1.27
  -1   7  -8   13.04    1.60
   1  -7   8   12.46    1.38
   1  -7   8    9.20    1.74
   1  -7   8   12.32    1.32
   1  -7   8   13.41    1.41
   1  -7   8   11.28    1.45
  -2   7  -8   23.15    1.80
  -2   7  -8   25.07    1.53
  -2   7  -8   22.96    1.79
  -2   7  -8   22.71    1.52
   2  -7   8   20.20    1.68
   2  -7   8   21.39    1.75
   2  -7   8   24.18    1.96
   2  -7   8   24.39    1.78
  -3   7  -8   24.29    1.84
  -3   7  -8   24.65    1.72
  -3   7  -8   28.28    1.58
   3  -7   8   28.12    2.03
   3  -7   8   28.42    2.02
   3  -7   8   26.61    1.93
   3  -7   8   25.12    1.80
   3  -7   8   27.88    1.87
  -4   7  -8   36.02    2.48
  -4   7  -8   30.37    1.94
   4  -7   8   36.41    2.27
   4  -7   8   38.33    2.12
   4  -7   8   29.38    1.98
  -5   7  -8   38.00    2.34
   5  -7   8   45.48    2.44
   5  -7   8   37.02    2.18
   5  -7   8   43.24    2.62
   3   6  -8    1.61    0.96
   3   6  -8    2.75    0.89
   3   6  -8    3.14    1.25
  -3  -6   8    3.39    0.86
  -3  -6   8    2.29    0.98
  -3  -6   8    4.95    1.34
  -3  -6   8    1.59    1.02
   2   6  -8   54.83    3.29
   2   6  -8   54.74    2.80
   2   6  -8   57.47    2.83
   2   6  -8   53.83    2.98
  -2  -6   8   56.75    2.48
  -2  -6   8   52.82    2.79
  -2  -6   8   65.65    3.11
  -2  -6   8   62.53    2.72
  -2  -6   8   59.48    2.79
   1   6  -8    5.91    1.18
   1   6  -8    6.65    1.34
   1   6  -8    7.82    1.82
   1   6  -8    6.97    1.16
  -1  -6   8    6.07    1.40
  -1  -6   8    5.92    0.96
  -1  -6   8    6.56    1.04
  -1  -6   8    7.59    1.20
  -1  -6   8    5.69    1.12
  -1  -6   8    4.55    1.27
   0   6  -8  135.47    5.40
   0   6  -8  126.42    5.40
   0   6  -8  132.17    5.21
   0   6  -8  116.43    5.26
   0  -6   8  133.57    5.29
   0  -6   8  130.18    5.13
   0  -6   8  136.57    5.43
   0  -6   8  131.84    5.05
   0  -6   8  133.85    5.40
   0  -6   8  118.51    5.22
  -1   6  -8   28.02    2.02
  -1   6  -8   30.01    1.72
  -1   6  -8   36.37    2.01
  -1   6  -8   28.17    2.14
  -1   6  -8   32.55    1.73
   1  -6   8   30.36    1.71
   1  -6   8   30.63    1.82
   1  -6   8   31.54    1.58
   1  -6   8   33.09    2.04
   1  -6   8   33.11    1.93
   1  -6   8   31.83    1.79
  -2   6  -8  166.67    6.83
  -2   6  -8  183.98    6.70
  -2   6  -8  184.13    6.89
  -2   6  -8  166.94    6.74
   2  -6   8  186.48    6.87
   2  -6   8  156.72    6.79
   2  -6   8  170.60    6.85
   2  -6   8  179.26    6.76
   2  -6   8  167.46    6.84
   2  -6   8  177.61    6.81
  -3   6  -8   37.29    2.10
  -3   6  -8   41.93    1.86
  -3   6  -8   38.69    2.01
  -3   6  -8   38.78    1.94
   3  -6   8   38.18    2.08
   3  -6   8   35.85    2.14
   3  -6   8   40.28    2.07
   3  -6   8   37.52    2.17
  -4   6  -8   48.87    2.53
  -4   6  -8   50.66    2.20
   4  -6   8   53.11    2.54
   4  -6   8   53.59    2.69
   4  -6   8   58.02    2.62
   4  -6   8   49.81    2.64
   4  -6   8   57.43    2.64
  -5   6  -8   24.84    1.73
   5  -6   8   22.89    1.88
   5  -6   8   30.93    1.98
   5  -6   8   20.82    1.51
   5  -6   8   24.95    1.78
  -6   6  -8    8.64    1.45
   6  -6   8    6.58    1.16
   6  -6   8    4.84    1.22
   6  -6   8    6.14    1.21
   6  -6   8    6.54    1.45
   4   5  -8    2.32    1.06
   4   5  -8    0.81    0.92
  -4  -5   8    1.26    0.96
  -4  -5   8    0.77    0.79
  -4  -5   8    0.71    0.89
  -4  -5   8    0.75    0.73
   3   5  -8   70.11    3.34
   3   5  -8   61.62    3.11
   3   5  -8   65.15    3.67
  -3  -5   8   67.32    3.03
  -3  -5   8   67.84    3.03
  -3  -5   8   73.59    3.39
  -3  -5   8   56.14    2.98
   2   5  -8    4.41    1.19
   2   5  -8    4.18    1.02
   2   5  -8    2.83    0.83
   2   5  -8    2.30    0.81
  -2  -5   8    3.79    0.97
  -2  -5   8    2.21    0.78
  -2  -5   8    2.79    0.78
  -2  -5   8    3.72    1.07
  -2  -5   8    2.44    1.05
   1   5  -8    0.86    0.54
   1   5  -8    1.03    0.85
   1   5  -8    1.07    0.82
   1   5  -8    1.86    0.67
  -1  -5   8    1.33    0.50
  -1  -5   8    1.85    0.85
  -1  -5   8    1.34    0.67
  -1  -5   8   -0.83    0.80
  -1  -5   8    0.82    0.58
  -1  -5   8    1.37    0.59
   0   5  -8    7.93    1.33
   0   5  -8    7.20    1.15
   0   5  -8    3.94    1.02
   0   5  -8    4.85    0.90
   0  -5   8    7.79    1.11
   0  -5   8    6.40    0.95
   0  -5   8    6.77    1.30
   0  -5   8    6.11    0.84
   0  -5   8    4.35    0.96
  -1   5  -8    7.26    1.26
  -1   5  -8    6.24    1.12
  -1   5  -8    7.18    0.91
   1  -5   8    8.46    1.27
   1  -5   8    8.38    1.26
   1  -5   8    6.86    0.94
   1  -5   8    6.51    1.03
   1  -5   8    9.02    1.04
   1  -5   8    8.32    1.02
  -2   5  -8   11.15    1.17
  -2   5  -8    9.47    0.90
  -2   5  -8   10.01    1.08
  -2   5  -8   11.94    1.23
  -2   5  -8   11.56    0.94
   2  -5   8   11.41    1.29
   2  -5   8    9.12    1.09
   2  -5   8   12.21    1.11
   2  -5   8    9.97    1.18
   2  -5   8   10.96    1.23
   2  -5   8    9.62    1.11
  -3   5  -8    2.54    0.57
  -3   5  -8    2.36    0.51
  -3   5  -8    2.36    0.60
  -3   5  -8    1.71    0.67
  -3   5  -8    3.57    0.74
   3  -5   8    3.40    0.88
   3  -5   8    1.71    0.59
   3  -5   8    2.47    0.65
   3  -5   8    3.30    0.81
   4  -5   8   18.77    1.36
   4  -5   8   17.84    1.66
   4  -5   8   18.17    1.47
   4  -5   8   20.97    1.44
   4  -5   8   16.43    1.22
  -5   5  -8    1.12    0.60
  -5   5  -8    1.72    0.61
   5  -5   8    0.84    0.60
   5  -5   8    1.12    0.61
   5  -5   8    1.28    0.57
   5  -5   8    2.09    0.88
   5  -5   8    1.31    0.72
  -6   5  -8   23.25    1.73
   6  -5   8   21.47    1.45
   6  -5   8   27.21    1.72
   6  -5   8   26.03    1.99
   6  -5   8   23.47    1.80
  -7   5  -8    1.61    0.88
   7  -5   8   -0.35    1.12
   7  -5   8    2.09    0.84
   7  -5   8    2.70    1.21
   4   4  -8   36.91    2.32
   4   4  -8   41.16    2.59
   4   4  -8   31.51    2.83
  -4  -4   8   42.75    1.93
  -4  -4   8   37.71    2.26
  -4  -4   8   31.24    2.45
  -4  -4   8   37.88    2.19
  -4  -4   8   40.41    2.07
  -4  -4   8   44.68    2.25
   3   4  -8    0.33    0.90
   3   4  -8    0.70    0.62
   3   4  -8   -1.08    1.16
   3   4  -8    0.17    0.72
  -3  -4   8    0.90    0.64
  -3  -4   8    0.87    0.74
  -3  -4   8    0.43    0.74
  -3  -4   8    0.92    0.63
  -3  -4   8   -0.32    0.82
   2   4  -8    6.36    1.66
   2   4  -8   11.42    1.25
   2   4  -8    7.93    1.03
   2   4  -8    8.99    1.30
  -2  -4   8    5.78    1.14
  -2  -4   8    7.85    0.98
  -2  -4   8    7.64    1.04
  -2  -4   8   11.00    1.37
  -2  -4   8    9.80    1.42
   1   4  -8    4.90    0.96
   1   4  -8    3.95    0.65
   1   4  -8    3.65    0.76
   1   4  -8    3.58    0.82
  -1  -4   8    4.63    0.87
  -1  -4   8    3.04    0.78
  -1  -4   8    2.91    0.79
  -1  -4   8    4.65    1.11
  -1  -4   8    4.03    0.92
   0   4  -8    3.31    0.66
   0   4  -8    3.69    0.78
   0   4  -8    4.03    0.99
   0   4  -8    0.68    0.92
   0   4  -8    4.20    1.19
   0  -4   8    2.90    0.64
   0  -4   8    2.91    0.63
   0  -4   8    3.60    0.63
   0  -4   8    4.31    0.95
   0  -4   8    3.24    0.78
  -1   4  -8    0.77    0.61
  -1   4  -8    1.00    0.39
  -1   4  -8    0.81    0.49
  -1   4  -8    0.75    0.55
  -1   4  -8    0.40    0.40
   1  -4   8    1.07    0.54
   1  -4   8    1.64    0.62
   1  -4   8    3.14    0.80
   1  -4   8    0.51    0.56
   1  -4   8    0.56    0.51
   1  -4   8    1.71    0.53
  -2   4  -8   38.22    1.78
  -2   4  -8   33.07    1.68
  -2   4  -8   34.61    1.64
  -2   4  -8   35.32    1.81
  -2   4  -8   34.94    1.84
  -2   4  -8   38.37    1.73
   2  -4   8   35.99    1.89
   2  -4   8   27.14    1.66
   2  -4   8   32.98    1.85
   2  -4   8   36.40    1.83
   2  -4   8   27.68    1.72
  -3   4  -8    7.54    0.85
  -3   4  -8    7.77    0.97
  -3   4  -8    7.63    0.82
  -3   4  -8    7.80    0.77
   3  -4   8    9.71    1.17
   3  -4   8    7.95    1.11
   3  -4   8    7.39    1.08
   3  -4   8    7.70    0.89
   3  -4   8    9.22    0.90
   3  -4   8    7.35    1.02
  -4   4  -8   83.92    3.58
  -4   4  -8   88.34    3.65
   4  -4   8   91.11    3.59
   4  -4   8   88.87    3.70
   4  -4   8   77.45    3.54
   4  -4   8   91.59    3.63
  -5   4  -8   16.57    1.25
  -5   4  -8   17.01    1.17
   5  -4   8   17.15    1.26
   5  -4   8   16.41    1.29
   5  -4   8   14.58    1.12
   5  -4   8   18.45    1.50
  -6   4  -8   89.88    3.95
   6  -4   8   97.15    4.09
   6  -4   8  101.84    3.87
   6  -4   8   92.09    3.71
   6  -4   8   84.65    3.69
  -7   4  -8   13.67    1.50
   7  -4   8   16.16    1.73
   7  -4   8   14.15    1.42
   7  -4   8   14.98    1.88
   5   3  -8   16.02    2.10
   5   3  -8   17.74    1.89
  -5  -3   8   11.21    1.83
  -5  -3   8   17.27    1.41
   4   3  -8    2.06    0.81
   4   3  -8    1.89    1.23
   4   3  -8    3.19    0.89
  -4  -3   8    1.92    0.91
  -4  -3   8    3.84    1.07
  -4  -3   8    2.69    0.87
  -4  -3   8    2.34    0.82
  -4  -3   8    6.18    1.18
   3   3  -8    2.64    1.12
   3   3  -8    7.82    1.47
   3   3  -8    4.70    1.03
   3   3  -8    7.08    1.24
  -3  -3   8    4.31    0.90
  -3  -3   8    3.95    0.99
  -3  -3   8    3.56    1.01
  -3  -3   8    3.88    0.89
  -3  -3   8    6.17    0.96
   2   3  -8    1.00    0.47
   2   3  -8    2.06    0.61
   2   3  -8    1.57    0.62
   2   3  -8    2.39    0.94
   2   3  -8    1.06    0.63
  -2  -3   8    0.42    0.69
  -2  -3   8    2.05    0.83
  -2  -3   8    1.00    0.56
  -2  -3   8    1.07    0.56
  -2  -3   8    0.90    0.65
   1   3  -8   78.08    3.34
   1   3  -8   74.47    3.40
   1   3  -8   69.50    3.12
   1   3  -8   75.65    2.99
  -1  -3   8   72.87    3.18
  -1  -3   8   69.03    3.11
  -1  -3   8   72.38    3.30
  -1  -3   8   77.33    3.02
  -1  -3   8   78.98    3.39
   0   3  -8    3.95    0.94
   0   3  -8    3.53    0.76
   0   3  -8    4.21    0.67
   0   3  -8    2.33    0.66
   0   3  -8    4.30    0.90
   0  -3   8    3.25    0.75
   0  -3   8    3.37    0.68
   0  -3   8    2.82    0.72
   0  -3   8    3.32    0.75
   0  -3   8    3.66    0.88
  -1   3  -8   30.99    1.53
  -1   3  -8   30.01    1.50
  -1   3  -8   32.26    1.67
  -1   3  -8   30.21    1.70
  -1   3  -8   28.70    1.57
   1  -3   8   29.51    1.55
   1  -3   8   27.14    1.55
   1  -3   8   29.22    1.63
   1  -3   8   30.47    1.64
   1  -3   8   30.37    1.71
   1  -3   8   30.54    1.69
  -2   3  -8    3.87    0.83
  -2   3  -8    6.18    0.78
  -2   3  -8    5.21    0.75
  -2   3  -8    4.96    0.67
  -2   3  -8    4.71    0.65
  -2   3  -8    4.66    0.89
   2  -3   8    4.14    0.82
   2  -3   8    5.61    0.87
   2  -3   8    5.32    0.81
   2  -3   8    4.53    0.94
   2  -3   8    5.44    0.77
   2  -3   8    4.02    0.93
  -3   3  -8   24.69    1.24
  -3   3  -8   23.92    1.31
  -3   3  -8   24.44    1.40
  -3   3  -8   25.47    1.43
  -3   3  -8   27.04    1.23
   3  -3   8   25.75    1.36
   3  -3   8   19.03    1.37
   3  -3   8   24.50    1.55
   3  -3   8   21.12    1.33
   3  -3   8   24.80    1.47
   3  -3   8   24.84    1.48
  -4   3  -8    1.01    0.45
  -4   3  -8    0.48    0.35
  -4   3  -8    0.90    0.47
   4  -3   8    0.21    0.42
   4  -3   8    1.60    0.60
   4  -3   8    0.48    0.50
   4  -3   8    1.14    0.40
   4  -3   8    0.77    0.54
  -5   3  -8   34.14    1.66
  -5   3  -8   35.81    1.79
  -5   3  -8   34.29    1.71
   5  -3   8   39.08    1.78
   5  -3   8   37.29    1.84
   5  -3   8   32.52    2.14
   5  -3   8   34.17    1.69
   5  -3   8   32.96    1.71
   5  -3   8   37.01    1.98
  -6   3  -8    0.87    0.58
   6  -3   8   -0.87    0.77
   6  -3   8    0.53    0.42
   6  -3   8    0.60    0.67
   6  -3   8    0.50    0.50
   6  -3   8   -0.12    0.61
  -7   3  -8   32.58    1.94
   7  -3   8   31.11    2.01
   7  -3   8   31.41    2.23
   7  -3   8   35.80    1.79
   5   2  -8    3.19    1.05
   5   2  -8    5.35    1.54
  -5  -2   8    4.71    0.80
  -5  -2   8    5.38    1.37
   4   2  -8   12.86    1.57
   4   2  -8   11.17    1.93
   4   2  -8   14.97    2.03
   4   2  -8   13.89    0.88
  -4  -2   8   13.51    1.28
  -4  -2   8   13.96    1.73
  -4  -2   8    9.64    1.35
  -4  -2   8   14.20    1.25
   3   2  -8    3.62    0.89
   3   2  -8    3.26    1.00
   3   2  -8    4.78    0.86
   3   2  -8    1.31    1.64
   3   2  -8    4.66    0.61
  -3  -2   8    2.81    0.84
  -3  -2   8    3.67    0.89
  -3  -2   8    2.94    0.69
  -3  -2   8    2.27    0.92
   2   2  -8   81.16    3.30
   2   2  -8   64.15    3.45
   2   2  -8   81.01    3.07
   2   2  -8   77.49    3.44
   2   2  -8   75.62    3.25
  -2  -2   8   82.70    3.32
  -2  -2   8   80.27    3.26
  -2  -2   8   81.09    3.49
  -2  -2   8   74.84    3.46
   1   2  -8    3.02    0.55
   1   2  -8    2.99    0.78
   1   2  -8    2.36    0.53
   1   2  -8    1.43    0.42
  -1  -2   8    1.41    0.55
  -1  -2   8    2.04    0.51
  -1  -2   8    1.25    0.60
  -1  -2   8    1.14    0.56
  -1  -2   8    2.49    0.61
  -1  -2   8    1.48    0.63
   0   2  -8  150.66    5.95
   0   2  -8  156.21    5.81
   0   2  -8  149.33    5.73
   0   2  -8  148.08    5.92
   0   2  -8  151.35    5.90
   0  -2   8  152.35    5.95
   0  -2   8  150.90    5.96
   0  -2   8  150.59    5.76
   0  -2   8  155.81    5.89
   0  -2   8  146.74    5.81
  -1   2  -8    1.29    0.50
  -1   2  -8    0.77    0.54
  -1   2  -8    1.48    0.37
  -1   2  -8    0.92    0.43
  -1   2  -8    2.13    0.59
   1  -2   8    1.29    0.45
   1  -2   8    1.00    0.47
   1  -2   8    0.71    0.41
   1  -2   8    1.35    0.55
   1  -2   8    1.65    0.52
   1  -2   8    1.82    0.61
  -2   2  -8  127.95    4.61
  -2   2  -8  119.03    4.68
  -2   2  -8  110.59    4.54
  -2   2  -8  112.54    4.66
  -2   2  -8  123.00    4.71
   2  -2   8  115.83    4.70
   2  -2   8  116.28    4.64
   2  -2   8  116.39    4.68
   2  -2   8  116.79    4.65
   2  -2   8  122.37    4.70
   2  -2   8  120.97    4.70
  -3   2  -8    6.23    0.78
  -3   2  -8    5.68    0.78
  -3   2  -8    6.65    0.60
  -3   2  -8    6.39    0.65
  -3   2  -8    5.77    0.66
  -3   2  -8    6.25    1.21
   3  -2   8    7.11    0.74
   3  -2   8    5.47    0.90
   3  -2   8    5.65    0.88
   3  -2   8    5.72    0.77
   3  -2   8    5.26    0.85
   3  -2   8    5.62    0.95
  -4   2  -8   87.24    3.51
  -4   2  -8   84.88    3.53
  -4   2  -8   91.69    3.73
   4  -2   8   85.98    3.54
   4  -2   8   92.90    3.61
   4  -2   8   80.70    3.52
   4  -2   8   88.62    3.52
   4  -2   8   89.93    3.78
   4  -2   8   89.58    3.66
  -5   2  -8   14.31    0.93
  -5   2  -8   14.42    1.17
  -5   2  -8   14.14    1.01
   5  -2   8   11.92    0.92
   5  -2   8   12.29    1.22
   5  -2   8   12.33    1.00
   5  -2   8   13.61    1.15
   5  -2   8   13.60    1.02
  -6   2  -8    1.89    0.53
   6  -2   8    1.92    0.78
   6  -2   8    0.77    0.61
   6  -2   8    2.17    0.76
   6  -2   8    1.79    0.51
  -7   2  -8    3.66    0.79
   7  -2   8    4.06    0.98
   7  -2   8    3.62    0.80
   7  -2   8    2.55    0.97
   7  -2   8    3.75    0.99
   8  -2   8   33.16    2.41
   8  -2   8   28.96    2.17
   5   1  -8   91.02    3.88
   5   1  -8   81.61    4.05
  -5  -1   8   89.08    3.57
  -5  -1   8   86.26    3.81
   4   1  -8    3.88    1.04
   4   1  -8    4.79    1.06
   4   1  -8    3.46    0.85
   4   1  -8    3.28    1.15
  -4  -1   8    3.72    0.98
  -4  -1   8    2.86    0.96
  -4  -1   8    1.79    0.68
   3   1  -8  198.60    7.86
   3   1  -8  197.54    7.85
   3   1  -8  199.93    7.68
   3   1  -8  210.79    7.82
   3   1  -8  185.56    7.92
   3   1  -8  211.33    7.47
  -3  -1   8  197.90    7.78
  -3  -1   8  198.26    7.67
  -3  -1   8  215.45    7.95
  -3  -1   8  194.46    7.95
  -3  -1   8  201.98    7.68
   2   1  -8    6.85    0.81
   2   1  -8    7.04    0.91
   2   1  -8    5.03    0.93
   2   1  -8    9.07    1.22
   2   1  -8    7.59    0.66
  -2  -1   8    5.98    0.99
  -2  -1   8    5.81    0.86
  -2  -1   8    6.27    1.11
  -2  -1   8    6.63    1.15
   1   1  -8   96.84    3.92
   1   1  -8   94.59    4.10
   1   1  -8  103.71    3.83
   1   1  -8   96.01    4.03
  -1  -1   8  100.76    3.97
  -1  -1   8   98.16    4.09
  -1  -1   8   92.54    3.92
  -1  -1   8   98.55    3.85
  -1  -1   8  101.90    4.09
  -1  -1   8  102.59    4.04
   0   1  -8   46.33    2.10
   0   1  -8   48.00    2.16
   0   1  -8   42.29    2.17
   0   1  -8   46.48    1.95
   0  -1   8   43.09    2.17
   0  -1   8   45.09    2.08
   0  -1   8   43.54    2.03
   0  -1   8   44.26    2.00
   0  -1   8   42.49    2.06
   0  -1   8   46.49    2.12
  -1   1  -8    4.59    0.82
  -1   1  -8    5.34    0.72
  -1   1  -8    5.02    0.61
  -1   1  -8    5.06    0.60
  -1   1  -8    5.09    0.74
   1  -1   8    5.26    0.89
   1  -1   8    4.52    0.79
   1  -1   8    5.07    0.70
   1  -1   8    3.93    0.73
   1  -1   8    5.90    0.78
   1  -1   8    4.70    0.70
  -2   1  -8   42.46    1.94
  -2   1  -8   45.75    2.02
  -2   1  -8   45.16    2.02
  -2   1  -8   43.36    2.02
  -2   1  -8   47.02    1.91
   2  -1   8   42.48    2.01
   2  -1   8   46.23    2.09
   2  -1   8   42.76    1.99
   2  -1   8   45.16    2.08
   2  -1   8   41.13    1.97
   2  -1   8   45.01    2.06
  -3   1  -8   21.66    1.04
  -3   1  -8   19.12    1.18
  -3   1  -8   21.25    1.20
  -3   1  -8   20.61    1.04
  -3   1  -8   21.09    1.10
  -3   1  -8   19.57    1.25
   3  -1   8   23.56    1.38
   3  -1   8   20.68    1.16
   3  -1   8   19.86    1.17
   3  -1   8   19.81    1.27
   3  -1   8   19.83    1.24
   3  -1   8   21.33    1.29
  -4   1  -8   65.05    2.60
  -4   1  -8   68.75    2.85
  -4   1  -8   59.32    2.59
  -4   1  -8   64.16    2.61
   4  -1   8   64.30    2.71
   4  -1   8   64.19    2.64
   4  -1   8   66.75    2.61
   4  -1   8   61.23    2.87
   4  -1   8   56.23    2.60
   4  -1   8   60.50    2.67
   4  -1   8   58.89    2.74
  -5   1  -8    0.50    0.35
  -5   1  -8    0.53    0.36
  -5   1  -8    0.07    0.40
   5  -1   8    0.17    0.41
   5  -1   8    0.69    0.64
   5  -1   8    0.05    0.38
   5  -1   8    0.52    0.38
   5  -1   8    0.88    0.53
  -6   1  -8   27.02    1.47
  -6   1  -8   26.34    1.69
   6  -1   8   26.85    1.73
   6  -1   8   23.97    1.62
   6  -1   8   26.14    1.51
   6  -1   8   29.21    1.41
  -7   1  -8    7.10    1.03
   7  -1   8    6.62    1.13
   7  -1   8    5.43    0.96
   7  -1   8    5.29    1.08
   7  -1   8    7.03    1.50
   8  -1   8   24.24    1.82
   8  -1   8   17.19    2.12
   5   0  -8    3.69    0.88
   5   0  -8    2.06    0.95
   5   0  -8    5.54    1.32
  -5   0   8    5.90    1.06
  -5   0   8    2.93    0.84
   4   0  -8    9.64    1.61
   4   0  -8   10.40    1.81
   4   0  -8    7.85    1.34
   4   0  -8    9.21    1.03
   4   0  -8    7.39    1.10
  -4   0   8   10.10    1.12
  -4   0   8    9.84    1.11
  -4   0   8    9.52    1.61
   3   0  -8   14.47    1.12
   3   0  -8   13.10    1.71
   3   0  -8   16.48    1.50
   3   0  -8   15.51    1.29
   3   0  -8   14.63    1.04
   3   0  -8   14.96    1.46
  -3   0   8   14.03    1.45
  -3   0   8   11.89    1.34
  -3   0   8   14.25    1.24
  -3   0   8   16.02    1.20
  -3   0   8   13.50    1.09
   2   0  -8    0.72    0.42
   2   0  -8   -0.26    0.55
   2   0  -8    0.23    0.39
   2   0  -8    0.39    0.38
   2   0  -8    0.30    0.47
  -2   0   8    0.46    0.47
  -2   0   8    1.41    0.49
  -2   0   8   -0.03    0.54
  -2   0   8    1.50    0.61
  -2   0   8   -0.80    0.52
   1   0  -8   42.21    1.96
   1   0  -8   47.18    2.09
   1   0  -8   45.98    1.90
  -1   0   8   44.49    1.91
  -1   0   8   44.11    2.09
  -1   0   8   42.60    2.06
  -1   0   8   41.80    2.01
  -1   0   8   45.00    2.15
  -1   0   8   41.85    1.99
   0   0  -8   58.06    2.43
   0   0  -8   57.34    2.49
   0   0  -8   53.02    2.32
   0   0  -8   58.63    2.33
   0   0  -8   55.67    2.48
   0   0   8   51.39    2.35
   0   0   8   53.62    2.38
   0   0   8   55.58    2.42
   0   0   8   50.60    2.40
   0   0   8   56.27    2.32
   0   0   8   58.42    2.51
  -1   0  -8   22.62    1.13
  -1   0  -8   22.01    1.10
  -1   0  -8   20.58    1.18
  -1   0  -8   22.66    1.22
  -1   0  -8   19.76    1.25
   1   0   8   21.10    1.29
   1   0   8   19.52    1.17
   1   0   8   21.00    1.19
   1   0   8   21.67    1.21
   1   0   8   20.70    1.24
  -2   0  -8  108.92    4.34
  -2   0  -8  110.18    4.27
  -2   0  -8  114.66    4.32
  -2   0  -8  110.39    4.34
  -2   0  -8  113.01    4.23
   2   0   8  107.75    4.34
   2   0   8  107.86    4.34
   2   0   8  105.87    4.30
   2   0   8  109.91    4.30
   2   0   8  115.74    4.35
   2   0   8  108.90    4.26
  -3   0  -8   25.36    1.27
  -3   0  -8   25.11    1.17
  -3   0  -8   23.35    1.35
  -3   0  -8   24.16    1.15
  -3   0  -8   25.43    1.30
  -3   0  -8   24.82    1.20
   3   0   8   23.10    1.32
   3   0   8   24.59    1.43
   3   0   8   23.70    1.33
   3   0   8   23.41    1.24
   3   0   8   24.21    1.31
   3   0   8   24.72    1.37
   3   0   8   25.06    1.24
  -4   0  -8  125.37    5.12
  -4   0  -8  129.81    4.90
  -4   0  -8  128.18    4.90
  -4   0  -8  135.39    4.93
   4   0   8  121.38    4.91
   4   0   8  130.12    5.05
   4   0   8  126.01    4.95
   4   0   8  128.36    4.99
   4   0   8  126.51    4.89
   4   0   8  131.57    4.93
  -5   0  -8   23.67    1.21
  -5   0  -8   22.99    1.43
  -5   0  -8   21.45    1.16
   5   0   8   23.01    1.19
   5   0   8   20.55    1.21
   5   0   8   21.20    1.31
   5   0   8   22.03    1.44
   5   0   8   23.08    1.19
  -6   0  -8  129.16    5.23
  -6   0  -8  135.64    4.94
   6   0   8  138.01    5.18
   6   0   8  119.66    5.29
   6   0   8  108.36    5.12
   6   0   8  113.63    4.87
   6   0   8  127.98    5.05
   6   0   8  141.07    4.85
  -7   0  -8   40.52    1.91
  -7   0  -8   36.00    2.25
   7   0   8   38.49    2.03
   7   0   8   40.08    2.30
   8   0   8   33.22    2.42
   8   0   8   33.87    2.02
   5  -1  -8    9.76    1.37
   5  -1  -8    7.00    1.28
   5  -1  -8   10.35    1.58
  -5   1   8   11.42    1.33
  -5   1   8   10.85    1.14
   4  -1  -8    0.30    0.53
   4  -1  -8    0.30    0.62
   4  -1  -8   -0.07    0.80
   4  -1  -8    1.43    1.05
   4  -1  -8   -0.51    0.58
  -4   1   8    0.27    0.58
  -4   1   8   -0.10    0.58
  -4   1   8   -0.42    0.55
  -4   1   8   -0.41    0.82
   3  -1  -8   73.06    3.22
   3  -1  -8   67.32    3.06
   3  -1  -8   76.07    2.99
   3  -1  -8   69.30    2.94
   3  -1  -8   71.78    3.14
   3  -1  -8   57.40    3.24
  -3   1   8   73.03    3.03
  -3   1   8   67.88    2.96
  -3   1   8   63.46    2.99
  -3   1   8   72.83    3.15
  -3   1   8   64.58    3.06
   2  -1  -8    1.10    0.47
   2  -1  -8    1.82    0.82
   2  -1  -8    1.43    0.60
   2  -1  -8    1.39    0.45
   2  -1  -8    1.25    0.41
  -2   1   8    1.51    0.52
  -2   1   8    3.47    0.93
  -2   1   8    0.87    0.48
  -2   1   8    1.23    0.39
  -2   1   8    0.66    0.51
   1  -1  -8  165.52    6.31
   1  -1  -8  170.45    6.40
   1  -1  -8  167.55    6.32
   1  -1  -8  151.47    6.39
  -1   1   8  176.06    6.44
  -1   1   8  159.71    6.18
  -1   1   8  171.15    6.39
  -1   1   8  173.63    6.42
  -1   1   8  151.88    6.83
  -1   1   8  172.55    6.33
   0  -1  -8    0.67    0.43
   0  -1  -8    0.16    0.46
   0  -1  -8    0.54    0.32
   0  -1  -8    0.35    0.30
   0  -1  -8    0.07    0.27
   0   1   8    0.76    0.32
   0   1   8    0.21    0.37
   0   1   8    0.27    0.36
   0   1   8    0.57    0.38
   0   1   8    0.76    0.41
   0   1   8    0.26    0.46
  -1  -1  -8  229.62    8.94
  -1  -1  -8  239.11    8.93
  -1  -1  -8  243.67    8.86
  -1  -1  -8  241.44    8.92
  -1  -1  -8  250.47    8.93
   1   1   8  240.84    8.96
   1   1   8  234.82    8.90
   1   1   8  233.03    8.89
   1   1   8  247.90    8.92
   1   1   8  230.60    8.93
   1   1   8  241.01    8.79
  -2  -1  -8   31.47    1.43
  -2  -1  -8   31.32    1.49
  -2  -1  -8   33.01    1.58
  -2  -1  -8   31.35    1.53
  -2  -1  -8   30.07    1.50
   2   1   8   32.51    1.60
   2   1   8   30.32    1.48
   2   1   8   32.47    1.52
   2   1   8   34.83    1.58
   2   1   8   32.12    1.46
   2   1   8   31.95    1.56
  -3  -1  -8   56.14    2.33
  -3  -1  -8   52.86    2.21
  -3  -1  -8   56.51    2.23
  -3  -1  -8   54.84    2.21
  -3  -1  -8   53.90    2.40
  -3  -1  -8   53.77    2.29
   3   1   8   52.09    2.28
   3   1   8   52.56    2.26
   3   1   8   54.84    2.32
   3   1   8   57.69    2.37
   3   1   8   54.55    2.35
   3   1   8   58.61    2.41
  -4  -1  -8   38.19    1.71
  -4  -1  -8   38.31    1.92
  -4  -1  -8   39.29    1.67
  -4  -1  -8   40.74    1.74
   4   1   8   39.15    1.92
   4   1   8   37.62    1.78
   4   1   8   37.68    1.76
   4   1   8   38.49    1.70
   4   1   8   38.45    1.70
   4   1   8   36.80    1.80
  -5  -1  -8    2.22    0.60
  -5  -1  -8    3.29    0.81
  -5  -1  -8    2.77    0.42
   5   1   8    1.84    0.85
   5   1   8    3.41    0.63
   5   1   8    2.09    0.42
   5   1   8    3.48    0.67
   5   1   8    3.36    0.78
  -6  -1  -8   52.20    2.53
  -6  -1  -8   53.53    2.19
   6   1   8   48.34    2.20
   6   1   8   50.48    2.13
   6   1   8   52.51    2.48
   6   1   8   43.65    2.66
   6   1   8   51.45    2.46
  -7  -1  -8    3.41    0.81
   7   1   8    3.29    0.81
   7   1   8    5.94    1.41
   7   1   8    3.35    0.84
   7   1   8    3.34    0.67
   8   1   8   36.99    2.07
   8   1   8   38.55    2.57
   5  -2  -8    1.25    0.86
   5  -2  -8    2.32    0.78
   5  -2  -8    2.07    0.84
  -5   2   8    2.55    0.84
  -5   2   8    2.45    0.72
   4  -2  -8   50.46    2.80
   4  -2  -8   52.40    2.42
   4  -2  -8   52.60    2.55
   4  -2  -8   50.20    2.41
  -4   2   8   48.71    2.40
  -4   2   8   52.31    2.47
  -4   2   8   48.68    2.40
  -4   2   8   51.10    2.66
   3  -2  -8    2.02    0.51
   3  -2  -8    1.08    0.52
   3  -2  -8    2.68    0.74
   3  -2  -8    2.35    0.57
   3  -2  -8    1.07    0.87
  -3   2   8    1.46    0.63
  -3   2   8    0.97    0.59
  -3   2   8    2.11    0.68
  -3   2   8    1.47    0.71
  -3   2   8    0.29    0.51
  -3   2   8    2.55    0.59
   2  -2  -8    0.39    0.53
   2  -2  -8    0.72    0.40
   2  -2  -8    0.02    0.35
   2  -2  -8   -0.09    0.41
   2  -2  -8   -0.08    0.64
  -2   2   8    1.00    0.49
  -2   2   8    0.39    0.41
  -2   2   8   -0.16    0.46
  -2   2   8    0.52    0.56
   1  -2  -8    2.31    0.49
   1  -2  -8    2.51    0.60
   1  -2  -8    2.27    0.65
   1  -2  -8    1.25    0.38
  -1   2   8    2.67    0.51
  -1   2   8    3.42    0.83
  -1   2   8    2.33    0.50
  -1   2   8    1.67    0.50
  -1   2   8    2.30    0.54
   0  -2  -8   24.68    1.32
   0  -2  -8   27.45    1.29
   0  -2  -8   25.12    1.43
   0  -2  -8   25.62    1.43
   0  -2  -8   25.02    1.28
   0   2   8   25.71    1.33
   0   2   8   25.52    1.32
   0   2   8   22.71    1.38
   0   2   8   23.90    1.32
   0   2   8   25.41    1.36
  -1  -2  -8   33.74    1.53
  -1  -2  -8   32.85    1.64
  -1  -2  -8   32.57    1.58
  -1  -2  -8   31.64    1.61
  -1  -2  -8   34.98    1.58
   1   2   8   34.53    1.61
   1   2   8   34.31    1.58
   1   2   8   34.72    1.45
   1   2   8   33.37    1.67
   1   2   8   32.86    1.60
   1   2   8   33.90    1.60
  -2  -2  -8   21.62    1.08
  -2  -2  -8   22.11    1.18
  -2  -2  -8   22.52    1.17
  -2  -2  -8   21.62    1.21
  -2  -2  -8   22.97    1.17
   2   2   8   22.21    1.19
   2   2   8   19.85    1.15
   2   2   8   21.76    1.13
   2   2   8   21.76    1.09
   2   2   8   22.33    1.26
   2   2   8   20.89    1.19
  -3  -2  -8   19.85    1.03
  -3  -2  -8   20.42    1.18
  -3  -2  -8   20.32    1.10
  -3  -2  -8   21.46    1.18
  -3  -2  -8   20.61    1.01
  -3  -2  -8   19.98    0.98
   3   2   8   21.05    1.08
   3   2   8   20.31    1.22
   3   2   8   19.68    1.09
   3   2   8   21.05    1.13
   3   2   8   20.76    1.18
   3   2   8   20.32    1.19
  -4  -2  -8    0.21    0.36
  -4  -2  -8    0.50    0.25
  -4  -2  -8    0.37    0.30
   4   2   8    1.03    0.52
   4   2   8    0.64    0.42
   4   2   8   -0.18    0.39
   4   2   8    0.35    0.30
   4   2   8    0.08    0.30
  -5  -2  -8   14.04    0.89
  -5  -2  -8   13.73    1.18
  -5  -2  -8   14.84    0.85
   5   2   8   15.25    0.93
   5   2   8   13.56    0.94
   5   2   8   15.61    1.25
   5   2   8   14.30    1.01
   5   2   8   14.52    0.91
  -6  -2  -8    3.18    0.70
   6   2   8    4.49    0.89
   6   2   8    3.06    0.84
   6   2   8    3.14    0.69
   6   2   8    4.45    0.97
   6   2   8    3.13    0.85
  -7  -2  -8   14.56    1.47
   7   2   8   13.91    1.17
   7   2   8   15.06    1.52
   7   2   8   16.17    1.67
   7   2   8   14.49    1.06
   7   2   8   11.46    1.74
  -8  -2  -8   73.62    3.64
   8   2   8   77.44    3.71
   8   2   8   68.12    4.11
   5  -3  -8   50.96    2.55
   5  -3  -8   49.92    2.58
  -5   3   8   48.80    2.72
  -5   3   8   49.06    2.49
   4  -3  -8   16.36    1.35
   4  -3  -8   16.14    1.39
   4  -3  -8   19.63    1.52
  -4   3   8   18.00    1.33
  -4   3   8   18.24    1.47
  -4   3   8   16.55    1.42
  -4   3   8   17.12    1.61
   3  -3  -8   39.22    2.14
   3  -3  -8   40.32    2.04
   3  -3  -8   39.23    1.97
   3  -3  -8   39.88    1.97
  -3   3   8   37.48    2.06
  -3   3   8   42.40    2.05
  -3   3   8   40.26    2.10
   2  -3  -8    3.96    0.71
   2  -3  -8    3.41    0.69
   2  -3  -8    3.66    1.00
   2  -3  -8    4.72    0.79
   2  -3  -8    3.16    0.78
  -2   3   8    2.99    0.76
  -2   3   8    3.22    0.91
  -2   3   8    4.17    0.99
  -2   3   8    3.82    0.93
  -2   3   8    3.33    0.59
   1  -3  -8   41.89    1.86
   1  -3  -8   40.46    1.89
   1  -3  -8   40.34    1.83
   1  -3  -8   40.76    1.97
  -1   3   8   39.33    1.90
  -1   3   8   40.15    1.95
  -1   3   8   41.95    1.86
  -1   3   8   33.44    1.89
  -1   3   8   40.46    1.89
   0  -3  -8    3.30    0.78
   0  -3  -8    3.98    0.76
   0  -3  -8    4.11    0.58
   0  -3  -8    4.18    0.64
   0  -3  -8    3.65    0.58
   0   3   8    3.58    0.71
   0   3   8    3.93    0.69
   0   3   8    3.45    0.71
   0   3   8    3.78    0.60
   0   3   8    4.20    0.67
   0   3   8    4.56    0.82
  -1  -3  -8    2.58    0.50
  -1  -3  -8    2.62    0.50
  -1  -3  -8    3.49    0.70
  -1  -3  -8    4.59    0.72
  -1  -3  -8    2.38    0.56
   1   3   8    2.76    0.64
   1   3   8    1.93    0.46
   1   3   8    2.56    0.50
   1   3   8    2.22    0.44
   1   3   8    2.59    0.51
   1   3   8    2.61    0.57
   1   3   8    2.36    0.54
  -2  -3  -8    8.78    0.73
  -2  -3  -8    8.91    0.65
  -2  -3  -8    8.04    0.81
  -2  -3  -8    8.23    0.72
  -2  -3  -8    8.53    0.76
   2   3   8    8.46    0.75
   2   3   8    7.84    0.69
   2   3   8    7.89    0.79
   2   3   8    8.93    0.87
   2   3   8    7.81    0.66
   2   3   8    9.55    0.83
  -3  -3  -8   55.41    2.21
  -3  -3  -8   52.42    2.34
  -3  -3  -8   52.65    2.29
  -3  -3  -8   55.14    2.17
  -3  -3  -8   52.42    2.07
  -3  -3  -8   50.96    2.22
   3   3   8   51.83    2.30
   3   3   8   53.15    2.23
   3   3   8   54.30    2.28
   3   3   8   53.36    2.23
   3   3   8   50.01    2.24
   3   3   8   54.92    2.28
  -4  -3  -8    3.55    0.41
  -4  -3  -8    3.11    0.69
   4   3   8    2.64    0.70
   4   3   8    2.74    0.69
   4   3   8    2.74    0.56
   4   3   8    3.28    0.54
   4   3   8    2.28    0.59
   4   3   8    3.09    0.76
  -5  -3  -8   81.03    3.25
  -5  -3  -8   85.04    3.36
  -5  -3  -8   82.37    3.65
   5   3   8   88.77    3.49
   5   3   8   89.79    3.45
   5   3   8   90.30    3.44
   5   3   8   82.62    3.39
   5   3   8   88.17    3.37
  -6  -3  -8    0.07    0.57
   6   3   8    0.23    0.43
   6   3   8    0.44    0.41
   6   3   8   -0.05    0.52
   6   3   8   -0.96    0.63
   6   3   8    0.13    0.68
   6   3   8    0.87    0.38
  -7  -3  -8    1.48    0.73
   7   3   8    2.53    0.57
   7   3   8    3.00    1.01
   7   3   8    1.91    0.68
  -8  -3  -8    1.03    0.90
   8   3   8    2.41    1.31
   4  -4  -8    0.81    0.78
   4  -4  -8    0.84    0.66
   4  -4  -8    0.37    0.68
  -4   4   8    0.47    0.65
  -4   4   8    0.42    0.79
  -4   4   8    0.34    0.69
   3  -4  -8   18.81    1.41
   3  -4  -8   19.71    1.61
   3  -4  -8   19.40    1.36
   3  -4  -8   20.33    1.38
  -3   4   8   18.70    1.46
  -3   4   8   22.02    1.51
  -3   4   8   23.37    1.49
  -3   4   8   20.60    1.49
   2  -4  -8   12.69    1.37
   2  -4  -8   13.25    1.02
   2  -4  -8   13.38    1.06
   2  -4  -8   12.93    1.02
   2  -4  -8   11.33    1.22
  -2   4   8   14.81    1.20
  -2   4   8   12.44    0.92
  -2   4   8   13.12    1.28
  -2   4   8   13.05    1.14
  -2   4   8   12.11    1.16
   1  -4  -8   19.68    1.12
   1  -4  -8   18.06    1.12
   1  -4  -8   16.72    1.28
   1  -4  -8   19.76    1.19
  -1   4   8   17.91    1.19
  -1   4   8   19.09    1.26
  -1   4   8   17.30    1.26
  -1   4   8   18.19    1.20
  -1   4   8   19.36    1.09
  -1   4   8   16.34    1.22
   0  -4  -8    3.88    0.71
   0  -4  -8    4.50    0.84
   0  -4  -8    5.41    0.88
   0  -4  -8    4.77    0.62
   0  -4  -8    4.46    0.63
   0   4   8    5.06    0.71
   0   4   8    5.59    0.78
   0   4   8    6.01    0.84
   0   4   8    4.44    0.79
   0   4   8    4.53    0.73
  -1  -4  -8   12.69    1.01
  -1  -4  -8   12.42    0.83
  -1  -4  -8   14.22    1.02
  -1  -4  -8   12.42    0.84
  -1  -4  -8   13.30    0.93
   1   4   8   10.86    0.72
   1   4   8   11.21    0.87
   1   4   8   12.95    0.92
   1   4   8   12.88    0.90
   1   4   8   12.67    0.99
   1   4   8   11.58    0.95
  -2  -4  -8   23.48    1.22
  -2  -4  -8   21.79    1.14
  -2  -4  -8   22.05    1.28
  -2  -4  -8   22.62    1.25
  -2  -4  -8   22.80    1.26
   2   4   8   20.30    1.24
   2   4   8   23.18    1.24
   2   4   8   23.56    1.25
   2   4   8   20.47    1.28
   2   4   8   22.22    1.10
   2   4   8   21.43    1.19
  -3  -4  -8    0.49    0.35
  -3  -4  -8    1.07    0.30
  -3  -4  -8    0.70    0.38
  -3  -4  -8    0.43    0.36
   3   4   8    0.71    0.45
   3   4   8   -0.02    0.40
   3   4   8    1.18    0.41
   3   4   8    0.46    0.45
   3   4   8    0.36    0.32
   3   4   8    0.90    0.41
  -4  -4  -8   32.97    1.41
  -4  -4  -8   33.49    1.70
  -4  -4  -8   33.47    1.55
  -4  -4  -8   32.07    1.45
   4   4   8   32.63    1.63
   4   4   8   30.88    1.61
   4   4   8   31.63    1.55
   4   4   8   32.67    1.65
   4   4   8   32.32    1.52
   4   4   8   33.30    1.59
  -5  -4  -8    1.39    0.46
  -5  -4  -8    1.33    0.40
  -5  -4  -8    1.87    0.54
   5   4   8    1.55    0.56
   5   4   8    2.10    0.70
   5   4   8    1.74    0.43
   5   4   8    1.46    0.56
   5   4   8    1.43    0.53
   5   4   8    2.73    0.69
  -6  -4  -8   69.86    3.12
  -6  -4  -8   62.69    2.69
   6   4   8   67.49    2.77
   6   4   8   65.80    2.85
   6   4   8   67.44    2.71
   6   4   8   66.76    2.78
  -7  -4  -8    0.02    0.74
   7   4   8    1.54    1.09
   7   4   8   -0.34    0.78
   7   4   8   -0.35    0.58
  -8  -4  -8   48.98    2.83
   4  -5  -8    3.73    0.96
   4  -5  -8    1.30    0.73
   4  -5  -8    0.71    0.74
  -4   5   8    1.26    0.73
  -4   5   8    1.45    0.91
  -4   5   8    0.92    0.81
  -4   5   8    5.01    1.16
   3  -5  -8   77.44    3.92
   3  -5  -8   95.85    3.91
   3  -5  -8   85.68    3.74
   3  -5  -8   97.87    3.89
   3  -5  -8   96.47    3.85
  -3   5   8   87.54    3.77
  -3   5   8   93.12    3.62
  -3   5   8   90.64    3.90
  -3   5   8   92.07    3.91
  -3   5   8   96.94    4.02
   2  -5  -8    1.04    0.50
   2  -5  -8    2.01    0.70
   2  -5  -8    0.57    0.50
   2  -5  -8    3.28    0.81
  -2   5   8    2.16    0.66
  -2   5   8    2.41    0.63
  -2   5   8    1.64    0.49
  -2   5   8    0.27    0.66
  -2   5   8    1.29    0.62
  -2   5   8    1.64    0.68
   1  -5  -8  163.69    6.45
   1  -5  -8  168.41    6.37
   1  -5  -8  172.17    6.38
   1  -5  -8  170.13    6.43
  -1   5   8  169.05    6.45
  -1   5   8  164.52    6.44
  -1   5   8  165.24    6.40
  -1   5   8  172.28    6.45
  -1   5   8  175.20    6.29
  -1   5   8  147.48    6.38
  -1   5   8  155.62    6.39
   0  -5  -8    2.53    0.60
   0  -5  -8    2.38    0.64
   0  -5  -8    3.11    0.76
   0  -5  -8    2.56    0.61
   0   5   8    2.75    0.79
   0   5   8    2.51    0.60
   0   5   8    2.37    0.48
   0   5   8    2.99    0.82
   0   5   8    2.72    0.54
   0   5   8    2.52    0.60
  -1  -5  -8  181.52    6.55
  -1  -5  -8  173.71    6.48
  -1  -5  -8  171.34    6.41
  -1  -5  -8  145.34    6.36
   1   5   8  175.03    6.52
   1   5   8  147.68    6.47
   1   5   8  173.45    6.44
   1   5   8  187.31    6.50
  -2  -5  -8    5.67    0.64
  -2  -5  -8    5.96    0.64
  -2  -5  -8    7.44    0.87
  -2  -5  -8    5.27    0.76
   2   5   8    6.49    0.83
   2   5   8    3.79    0.73
   2   5   8    3.90    0.64
   2   5   8    6.19    0.90
   2   5   8    6.07    0.88
   2   5   8    5.46    0.70
  -3  -5  -8  109.11    4.45
  -3  -5  -8  108.24    4.35
  -3  -5  -8  114.26    4.28
  -3  -5  -8  119.46    4.37
  -3  -5  -8  108.92    4.44
  -3  -5  -8  110.31    4.29
   3   5   8  113.80    4.44
   3   5   8  105.97    4.39
   3   5   8  107.31    4.35
   3   5   8  114.01    4.32
   3   5   8  112.04    4.39
   3   5   8  111.78    4.32
  -4  -5  -8   18.62    0.98
  -4  -5  -8   17.77    1.07
  -4  -5  -8   19.80    1.10
  -4  -5  -8   19.02    1.22
  -4  -5  -8   18.22    1.14
   4   5   8   16.12    1.11
   4   5   8   19.14    1.27
   4   5   8   17.65    1.21
   4   5   8   16.69    1.06
   4   5   8   17.44    1.13
  -5  -5  -8   -0.01    0.45
  -5  -5  -8    0.54    0.43
  -5  -5  -8    0.71    0.50
   5   5   8   -0.02    0.60
   5   5   8    1.69    0.69
   5   5   8    0.09    0.39
   5   5   8    1.02    0.47
   5   5   8    0.23    0.55
  -6  -5  -8   36.54    1.82
  -6  -5  -8   39.97    2.18
   6   5   8   39.51    1.92
   6   5   8   39.22    2.09
   6   5   8   36.95    1.90
   6   5   8   42.00    1.82
  -7  -5  -8    9.05    1.51
   7   5   8   10.04    1.51
   7   5   8    9.97    1.19
   7   5   8    8.16    2.05
   3  -6  -8    0.51    0.68
   3  -6  -8   -0.18    0.73
   3  -6  -8   -0.65    0.63
  -3   6   8   -0.48    0.74
  -3   6   8    0.48    0.64
  -3   6   8    0.30    0.68
  -3   6   8    0.17    0.94
   2  -6  -8   45.15    2.18
   2  -6  -8   43.79    2.22
   2  -6  -8   39.86    2.13
  -2   6   8   44.11    2.27
  -2   6   8   45.17    2.27
  -2   6   8   45.20    2.38
   1  -6  -8   13.42    1.18
   1  -6  -8   14.00    1.07
   1  -6  -8   13.56    1.10
   1  -6  -8   13.95    0.90
  -1   6   8   14.15    1.31
  -1   6   8   14.37    1.23
  -1   6   8   12.81    1.24
  -1   6   8    9.58    1.24
  -1   6   8   13.31    1.39
  -1   6   8   12.26    1.19
   0  -6  -8    5.33    0.57
   0  -6  -8    4.21    1.10
   0  -6  -8    5.46    0.93
   0  -6  -8    6.65    0.80
   0  -6  -8    6.25    0.82
   0  -6  -8    4.37    1.13
   0   6   8    7.04    1.03
   0   6   8    6.18    1.08
   0   6   8    6.21    0.95
   0   6   8    4.90    1.02
   0   6   8    5.74    1.03
   0   6   8    5.22    0.90
  -1  -6  -8   49.35    2.14
  -1  -6  -8   46.68    2.31
  -1  -6  -8   51.03    2.24
   1   6   8   45.57    2.18
   1   6   8   47.98    2.24
   1   6   8   47.07    2.20
   1   6   8   46.33    2.29
  -2  -6  -8    5.76    0.63
  -2  -6  -8    2.85    0.65
  -2  -6  -8    5.86    0.70
  -2  -6  -8    5.14    0.83
  -2  -6  -8    5.86    1.02
  -2  -6  -8    4.70    0.63
   2   6   8    4.84    0.78
   2   6   8    4.54    0.86
   2   6   8    4.82    0.92
   2   6   8    5.32    0.97
   2   6   8    4.46    0.83
   2   6   8    3.67    0.96
  -3  -6  -8   74.08    2.91
  -3  -6  -8   64.70    2.88
  -3  -6  -8   70.55    3.06
  -3  -6  -8   75.81    3.03
  -3  -6  -8   73.11    3.12
  -3  -6  -8   71.82    3.03
   3   6   8   71.93    3.00
   3   6   8   73.16    3.03
   3   6   8   73.25    2.95
   3   6   8   72.34    3.12
   3   6   8   69.69    3.07
   3   6   8   70.74    2.95
  -4  -6  -8    6.36    0.86
  -4  -6  -8    4.68    0.90
  -4  -6  -8    5.51    0.77
  -4  -6  -8    6.04    0.70
  -4  -6  -8    6.64    0.90
   4   6   8    4.88    1.03
   4   6   8    5.52    0.98
   4   6   8    6.07    1.09
   4   6   8    5.68    0.90
   4   6   8    5.30    0.86
   4   6   8    5.89    0.79
  -5  -6  -8   43.76    2.26
  -5  -6  -8   43.85    2.12
  -5  -6  -8   44.01    2.09
   5   6   8   44.77    2.28
   5   6   8   47.19    2.07
   5   6   8   44.11    2.25
   5   6   8   47.26    2.14
  -6  -6  -8   11.98    1.24
  -6  -6  -8    8.91    1.38
   6   6   8   13.62    1.55
   6   6   8   11.98    1.04
   6   6   8   13.42    1.20
  -7  -6  -8   15.47    1.81
  -7  -6  -8   15.18    1.44
   7   6   8   12.17    1.39
   7   6   8   14.75    1.23
   3  -7  -8    5.00    1.37
   3  -7  -8    1.93    0.96
   3  -7  -8    2.24    0.87
  -3   7   8    3.81    1.12
  -3   7   8    5.62    1.50
   2  -7  -8   25.24    1.73
   2  -7  -8   26.99    1.69
   2  -7  -8   24.77    2.00
   2  -7  -8   24.83    1.66
  -2   7   8   23.18    1.83
  -2   7   8   24.41    1.62
  -2   7   8   24.62    1.78
  -2   7   8   28.03    2.02
   1  -7  -8    6.62    0.85
   1  -7  -8    7.17    1.05
   1  -7  -8    7.99    1.43
   1  -7  -8    6.76    1.06
   1  -7  -8    6.25    1.13
  -1   7   8    9.54    1.26
  -1   7   8    6.05    1.37
  -1   7   8    8.77    1.16
  -1   7   8    7.38    1.37
  -1   7   8    9.27    1.19
   0  -7  -8    9.48    0.76
   0  -7  -8    8.99    1.02
   0  -7  -8   12.33    1.41
   0  -7  -8   10.80    1.17
   0  -7  -8   12.52    1.03
   0   7   8   10.02    1.27
   0   7   8    9.33    1.28
   0   7   8    9.50    1.12
   0   7   8    9.17    1.25
   0   7   8    8.56    1.19
   0   7   8    8.96    1.33
  -1  -7  -8   44.84    2.11
  -1  -7  -8   47.50    2.25
  -1  -7  -8   47.38    2.12
  -1  -7  -8   45.07    1.94
  -1  -7  -8   45.64    2.35
   1   7   8   47.82    2.29
   1   7   8   47.25    2.23
   1   7   8   43.57    2.20
   1   7   8   45.60    2.33
  -2  -7  -8    0.24    0.46
  -2  -7  -8    0.07    0.49
  -2  -7  -8    0.50    0.42
  -2  -7  -8    0.93    0.67
  -2  -7  -8   -0.09    0.69
  -2  -7  -8    0.32    0.43
   2   7   8    0.82    0.65
   2   7   8    0.71    0.48
   2   7   8    0.68    0.56
   2   7   8   -0.03    0.59
  -3  -7  -8  134.67    5.19
  -3  -7  -8  135.26    5.07
  -3  -7  -8  133.63    5.06
  -3  -7  -8  121.59    5.20
   3   7   8  134.84    5.23
   3   7   8  132.26    5.26
   3   7   8  128.56    5.17
   3   7   8  129.48    5.06
  -4  -7  -8    4.12    1.02
  -4  -7  -8    2.67    0.64
  -4  -7  -8    3.31    0.74
  -4  -7  -8    4.42    0.93
  -4  -7  -8    4.05    0.79
   4   7   8    4.43    0.97
   4   7   8    3.45    0.86
   4   7   8    2.53    0.75
  -5  -7  -8  160.44    6.13
  -5  -7  -8  148.03    6.27
   5   7   8  161.53    6.19
   5   7   8  162.93    6.13
  -6  -7  -8   10.82    1.46
  -6  -7  -8    9.50    1.26
   6   7   8    8.83    1.13
   6   7   8   10.84    1.31
   2  -8  -8   58.60    3.01
   2  -8  -8   59.62    2.92
   2  -8  -8   56.90    2.90
  -2   8   8   58.19    3.03
  -2   8   8   62.96    3.27
  -2   8   8   64.02    3.07
   1  -8  -8    9.81    1.68
   1  -8  -8   10.89    1.41
   1  -8  -8   12.75    1.30
   1  -8  -8    7.80    1.23
   1  -8  -8    7.46    1.26
  -1   8   8   12.52    1.78
  -1   8   8    5.28    1.34
  -1   8   8   10.21    1.49
   0  -8  -8   94.27    3.81
   0  -8  -8   90.39    3.82
   0  -8  -8   91.48    3.51
   0  -8  -8   88.92    4.01
   0  -8  -8   88.14    3.88
   0   8   8   96.76    4.10
   0   8   8   83.82    4.01
   0   8   8   92.07    3.98
   0   8   8   87.00    3.85
  -1  -8  -8    0.64    0.60
  -1  -8  -8    0.09    0.45
  -1  -8  -8    0.77    0.86
  -1  -8  -8    0.51    0.58
  -1  -8  -8   -0.05    0.66
   1   8   8    0.16    0.59
   1   8   8    1.17    0.72
   1   8   8    0.57    0.85
   1   8   8    0.58    0.80
  -2  -8  -8   16.52    1.48
  -2  -8  -8   19.60    1.24
  -2  -8  -8   19.64    1.19
  -2  -8  -8   19.82    1.28
   2   8   8   19.35    1.48
   2   8   8   17.42    1.38
   2   8   8   17.43    1.44
   2   8   8   16.43    1.70
  -3  -8  -8   14.80    1.35
  -3  -8  -8   12.57    1.25
  -3  -8  -8   14.31    1.11
  -3  -8  -8   13.12    1.48
  -3  -8  -8   13.95    1.13
   3   8   8   12.87    1.58
   3   8   8   13.38    1.25
   3   8   8   15.41    1.37
   3   8   8   13.86    1.26
  -4  -8  -8   -0.43    0.61
  -4  -8  -8    1.03    0.62
  -4  -8  -8    1.28    0.76
  -4  -8  -8   -0.13    0.64
   4   8   8    1.60    0.71
   4   8   8    1.46    0.64
  -5  -8  -8   42.77    2.14
  -5  -8  -8   38.42    2.26
   5   8   8   42.39    2.28
   5   8   8   41.11    2.15
  -6  -8  -8    0.95    0.86
  -6  -8  -8    0.78    0.86
   6   8   8    0.82    0.83
   1  -9  -8   17.41    1.69
   1  -9  -8   19.49    1.91
   1  -9  -8   16.64    1.67
  -1   9   8   15.69    1.90
  -1   9   8   20.08    2.24
  -1   9   8   15.69    1.79
   0  -9  -8   37.93    2.11
   0  -9  -8   38.70    2.27
   0  -9  -8   37.41    2.14
   0   9   8   36.07    2.36
   0   9   8   38.17    2.56
   0   9   8   34.63    2.18
  -1  -9  -8   20.34    1.31
  -1  -9  -8   21.91    1.65
  -1  -9  -8   20.95    1.50
  -1  -9  -8   22.78    1.83
   1   9   8   23.29    1.75
   1   9   8   22.13    2.15
   1   9   8   20.54    1.83
  -2  -9  -8   15.94    1.23
  -2  -9  -8   14.66    1.61
  -2  -9  -8   14.62    1.26
  -2  -9  -8   18.76    1.41
   2   9   8   21.59    2.54
   2   9   8   17.00    1.60
   2   9   8   15.90    1.57
   2   9   8   18.89    1.61
  -3  -9  -8    6.65    1.15
  -3  -9  -8    5.16    1.09
  -3  -9  -8    8.62    1.41
   3   9   8    9.72    1.49
   3   9   8    7.56    1.36
  -4  -9  -8    0.50    0.76
  -4  -9  -8    0.35    0.59
  -4  -9  -8    1.46    0.95
  -4  -9  -8    0.34    0.72
   4   9   8    0.80    0.75
   4   9   8   -0.19    0.87
  -1 -10  -8   15.80    1.73
   1  10   8   21.07    1.98
  -2 -10  -8   13.24    1.94
  -2 -10  -8   16.42    1.64
  -2 -10  -8   13.65    1.48
  -2 -10  -8   14.68    1.40
   2  10   8   14.28    1.78
   0   8  -9   10.00    2.12
   0   8  -9    7.51    1.60
   0   8  -9    6.45    1.41
   0  -8   9    8.15    1.41
   0  -8   9    8.85    2.00
   0  -8   9    7.23    1.66
   0  -8   9    8.71    1.67
  -1   8  -9   88.82    4.17
  -1   8  -9   81.70    3.80
  -1   8  -9   80.67    3.75
   1  -8   9   82.70    4.08
   1  -8   9   79.82    3.97
   1  -8   9   92.60    3.91
  -2   8  -9    9.59    1.58
  -2   8  -9   14.08    1.56
   2  -8   9   14.97    1.85
   2  -8   9   14.92    1.88
   2  -8   9   13.19    2.48
   2  -8   9   11.43    1.87
  -3   8  -9   42.16    2.11
   3  -8   9   28.04    2.36
   3  -8   9   35.30    2.43
   3  -8   9   35.76    2.57
   2   7  -9   18.76    2.38
  -2  -7   9   15.70    1.90
  -2  -7   9   11.58    2.23
  -2  -7   9   15.44    1.75
  -2  -7   9   16.11    1.46
   1   7  -9   -0.43    1.06
   1   7  -9   -0.28    0.79
  -1  -7   9   -0.29    0.71
  -1  -7   9    0.37    0.81
  -1  -7   9   -2.26    0.93
  -1  -7   9   -0.38    0.82
   0   7  -9   -1.14    0.90
   0   7  -9    0.38    0.76
   0  -7   9   -0.42    0.66
   0  -7   9    1.12    0.93
   0  -7   9   -0.23    0.77
   0  -7   9    1.76    1.24
   0  -7   9    0.79    0.80
  -1   7  -9    3.40    0.81
  -1   7  -9    5.50    1.11
  -1   7  -9    3.29    0.98
   1  -7   9    3.33    0.90
   1  -7   9    4.31    1.11
   1  -7   9    3.45    0.84
   1  -7   9    2.68    0.91
   1  -7   9    2.33    1.08
   1  -7   9    3.47    0.95
  -2   7  -9   23.01    2.84
  -2   7  -9   31.78    1.88
  -2   7  -9   30.82    2.21
  -2   7  -9   32.41    1.85
   2  -7   9   35.72    2.19
   2  -7   9   31.67    2.13
   2  -7   9   31.79    2.09
  -3   7  -9    6.52    1.25
  -3   7  -9    6.94    1.16
   3  -7   9    9.55    1.43
   3  -7   9    8.26    1.54
   3  -7   9    8.13    1.60
  -4   7  -9  126.62    4.74
  -4   7  -9  111.91    5.01
   4  -7   9  131.57    5.16
   4  -7   9  121.06    5.20
   4  -7   9  113.68    5.03
   2   6  -9   17.65    1.73
   2   6  -9   21.56    2.06
   2   6  -9   22.54    2.96
  -2  -6   9   21.02    1.71
  -2  -6   9   21.99    1.82
  -2  -6   9   23.29    2.14
  -2  -6   9   18.07    1.39
   1   6  -9  205.69    8.43
   1   6  -9  216.23    8.74
   1   6  -9  218.67    8.62
  -1  -6   9  226.79    8.65
  -1  -6   9  231.31    8.33
  -1  -6   9  201.73    8.70
  -1  -6   9  221.12    8.23
  -1  -6   9  218.14    8.50
   0   6  -9   18.84    1.52
   0   6  -9   20.85    1.74
   0   6  -9   18.17    2.14
   0  -6   9   19.21    1.74
   0  -6   9   19.03    1.59
   0  -6   9   17.40    2.18
   0  -6   9   18.36    1.41
   0  -6   9   18.41    1.50
  -1   6  -9   37.79    2.32
  -1   6  -9   33.28    2.00
   1  -6   9   38.97    2.09
   1  -6   9   39.82    2.44
   1  -6   9   37.10    2.21
   1  -6   9   38.49    1.89
   1  -6   9   39.41    2.16
  -2   6  -9    6.81    1.02
  -2   6  -9    7.68    1.37
  -2   6  -9    7.55    1.45
  -2   6  -9    8.44    1.08
   2  -6   9    6.75    1.29
   2  -6   9    9.21    1.31
   2  -6   9    7.82    1.38
   2  -6   9   10.02    1.61
  -3   6  -9    1.72    0.57
  -3   6  -9    1.90    0.76
  -3   6  -9    4.24    1.03
  -3   6  -9    1.01    0.73
   3  -6   9    0.32    0.89
   3  -6   9    2.28    0.87
   3  -6   9    1.31    0.79
   3  -6   9    2.15    0.75
   3  -6   9    2.25    0.66
  -4   6  -9    2.57    0.68
  -4   6  -9    2.21    0.61
   4  -6   9    1.51    0.68
   4  -6   9    2.63    0.79
   4  -6   9    3.53    0.95
  -5   6  -9   30.58    2.02
   5  -6   9   28.86    1.87
   5  -6   9   34.60    2.13
   5  -6   9   34.09    2.27
   3   5  -9    0.81    1.68
   3   5  -9    1.42    1.06
   3   5  -9    2.61    0.92
  -3  -5   9    2.39    0.84
  -3  -5   9    0.93    0.93
  -3  -5   9    2.86    1.06
   2   5  -9    0.13    0.83
   2   5  -9    2.59    1.39
   2   5  -9    1.29    0.87
   2   5  -9    0.38    0.72
  -2  -5   9    0.31    0.88
  -2  -5   9    1.19    0.76
  -2  -5   9    0.08    0.68
  -2  -5   9    0.97    0.52
   1   5  -9    4.58    1.22
   1   5  -9    7.64    1.18
   1   5  -9    8.97    1.41
  -1  -5   9    5.75    1.26
  -1  -5   9    6.86    1.04
  -1  -5   9    7.05    1.91
  -1  -5   9    4.25    1.06
  -1  -5   9    6.57    1.45
  -1  -5   9    5.34    1.07
   0   5  -9    3.66    0.99
   0   5  -9    2.68    0.76
   0   5  -9    2.76    1.09
   0  -5   9    2.74    0.71
   0  -5   9    2.43    0.96
   0  -5   9    2.78    0.69
   0  -5   9    1.69    0.92
   0  -5   9    3.69    0.75
   0  -5   9    2.24    0.74
  -1   5  -9    9.66    1.57
  -1   5  -9   12.91    1.36
  -1   5  -9   11.25    1.41
  -1   5  -9    8.46    1.08
   1  -5   9   10.08    1.46
   1  -5   9   11.12    1.24
   1  -5   9   11.62    1.22
   1  -5   9   11.51    1.22
   1  -5   9   11.73    1.57
  -2   5  -9   10.08    1.05
  -2   5  -9   12.90    1.12
  -2   5  -9    9.96    1.47
  -2   5  -9   16.07    1.35
   2  -5   9    9.74    1.23
   2  -5   9   11.47    1.53
   2  -5   9   10.77    1.44
   2  -5   9   11.40    1.35
   2  -5   9   15.41    1.31
   2  -5   9   13.33    1.29
  -3   5  -9   16.69    1.16
  -3   5  -9   18.23    1.42
  -3   5  -9   18.70    1.33
  -3   5  -9   16.79    1.33
   3  -5   9   15.93    1.36
   3  -5   9   19.68    2.15
   3  -5   9   16.46    1.61
   3  -5   9   19.68    1.50
   3  -5   9   16.54    1.67
   3  -5   9   18.21    1.38
  -4   5  -9    0.04    0.44
  -4   5  -9    0.07    0.51
  -4   5  -9    0.98    0.65
   4  -5   9   -0.20    0.60
   4  -5   9    0.83    0.55
   4  -5   9   -0.05    0.70
   4  -5   9    0.33    0.75
   4  -5   9    0.96    0.81
  -5   5  -9   27.84    1.78
   5  -5   9   25.62    1.62
   5  -5   9   29.17    2.01
   5  -5   9   29.91    1.82
   5  -5   9   24.11    1.99
  -6   5  -9   65.58    3.19
   6  -5   9   72.82    3.15
   6  -5   9   72.34    3.38
   6  -5   9   57.91    2.90
   4   4  -9    0.09    1.00
   4   4  -9    0.47    1.13
  -4  -4   9    0.70    0.74
  -4  -4   9    2.65    1.07
  -4  -4   9   -0.24    0.84
   3   4  -9    0.97    0.77
   3   4  -9    0.81    0.92
  -3  -4   9    0.01    0.92
  -3  -4   9    1.37    0.80
  -3  -4   9    1.56    0.76
   2   4  -9    6.29    1.46
   2   4  -9    5.82    1.42
   2   4  -9    5.51    1.32
   2   4  -9    5.11    1.12
   2   4  -9    4.34    0.74
  -2  -4   9    4.27    1.06
  -2  -4   9    6.51    1.15
  -2  -4   9    6.96    1.52
  -2  -4   9    4.63    1.23
  -2  -4   9    6.31    1.18
   1   4  -9   56.68    2.92
   1   4  -9   60.12    2.49
   1   4  -9   61.12    3.16
   1   4  -9   53.78    2.71
  -1  -4   9   61.34    2.56
  -1  -4   9   51.09    2.76
  -1  -4   9   66.76    2.97
  -1  -4   9   57.75    3.14
  -1  -4   9   59.39    2.79
  -1  -4   9   58.74    2.64
   0   4  -9   33.11    2.10
   0   4  -9   37.99    1.81
   0   4  -9   41.41    2.16
   0   4  -9   36.75    1.91
   0   4  -9   37.22    2.30
   0  -4   9   37.32    1.88
   0  -4   9   34.97    2.26
   0  -4   9   40.32    2.11
   0  -4   9   33.32    2.04
   0  -4   9   34.91    1.96
  -1   4  -9  281.61   10.65
  -1   4  -9  268.30   10.47
  -1   4  -9  292.08   10.51
  -1   4  -9  293.38   10.67
   1  -4   9  254.39   10.56
   1  -4   9  273.29   10.65
   1  -4   9  285.11   10.51
   1  -4   9  291.11   10.68
   1  -4   9  286.30   10.66
   1  -4   9  282.51   10.58
  -2   4  -9   49.71    2.48
  -2   4  -9   50.91    2.43
  -2   4  -9   49.62    2.26
  -2   4  -9   53.51    2.38
  -2   4  -9   49.15    2.30
  -2   4  -9   50.39    2.36
   2  -4   9   51.36    2.39
   2  -4   9   48.78    2.36
   2  -4   9   54.51    2.53
   2  -4   9   47.44    2.42
   2  -4   9   47.24    2.52
   2  -4   9   49.40    2.41
  -3   4  -9  201.63    8.24
  -3   4  -9  235.43    8.40
  -3   4  -9  222.82    8.14
  -3   4  -9  233.36    8.13
  -3   4  -9  222.10    8.29
  -3   4  -9  195.89    8.24
   3  -4   9  219.98    8.31
   3  -4   9  196.90    8.25
   3  -4   9  226.03    8.33
   3  -4   9  217.44    8.33
   3  -4   9  217.72    8.26
  -4   4  -9   52.24    2.49
   4  -4   9   51.87    2.48
   4  -4   9   51.49    2.80
   4  -4   9   58.12    2.51
   4  -4   9   57.56    2.65
   4  -4   9   53.60    2.59
   4  -4   9   55.34    2.64
  -5   4  -9   36.66    1.95
  -5   4  -9   33.68    1.84
   5  -4   9   32.34    1.78
   5  -4   9   32.15    1.96
   5  -4   9   40.32    2.15
   5  -4   9   36.85    1.90
   5  -4   9   35.09    2.05
  -6   4  -9   34.19    2.05
   6  -4   9   32.12    2.14
   6  -4   9   35.75    1.92
   6  -4   9   33.23    1.96
   6  -4   9   37.23    2.23
   6  -4   9   30.97    1.75
  -7   4  -9    3.17    0.89
   7  -4   9    3.18    0.84
   7  -4   9    3.91    1.22
   4   3  -9  167.46    6.81
   4   3  -9  176.40    7.06
  -4  -3   9  164.39    6.70
  -4  -3   9  165.83    6.60
   3   3  -9    4.35    1.44
   3   3  -9    4.24    0.97
   3   3  -9    2.71    0.77
  -3  -3   9    6.37    1.67
  -3  -3   9    4.85    1.17
  -3  -3   9    4.07    1.13
   2   3  -9   98.90    4.83
   2   3  -9  107.04    4.50
   2   3  -9  110.29    4.42
   2   3  -9  111.18    4.72
   2   3  -9  111.01    4.24
  -2  -3   9  110.17    4.45
  -2  -3   9  112.17    4.52
  -2  -3   9   98.68    4.45
  -2  -3   9  111.39    4.87
  -2  -3   9  120.18    4.77
   1   3  -9    8.58    0.88
   1   3  -9    6.82    1.60
   1   3  -9    6.94    0.97
   1   3  -9    5.00    1.20
  -1  -3   9    9.67    1.08
  -1  -3   9    6.18    1.21
  -1  -3   9    9.81    1.32
  -1  -3   9    7.07    1.56
  -1  -3   9    8.22    0.96
  -1  -3   9    6.62    1.38
   0   3  -9   26.99    1.56
   0   3  -9   28.85    1.98
   0   3  -9   31.09    1.54
   0   3  -9   28.11    1.78
   0  -3   9   25.06    1.61
   0  -3   9   31.50    1.59
   0  -3   9   29.50    1.96
   0  -3   9   30.16    1.79
  -1   3  -9   12.69    1.41
  -1   3  -9   11.91    1.24
  -1   3  -9   15.12    1.07
  -1   3  -9   13.78    1.24
   1  -3   9   11.96    1.46
   1  -3   9   14.89    1.42
   1  -3   9   12.30    1.12
   1  -3   9   10.91    1.16
   1  -3   9   12.90    1.13
  -2   3  -9    0.27    0.51
  -2   3  -9    0.78    0.62
  -2   3  -9    0.20    0.35
  -2   3  -9    0.65    0.52
  -2   3  -9    0.42    0.44
   2  -3   9    0.62    0.50
   2  -3   9    0.09    0.61
   2  -3   9    0.76    0.65
   2  -3   9    0.86    0.51
   2  -3   9   -0.40    0.53
  -3   3  -9   26.16    1.52
  -3   3  -9   24.87    1.58
  -3   3  -9   23.95    1.41
  -3   3  -9   27.83    1.56
  -3   3  -9   26.77    1.39
  -3   3  -9   27.16    1.33
   3  -3   9   24.37    1.68
   3  -3   9   23.80    1.47
   3  -3   9   25.53    1.49
   3  -3   9   26.93    1.56
   3  -3   9   27.04    1.65
  -4   3  -9   26.78    1.62
  -4   3  -9   27.18    1.47
   4  -3   9   26.35    1.88
   4  -3   9   25.17    1.46
   4  -3   9   23.85    1.50
   4  -3   9   28.04    1.64
   4  -3   9   23.33    1.69
   4  -3   9   29.13    1.67
  -5   3  -9   22.57    1.44
  -5   3  -9   21.65    1.35
   5  -3   9   22.04    1.64
   5  -3   9   19.99    1.49
   5  -3   9   23.50    1.46
   5  -3   9   20.03    1.33
   5  -3   9   24.65    1.65
  -6   3  -9   24.08    1.64
   6  -3   9   27.30    1.89
   6  -3   9   23.40    1.81
   6  -3   9   22.78    1.69
   6  -3   9   26.27    1.56
   6  -3   9   24.05    1.48
   6  -3   9   23.39    1.39
  -7   3  -9   21.36    1.75
   7  -3   9   21.11    2.08
   7  -3   9   26.67    1.68
   4   2  -9    0.53    0.83
   4   2  -9    0.41    0.90
   4   2  -9    3.22    1.58
  -4  -2   9   -0.07    0.92
  -4  -2   9    1.48    0.76
  -4  -2   9    1.51    0.87
   3   2  -9   17.01    1.44
   3   2  -9   16.43    1.65
   3   2  -9   13.59    2.03
   3   2  -9   13.26    1.64
   3   2  -9   15.77    1.04
  -3  -2   9   15.93    1.84
  -3  -2   9   13.44    1.53
  -3  -2   9   16.31    1.38
  -3  -2   9   14.67    1.35
   2   2  -9    1.75    0.46
   2   2  -9    2.12    0.73
   2   2  -9    1.86    0.58
   2   2  -9    2.66    0.66
   2   2  -9    1.24    0.95
  -2  -2   9    3.05    0.83
  -2  -2   9    2.08    0.65
  -2  -2   9    3.44    0.84
  -2  -2   9    1.23    0.98
  -2  -2   9    1.15    0.75
  -2  -2   9    1.96    0.61
   1   2  -9   78.30    3.48
   1   2  -9   80.14    3.16
   1   2  -9   78.68    3.57
   1   2  -9   80.37    3.31
  -1  -2   9   81.28    3.59
  -1  -2   9   64.65    3.39
  -1  -2   9   74.37    3.34
  -1  -2   9   82.64    3.53
  -1  -2   9   80.55    3.19
   0   2  -9   -0.10    0.39
   0   2  -9    0.89    0.75
   0   2  -9    0.12    0.36
   0   2  -9    0.04    0.48
   0  -2   9    0.57    0.71
   0  -2   9   -0.55    0.52
   0  -2   9    0.31    0.49
   0  -2   9    0.13    0.46
  -1   2  -9   50.42    2.27
  -1   2  -9   46.40    2.15
  -1   2  -9   47.48    2.36
  -1   2  -9   48.73    2.29
  -1   2  -9   50.43    2.15
   1  -2   9   45.31    2.27
   1  -2   9   48.22    2.39
   1  -2   9   47.78    2.18
   1  -2   9   44.03    2.20
   1  -2   9   42.31    2.34
  -2   2  -9    6.67    0.90
  -2   2  -9    4.95    0.83
  -2   2  -9    6.30    0.93
  -2   2  -9    6.01    0.75
  -2   2  -9    5.34    1.01
   2  -2   9    6.61    0.87
   2  -2   9    5.94    1.06
   2  -2   9    5.17    0.88
   2  -2   9    6.03    1.10
   2  -2   9    6.05    0.93
  -3   2  -9   29.85    1.54
  -3   2  -9   30.76    2.09
  -3   2  -9   32.25    1.48
  -3   2  -9   31.82    1.51
  -3   2  -9   33.31    1.69
  -3   2  -9   26.99    1.63
   3  -2   9   31.68    1.68
   3  -2   9   32.56    1.63
   3  -2   9   35.22    1.75
   3  -2   9   28.23    1.83
   3  -2   9   28.81    1.78
   3  -2   9   31.16    1.77
  -4   2  -9   14.03    1.16
  -4   2  -9   14.87    1.18
  -4   2  -9   15.36    1.04
   4  -2   9   14.43    1.21
   4  -2   9   13.69    1.04
   4  -2   9   13.70    1.08
   4  -2   9   13.41    1.35
   4  -2   9   13.64    1.21
  -5   2  -9  113.55    4.31
  -5   2  -9  115.36    4.42
  -5   2  -9  106.91    4.59
  -5   2  -9  102.36    4.29
   5  -2   9   96.02    4.31
   5  -2   9  116.63    4.48
   5  -2   9  112.01    4.36
   5  -2   9  112.97    4.37
   5  -2   9  113.47    4.56
  -6   2  -9   21.60    1.45
   6  -2   9   21.93    1.35
   6  -2   9   24.53    1.74
   6  -2   9   21.06    1.62
   6  -2   9   21.26    1.67
   6  -2   9   25.74    1.47
   6  -2   9   20.83    1.29
  -7   2  -9   93.48    3.97
   7  -2   9   98.14    3.85
   7  -2   9   87.89    4.05
   7  -2   9   95.11    4.22
   4   1  -9   18.46    1.26
   4   1  -9   16.01    2.28
   4   1  -9   17.35    1.60
   4   1  -9   19.88    1.98
  -4  -1   9   22.43    1.59
  -4  -1   9   18.45    1.61
  -4  -1   9   23.37    1.58
   3   1  -9    0.36    0.58
   3   1  -9    0.14    0.83
   3   1  -9   -0.85    0.40
   3   1  -9    0.31    0.68
   3   1  -9    1.90    1.03
  -3  -1   9   -0.43    0.69
  -3  -1   9    0.20    0.61
  -3  -1   9    0.36    0.92
  -3  -1   9    0.19    0.58
   2   1  -9   12.48    1.08
   2   1  -9   11.28    1.58
   2   1  -9   12.06    1.14
   2   1  -9    8.67    1.74
   2   1  -9   10.58    1.26
   2   1  -9   11.81    0.90
  -2  -1   9   16.13    1.23
  -2  -1   9   12.89    1.50
  -2  -1   9   10.18    1.33
  -2  -1   9   12.54    1.60
  -2  -1   9   11.87    1.26
   1   1  -9    1.12    0.38
   1   1  -9    0.62    0.47
   1   1  -9    1.02    0.70
  -1  -1   9    0.34    0.54
  -1  -1   9    0.68    0.77
  -1  -1   9    0.91    0.60
  -1  -1   9    0.84    0.51
   0   1  -9  121.47    4.61
   0   1  -9  110.07    4.80
   0   1  -9  122.18    4.79
   0  -1   9  122.78    4.80
   0  -1   9  119.14    4.86
   0  -1   9  117.72    4.64
   0  -1   9  112.09    4.73
  -1   1  -9    0.48    0.34
  -1   1  -9    0.27    0.33
  -1   1  -9    0.17    0.51
  -1   1  -9    0.95    0.52
  -1   1  -9    0.12    0.41
   1  -1   9    0.55    0.49
   1  -1   9    0.13    0.43
   1  -1   9    0.06    0.42
   1  -1   9    0.65    0.59
   1  -1   9   -0.12    0.56
  -2   1  -9   52.86    2.46
  -2   1  -9   56.52    2.44
  -2   1  -9   53.77    2.43
  -2   1  -9   53.78    2.30
  -2   1  -9   55.66    2.37
   2  -1   9   52.87    2.41
   2  -1   9   55.48    2.43
   2  -1   9   49.91    2.49
   2  -1   9   52.55    2.50
   2  -1   9   55.57    2.49
   2  -1   9   52.86    2.42
  -3   1  -9    0.67    0.39
  -3   1  -9    0.61    0.43
  -3   1  -9    0.73    0.43
  -3   1  -9    0.94    0.35
  -3   1  -9    1.36    0.36
   3  -1   9    1.09    0.56
   3  -1   9   -0.07    0.55
   3  -1   9    1.04    0.47
   3  -1   9    2.47    0.78
   3  -1   9    1.63    0.64
   3  -1   9    1.27    0.47
  -4   1  -9   56.85    2.43
  -4   1  -9   55.10    2.59
  -4   1  -9   57.17    2.39
   4  -1   9   51.51    2.37
   4  -1   9   51.20    2.40
   4  -1   9   57.27    2.56
   4  -1   9   54.10    2.54
   4  -1   9   55.44    2.45
  -5   1  -9    1.12    0.45
  -5   1  -9    1.39    0.53
  -5   1  -9    1.81    0.49
  -5   1  -9    3.73    0.91
   5  -1   9    2.11    0.55
   5  -1   9    1.97    0.53
   5  -1   9    0.48    0.86
   5  -1   9    1.83    0.72
   5  -1   9    1.35    0.72
   5  -1   9    0.40    0.70
   5  -1   9    0.79    0.48
  -6   1  -9   13.81    1.16
  -6   1  -9   14.55    1.37
   6  -1   9   14.98    1.18
   6  -1   9   13.47    1.01
   6  -1   9   14.94    1.09
   6  -1   9   11.65    1.51
   6  -1   9   13.29    1.43
  -7   1  -9    1.20    0.62
   7  -1   9    1.21    1.00
   7  -1   9    1.36    0.68
   4   0  -9    1.20    0.86
   4   0  -9    1.73    0.76
   4   0  -9    1.69    0.78
  -4   0   9    1.03    0.77
  -4   0   9    1.63    0.76
  -4   0   9    1.97    0.76
   3   0  -9    0.11    0.56
   3   0  -9   -0.10    0.82
   3   0  -9    0.72    0.58
   3   0  -9    1.15    0.98
   3   0  -9    0.15    0.64
  -3   0   9    0.80    0.63
  -3   0   9    0.23    0.81
  -3   0   9    1.77    0.74
  -3   0   9    0.43    0.59
   2   0  -9    2.82    0.71
   2   0  -9    2.72    0.65
   2   0  -9    1.50    0.87
   2   0  -9    1.59    0.78
   2   0  -9    1.85    0.54
  -2   0   9    2.96    0.86
  -2   0   9    2.34    0.64
  -2   0   9    1.88    0.76
  -2   0   9    1.68    0.69
  -2   0   9    4.49    1.22
   1   0  -9   10.72    1.27
   1   0  -9   11.84    1.11
   1   0  -9   10.76    0.93
   1   0  -9   12.51    0.89
  -1   0   9   11.18    1.36
  -1   0   9   11.47    1.02
  -1   0   9   11.35    1.08
  -1   0   9   13.04    1.20
   0   0  -9    3.50    0.98
   0   0  -9    2.38    0.67
   0   0  -9    2.39    0.63
   0   0  -9    1.83    0.41
   0   0  -9    1.66    0.49
   0   0   9    1.62    0.56
   0   0   9    2.49    0.53
   0   0   9    2.62    0.56
   0   0   9    2.65    0.71
  -1   0  -9   91.93    3.86
  -1   0  -9   95.37    3.87
  -1   0  -9   98.54    3.82
  -1   0  -9   91.79    3.93
   1   0   9   97.78    3.90
   1   0   9   95.65    3.80
   1   0   9   94.85    3.94
   1   0   9   92.74    3.85
   1   0   9   95.28    3.87
  -2   0  -9   11.23    0.83
  -2   0  -9   12.55    0.97
  -2   0  -9   11.97    1.07
  -2   0  -9   11.82    0.94
  -2   0  -9   10.19    0.91
   2   0   9   11.97    0.94
   2   0   9   12.32    0.98
   2   0   9   13.21    1.12
   2   0   9   12.69    1.02
   2   0   9   12.93    1.13
   2   0   9   11.71    1.10
   2   0   9   11.25    0.93
  -3   0  -9  247.44    8.94
  -3   0  -9  227.44    8.72
  -3   0  -9  226.37    8.61
  -3   0  -9  211.75    8.59
  -3   0  -9  243.14    8.67
  -3   0  -9  235.16    8.85
   3   0   9  238.29    8.74
   3   0   9  232.06    8.83
   3   0   9  240.24    8.78
   3   0   9  234.08    8.78
   3   0   9  229.09    8.71
  -4   0  -9   14.99    0.95
  -4   0  -9   14.29    1.04
  -4   0  -9   13.17    1.13
   4   0   9   14.12    1.24
   4   0   9   14.21    1.44
   4   0   9   14.20    1.01
   4   0   9   14.86    1.18
   4   0   9   15.20    1.03
   4   0   9   13.83    1.13
  -5   0  -9   71.67    2.97
  -5   0  -9   71.88    2.99
  -5   0  -9   76.75    3.00
  -5   0  -9   71.05    3.27
   5   0   9   73.70    3.24
   5   0   9   74.83    3.01
   5   0   9   65.80    3.01
   5   0   9   71.24    3.12
   5   0   9   78.56    3.03
  -6   0  -9    3.03    0.81
  -6   0  -9    3.96    1.06
   6   0   9    2.32    0.60
   6   0   9    3.75    0.95
   6   0   9    4.18    1.17
   6   0   9    3.47    0.77
  -7   0  -9    1.18    0.82
  -7   0  -9    1.10    0.61
   7   0   9    1.45    0.66
   7   0   9    5.13    1.42
   7   0   9    2.68    1.13
   8   0   9    2.67    1.03
   8   0   9    3.41    1.28
   4  -1  -9  167.97    6.67
   4  -1  -9  168.49    6.50
   4  -1  -9  161.91    6.45
  -4   1   9  167.85    6.40
  -4   1   9  162.76    6.46
  -4   1   9  152.71    6.33
   3  -1  -9    8.76    1.24
   3  -1  -9    6.98    0.99
   3  -1  -9    8.04    1.66
   3  -1  -9    6.78    1.03
  -3   1   9    6.44    1.13
  -3   1   9    8.65    1.46
  -3   1   9    6.49    1.08
  -3   1   9    8.53    1.20
   2  -1  -9  287.51   10.38
   2  -1  -9  234.61   10.43
   2  -1  -9  289.16   10.26
   2  -1  -9  298.58   10.45
   2  -1  -9  261.81   10.23
  -2   1   9  289.64   10.41
  -2   1   9  239.19   10.22
  -2   1   9  281.46   10.38
  -2   1   9  278.24   10.33
   1  -1  -9    8.55    0.85
   1  -1  -9   10.27    1.00
   1  -1  -9    8.73    1.25
   1  -1  -9    7.76    0.81
  -1   1   9    8.63    1.23
  -1   1   9   10.45    1.07
  -1   1   9    9.15    1.01
   0  -1  -9   85.57    3.67
   0  -1  -9   88.83    3.50
   0  -1  -9   84.63    3.56
   0  -1  -9   83.48    3.63
   0  -1  -9   86.46    3.48
   0   1   9   85.59    3.56
   0   1   9   87.42    3.62
   0   1   9   89.63    3.68
   0   1   9   86.28    3.34
  -1  -1  -9   13.92    1.18
  -1  -1  -9   15.16    1.13
  -1  -1  -9   15.14    0.97
  -1  -1  -9   15.00    1.05
  -1  -1  -9   14.01    0.94
   1   1   9   13.24    1.14
   1   1   9   16.16    1.26
   1   1   9   13.86    0.94
   1   1   9   15.67    1.01
   1   1   9   13.79    1.11
   1   1   9   14.99    1.07
  -2  -1  -9    3.84    0.70
  -2  -1  -9    4.86    0.59
  -2  -1  -9    5.27    0.85
  -2  -1  -9    3.80    0.71
  -2  -1  -9    3.52    0.66
   2   1   9    4.41    0.88
   2   1   9    3.51    0.66
   2   1   9    2.96    0.84
   2   1   9    3.23    0.68
   2   1   9    4.59    0.73
   2   1   9    3.73    0.90
  -3  -1  -9   28.67    1.33
  -3  -1  -9   29.96    1.37
  -3  -1  -9   26.76    1.49
  -3  -1  -9   28.16    1.45
  -3  -1  -9   27.29    1.32
   3   1   9   26.69    1.58
   3   1   9   29.62    1.60
   3   1   9   27.38    1.47
   3   1   9   27.75    1.56
   3   1   9   24.24    1.40
  -4  -1  -9   15.69    0.91
  -4  -1  -9   13.84    1.15
   4   1   9   13.55    0.96
   4   1   9   14.44    1.23
   4   1   9   14.41    1.14
   4   1   9   15.33    1.00
   4   1   9   14.01    1.31
  -5  -1  -9   16.62    1.32
  -5  -1  -9   17.92    1.05
  -5  -1  -9   17.60    1.18
  -5  -1  -9   16.53    1.14
   5   1   9   19.81    1.34
   5   1   9   19.55    1.13
   5   1   9   17.02    1.40
   5   1   9   18.22    1.60
   5   1   9   20.60    1.39
   5   1   9   17.55    1.18
   5   1   9   15.42    1.10
  -6  -1  -9   42.20    2.29
  -6  -1  -9   42.39    1.90
   6   1   9   42.84    1.89
   6   1   9   37.71    2.40
   6   1   9   41.05    1.91
   6   1   9   42.73    2.30
   6   1   9   40.41    2.08
  -7  -1  -9   19.23    1.27
  -7  -1  -9   20.52    1.70
   7   1   9   17.34    1.88
   7   1   9   19.90    1.32
   7   1   9   17.14    1.53
  -8  -1  -9   10.17    1.89
   8   1   9   10.30    1.51
   8   1   9   10.17    2.10
   4  -2  -9    1.50    0.82
   4  -2  -9    2.51    0.87
   4  -2  -9    3.46    0.80
  -4   2   9    0.00    0.77
  -4   2   9    1.92    0.78
  -4   2   9    0.74    0.77
   3  -2  -9    0.74    0.90
   3  -2  -9    0.91    0.62
   3  -2  -9    1.63    0.67
   3  -2  -9    0.98    0.58
  -3   2   9   -0.21    0.66
  -3   2   9    0.10    0.57
  -3   2   9   -0.15    0.67
  -3   2   9    0.12    0.74
   2  -2  -9   13.89    1.10
   2  -2  -9   12.99    1.20
   2  -2  -9   14.77    1.46
   2  -2  -9   14.38    1.10
  -2   2   9   14.05    1.29
  -2   2   9   10.48    1.24
  -2   2   9   13.94    1.31
  -2   2   9   14.52    1.03
  -2   2   9   13.93    1.43
   1  -2  -9    1.62    0.44
   1  -2  -9    2.38    0.64
   1  -2  -9    1.36    0.50
   1  -2  -9    1.80    0.67
  -1   2   9    1.39    0.64
  -1   2   9    1.28    0.41
  -1   2   9    2.17    0.57
  -1   2   9    1.46    0.58
   0  -2  -9   22.56    1.28
   0  -2  -9   19.21    1.17
   0  -2  -9   21.10    1.43
   0  -2  -9   18.93    1.16
   0   2   9   22.17    1.29
   0   2   9   19.54    1.32
   0   2   9   22.20    1.45
  -1  -2  -9    7.47    0.82
  -1  -2  -9    7.50    0.76
  -1  -2  -9    8.18    0.72
  -1  -2  -9    7.21    0.96
  -1  -2  -9    8.94    0.91
   1   2   9    9.83    1.08
   1   2   9    9.61    0.81
   1   2   9    8.45    0.85
   1   2   9    7.48    0.91
   1   2   9    6.60    0.67
  -2  -2  -9   48.75    2.18
  -2  -2  -9   48.98    2.26
  -2  -2  -9   49.47    2.22
  -2  -2  -9   51.18    2.20
  -2  -2  -9   52.55    2.12
   2   2   9   46.63    2.27
   2   2   9   51.03    2.26
   2   2   9   49.45    2.17
   2   2   9   49.68    2.11
   2   2   9   47.46    2.23
   2   2   9   48.71    2.20
  -3  -2  -9   23.82    1.29
  -3  -2  -9   27.24    1.45
  -3  -2  -9   27.49    1.38
  -3  -2  -9   24.99    1.43
  -3  -2  -9   25.48    1.22
   3   2   9   24.71    1.47
   3   2   9   27.32    1.34
   3   2   9   24.38    1.38
   3   2   9   24.38    1.36
   3   2   9   26.54    1.49
   3   2   9   26.15    1.53
  -4  -2  -9   40.17    1.72
  -4  -2  -9   37.00    1.98
   4   2   9   40.20    1.96
   4   2   9   41.25    2.05
   4   2   9   41.67    1.95
   4   2   9   38.89    1.83
   4   2   9   40.83    1.81
  -5  -2  -9  156.56    6.00
  -5  -2  -9  152.40    6.30
  -5  -2  -9  168.13    5.96
   5   2   9  166.61    6.22
   5   2   9  155.97    6.00
   5   2   9  151.27    6.16
   5   2   9  164.41    6.03
   5   2   9  154.00    6.08
   5   2   9  157.96    6.05
  -6  -2  -9   48.57    2.49
  -6  -2  -9   48.83    2.04
   6   2   9   50.03    2.12
   6   2   9   47.06    2.25
   6   2   9   46.07    2.53
   6   2   9   44.53    2.08
   6   2   9   47.10    2.11
  -7  -2  -9  123.52    5.18
   7   2   9  112.78    5.09
   7   2   9  126.57    5.17
   7   2   9  129.51    4.71
   7   2   9  111.53    4.76
  -8  -2  -9   20.79    2.10
   8   2   9   17.71    2.52
   8   2   9   22.92    2.39
   4  -3  -9    0.85    0.71
   4  -3  -9    1.97    0.84
   4  -3  -9    1.69    0.86
  -4   3   9    1.68    0.78
  -4   3   9    2.86    0.92
  -4   3   9    1.66    0.78
  -4   3   9    1.28    0.82
   3  -3  -9   -0.07    0.63
   3  -3  -9    3.63    0.99
   3  -3  -9    0.29    0.65
   3  -3  -9    0.88    0.83
  -3   3   9    0.36    0.73
  -3   3   9    1.06    0.64
  -3   3   9    1.63    0.73
  -3   3   9    0.50    0.70
   2  -3  -9   33.36    1.80
   2  -3  -9   30.17    1.70
   2  -3  -9   31.66    1.99
   2  -3  -9   34.24    1.76
  -2   3   9   32.57    1.54
  -2   3   9   31.60    1.86
  -2   3   9   34.35    1.75
  -2   3   9   32.45    2.02
  -2   3   9   34.40    1.88
  -2   3   9   31.38    1.81
   1  -3  -9    6.50    1.13
   1  -3  -9    5.29    0.77
   1  -3  -9    6.67    0.91
   1  -3  -9    4.33    0.75
  -1   3   9    5.56    0.80
  -1   3   9    7.23    1.01
  -1   3   9    5.90    1.16
  -1   3   9    6.91    0.98
  -1   3   9    5.32    1.00
   0  -3  -9  276.59   10.56
   0  -3  -9  287.55   10.62
   0  -3  -9  276.24   10.53
   0  -3  -9  283.06   10.66
   0   3   9  301.56   10.68
   0   3   9  298.46   10.67
   0   3   9  279.21   10.46
   0   3   9  270.22   10.58
   0   3   9  285.30   10.61
  -1  -3  -9   15.73    1.04
  -1  -3  -9   15.23    1.22
  -1  -3  -9   14.40    1.17
  -1  -3  -9   14.08    0.95
  -1  -3  -9   15.63    1.07
   1   3   9   16.09    1.05
   1   3   9   15.98    1.26
   1   3   9   14.06    1.14
   1   3   9   14.94    0.86
   1   3   9   15.47    1.10
  -2  -3  -9  285.36   10.63
  -2  -3  -9  291.50   10.78
  -2  -3  -9  281.27   10.69
  -2  -3  -9  276.26   10.75
  -2  -3  -9  287.31   10.71
   2   3   9  291.84   10.69
   2   3   9  289.09   10.58
   2   3   9  293.98   10.73
   2   3   9  289.31   10.71
   2   3   9  309.26   10.81
   2   3   9  279.76   10.72
  -3  -3  -9   14.43    1.06
  -3  -3  -9   16.16    0.91
  -3  -3  -9   14.64    0.82
  -3  -3  -9   13.43    1.12
  -3  -3  -9   15.86    1.03
  -3  -3  -9   15.18    1.03
   3   3   9   14.28    1.16
   3   3   9   17.16    1.16
   3   3   9   15.37    1.03
   3   3   9   13.41    1.17
   3   3   9   15.18    0.97
   3   3   9   13.53    1.02
  -4  -3  -9  115.09    4.37
  -4  -3  -9  107.60    4.54
  -4  -3  -9  110.64    4.19
   4   3   9  115.62    4.36
   4   3   9  109.47    4.38
   4   3   9  111.51    4.43
   4   3   9  108.92    4.41
   4   3   9  114.73    4.44
  -5  -3  -9   37.28    1.85
  -5  -3  -9   37.17    1.77
  -5  -3  -9   37.18    1.58
  -5  -3  -9   34.10    1.99
   5   3   9   36.53    1.87
   5   3   9   34.10    1.96
   5   3   9   39.42    1.74
   5   3   9   37.56    1.89
   5   3   9   39.08    2.01
   5   3   9   40.15    1.80
  -6  -3  -9   17.14    1.45
   6   3   9   15.23    1.32
   6   3   9   14.01    1.34
   6   3   9   16.02    1.16
   6   3   9   13.13    1.54
   6   3   9   16.18    1.18
   6   3   9   16.42    1.11
  -7  -3  -9   40.13    2.35
   7   3   9   36.23    2.14
   7   3   9   39.25    1.91
   7   3   9   38.91    3.70
   7   3   9   37.47    2.33
   4  -4  -9    0.45    0.89
   4  -4  -9   -0.32    0.88
  -4   4   9    0.82    0.95
  -4   4   9    1.80    0.81
  -4   4   9    0.28    0.85
   3  -4  -9   63.35    2.96
   3  -4  -9   66.28    3.07
   3  -4  -9   63.22    2.97
  -3   4   9   64.72    3.10
  -3   4   9   67.23    3.10
  -3   4   9   66.47    3.07
   2  -4  -9   -0.27    0.76
   2  -4  -9   -0.52    0.51
   2  -4  -9   -0.34    0.49
   2  -4  -9   -0.10    0.56
  -2   4   9   -0.27    0.63
  -2   4   9    0.14    0.47
  -2   4   9   -0.22    0.60
  -2   4   9    0.01    0.61
  -2   4   9    0.07    0.62
  -2   4   9    0.56    0.80
   1  -4  -9   35.05    1.71
   1  -4  -9   27.63    1.73
   1  -4  -9   31.76    1.70
   1  -4  -9   33.85    1.94
  -1   4   9   32.25    1.64
  -1   4   9   36.04    1.77
  -1   4   9   34.84    1.84
  -1   4   9   34.58    1.92
  -1   4   9   29.44    1.80
  -1   4   9   35.64    1.81
   0  -4  -9   12.61    1.26
   0  -4  -9   13.46    1.30
   0  -4  -9   13.97    0.98
   0  -4  -9   14.02    1.08
   0  -4  -9   12.48    0.98
   0   4   9   14.85    1.14
   0   4   9   14.06    1.04
   0   4   9   12.25    1.19
   0   4   9   14.39    1.09
   0   4   9   13.75    1.22
  -1  -4  -9    0.23    0.89
  -1  -4  -9    0.50    0.42
  -1  -4  -9    0.35    0.37
  -1  -4  -9    0.80    0.43
  -1  -4  -9    0.36    0.51
   1   4   9   -0.08    0.38
   1   4   9   -0.54    0.50
   1   4   9    0.15    0.40
   1   4   9   -0.48    0.34
   1   4   9    0.66    0.47
   1   4   9   -0.21    0.53
  -2  -4  -9   18.99    1.06
  -2  -4  -9   17.70    1.14
  -2  -4  -9   17.34    1.17
  -2  -4  -9   17.76    1.28
  -2  -4  -9   17.81    1.23
   2   4   9   18.30    1.19
   2   4   9   18.46    1.12
   2   4   9   17.33    1.23
   2   4   9   18.79    1.30
   2   4   9   18.41    1.04
   2   4   9   18.20    1.27
  -3  -4  -9   54.18    2.26
  -3  -4  -9   49.85    2.41
  -3  -4  -9   53.01    2.46
  -3  -4  -9   55.47    2.35
  -3  -4  -9   55.36    2.35
   3   4   9   52.98    2.44
   3   4   9   52.96    2.38
   3   4   9   53.44    2.32
   3   4   9   55.17    2.34
   3   4   9   57.85    2.50
   3   4   9   52.53    2.39
  -4  -4  -9   27.07    1.38
  -4  -4  -9   29.03    1.48
  -4  -4  -9   29.22    1.32
  -4  -4  -9   29.16    1.62
   4   4   9   28.38    1.62
   4   4   9   26.99    1.41
   4   4   9   26.14    1.57
   4   4   9   26.43    1.46
   4   4   9   28.97    1.60
  -5  -4  -9   41.44    2.27
  -5  -4  -9   45.72    2.05
   5   4   9   46.43    2.04
   5   4   9   49.79    2.12
   5   4   9   44.31    2.21
   5   4   9   45.15    2.17
   5   4   9   45.63    2.18
  -6  -4  -9   22.27    1.39
  -6  -4  -9   22.87    1.75
   6   4   9   23.79    1.66
   6   4   9   24.19    1.34
   6   4   9   22.50    1.40
   6   4   9   24.52    1.71
   6   4   9   22.80    1.43
   6   4   9   23.78    1.66
  -7  -4  -9    1.04    0.81
   7   4   9    1.72    1.23
   7   4   9    1.37    1.47
   7   4   9    1.75    0.70
   3  -5  -9    1.46    0.80
   3  -5  -9    2.48    0.85
   3  -5  -9    2.35    0.75
  -3   5   9    5.63    1.32
  -3   5   9    2.93    0.93
  -3   5   9    2.70    0.94
   2  -5  -9   75.07    3.19
   2  -5  -9   74.65    3.44
   2  -5  -9   71.76    3.24
   2  -5  -9   70.37    3.19
  -2   5   9   72.23    3.31
  -2   5   9   75.30    3.31
  -2   5   9   70.64    3.28
   1  -5  -9    2.55    0.61
   1  -5  -9    3.37    0.82
   1  -5  -9    2.11    0.77
   1  -5  -9    2.88    0.64
  -1   5   9    3.25    0.75
  -1   5   9    5.12    1.05
  -1   5   9    2.04    0.85
  -1   5   9    1.57    0.64
   0  -5  -9   32.54    1.87
   0  -5  -9   31.02    1.89
   0  -5  -9   33.96    1.73
   0  -5  -9   32.47    1.62
   0  -5  -9   30.94    1.61
   0   5   9   29.16    1.77
   0   5   9   30.86    1.70
   0   5   9   32.25    1.78
   0   5   9   31.64    1.87
   0   5   9   32.95    1.73
   0   5   9   28.52    1.78
  -1  -5  -9    0.80    0.59
  -1  -5  -9    0.89    0.47
  -1  -5  -9    0.90    0.47
  -1  -5  -9    0.85    0.41
   1   5   9    0.13    0.42
   1   5   9    0.07    0.50
   1   5   9    1.58    0.64
   1   5   9    0.66    0.41
   1   5   9    0.75    0.61
   1   5   9    0.13    0.50
  -2  -5  -9   11.82    1.08
  -2  -5  -9   12.19    1.03
  -2  -5  -9   12.02    0.91
   2   5   9   14.20    1.03
   2   5   9   13.12    1.26
   2   5   9   12.51    1.21
   2   5   9   14.51    1.10
   2   5   9   10.46    1.20
   2   5   9   11.89    0.90
  -3  -5  -9    1.47    0.65
  -3  -5  -9    0.86    0.44
  -3  -5  -9    0.32    0.43
  -3  -5  -9    0.75    0.38
  -3  -5  -9    0.19    0.50
   3   5   9    0.46    0.54
   3   5   9    0.50    0.59
   3   5   9    1.50    0.63
   3   5   9    0.47    0.43
   3   5   9    0.48    0.46
   3   5   9   -0.43    0.61
  -4  -5  -9   54.02    2.36
  -4  -5  -9   47.61    2.45
  -4  -5  -9   51.38    2.28
  -4  -5  -9   55.59    2.21
   4   5   9   53.87    2.39
   4   5   9   51.83    2.47
   4   5   9   53.41    2.49
   4   5   9   52.36    2.36
   4   5   9   54.44    2.34
   4   5   9   51.70    2.41
  -5  -5  -9    0.00    0.53
  -5  -5  -9    0.40    0.50
   5   5   9    0.27    0.47
   5   5   9    0.19    0.64
   5   5   9    0.68    0.68
   5   5   9   -0.38    0.51
   5   5   9    0.53    0.69
  -6  -5  -9   68.85    3.32
   6   5   9   71.96    3.01
   6   5   9   67.98    3.21
   6   5   9   70.27    2.93
  -7  -5  -9    1.45    0.96
   7   5   9    0.39    0.68
   7   5   9    0.70    0.61
   3  -6  -9    0.28    1.05
   3  -6  -9   -0.65    0.73
   3  -6  -9    0.38    0.79
  -3   6   9    0.05    1.01
  -3   6   9    1.43    0.98
   2  -6  -9    3.51    0.80
   2  -6  -9    5.14    0.95
   2  -6  -9    3.91    1.13
  -2   6   9    4.05    0.87
  -2   6   9    3.59    0.93
  -2   6   9    5.00    1.12
  -2   6   9    5.61    1.35
   1  -6  -9   20.10    1.35
   1  -6  -9   18.49    1.38
   1  -6  -9   21.46    1.51
   1  -6  -9   20.18    1.22
  -1   6   9   19.04    1.61
  -1   6   9   22.06    1.54
  -1   6   9   19.64    1.78
  -1   6   9   17.01    1.45
  -1   6   9   20.81    1.63
   0  -6  -9   14.65    1.27
   0  -6  -9   14.32    0.89
   0  -6  -9   13.00    1.07
   0  -6  -9   14.58    1.11
   0   6   9   13.20    1.28
   0   6   9   10.18    1.19
   0   6   9   13.69    1.47
   0   6   9   14.59    1.31
   0   6   9   12.57    1.37
  -1  -6  -9    7.03    0.88
  -1  -6  -9    7.63    1.09
  -1  -6  -9    9.58    0.91
  -1  -6  -9    7.51    1.37
  -1  -6  -9    7.39    1.31
  -1  -6  -9    7.40    0.60
   1   6   9    7.84    1.09
   1   6   9    9.12    1.28
   1   6   9    8.93    1.25
   1   6   9    7.59    1.20
   1   6   9    9.50    1.14
   1   6   9    9.86    1.07
  -2  -6  -9    6.65    1.00
  -2  -6  -9    6.09    0.78
  -2  -6  -9    6.27    0.83
  -2  -6  -9    5.39    1.23
   2   6   9    4.65    1.16
   2   6   9    4.03    1.08
   2   6   9    5.60    0.97
   2   6   9    4.78    1.18
   2   6   9    5.42    0.91
  -3  -6  -9   13.05    1.12
  -3  -6  -9   12.73    1.11
  -3  -6  -9    7.84    1.20
  -3  -6  -9   10.81    0.93
   3   6   9   12.00    1.29
   3   6   9   11.77    1.07
   3   6   9   13.31    1.20
   3   6   9   13.30    1.14
  -4  -6  -9    0.34    0.53
  -4  -6  -9    0.00    0.50
  -4  -6  -9    0.59    0.54
  -4  -6  -9    0.65    0.40
   4   6   9   -0.94    0.68
   4   6   9   -0.22    0.53
   4   6   9    0.01    0.66
   4   6   9   -0.50    0.72
   4   6   9    0.25    0.45
   4   6   9    0.13    0.69
  -5  -6  -9   35.06    2.06
   5   6   9   37.77    1.93
   5   6   9   35.36    1.83
  -6  -6  -9   -0.47    0.73
   6   6   9    1.28    0.60
   6   6   9   -0.64    0.65
   2  -7  -9   17.13    1.53
   2  -7  -9   17.97    1.70
   2  -7  -9   18.11    1.66
  -2   7   9   14.37    1.76
  -2   7   9   14.36    1.83
  -2   7   9   16.61    1.95
   1  -7  -9    0.41    0.66
   1  -7  -9    0.54    1.04
   1  -7  -9    1.31    0.59
   1  -7  -9   -0.85    0.72
   1  -7  -9    1.71    0.73
  -1   7   9    0.87    0.91
  -1   7   9    1.27    0.80
  -1   7   9    0.57    0.76
   0  -7  -9  132.84    4.99
   0  -7  -9  124.76    4.95
   0  -7  -9  123.86    5.04
   0  -7  -9  114.19    5.13
   0  -7  -9  105.63    4.65
   0   7   9  132.70    5.15
   0   7   9  132.34    5.08
   0   7   9  120.37    5.06
   0   7   9  122.91    5.11
  -1  -7  -9    2.02    0.59
  -1  -7  -9    3.16    0.87
  -1  -7  -9    2.45    0.68
  -1  -7  -9    2.59    0.86
   1   7   9    1.49    0.66
   1   7   9    1.16    0.74
   1   7   9    1.10    0.77
   1   7   9    0.49    0.84
   1   7   9    1.88    0.78
  -2  -7  -9  180.85    7.14
  -2  -7  -9  186.11    7.37
  -2  -7  -9  196.27    7.30
  -2  -7  -9  189.18    7.16
   2   7   9  176.33    7.18
   2   7   9  181.25    7.35
   2   7   9  198.76    7.34
   2   7   9  195.39    7.28
  -3  -7  -9    1.21    0.51
  -3  -7  -9    1.43    0.64
  -3  -7  -9    1.47    0.56
  -3  -7  -9    1.70    0.57
  -3  -7  -9    2.30    0.85
   3   7   9    1.35    0.57
   3   7   9    2.50    0.82
   3   7   9    0.77    0.68
   3   7   9    2.47    0.88
  -4  -7  -9   56.28    2.61
  -4  -7  -9   54.50    2.41
  -4  -7  -9   59.43    2.52
  -4  -7  -9   51.37    2.57
  -4  -7  -9   53.14    2.67
   4   7   9   61.04    2.60
   4   7   9   55.16    2.62
  -5  -7  -9    4.37    0.89
  -5  -7  -9    5.46    1.10
   5   7   9    4.22    0.88
   5   7   9    3.28    0.73
  -6  -7  -9    1.93    0.87
  -6  -7  -9    2.55    0.88
   6   7   9    2.46    0.76
   6   7   9    6.66    1.45
   1  -8  -9   72.26    3.37
   1  -8  -9   75.22    3.51
   1  -8  -9   72.31    3.37
  -1   8   9   77.63    3.50
  -1   8   9   67.64    3.49
  -1   8   9   74.53    3.70
   0  -8  -9    7.94    1.25
   0  -8  -9   13.35    2.38
   0  -8  -9   12.34    1.36
   0  -8  -9   10.15    1.50
   0   8   9   10.99    1.53
   0   8   9   12.80    1.80
   0   8   9   10.71    1.49
   0   8   9    6.19    1.63
  -1  -8  -9   15.84    1.38
  -1  -8  -9   16.30    1.38
  -1  -8  -9   15.19    1.58
   1   8   9   16.12    2.02
   1   8   9   18.38    1.70
   1   8   9   20.47    1.58
   1   8   9   15.97    1.81
  -2  -8  -9   39.03    2.12
  -2  -8  -9   34.73    1.87
  -2  -8  -9   31.64    1.83
  -2  -8  -9   33.47    1.75
   2   8   9   36.44    2.11
   2   8   9   36.82    2.03
   2   8   9   35.78    2.12
   2   8   9   35.86    2.42
  -3  -8  -9   -0.36    0.55
  -3  -8  -9    0.17    0.73
  -3  -8  -9    1.54    0.62
  -3  -8  -9   -0.31    0.58
   3   8   9    0.40    0.76
   3   8   9    0.31    0.87
   3   8   9    0.30    0.72
  -4  -8  -9   42.80    2.04
  -4  -8  -9   43.59    2.14
  -4  -8  -9   37.12    2.32
   4   8   9   43.87    2.33
   4   8   9   43.88    2.24
  -5  -8  -9   19.55    1.58
  -5  -8  -9   18.00    1.74
   5   8   9   16.66    1.52
   5   8   9   18.60    1.75
  -1  -9  -9    9.92    1.15
  -1  -9  -9   11.54    1.43
  -1  -9  -9    8.36    1.69
  -1  -9  -9   10.00    1.42
   1   9   9   10.15    1.58
   1   9   9    5.72    1.44
   1   9   9    8.64    1.76
  -2  -9  -9   16.35    1.49
  -2  -9  -9   14.32    1.43
  -2  -9  -9   15.47    1.29
  -2  -9  -9   15.43    1.74
   2   9   9   14.91    1.67
   2   9   9   13.80    1.77
  -3  -9  -9    8.61    1.21
  -3  -9  -9   11.05    1.26
  -3  -9  -9    6.72    1.42
   3   9   9    6.55    1.52
   3   9   9    6.21    1.56
   0   7 -10    3.13    1.25
   0   7 -10    6.10    1.56
   0  -7  10    2.01    0.99
   0  -7  10    4.52    1.24
   0  -7  10    2.32    1.03
   0  -7  10    4.49    0.97
  -1   7 -10   28.77    1.95
  -1   7 -10   29.28    2.44
  -1   7 -10   27.55    2.02
   1  -7  10   31.59    2.20
   1  -7  10   28.03    2.29
   1  -7  10   30.32    1.82
   1  -7  10   27.02    2.17
  -2   7 -10    8.99    1.34
  -2   7 -10    9.75    1.44
   2  -7  10    8.43    1.77
   2  -7  10    8.66    1.69
   2  -7  10    9.77    1.75
   2  -7  10    8.64    1.81
  -3   7 -10    0.17    0.71
  -3   7 -10    1.67    0.80
   3  -7  10   -1.58    1.02
   3  -7  10    0.17    0.91
   3  -7  10    1.25    0.88
   1   6 -10    2.63    0.94
   1   6 -10    2.58    1.02
  -1  -6  10    4.35    1.07
  -1  -6  10    3.59    0.88
  -1  -6  10    2.72    1.09
  -1  -6  10    3.91    1.02
   0   6 -10   17.06    1.86
   0   6 -10   12.58    1.59
   0  -6  10   12.84    1.67
   0  -6  10   15.37    1.48
   0  -6  10   17.18    1.89
   0  -6  10   15.08    1.56
   0  -6  10   13.39    2.46
  -1   6 -10    5.42    1.27
  -1   6 -10    6.06    1.11
   1  -6  10    7.40    1.53
   1  -6  10    3.97    0.93
   1  -6  10    6.05    1.36
   1  -6  10    4.49    1.03
   1  -6  10    4.28    1.19
  -2   6 -10   62.46    3.05
  -2   6 -10   60.97    2.79
  -2   6 -10   57.08    2.83
   2  -6  10   62.12    3.00
   2  -6  10   52.71    2.98
   2  -6  10   65.47    3.02
   2  -6  10   55.00    3.06
  -3   6 -10   12.32    1.41
  -3   6 -10    9.02    1.20
   3  -6  10   11.04    1.66
   3  -6  10    9.41    1.51
   3  -6  10   10.15    1.39
  -4   6 -10   68.56    3.31
  -4   6 -10   77.23    3.05
   4  -6  10   76.08    3.46
   4  -6  10   66.52    3.31
   4  -6  10   73.48    3.51
  -5   6 -10   13.00    2.00
   5  -6  10   14.07    1.83
   2   5 -10   -0.14    0.84
   2   5 -10    1.76    1.06
  -2  -5  10    1.52    1.03
  -2  -5  10    0.11    0.90
  -2  -5  10    0.67    0.87
   1   5 -10   48.57    3.30
   1   5 -10   43.07    2.53
   1   5 -10   50.94    2.78
  -1  -5  10   44.78    2.58
  -1  -5  10   49.32    2.35
  -1  -5  10   51.80    2.81
  -1  -5  10   53.62    2.51
  -1  -5  10   41.68    3.25
   0   5 -10    0.52    1.20
   0   5 -10    0.57    0.76
   0   5 -10   -0.70    0.64
   0  -5  10    0.78    0.71
   0  -5  10    0.80    1.12
   0  -5  10    0.45    0.74
   0  -5  10   -0.73    0.66
   0  -5  10   -0.12    0.68
  -1   5 -10    1.72    0.82
  -1   5 -10    1.96    0.66
   1  -5  10    1.26    0.69
   1  -5  10    4.87    1.22
   1  -5  10   -0.13    1.01
   1  -5  10    1.75    0.78
  -2   5 -10    0.30    0.56
  -2   5 -10    0.81    0.55
  -2   5 -10    0.17    0.67
  -2   5 -10    0.06    0.84
   2  -5  10   -0.91    0.87
   2  -5  10    0.41    0.63
   2  -5  10    0.29    0.78
   2  -5  10    0.62    0.67
  -3   5 -10   20.56    1.54
  -3   5 -10   21.12    1.43
  -3   5 -10   20.66    1.71
   3  -5  10   22.26    1.65
   3  -5  10   25.60    1.77
   3  -5  10   24.73    1.95
   3  -5  10   23.53    1.67
   3  -5  10   23.95    2.15
  -4   5 -10    1.03    0.50
  -4   5 -10   -0.09    0.50
  -4   5 -10   -0.24    0.71
   4  -5  10    0.16    0.68
   4  -5  10    0.24    0.63
   4  -5  10   -0.27    0.84
  -5   5 -10   37.43    2.19
   5  -5  10   39.60    2.26
   5  -5  10   41.00    2.41
   5  -5  10   33.91    2.03
   3   4 -10    0.89    1.19
  -3  -4  10    3.52    1.02
  -3  -4  10    6.88    1.61
   2   4 -10  115.94    4.99
   2   4 -10  101.91    5.35
   2   4 -10  109.41    4.73
  -2  -4  10  111.87    4.65
  -2  -4  10  109.19    4.93
  -2  -4  10  115.12    4.74
   1   4 -10    3.83    0.96
   1   4 -10    9.40    2.24
   1   4 -10    3.02    0.94
   1   4 -10    7.15    1.25
  -1  -4  10    5.37    1.44
  -1  -4  10    5.82    1.21
  -1  -4  10    3.34    1.03
  -1  -4  10    4.97    1.09
  -1  -4  10    6.16    1.35
   0   4 -10   50.55    2.57
   0   4 -10   54.39    2.79
   0   4 -10   51.78    2.42
   0   4 -10   49.29    3.06
   0  -4  10   57.21    3.09
   0  -4  10   53.82    2.52
   0  -4  10   53.95    2.67
   0  -4  10   55.59    2.77
  -1   4 -10    3.66    0.97
  -1   4 -10    3.52    0.65
  -1   4 -10    2.59    1.04
  -1   4 -10    4.18    0.81
  -1   4 -10    2.93    0.90
   1  -4  10    2.78    0.78
   1  -4  10    3.16    0.78
   1  -4  10    4.31    1.08
   1  -4  10    5.04    1.05
  -2   4 -10   46.65    2.47
  -2   4 -10   50.98    2.38
  -2   4 -10   47.33    2.32
  -2   4 -10   47.49    2.26
   2  -4  10   45.70    2.41
   2  -4  10   48.72    2.39
   2  -4  10   48.81    2.67
   2  -4  10   48.47    2.42
  -3   4 -10    6.59    1.15
  -3   4 -10    5.91    0.96
  -3   4 -10    5.75    1.09
  -3   4 -10    6.81    1.13
  -3   4 -10    7.57    0.94
   3  -4  10    9.05    1.26
   3  -4  10    5.21    1.08
   3  -4  10    5.53    1.49
   3  -4  10    5.32    1.04
   3  -4  10    5.31    1.08
  -4   4 -10    0.20    0.64
  -4   4 -10    1.88    0.62
   4  -4  10    1.34    0.85
   4  -4  10    1.05    1.04
   4  -4  10    0.95    0.62
   4  -4  10    0.41    0.57
   4  -4  10    0.58    0.80
  -5   4 -10    4.72    1.09
   5  -4  10    3.68    0.78
   5  -4  10    4.93    1.22
   5  -4  10    3.21    1.01
   5  -4  10    2.61    0.69
  -6   4 -10   11.11    1.55
   6  -4  10   12.62    1.50
   6  -4  10   10.97    1.27
   6  -4  10   13.08    1.82
   3   3 -10   41.53    2.85
   3   3 -10   39.28    2.53
  -3  -3  10   47.32    2.52
  -3  -3  10   50.88    2.94
  -3  -3  10   47.45    2.50
   2   3 -10    9.09    1.11
   2   3 -10   10.32    1.35
   2   3 -10   12.87    1.71
   2   3 -10    9.65    2.42
  -2  -3  10    8.74    1.43
  -2  -3  10   10.73    1.41
  -2  -3  10   11.39    1.80
   1   3 -10    9.15    1.05
   1   3 -10   10.81    1.46
   1   3 -10   11.27    2.04
   1   3 -10    8.92    1.21
  -1  -3  10    8.57    2.05
  -1  -3  10   10.21    1.13
  -1  -3  10   10.90    1.31
  -1  -3  10   10.60    1.57
   0   3 -10   21.01    1.32
   0   3 -10   22.13    1.67
   0   3 -10   21.08    2.03
   0   3 -10   17.66    1.40
   0  -3  10   19.23    1.49
   0  -3  10   24.30    2.08
   0  -3  10   20.88    1.41
   0  -3  10   15.79    1.61
  -1   3 -10    5.67    1.23
  -1   3 -10    7.27    1.37
  -1   3 -10    8.44    1.04
  -1   3 -10    7.87    1.00
  -1   3 -10    7.45    1.57
   1  -3  10    7.32    1.08
   1  -3  10    8.07    1.14
   1  -3  10    9.79    1.22
   1  -3  10    5.84    1.33
   1  -3  10    6.15    1.50
   1  -3  10    5.77    1.60
  -2   3 -10   22.15    1.40
  -2   3 -10   23.88    1.52
  -2   3 -10   20.94    1.77
  -2   3 -10   23.95    1.61
   2  -3  10   24.31    1.57
   2  -3  10   24.72    1.57
   2  -3  10   24.95    1.83
   2  -3  10   23.51    1.57
   2  -3  10   23.22    1.80
  -3   3 -10   15.29    1.24
  -3   3 -10   13.18    1.27
  -3   3 -10   15.13    1.03
  -3   3 -10   11.18    1.07
  -3   3 -10   14.11    1.16
   3  -3  10   11.84    1.20
   3  -3  10   14.02    1.50
   3  -3  10   11.99    1.22
   3  -3  10   14.80    1.31
   3  -3  10   14.94    1.68
  -4   3 -10   25.12    1.67
  -4   3 -10   24.43    1.56
  -4   3 -10   26.02    1.26
  -4   3 -10   24.45    1.31
  -4   3 -10   24.28    1.52
   4  -3  10   23.80    1.71
   4  -3  10   23.92    1.55
   4  -3  10   24.98    1.78
   4  -3  10   25.37    1.56
   4  -3  10   24.83    1.98
  -5   3 -10    3.53    0.70
  -5   3 -10    3.36    0.79
  -5   3 -10    4.41    1.09
   5  -3  10    5.34    1.13
   5  -3  10    3.25    0.92
   5  -3  10    4.03    1.01
   5  -3  10    8.31    1.59
   5  -3  10    5.32    1.32
  -6   3 -10   19.75    1.62
   6  -3  10   18.40    1.94
   6  -3  10   18.81    1.49
   6  -3  10   15.17    1.30
   6  -3  10   17.16    1.82
   3   2 -10   10.36    1.48
   3   2 -10    9.52    1.42
   3   2 -10   10.59    1.84
  -3  -2  10    9.53    1.49
  -3  -2  10   11.64    1.47
  -3  -2  10    9.44    2.01
   2   2 -10    1.45    0.80
   2   2 -10   -0.26    0.60
   2   2 -10   -0.04    1.08
   2   2 -10   -0.14    0.49
  -2  -2  10   -0.61    0.88
  -2  -2  10   -0.63    0.67
  -2  -2  10    1.78    0.73
   1   2 -10   22.62    1.96
   1   2 -10   21.09    1.67
   1   2 -10   19.69    1.45
   1   2 -10   18.50    1.25
  -1  -2  10   18.37    1.52
  -1  -2  10   23.27    1.80
  -1  -2  10   19.51    1.35
  -1  -2  10   18.27    2.19
   0   2 -10   61.34    2.67
   0   2 -10   58.39    2.72
   0   2 -10   62.51    2.93
   0   2 -10   59.59    2.98
   0   2 -10   60.39    3.11
   0  -2  10   64.39    3.19
   0  -2  10   57.90    2.80
   0  -2  10   60.36    2.70
   0  -2  10   64.40    2.96
  -1   2 -10   29.28    1.61
  -1   2 -10   28.46    1.97
  -1   2 -10   28.74    1.60
  -1   2 -10   32.44    1.85
   1  -2  10   25.48    1.95
   1  -2  10   33.87    2.11
   1  -2  10   28.74    1.69
   1  -2  10   27.06    1.80
   1  -2  10   28.98    1.65
  -2   2 -10  123.15    5.04
  -2   2 -10  124.48    4.98
  -2   2 -10  127.52    4.91
  -2   2 -10  120.39    5.01
  -2   2 -10  121.64    4.85
   2  -2  10  126.99    4.95
   2  -2  10  129.03    5.11
   2  -2  10  116.93    5.07
   2  -2  10  117.23    4.94
   2  -2  10  125.68    5.01
  -3   2 -10   36.77    1.76
  -3   2 -10   33.08    1.85
  -3   2 -10   35.61    1.73
  -3   2 -10   36.06    1.69
  -3   2 -10   33.45    1.97
  -3   2 -10   35.09    1.89
   3  -2  10   35.64    1.91
   3  -2  10   34.11    1.90
   3  -2  10   31.26    2.17
   3  -2  10   31.54    2.12
   3  -2  10   34.14    1.82
   3  -2  10   35.12    2.04
  -4   2 -10  141.45    5.60
  -4   2 -10  139.21    5.40
  -4   2 -10  133.12    5.49
  -4   2 -10  139.22    5.16
   4  -2  10  122.44    5.39
   4  -2  10  142.54    5.53
   4  -2  10  147.29    5.45
   4  -2  10  138.94    5.54
   4  -2  10  144.76    5.50
   4  -2  10  123.74    5.62
  -5   2 -10   33.88    1.82
  -5   2 -10   33.72    2.02
  -5   2 -10   35.93    1.83
   5  -2  10   37.33    2.08
   5  -2  10   34.19    1.95
   5  -2  10   38.23    1.90
   5  -2  10   29.91    2.13
   5  -2  10   32.46    1.80
  -6   2 -10   72.22    3.20
  -6   2 -10   69.37    3.44
   6  -2  10   76.65    3.20
   6  -2  10   68.02    3.06
   6  -2  10   74.46    3.41
   6  -2  10   72.28    3.40
   6  -2  10   76.61    3.47
  -7   2 -10   32.31    2.04
   7  -2  10   34.87    2.03
   7  -2  10   34.14    2.45
   3   1 -10   86.25    3.49
   3   1 -10   89.20    4.11
  -3  -1  10   79.85    3.76
  -3  -1  10   79.87    3.72
  -3  -1  10   92.18    4.17
   2   1 -10    2.97    1.09
   2   1 -10    2.32    0.80
   2   1 -10    2.78    0.56
  -2  -1  10    2.77    1.01
  -2  -1  10    2.79    0.79
  -2  -1  10    1.84    1.19
   1   1 -10  171.03    6.17
   1   1 -10  144.22    6.47
   1   1 -10  141.61    6.36
  -1  -1  10  167.23    6.55
  -1  -1  10  166.07    6.14
  -1  -1  10  164.21    6.48
  -1  -1  10  165.12    6.36
   0   1 -10    6.96    0.89
   0   1 -10    9.51    1.42
   0   1 -10    6.44    1.41
   0   1 -10    6.78    1.18
   0   1 -10    7.80    0.92
   0  -1  10    7.73    1.21
   0  -1  10    5.94    1.08
   0  -1  10    8.29    1.12
   0  -1  10    9.48    1.58
  -1   1 -10  109.57    4.74
  -1   1 -10  108.52    4.51
  -1   1 -10  124.08    4.73
  -1   1 -10  120.01    4.58
   1  -1  10  116.13    4.65
   1  -1  10  113.97    4.69
   1  -1  10   99.10    4.72
   1  -1  10  120.48    4.60
  -2   1 -10   35.75    2.00
  -2   1 -10   33.98    1.83
  -2   1 -10   36.94    1.74
  -2   1 -10   32.88    1.91
  -2   1 -10   38.07    1.86
   2  -1  10   36.45    2.06
   2  -1  10   33.59    1.86
   2  -1  10   32.07    2.06
   2  -1  10   37.37    1.88
   2  -1  10   34.75    1.89
  -3   1 -10    1.25    0.67
  -3   1 -10    0.47    0.37
  -3   1 -10    1.35    0.43
  -3   1 -10    0.98    0.47
  -3   1 -10    2.19    0.55
  -3   1 -10    0.99    0.48
   3  -1  10    0.23    0.66
   3  -1  10   -0.17    0.77
   3  -1  10    0.64    0.63
   3  -1  10   -1.79    0.88
   3  -1  10    0.00    0.52
   3  -1  10    0.77    0.54
  -4   1 -10   26.57    1.69
  -4   1 -10   20.07    2.29
  -4   1 -10   29.71    1.48
   4  -1  10   25.19    1.70
   4  -1  10   26.41    1.67
   4  -1  10   24.36    1.74
   4  -1  10   23.88    1.84
   4  -1  10   27.77    1.56
   4  -1  10   27.46    2.01
   4  -1  10   23.73    1.54
  -5   1 -10   16.52    1.31
  -5   1 -10   19.39    1.23
  -5   1 -10   17.38    1.48
   5  -1  10   16.11    1.31
   5  -1  10   16.33    1.44
   5  -1  10   19.22    1.57
   5  -1  10   16.07    1.32
   5  -1  10   19.56    1.72
  -6   1 -10   42.77    2.03
  -6   1 -10   37.55    2.25
   6  -1  10   36.36    2.03
   6  -1  10   43.23    2.39
   6  -1  10   39.37    1.96
   6  -1  10   37.47    1.91
   6  -1  10   37.76    2.38
  -7   1 -10   22.05    1.61
  -7   1 -10   22.47    2.00
   7  -1  10   22.78    1.69
   7  -1  10   23.75    2.13
   3   0 -10    0.33    0.91
   3   0 -10    0.34    0.59
   3   0 -10   -0.54    0.67
  -3   0  10    2.07    0.77
  -3   0  10    1.33    0.82
  -3   0  10    1.01    1.08
   2   0 -10    4.69    0.89
   2   0 -10    4.65    1.22
   2   0 -10    3.81    1.02
   2   0 -10    5.50    1.26
  -2   0  10    3.24    1.11
  -2   0  10    3.82    0.84
  -2   0  10    3.20    0.94
   1   0 -10    4.62    0.82
   1   0 -10    6.58    0.92
   1   0 -10    4.60    1.10
   1   0 -10    4.98    1.09
  -1   0  10    4.59    1.06
  -1   0  10    3.94    0.85
  -1   0  10    4.04    1.08
  -1   0  10    6.25    1.08
  -1   0  10    2.47    0.80
   0   0 -10   37.86    1.81
   0   0 -10   34.06    1.80
   0   0 -10   39.44    2.02
   0   0 -10   34.38    2.13
   0   0 -10   38.17    2.20
   0   0  10   38.77    2.05
   0   0  10   35.30    1.88
   0   0  10   36.65    1.97
   0   0  10   37.59    2.25
  -1   0 -10   23.42    1.64
  -1   0 -10   21.18    1.32
  -1   0 -10   22.56    1.46
   1   0  10   22.88    1.49
   1   0  10   22.22    1.72
   1   0  10   22.16    1.40
   1   0  10   24.08    1.38
   1   0  10   21.11    1.45
  -2   0 -10    2.36    0.57
  -2   0 -10    2.74    0.79
  -2   0 -10    2.96    0.72
  -2   0 -10    3.28    0.74
  -2   0 -10    2.52    0.62
   2   0  10    1.98    0.79
   2   0  10    3.01    0.82
   2   0  10    2.61    0.68
   2   0  10    3.09    0.86
   2   0  10    2.45    0.75
   2   0  10    2.81    0.66
   2   0  10    2.76    0.62
  -3   0 -10   20.68    1.21
  -3   0 -10   21.49    1.52
  -3   0 -10   21.77    1.37
  -3   0 -10   21.68    1.21
  -3   0 -10   19.94    1.38
  -3   0 -10   20.37    1.24
   3   0  10   19.47    1.34
   3   0  10   21.51    1.37
   3   0  10   23.34    1.60
   3   0  10   21.54    1.52
   3   0  10   20.71    1.41
   3   0  10   19.75    1.63
  -4   0 -10    1.38    0.45
  -4   0 -10    1.21    0.40
  -4   0 -10    1.91    0.38
  -4   0 -10    0.69    0.52
  -4   0 -10    1.33    0.75
   4   0  10    1.53    0.59
   4   0  10    0.50    0.50
   4   0  10    1.53    0.77
   4   0  10    1.59    0.81
   4   0  10    1.90    0.71
   4   0  10    1.26    0.67
   4   0  10    1.02    1.00
  -5   0 -10   19.84    1.54
  -5   0 -10   20.84    1.23
  -5   0 -10   19.90    1.35
   5   0  10   16.25    1.35
   5   0  10   22.16    1.49
   5   0  10   17.56    1.31
   5   0  10   19.43    1.60
   5   0  10   18.19    2.01
   5   0  10   17.26    1.67
  -6   0 -10   38.31    1.88
  -6   0 -10   36.56    2.19
   6   0  10   32.82    2.51
   6   0  10   36.44    2.30
   6   0  10   36.32    2.21
   6   0  10   38.67    1.92
   6   0  10   33.12    1.86
   6   0  10   36.69    1.85
  -7   0 -10   18.88    1.81
  -7   0 -10   17.35    1.39
   7   0  10   17.28    1.52
   7   0  10   17.26    2.04
   3  -1 -10   12.09    1.38
   3  -1 -10   12.38    1.64
   3  -1 -10    8.69    1.18
  -3   1  10    9.67    1.50
  -3   1  10   11.62    1.38
  -3   1  10   11.28    1.89
   2  -1 -10    0.63    0.97
   2  -1 -10    1.30    0.62
   2  -1 -10    1.59    0.71
  -2   1  10    0.02    1.00
  -2   1  10    2.62    0.86
  -2   1  10    1.98    0.76
   1  -1 -10    1.70    0.95
   1  -1 -10    1.74    0.52
   1  -1 -10    2.17    0.53
   1  -1 -10    0.36    0.55
  -1   1  10    0.28    0.69
  -1   1  10    0.67    0.60
  -1   1  10    1.38    0.90
  -1   1  10    1.39    0.72
  -1   1  10    1.54    0.67
   0  -1 -10    0.53    0.42
   0  -1 -10   -0.15    0.71
   0  -1 -10   -0.24    0.74
   0  -1 -10    0.93    0.47
   0  -1 -10    0.03    0.42
   0   1  10    0.18    0.73
   0   1  10   -0.60    0.53
   0   1  10   -0.73    0.95
   0   1  10   -0.18    0.56
  -1  -1 -10   43.51    2.10
  -1  -1 -10   40.85    2.23
  -1  -1 -10   44.00    2.03
  -1  -1 -10   41.92    1.97
   1   1  10   43.13    1.94
   1   1  10   45.48    2.14
   1   1  10   41.46    2.07
   1   1  10   37.81    2.13
   1   1  10   43.22    2.31
  -2  -1 -10    1.48    0.65
  -2  -1 -10    1.82    0.58
  -2  -1 -10    0.78    0.45
  -2  -1 -10    1.83    0.50
   2   1  10    1.09    0.68
   2   1  10    2.01    0.55
   2   1  10    1.41    0.69
   2   1  10    1.88    0.57
   2   1  10    1.30    0.72
   2   1  10    1.19    0.60
  -3  -1 -10   94.29    4.11
  -3  -1 -10  103.53    3.92
  -3  -1 -10  100.78    3.95
  -3  -1 -10  100.53    3.92
  -3  -1 -10   94.12    4.09
  -3  -1 -10  106.21    4.06
   3   1  10   99.88    4.06
   3   1  10  102.11    4.15
   3   1  10   97.29    4.17
   3   1  10  100.65    4.04
   3   1  10   93.43    4.02
   3   1  10  104.23    4.17
  -4  -1 -10    0.84    0.52
  -4  -1 -10    0.47    0.35
  -4  -1 -10    0.11    0.44
  -4  -1 -10    0.71    0.37
  -4  -1 -10    0.38    0.39
   4   1  10    0.41    0.92
   4   1  10    0.81    0.65
   4   1  10   -0.76    0.48
   4   1  10   -0.22    0.48
   4   1  10   -0.59    0.71
   4   1  10    1.84    0.95
  -5  -1 -10   21.52    1.56
  -5  -1 -10   22.10    1.22
  -5  -1 -10   20.64    1.38
   5   1  10   19.98    1.68
   5   1  10   19.00    1.36
   5   1  10   19.95    1.92
   5   1  10   21.22    1.49
   5   1  10   19.20    1.34
   5   1  10   23.71    1.65
  -6  -1 -10    2.27    0.73
  -6  -1 -10    1.21    0.51
   6   1  10    1.01    0.96
   6   1  10   -0.05    0.92
   6   1  10    1.23    0.65
   6   1  10    1.55    0.62
   6   1  10    1.45    0.64
   6   1  10    0.94    1.28
  -7  -1 -10    2.25    0.91
  -7  -1 -10    3.61    0.97
   7   1  10    4.73    1.25
   7   1  10    2.98    1.64
   7   1  10    7.49    1.82
   3  -2 -10   16.03    1.74
   3  -2 -10   16.73    1.42
   3  -2 -10   19.47    1.52
  -3   2  10   17.82    1.67
  -3   2  10   13.12    1.48
  -3   2  10   18.10    1.93
   2  -2 -10   20.40    1.44
   2  -2 -10   20.06    1.41
   2  -2 -10   20.79    1.99
   2  -2 -10   21.18    1.58
  -2   2  10   21.29    1.74
  -2   2  10   24.09    1.69
  -2   2  10   18.24    1.28
   1  -2 -10   12.56    1.60
   1  -2 -10   11.98    1.10
   1  -2 -10   14.92    1.28
   1  -2 -10   12.14    1.03
  -1   2  10   11.48    1.65
  -1   2  10   12.56    0.94
  -1   2  10   11.55    1.33
  -1   2  10   13.18    1.32
   0  -2 -10    9.12    1.34
   0  -2 -10    9.62    0.91
   0  -2 -10    8.34    1.34
   0  -2 -10    9.28    0.92
   0  -2 -10    7.72    1.04
   0   2  10    7.95    1.04
   0   2  10    8.29    1.15
   0   2  10    8.16    1.09
   0   2  10    7.67    1.40
  -1  -2 -10   12.58    0.99
  -1  -2 -10   10.68    1.29
  -1  -2 -10   14.56    1.12
  -1  -2 -10   11.21    0.94
   1   2  10   10.46    1.23
   1   2  10   12.89    0.93
   1   2  10   11.82    1.10
   1   2  10   12.77    1.41
   1   2  10    9.81    1.04
  -2  -2 -10   44.28    2.08
  -2  -2 -10   44.10    2.30
  -2  -2 -10   44.79    2.20
  -2  -2 -10   46.82    2.20
  -2  -2 -10   47.11    2.21
   2   2  10   46.19    2.32
   2   2  10   49.11    2.11
   2   2  10   49.45    2.38
   2   2  10   49.25    2.19
   2   2  10   45.77    2.29
   2   2  10   49.24    2.22
  -3  -2 -10   -0.42    0.41
  -3  -2 -10    0.74    0.45
  -3  -2 -10   -0.50    0.56
  -3  -2 -10   -0.23    0.32
  -3  -2 -10   -0.52    0.44
   3   2  10    0.42    0.45
   3   2  10    0.43    0.48
   3   2  10   -0.61    0.61
   3   2  10    0.23    0.59
   3   2  10    0.37    0.70
   3   2  10   -0.29    0.63
  -4  -2 -10   66.99    2.62
  -4  -2 -10   65.92    2.63
  -4  -2 -10   63.30    2.77
  -4  -2 -10   64.21    2.61
  -4  -2 -10   61.39    2.92
   4   2  10   66.76    2.75
   4   2  10   66.42    3.04
   4   2  10   65.94    2.90
   4   2  10   64.15    2.78
   4   2  10   54.45    3.32
   4   2  10   66.35    2.95
  -5  -2 -10    3.29    0.68
  -5  -2 -10    0.99    0.67
  -5  -2 -10    2.45    0.56
   5   2  10    2.68    1.06
   5   2  10    2.72    0.74
   5   2  10    2.20    0.64
   5   2  10    3.31    0.84
   5   2  10    3.19    0.86
  -6  -2 -10   19.67    1.37
  -6  -2 -10   20.02    1.20
  -6  -2 -10   18.84    1.65
   6   2  10   21.36    1.36
   6   2  10   19.92    1.34
   6   2  10   18.88    1.68
   6   2  10   20.33    1.40
   6   2  10   16.99    2.10
  -7  -2 -10   -0.31    0.77
   7   2  10    3.51    1.57
   7   2  10   -0.75    1.17
   7   2  10   -0.03    0.71
   3  -3 -10  135.75    5.63
   3  -3 -10  131.66    5.48
   3  -3 -10  140.53    5.49
  -3   3  10  142.94    5.59
  -3   3  10  117.39    5.69
  -3   3  10  138.71    5.43
   2  -3 -10   -0.08    0.66
   2  -3 -10    0.93    0.58
   2  -3 -10    0.08    0.99
   2  -3 -10    0.09    0.64
  -2   3  10    1.73    0.50
  -2   3  10    0.55    0.64
  -2   3  10   -0.37    0.73
  -2   3  10    0.42    0.77
   1  -3 -10  121.82    5.11
   1  -3 -10  127.84    5.26
   1  -3 -10  131.05    5.05
   1  -3 -10  122.56    5.04
  -1   3  10  128.56    5.15
  -1   3  10  126.36    4.93
  -1   3  10  128.92    5.20
  -1   3  10  125.29    5.25
   0  -3 -10    1.54    0.74
   0  -3 -10   -0.04    0.47
   0  -3 -10    0.03    0.48
   0  -3 -10    0.75    0.45
   0  -3 -10   -0.06    0.72
   0   3  10    1.28    0.75
   0   3  10    0.78    0.53
   0   3  10    1.45    0.63
   0   3  10    0.27    0.43
   0   3  10    0.68    0.63
   0   3  10    0.66    0.74
  -1  -3 -10  134.42    5.17
  -1  -3 -10  126.70    5.13
  -1  -3 -10  130.28    5.27
  -1  -3 -10  133.29    5.08
   1   3  10  129.24    5.19
   1   3  10  132.51    5.27
   1   3  10  121.94    4.89
   1   3  10  132.26    5.15
  -2  -3 -10    9.08    1.26
  -2  -3 -10   10.12    0.86
  -2  -3 -10   10.33    0.95
  -2  -3 -10    9.83    1.02
  -2  -3 -10    8.89    1.08
   2   3  10    8.49    0.97
   2   3  10    9.62    1.26
   2   3  10   11.93    1.24
   2   3  10   10.96    0.94
   2   3  10    8.93    1.25
   2   3  10    7.66    0.89
  -3  -3 -10    9.25    0.73
  -3  -3 -10    7.49    0.81
  -3  -3 -10   10.12    0.98
  -3  -3 -10    9.19    0.97
  -3  -3 -10    9.79    1.00
  -3  -3 -10    9.10    1.19
   3   3  10    6.84    0.99
   3   3  10    9.00    0.95
   3   3  10    7.36    1.22
   3   3  10    8.23    1.21
   3   3  10    8.80    0.89
   3   3  10   10.63    1.28
  -4  -3 -10   25.02    1.28
  -4  -3 -10   22.81    1.30
  -4  -3 -10   24.26    1.47
  -4  -3 -10   24.92    1.18
  -4  -3 -10   25.27    1.58
   4   3  10   24.89    1.38
   4   3  10   23.49    1.69
   4   3  10   23.56    1.63
   4   3  10   24.83    1.61
   4   3  10   25.19    1.44
   4   3  10   22.46    1.57
  -5  -3 -10   17.68    1.51
  -5  -3 -10   20.15    1.03
  -5  -3 -10   19.92    1.33
   5   3  10   18.79    1.21
   5   3  10   18.90    1.67
   5   3  10   18.86    1.58
   5   3  10   17.63    1.30
   5   3  10   19.35    1.46
  -6  -3 -10   22.57    1.77
   6   3  10   22.13    2.10
   6   3  10   23.33    1.79
   6   3  10   25.12    1.58
   6   3  10   25.58    1.52
   6   3  10   22.78    1.43
  -7  -3 -10   33.94    2.35
   7   3  10   37.09    1.97
   3  -4 -10    2.52    0.88
   3  -4 -10    2.15    0.92
   3  -4 -10    2.99    0.98
  -3   4  10    1.66    0.92
  -3   4  10    2.34    1.03
   2  -4 -10    9.55    1.90
   2  -4 -10   10.43    1.22
   2  -4 -10   11.47    1.41
   2  -4 -10   11.93    1.25
  -2   4  10    9.78    1.13
  -2   4  10   10.33    1.27
  -2   4  10    9.43    1.51
  -2   4  10   12.67    1.52
   1  -4 -10   24.39    1.51
   1  -4 -10   21.65    1.48
   1  -4 -10   25.93    1.63
   1  -4 -10   25.31    1.96
  -1   4  10   25.05    1.50
  -1   4  10   23.71    1.66
  -1   4  10   24.10    1.71
  -1   4  10   19.28    1.92
   0  -4 -10    4.05    0.87
   0  -4 -10    7.64    0.89
   0  -4 -10    6.63    1.05
   0  -4 -10    6.32    1.35
   0   4  10    5.81    0.89
   0   4  10    6.18    1.11
   0   4  10    4.96    1.06
   0   4  10    4.88    1.34
  -1  -4 -10   49.34    2.30
  -1  -4 -10   49.21    2.28
  -1  -4 -10   45.03    2.42
  -1  -4 -10   46.68    2.16
  -1  -4 -10   45.04    2.45
   1   4  10   49.77    2.32
   1   4  10   48.06    2.27
   1   4  10   50.61    2.46
   1   4  10   44.61    2.36
  -2  -4 -10    1.56    0.47
  -2  -4 -10    3.44    0.88
  -2  -4 -10    3.30    0.72
  -2  -4 -10    1.61    0.70
   2   4  10    2.28    0.72
   2   4  10    4.99    1.18
   2   4  10    2.30    0.54
   2   4  10    1.70    0.53
   2   4  10    2.45    0.73
   2   4  10    1.68    0.59
  -3  -4 -10   50.49    2.43
  -3  -4 -10   53.68    2.38
  -3  -4 -10   51.67    2.07
  -3  -4 -10   51.16    2.48
  -3  -4 -10   54.31    2.36
  -3  -4 -10   54.18    2.26
   3   4  10   51.59    2.54
   3   4  10   52.81    2.34
   3   4  10   49.37    2.46
   3   4  10   50.24    2.37
   3   4  10   47.52    2.47
  -4  -4 -10   14.17    1.13
  -4  -4 -10   13.62    0.98
  -4  -4 -10   12.91    1.27
  -4  -4 -10   15.94    1.24
   4   4  10   17.72    1.52
   4   4  10   15.64    1.11
   4   4  10   15.50    1.43
   4   4  10   15.31    1.20
   4   4  10   14.40    1.47
   4   4  10   16.59    1.39
  -5  -4 -10   34.94    1.87
  -5  -4 -10   35.47    2.07
   5   4  10   37.66    1.90
   5   4  10   34.97    2.14
   5   4  10   34.59    2.10
   5   4  10   37.28    1.81
   5   4  10   38.84    2.03
  -6  -4 -10   29.64    2.13
   6   4  10   32.65    1.78
   6   4  10   30.67    1.70
   6   4  10   27.17    2.02
   6   4  10   30.22    2.13
  -7  -4 -10    7.01    1.20
   7   4  10    7.07    1.21
   7   4  10    8.60    1.35
   2  -5 -10   20.58    1.56
   2  -5 -10   19.96    1.73
   2  -5 -10   17.74    1.57
  -2   5  10   22.68    1.93
  -2   5  10   20.07    1.72
  -2   5  10   20.41    1.83
   1  -5 -10   33.54    2.33
   1  -5 -10   31.62    1.96
   1  -5 -10   35.51    1.87
   1  -5 -10   35.96    1.85
  -1   5  10   36.10    1.94
  -1   5  10   29.87    1.80
  -1   5  10   28.93    2.24
  -1   5  10   35.50    2.10
  -1   5  10   29.96    1.98
   0  -5 -10    7.61    1.03
   0  -5 -10    8.94    1.04
   0  -5 -10    8.33    1.14
   0  -5 -10    7.59    1.53
   0   5  10    9.07    1.54
   0   5  10    6.76    1.11
   0   5  10    9.46    1.19
   0   5  10    8.61    1.24
   0   5  10    8.39    1.26
  -1  -5 -10   70.41    3.05
  -1  -5 -10   71.04    3.03
  -1  -5 -10   77.07    3.17
  -1  -5 -10   68.36    3.32
   1   5  10   73.02    3.18
   1   5  10   72.71    3.12
   1   5  10   72.02    3.04
   1   5  10   73.00    3.32
   1   5  10   63.48    3.17
  -2  -5 -10    0.76    0.54
  -2  -5 -10    1.11    0.70
  -2  -5 -10    0.22    0.45
  -2  -5 -10    0.30    0.46
   2   5  10    1.29    0.85
   2   5  10    2.25    0.65
   2   5  10    1.21    0.56
   2   5  10    0.46    0.75
   2   5  10    0.94    0.56
   2   5  10    0.68    0.58
  -3  -5 -10  126.21    5.32
  -3  -5 -10  139.11    5.14
  -3  -5 -10  136.98    5.24
   3   5  10  138.53    5.29
   3   5  10  126.32    5.26
   3   5  10  128.98    5.37
   3   5  10  130.70    5.21
  -4  -5 -10   16.96    1.31
  -4  -5 -10   16.51    1.29
  -4  -5 -10   18.86    1.14
  -4  -5 -10   18.15    1.43
   4   5  10   16.73    1.47
   4   5  10   19.70    1.63
   4   5  10   19.00    1.39
   4   5  10   20.53    1.29
   4   5  10   17.52    1.54
  -5  -5 -10  103.99    4.58
   5   5  10  107.20    4.37
   5   5  10  108.28    4.41
   5   5  10  109.95    4.32
  -6  -5 -10   23.86    1.95
   6   5  10   25.46    1.54
   6   5  10   26.86    1.70
   2  -6 -10   79.37    3.60
  -2   6  10   79.98    3.63
  -2   6  10   78.94    3.70
  -2   6  10   63.83    3.51
   1  -6 -10    0.35    0.74
   1  -6 -10    1.26    0.68
   1  -6 -10    1.67    0.84
   1  -6 -10    0.52    0.63
  -1   6  10    1.10    0.92
  -1   6  10   -0.70    0.86
  -1   6  10    1.43    0.84
   0  -6 -10   46.99    2.23
   0  -6 -10   42.82    1.96
   0  -6 -10   45.19    2.25
   0  -6 -10   42.88    2.33
   0   6  10   43.79    2.64
   0   6  10   45.84    2.33
   0   6  10   45.30    2.36
   0   6  10   44.90    2.42
  -1  -6 -10    4.04    0.94
  -1  -6 -10    2.53    0.70
  -1  -6 -10    4.67    0.92
  -1  -6 -10    2.61    0.63
   1   6  10    1.88    0.95
   1   6  10    4.82    1.14
   1   6  10    2.07    0.71
   1   6  10    2.44    0.78
  -2  -6 -10   -0.05    0.65
  -2  -6 -10    0.51    0.70
  -2  -6 -10    0.67    0.56
   2   6  10    1.24    0.68
   2   6  10    0.77    0.56
   2   6  10    0.14    0.83
   2   6  10    0.94    0.88
  -3  -6 -10   22.28    1.49
  -3  -6 -10   18.38    1.47
  -3  -6 -10   19.10    1.28
   3   6  10   22.06    1.78
   3   6  10   20.48    1.43
   3   6  10   22.17    1.61
   3   6  10   20.56    1.55
   3   6  10   19.47    1.69
  -4  -6 -10    6.28    1.15
  -4  -6 -10    7.15    1.17
  -4  -6 -10    5.09    1.21
  -4  -6 -10    6.52    0.88
   4   6  10    4.21    1.04
   4   6  10    3.94    1.12
   4   6  10    7.66    1.46
  -5  -6 -10   41.26    2.43
   5   6  10   46.39    2.19
   5   6  10   43.80    2.30
  -6  -6 -10    2.98    0.92
   6   6  10    5.05    1.39
   6   6  10    4.39    1.08
   1  -7 -10   25.53    1.85
   1  -7 -10   21.48    1.78
   1  -7 -10   26.94    1.99
  -1   7  10   26.38    2.13
  -1   7  10   24.98    2.02
  -1   7  10   25.00    2.08
   0  -7 -10   20.72    1.59
   0  -7 -10   20.89    1.77
   0  -7 -10   18.69    1.52
   0   7  10   23.22    1.78
   0   7  10   21.03    1.82
   0   7  10   21.92    1.89
  -1  -7 -10    2.53    0.82
  -1  -7 -10    3.58    0.83
  -1  -7 -10    3.01    0.72
   1   7  10    5.92    1.30
   1   7  10    3.05    0.96
   1   7  10    2.69    1.01
   1   7  10    5.86    1.28
  -2  -7 -10   20.80    1.68
  -2  -7 -10   21.04    1.44
  -2  -7 -10   19.27    1.41
   2   7  10   19.07    1.97
   2   7  10   21.64    1.60
   2   7  10   21.40    1.74
  -3  -7 -10    0.82    0.59
  -3  -7 -10    0.77    0.87
  -3  -7 -10    1.41    0.73
  -3  -7 -10    0.30    0.61
   3   7  10    0.39    0.68
   3   7  10    2.25    0.81
   3   7  10    0.27    0.99
  -4  -7 -10    1.52    0.56
  -4  -7 -10    0.77    0.69
   4   7  10    1.89    1.11
   4   7  10    1.59    0.71
   4   7  10    0.45    0.76
  -5  -7 -10   12.83    1.61
   5   7  10   13.88    1.44
   5   7  10   12.40    1.59
   0  -8 -10   11.21    1.78
   0  -8 -10    7.04    1.54
   0  -8 -10    7.30    1.52
   0   8  10    8.37    1.91
   0   8  10   11.21    1.95
   0   8  10   10.37    1.71
  -1  -8 -10    6.85    1.38
  -1  -8 -10   10.44    1.40
  -1  -8 -10   11.42    1.69
   1   8  10    8.91    1.63
   1   8  10   11.95    1.85
   1   8  10   11.14    1.66
  -2  -8 -10   53.33    2.73
  -2  -8 -10   49.21    2.48
  -2  -8 -10   49.64    2.47
   2   8  10   50.02    2.66
   2   8  10   49.78    2.76
  -3  -8 -10    7.87    1.24
  -3  -8 -10    7.89    1.32
   3   8  10    6.40    1.54
   3   8  10   10.31    1.44
  -4  -8 -10    7.25    1.44
   4   8  10    3.60    1.00
   4   8  10    3.55    1.09
  -1   6 -11  143.18    5.94
  -1   6 -11  113.66    5.75
   1  -6  11  147.02    5.75
   1  -6  11  153.10    5.61
   1  -6  11  137.66    5.92
  -2   6 -11   42.64    2.30
  -2   6 -11   35.18    2.25
   2  -6  11   41.85    2.56
   2  -6  11   36.06    2.52
   2  -6  11   42.95    2.52
  -3   6 -11   77.43    3.22
   3  -6  11   71.95    3.56
   3  -6  11   71.30    3.46
   3  -6  11   62.62    3.40
   1   5 -11    8.82    1.99
   1   5 -11    8.65    1.65
  -1  -5  11   10.77    2.10
  -1  -5  11   12.21    1.52
  -1  -5  11   11.08    1.70
  -1  -5  11    8.09    1.75
   0   5 -11    7.30    1.53
   0   5 -11   10.19    1.85
   0  -5  11   11.22    1.69
   0  -5  11   12.44    1.95
   0  -5  11   15.85    1.62
   0  -5  11   11.98    1.57
   0  -5  11   13.45    2.86
  -1   5 -11   14.67    1.58
  -1   5 -11   13.76    1.80
   1  -5  11   15.36    1.78
   1  -5  11   15.66    1.69
   1  -5  11   13.51    1.64
  -2   5 -11    2.25    0.94
  -2   5 -11    2.68    0.75
  -2   5 -11    4.34    1.19
   2  -5  11    3.16    1.02
   2  -5  11    3.41    0.88
   2  -5  11    4.27    0.93
  -3   5 -11   12.41    1.34
  -3   5 -11   13.43    1.43
  -3   5 -11   15.47    1.89
   3  -5  11   14.90    1.78
   3  -5  11   14.23    1.64
   3  -5  11   15.33    1.60
  -4   5 -11   18.35    1.46
  -4   5 -11   19.24    1.62
   4  -5  11   15.41    1.66
   4  -5  11   21.07    1.80
   4  -5  11   20.49    1.93
   1   4 -11   29.77    1.94
   1   4 -11   34.30    2.41
   1   4 -11   28.02    2.09
  -1  -4  11   32.97    2.06
  -1  -4  11   30.66    1.90
  -1  -4  11   29.51    2.39
  -1  -4  11   34.52    2.22
   0   4 -11    0.50    0.74
   0   4 -11    1.55    0.66
   0   4 -11    2.17    0.99
   0  -4  11    1.15    1.42
   0  -4  11    1.08    0.78
   0  -4  11    1.16    0.84
   0  -4  11    1.01    0.91
  -1   4 -11    2.72    0.69
  -1   4 -11    2.58    0.72
  -1   4 -11    2.22    0.86
   1  -4  11    2.54    0.85
   1  -4  11    6.21    1.36
   1  -4  11    2.73    1.32
   1  -4  11    5.13    1.46
  -2   4 -11    8.22    1.19
  -2   4 -11   10.78    1.28
  -2   4 -11    5.62    1.56
  -2   4 -11   12.64    1.55
  -2   4 -11   10.77    1.23
   2  -4  11   12.88    2.02
   2  -4  11   11.23    1.37
   2  -4  11    7.66    1.47
   2  -4  11    9.29    1.42
  -3   4 -11   20.09    1.42
  -3   4 -11   20.34    1.63
  -3   4 -11   18.21    1.48
  -3   4 -11   20.02    1.65
   3  -4  11   21.45    1.77
   3  -4  11   18.29    1.62
   3  -4  11   19.09    1.55
  -4   4 -11   21.45    1.30
  -4   4 -11   19.93    1.62
   4  -4  11   20.96    1.85
   4  -4  11   20.08    1.64
   4  -4  11   18.68    1.57
  -5   4 -11   90.45    3.95
   5  -4  11   92.15    4.13
   5  -4  11   93.21    3.96
   5  -4  11   84.58    3.86
   2   3 -11   41.54    2.72
   2   3 -11   33.35    2.28
  -2  -3  11   36.73    2.34
  -2  -3  11   31.09    2.26
  -2  -3  11   38.20    2.74
   1   3 -11   -1.39    1.49
   1   3 -11    0.22    0.61
   1   3 -11   -0.14    0.86
   1   3 -11    0.58    0.72
  -1  -3  11    2.20    1.71
  -1  -3  11    1.24    0.84
  -1  -3  11    0.80    0.81
  -1  -3  11    0.06    0.70
   0   3 -11   57.37    2.65
   0   3 -11   53.29    2.76
   0   3 -11   58.86    3.00
   0  -3  11   56.26    2.68
   0  -3  11   56.43    3.43
   0  -3  11   55.84    2.96
   0  -3  11   60.50    2.85
  -1   3 -11    1.24    0.70
  -1   3 -11    0.16    0.58
  -1   3 -11    0.24    0.60
   1  -3  11    0.27    0.70
   1  -3  11    1.84    1.20
   1  -3  11   -1.77    0.72
   1  -3  11    1.61    0.77
  -2   3 -11   49.80    2.42
  -2   3 -11   47.76    2.30
  -2   3 -11   47.80    2.54
  -2   3 -11   46.19    2.50
   2  -3  11   45.50    2.49
   2  -3  11   46.55    2.84
   2  -3  11   50.00    2.49
   2  -3  11   47.85    2.46
  -3   3 -11    1.69    0.72
  -3   3 -11    2.73    0.76
  -3   3 -11    4.40    0.95
  -3   3 -11    2.27    0.66
  -3   3 -11    3.71    0.97
   3  -3  11    3.64    1.06
   3  -3  11    2.44    0.88
   3  -3  11    1.73    0.72
   3  -3  11    4.41    1.22
  -4   3 -11   11.94    1.40
  -4   3 -11    9.75    1.08
  -4   3 -11    6.51    1.28
  -4   3 -11    8.44    1.21
   4  -3  11    8.08    1.47
   4  -3  11    9.84    1.24
   4  -3  11   10.00    1.31
  -5   3 -11    3.45    0.99
  -5   3 -11    3.99    0.77
   5  -3  11    2.75    1.02
   5  -3  11    4.89    1.10
   5  -3  11    4.78    1.33
  -6   3 -11   12.84    1.54
   6  -3  11    8.87    1.77
   6  -3  11   12.18    1.58
   6  -3  11   11.71    1.37
   2   2 -11    0.34    0.83
   2   2 -11    2.18    0.70
   2   2 -11    1.92    1.08
  -2  -2  11    1.69    0.93
  -2  -2  11    3.00    0.92
  -2  -2  11    2.33    1.25
   1   2 -11   19.56    1.45
   1   2 -11   23.80    1.97
   1   2 -11   18.14    2.38
   1   2 -11   18.75    1.58
  -1  -2  11   13.78    2.57
  -1  -2  11   22.00    2.00
  -1  -2  11   19.04    1.71
  -1  -2  11   18.71    1.49
   0   2 -11    0.07    0.57
   0   2 -11    0.75    0.60
   0   2 -11   -0.53    0.69
   0   2 -11    0.82    1.01
   0  -2  11   -1.73    1.18
   0  -2  11   -0.13    0.82
   0  -2  11    2.02    0.76
   0  -2  11    0.61    0.73
  -1   2 -11   81.93    4.09
  -1   2 -11   89.37    4.25
  -1   2 -11   97.56    3.97
  -1   2 -11   98.74    4.17
  -1   2 -11   88.35    3.92
   1  -2  11  103.95    4.10
   1  -2  11   92.01    4.12
   1  -2  11   97.97    3.97
   1  -2  11   96.38    4.35
  -2   2 -11    4.92    0.87
  -2   2 -11    4.23    1.06
  -2   2 -11    5.78    1.01
   2  -2  11    5.72    1.21
   2  -2  11    6.25    1.23
   2  -2  11    4.19    1.12
   2  -2  11    7.23    1.27
  -3   2 -11  112.01    4.31
  -3   2 -11  112.61    4.58
  -3   2 -11  110.09    4.52
  -3   2 -11  112.21    4.35
  -3   2 -11  104.27    4.38
   3  -2  11  110.58    4.51
   3  -2  11  105.22    4.62
   3  -2  11   93.71    4.48
   3  -2  11  111.49    4.52
  -4   2 -11    1.21    0.64
  -4   2 -11    1.99    0.51
  -4   2 -11    1.67    0.74
  -4   2 -11    2.36    0.59
  -4   2 -11    1.54    0.57
   4  -2  11    1.46    0.67
   4  -2  11    2.52    0.91
   4  -2  11    2.25    0.95
   4  -2  11    4.58    1.15
  -5   2 -11   13.71    1.45
  -5   2 -11   12.11    1.28
   5  -2  11    9.86    2.52
   5  -2  11   12.97    1.42
   5  -2  11   10.36    1.28
   5  -2  11   16.91    1.69
  -6   2 -11    1.51    0.72
  -6   2 -11    1.40    0.82
   6  -2  11    1.96    1.11
   6  -2  11    0.74    0.63
   6  -2  11   -0.73    0.75
   2   1 -11   96.27    5.32
   2   1 -11   99.06    4.46
   2   1 -11  102.72    4.73
   2   1 -11  112.75    4.28
  -2  -1  11  109.27    4.54
  -2  -1  11  105.37    4.84
  -2  -1  11  101.10    4.44
   1   1 -11    9.45    1.55
   1   1 -11    8.50    2.09
   1   1 -11    8.52    1.12
   1   1 -11   10.19    1.30
  -1  -1  11   10.40    1.29
  -1  -1  11   11.33    1.51
  -1  -1  11    8.17    1.70
  -1  -1  11    8.70    1.75
   0   1 -11   25.34    1.64
   0   1 -11   26.96    1.60
   0   1 -11   29.02    1.95
   0   1 -11   23.99    2.17
   0  -1  11   28.09    1.83
   0  -1  11   24.21    1.66
   0  -1  11   26.49    1.94
   0  -1  11   26.27    2.35
  -1   1 -11   15.50    1.28
  -1   1 -11   17.87    1.88
  -1   1 -11   18.11    1.56
  -1   1 -11   19.59    1.36
  -1   1 -11   14.95    1.64
   1  -1  11   17.66    1.92
   1  -1  11   15.98    1.51
   1  -1  11   17.90    1.49
   1  -1  11   18.62    1.50
  -2   1 -11   12.52    1.60
  -2   1 -11    9.55    1.13
  -2   1 -11    8.93    1.06
  -2   1 -11    9.46    1.31
   2  -1  11    8.62    1.27
   2  -1  11    8.99    1.62
   2  -1  11   12.28    1.34
   2  -1  11    9.53    1.21
  -3   1 -11   26.87    1.52
  -3   1 -11   27.16    1.73
  -3   1 -11   26.09    1.58
  -3   1 -11   26.27    1.72
  -3   1 -11   29.42    1.52
   3  -1  11   23.24    1.72
   3  -1  11   27.29    1.71
   3  -1  11   21.82    2.00
   3  -1  11   26.03    1.87
   3  -1  11   26.42    1.97
   3  -1  11   28.65    1.81
  -4   1 -11   17.49    1.10
  -4   1 -11   17.57    1.52
  -4   1 -11   15.97    1.23
  -4   1 -11   18.19    1.16
  -4   1 -11   18.53    1.56
   4  -1  11   15.50    1.43
   4  -1  11   18.16    1.46
   4  -1  11   18.98    1.64
   4  -1  11   15.64    1.60
   4  -1  11   14.83    1.98
  -5   1 -11   14.93    1.22
  -5   1 -11   13.05    1.51
   5  -1  11   11.97    1.38
   5  -1  11   12.73    1.65
   5  -1  11   13.46    1.37
   5  -1  11   13.58    2.03
  -6   1 -11   31.50    2.10
  -6   1 -11   31.99    1.90
   6  -1  11   30.13    2.54
   6  -1  11   36.28    2.33
   6  -1  11   29.47    1.81
   6  -1  11   33.25    2.00
   2   0 -11   16.16    1.52
   2   0 -11   16.26    1.87
   2   0 -11   16.30    2.75
   2   0 -11   15.94    1.32
  -2   0  11   12.64    1.67
  -2   0  11   13.84    2.06
   1   0 -11    7.16    1.04
   1   0 -11    5.74    1.16
   1   0 -11    5.49    0.97
   1   0 -11    6.03    1.37
  -1   0  11    5.94    1.55
  -1   0  11    5.26    0.94
  -1   0  11    5.23    1.37
  -1   0  11    6.37    1.39
   0   0 -11   29.11    1.84
   0   0 -11   24.32    2.26
   0   0 -11   26.01    1.55
   0   0  11   22.95    1.59
   0   0  11   23.79    1.71
   0   0  11   27.41    1.79
   0   0  11   24.31    2.23
   0   0  11   26.36    1.89
  -1   0 -11    2.31    0.59
  -1   0 -11    1.57    0.82
  -1   0 -11    2.64    1.04
  -1   0 -11    1.22    0.62
  -1   0 -11    2.34    0.59
   1   0  11    1.23    0.78
   1   0  11    2.00    1.02
   1   0  11    1.81    0.79
   1   0  11    2.07    0.83
   1   0  11    2.77    0.75
  -2   0 -11   18.46    1.78
  -2   0 -11   20.91    1.51
  -2   0 -11   19.89    1.31
  -2   0 -11   18.94    1.42
   2   0  11   18.46    1.50
   2   0  11   23.64    1.55
   2   0  11   19.33    1.53
   2   0  11   17.55    1.80
  -3   0 -11   32.80    1.91
  -3   0 -11   33.52    1.76
  -3   0 -11   33.17    1.69
  -3   0 -11   31.27    1.88
  -3   0 -11   36.45    1.71
   3   0  11   30.39    1.94
   3   0  11   32.96    1.96
   3   0  11   29.21    2.26
   3   0  11   33.79    1.88
   3   0  11   34.48    2.14
   3   0  11   31.65    1.87
  -4   0 -11   29.08    1.87
  -4   0 -11   31.23    1.46
  -4   0 -11   28.70    1.58
  -4   0 -11   25.34    1.78
  -4   0 -11   28.39    1.50
   4   0  11   30.61    1.94
   4   0  11   29.92    1.95
   4   0  11   31.92    2.30
   4   0  11   26.46    1.74
   4   0  11   29.84    1.75
  -5   0 -11  132.00    4.92
  -5   0 -11  124.12    5.00
  -5   0 -11  122.66    5.26
   5   0  11  130.52    5.02
   5   0  11  126.68    5.22
   5   0  11  132.77    5.14
   5   0  11  108.13    4.99
   5   0  11  119.19    5.24
  -6   0 -11   30.88    1.72
  -6   0 -11   27.43    2.04
   6   0  11   24.64    1.77
   6   0  11   30.67    1.85
   6   0  11   26.93    2.37
   6   0  11   30.32    2.24
  -7   0 -11   89.19    3.74
   7   0  11   94.33    3.85
   7   0  11   77.29    4.60
   2  -1 -11   64.68    3.27
   2  -1 -11   62.56    3.89
   2  -1 -11   60.06    2.99
   2  -1 -11   64.60    2.87
  -2   1  11   69.56    3.43
  -2   1  11   62.19    3.19
   1  -1 -11    2.77    0.72
   1  -1 -11    2.50    0.76
   1  -1 -11    2.75    0.65
   1  -1 -11    1.10    1.19
  -1   1  11    4.50    1.31
  -1   1  11    2.25    0.86
  -1   1  11    1.31    0.81
  -1   1  11    2.70    0.92
   0  -1 -11  183.97    7.15
   0  -1 -11  167.79    7.43
   0  -1 -11  191.72    7.33
   0  -1 -11  185.57    7.18
   0   1  11  186.05    7.34
   0   1  11  187.22    7.49
   0   1  11  199.31    7.36
   0   1  11  186.49    7.14
  -1  -1 -11   13.86    1.16
  -1  -1 -11   12.57    1.73
  -1  -1 -11   14.29    1.54
  -1  -1 -11   12.03    1.11
  -1  -1 -11   12.64    1.30
   1   1  11   11.03    1.26
   1   1  11   14.35    1.31
   1   1  11   13.59    1.25
   1   1  11   12.77    1.29
   1   1  11   12.95    1.81
  -2  -1 -11  129.87    5.19
  -2  -1 -11  116.41    5.28
  -2  -1 -11  131.78    5.21
   2   1  11  135.94    5.38
   2   1  11  137.92    5.21
   2   1  11  122.75    5.07
   2   1  11  126.32    5.18
  -3  -1 -11   21.72    1.34
  -3  -1 -11   22.50    1.45
  -3  -1 -11   24.87    1.34
  -3  -1 -11   21.58    1.51
  -3  -1 -11   22.17    1.53
   3   1  11   21.12    1.93
   3   1  11   21.62    1.59
   3   1  11   21.10    1.91
   3   1  11   22.83    1.50
   3   1  11   23.12    1.56
   3   1  11   23.33    1.80
  -4  -1 -11   37.20    2.03
  -4  -1 -11   41.45    1.78
  -4  -1 -11   38.71    1.81
  -4  -1 -11   35.83    1.76
  -4  -1 -11   34.69    2.10
   4   1  11   40.38    2.19
   4   1  11   36.82    1.98
   4   1  11   40.03    2.00
   4   1  11   34.02    2.44
   4   1  11   40.13    2.14
   4   1  11   35.72    2.37
   4   1  11   31.60    2.18
  -5  -1 -11   54.86    2.89
  -5  -1 -11   61.19    2.53
  -5  -1 -11   57.48    2.71
   5   1  11   56.85    2.91
   5   1  11   62.01    2.70
   5   1  11   52.78    3.03
   5   1  11   53.05    2.66
   5   1  11   61.14    2.78
  -6  -1 -11    1.62    0.58
  -6  -1 -11    1.08    0.79
   6   1  11    2.48    0.81
   6   1  11    1.06    0.73
   6   1  11    0.99    1.13
   6   1  11    1.25    1.21
  -7  -1 -11   41.55    2.16
   7   1  11   45.58    3.07
   7   1  11   42.54    2.38
   2  -2 -11    3.69    0.97
   2  -2 -11    4.48    1.24
   2  -2 -11    7.54    1.26
  -2   2  11    2.67    1.17
  -2   2  11    5.44    1.13
   1  -2 -11    9.67    1.21
   1  -2 -11   10.30    1.42
   1  -2 -11   10.84    2.05
   1  -2 -11   10.66    1.14
  -1   2  11    9.40    2.08
  -1   2  11   11.71    1.55
  -1   2  11   10.11    1.52
   0  -2 -11   39.03    1.97
   0  -2 -11   33.15    2.44
   0  -2 -11   39.54    1.97
   0  -2 -11   36.36    2.11
   0   2  11   38.74    2.16
   0   2  11   35.77    2.49
   0   2  11   37.21    2.14
  -1  -2 -11    0.40    0.78
  -1  -2 -11    1.00    0.51
  -1  -2 -11    0.05    0.84
  -1  -2 -11    1.90    0.62
  -1  -2 -11    1.11    0.53
   1   2  11    2.02    0.96
   1   2  11    2.05    0.63
   1   2  11    0.96    0.64
   1   2  11    1.37    0.71
  -2  -2 -11   29.94    1.63
  -2  -2 -11   30.53    1.79
  -2  -2 -11   31.28    1.75
  -2  -2 -11   28.08    2.03
   2   2  11   29.45    2.10
   2   2  11   31.15    1.69
   2   2  11   33.78    1.84
   2   2  11   30.33    1.72
  -3  -2 -11   28.67    1.63
  -3  -2 -11   27.56    1.43
  -3  -2 -11   27.45    1.71
  -3  -2 -11   24.51    1.65
   3   2  11   28.39    1.94
   3   2  11   27.73    1.60
   3   2  11   28.12    2.06
   3   2  11   27.34    1.65
  -4  -2 -11   27.08    1.75
  -4  -2 -11   30.22    1.47
  -4  -2 -11   28.17    1.40
  -4  -2 -11   25.83    1.48
   4   2  11   28.93    2.16
   4   2  11   24.76    1.85
   4   2  11   25.71    1.64
   4   2  11   26.91    1.60
   4   2  11   27.10    1.90
   4   2  11   23.84    2.00
  -5  -2 -11   26.12    1.92
  -5  -2 -11   27.48    1.41
   5   2  11   26.22    1.66
   5   2  11   26.75    2.09
   5   2  11   26.26    1.64
   5   2  11   24.71    2.34
  -6  -2 -11   16.96    1.70
  -6  -2 -11   17.25    1.20
   6   2  11   14.59    1.47
   6   2  11   17.42    1.47
   6   2  11   17.64    2.03
   6   2  11   18.15    1.89
   6   2  11   12.17    2.56
   7   2  11   12.03    2.19
   7   2  11   11.29    1.55
   2  -3 -11   47.40    2.65
   2  -3 -11   43.77    2.41
   2  -3 -11   43.44    2.44
  -2   3  11   45.08    2.75
  -2   3  11   48.92    2.76
  -2   3  11   49.44    2.32
   1  -3 -11   -0.50    1.14
   1  -3 -11    0.71    0.72
   1  -3 -11   -0.65    0.60
   1  -3 -11    0.08    0.67
  -1   3  11   -0.03    0.84
  -1   3  11   -0.86    0.84
  -1   3  11    0.66    0.61
  -1   3  11    1.00    1.35
   0  -3 -11    1.02    0.55
   0  -3 -11    1.37    0.69
   0  -3 -11    1.28    0.62
   0  -3 -11    2.25    1.11
   0   3  11    1.39    0.81
   0   3  11    2.38    0.78
   0   3  11    2.08    1.09
  -1  -3 -11   -0.13    0.49
  -1  -3 -11   -0.62    0.54
  -1  -3 -11   -0.51    0.47
  -1  -3 -11    0.38    0.91
   1   3  11   -0.60    0.49
   1   3  11    0.03    0.60
   1   3  11    0.06    0.92
   1   3  11    0.18    0.68
  -2  -3 -11   31.51    1.65
  -2  -3 -11   34.07    1.98
  -2  -3 -11   30.33    1.81
  -2  -3 -11   29.52    1.74
   2   3  11   32.28    1.75
   2   3  11   32.98    1.85
   2   3  11   27.63    2.10
   2   3  11   29.03    1.65
  -3  -3 -11    0.39    0.45
  -3  -3 -11    0.63    0.63
  -3  -3 -11    1.04    0.41
  -3  -3 -11    1.57    0.61
  -3  -3 -11    1.13    0.57
   3   3  11    1.69    0.87
   3   3  11    1.10    0.60
   3   3  11    0.77    0.63
   3   3  11    2.79    1.02
  -4  -3 -11   90.54    3.45
  -4  -3 -11   90.41    3.71
  -4  -3 -11   81.88    3.83
  -4  -3 -11   93.03    3.52
  -4  -3 -11   85.83    3.53
   4   3  11   92.21    3.72
   4   3  11   93.35    3.88
   4   3  11   81.11    3.94
   4   3  11   77.99    3.81
   4   3  11   89.63    3.67
  -5  -3 -11    1.18    0.43
  -5  -3 -11    0.32    0.67
   5   3  11    0.48    0.59
   5   3  11    0.40    1.19
   5   3  11    0.80    0.68
  -6  -3 -11   32.42    1.58
  -6  -3 -11   30.71    2.11
   6   3  11   31.73    1.86
   6   3  11   31.34    2.55
   6   3  11   25.38    1.78
   2  -4 -11    1.12    0.95
   2  -4 -11    1.47    0.84
   2  -4 -11    3.80    1.02
  -2   4  11    3.31    1.13
  -2   4  11    4.69    1.40
  -2   4  11    3.27    1.16
   1  -4 -11   16.70    1.59
   1  -4 -11   12.86    2.16
   1  -4 -11   14.42    1.40
   1  -4 -11   16.84    1.44
  -1   4  11   19.42    1.80
  -1   4  11   14.88    1.40
  -1   4  11   17.69    1.72
  -1   4  11   13.35    1.43
   0  -4 -11    6.53    1.81
   0  -4 -11   10.99    1.15
   0  -4 -11    8.95    1.30
   0  -4 -11    7.34    1.06
   0   4  11    7.41    1.26
   0   4  11    8.92    1.32
   0   4  11    9.56    1.06
   0   4  11    9.66    1.49
  -1  -4 -11   18.98    1.37
  -1  -4 -11   21.89    1.59
  -1  -4 -11   18.54    1.90
  -1  -4 -11   20.59    1.44
   1   4  11   22.54    1.93
   1   4  11   21.76    1.59
   1   4  11   22.45    1.53
  -2  -4 -11   -1.14    0.55
  -2  -4 -11    0.31    0.55
  -2  -4 -11   -0.51    0.75
  -2  -4 -11   -0.20    0.48
   2   4  11    0.64    0.65
   2   4  11   -0.54    0.82
   2   4  11    0.14    0.62
   2   4  11   -0.28    0.61
  -3  -4 -11    1.55    0.51
  -3  -4 -11    1.40    0.61
  -3  -4 -11    1.83    0.61
  -3  -4 -11    1.36    0.39
   3   4  11    1.91    1.01
   3   4  11    1.11    0.59
   3   4  11    1.69    0.70
   3   4  11    1.99    0.89
  -4  -4 -11    1.01    0.64
  -4  -4 -11    1.07    0.65
  -4  -4 -11    1.63    0.70
   4   4  11    0.58    1.11
   4   4  11    1.62    0.69
   4   4  11    1.25    0.62
  -5  -4 -11   21.60    1.73
   5   4  11   20.87    1.46
   5   4  11   17.10    2.13
   5   4  11   21.61    1.60
  -6  -4 -11    2.45    0.95
   6   4  11    0.98    0.73
   6   4  11    1.41    0.80
   1  -5 -11   -0.38    0.83
   1  -5 -11    0.34    0.73
   1  -5 -11   -0.55    1.30
   1  -5 -11   -0.13    0.82
  -1   5  11   -0.11    0.83
  -1   5  11   -0.12    0.98
  -1   5  11   -0.89    0.89
   0  -5 -11  119.51    4.64
   0  -5 -11  118.48    4.76
   0  -5 -11  108.54    4.64
   0   5  11  112.53    4.74
   0   5  11  113.68    4.79
   0   5  11  104.26    4.98
   0   5  11  110.69    4.56
  -1  -5 -11    2.40    0.73
  -1  -5 -11    3.68    1.01
  -1  -5 -11    5.36    1.29
   1   5  11    3.48    0.73
   1   5  11    3.04    1.13
   1   5  11    3.05    0.88
   1   5  11    4.64    1.21
  -2  -5 -11  155.98    6.07
  -2  -5 -11  152.79    5.94
  -2  -5 -11  147.83    6.09
   2   5  11  153.81    6.27
   2   5  11  161.42    6.14
   2   5  11  156.60    6.05
   2   5  11  142.65    5.81
  -3  -5 -11    3.91    1.08
  -3  -5 -11    6.91    1.19
  -3  -5 -11    5.94    0.98
  -3  -5 -11    7.04    0.97
   3   5  11    5.70    1.21
   3   5  11    5.72    1.61
   3   5  11    6.52    1.22
   3   5  11    6.41    1.64
   3   5  11    6.05    1.12
  -4  -5 -11   27.62    1.85
  -4  -5 -11   27.33    1.50
  -4  -5 -11   27.75    1.78
   4   5  11   25.64    1.75
   4   5  11   26.87    1.66
   4   5  11   26.10    2.09
  -5  -5 -11    7.18    1.39
   5   5  11    8.32    1.17
   5   5  11    6.90    1.36
   5   5  11    8.42    1.87
  -6  -5 -11    0.42    0.96
   6   5  11    1.50    0.86
   0  -6 -11   17.52    1.51
   0  -6 -11   14.00    1.65
   0  -6 -11   16.43    1.53
   0   6  11   13.99    1.66
   0   6  11   19.56    1.81
   0   6  11   19.83    1.77
  -1  -6 -11    4.77    1.15
  -1  -6 -11    0.13    0.67
  -1  -6 -11    0.24    0.74
   1   6  11    0.01    0.81
   1   6  11    0.94    0.81
   1   6  11    1.56    1.19
   1   6  11    2.23    0.84
  -2  -6 -11   53.36    2.74
  -2  -6 -11   59.95    2.68
  -2  -6 -11   57.03    2.84
   2   6  11   57.51    2.75
   2   6  11   59.32    2.86
   2   6  11   60.04    2.81
  -3  -6 -11    0.84    0.60
  -3  -6 -11    0.86    0.73
  -3  -6 -11    1.52    0.87
  -3  -6 -11    0.26    0.68
   3   6  11    4.88    1.30
   3   6  11    0.38    0.80
   3   6  11    0.68    0.72
  -4  -6 -11   41.09    2.36
  -4  -6 -11   42.58    2.04
   4   6  11   41.11    2.20
   4   6  11   41.77    2.54
   4   6  11   40.07    2.34
  -5  -6 -11   20.96    1.87
   5   6  11   17.09    1.55
   5   6  11   20.85    1.86
  -1  -7 -11    6.86    1.36
  -1  -7 -11    6.22    1.28
  -1  -7 -11    6.93    1.61
   1   7  11    3.47    1.09
   1   7  11    4.06    1.00
   1   7  11    3.94    1.05
  -2  -7 -11   23.92    1.88
  -2  -7 -11   21.60    1.66
  -2  -7 -11   21.77    1.74
   2   7  11   24.39    1.83
   2   7  11   21.88    1.93
   2   7  11   21.54    1.89
  -3  -7 -11    9.97    1.44
  -3  -7 -11    9.71    1.32
   3   7  11    8.02    1.66
   3   7  11   10.56    1.47
  -4  -7 -11  103.02    4.02
   4   7  11   96.98    4.20
   4   7  11   93.70    4.35
   0   4 -12   59.70    3.22
   0   4 -12   64.51    3.16
   0   4 -12   61.38    3.45
   0  -4  12   66.04    3.12
   0  -4  12   62.72    3.48
  -1   4 -12   21.49    2.23
  -1   4 -12   27.63    1.87
  -1   4 -12   28.33    2.01
   1  -4  12   25.23    2.08
   1  -4  12   28.97    2.09
   1  -4  12   25.50    2.27
  -2   4 -12   96.10    3.95
  -2   4 -12   90.41    3.88
  -2   4 -12   80.95    3.87
   2  -4  12   83.43    4.05
   2  -4  12   93.98    4.01
   2  -4  12   82.81    3.94
  -3   4 -12   31.64    1.89
  -3   4 -12   27.45    1.92
  -3   4 -12   28.03    2.76
  -3   4 -12   33.01    2.13
   3  -4  12   23.40    2.05
   3  -4  12   29.88    2.21
   3  -4  12   31.37    2.07
  -4   4 -12   73.64    3.41
   4  -4  12   63.25    4.03
   4  -4  12   79.56    3.46
   4  -4  12   68.87    3.55
   0   3 -12   13.70    1.96
   0   3 -12    8.80    1.53
   0   3 -12   11.61    1.69
   0  -3  12   14.36    1.70
   0  -3  12   11.18    2.25
   0  -3  12   13.03    2.07
   0  -3  12   14.92    1.65
  -1   3 -12   18.35    1.97
  -1   3 -12   17.81    1.69
  -1   3 -12   18.06    1.61
   1  -3  12   18.40    1.98
   1  -3  12   17.74    1.79
   1  -3  12   16.95    1.76
  -2   3 -12   19.23    1.66
  -2   3 -12   19.44    1.95
  -2   3 -12   19.33    1.59
   2  -3  12   18.97    1.73
   2  -3  12   16.85    1.83
   2  -3  12   16.54    1.84
  -3   3 -12    8.78    1.27
  -3   3 -12    5.86    0.84
  -3   3 -12    5.10    1.01
  -3   3 -12    6.28    1.36
   3  -3  12    7.69    1.51
   3  -3  12    6.51    1.45
   3  -3  12    9.04    1.64
  -4   3 -12   22.42    1.91
  -4   3 -12   20.64    1.73
  -4   3 -12   20.73    1.45
   4  -3  12   24.04    2.00
   4  -3  12   25.76    1.91
   4  -3  12   18.18    1.73
  -5   3 -12   48.53    2.83
  -5   3 -12   45.14    2.54
   5  -3  12   49.73    2.65
   1   2 -12    7.73    1.43
   1   2 -12    6.68    1.54
   1   2 -12    3.64    1.23
  -1  -2  12    4.18    0.98
  -1  -2  12    2.16    1.37
  -1  -2  12    6.10    1.69
   0   2 -12   14.41    1.99
   0   2 -12   15.24    1.62
   0   2 -12   19.09    1.54
   0  -2  12   13.24    2.02
   0  -2  12   11.92    2.07
   0  -2  12   13.79    1.63
   0  -2  12   14.81    1.71
  -1   2 -12   17.61    1.96
  -1   2 -12   22.21    1.65
  -1   2 -12   18.25    1.63
   1  -2  12   19.60    1.75
   1  -2  12   18.69    2.71
   1  -2  12   21.13    1.96
   1  -2  12   19.77    1.78
  -2   2 -12    5.29    1.27
  -2   2 -12    2.25    0.72
  -2   2 -12    3.15    0.88
   2  -2  12    1.97    0.94
   2  -2  12    2.05    0.95
   2  -2  12    2.27    0.88
  -3   2 -12   21.63    1.55
  -3   2 -12   20.62    1.51
  -3   2 -12   22.30    1.76
  -3   2 -12   17.06    1.72
   3  -2  12   21.99    1.85
   3  -2  12   16.62    1.83
   3  -2  12   24.07    1.77
  -4   2 -12   18.05    1.74
  -4   2 -12   21.19    1.56
  -4   2 -12   21.87    1.36
   4  -2  12   20.10    1.75
   4  -2  12   16.82    1.68
   4  -2  12   18.56    1.86
  -5   2 -12   18.15    1.79
  -5   2 -12   15.54    1.55
   5  -2  12   13.42    1.52
   5  -2  12   20.87    1.77
   5  -2  12   19.13    1.98
   1   1 -12   23.35    1.87
   1   1 -12   25.33    2.21
   1   1 -12   23.25    1.72
  -1  -1  12   22.38    2.02
  -1  -1  12   18.78    2.39
  -1  -1  12   23.54    1.84
   0   1 -12    1.12    0.90
   0   1 -12   -0.11    0.67
   0   1 -12    0.52    0.71
   0  -1  12   -1.73    1.52
   0  -1  12    0.01    0.84
   0  -1  12    0.13    0.91
   0  -1  12    2.07    1.12
  -1   1 -12   56.90    2.93
  -1   1 -12   52.99    2.66
  -1   1 -12   55.99    2.72
   1  -1  12   55.61    2.72
   1  -1  12   59.44    3.01
   1  -1  12   58.10    2.88
   1  -1  12   43.55    2.96
   1  -1  12   52.69    3.36
  -2   1 -12    2.31    0.79
  -2   1 -12    1.54    0.83
  -2   1 -12    1.01    0.80
  -2   1 -12    2.13    0.68
   2  -1  12    1.84    0.90
   2  -1  12    2.45    0.99
   2  -1  12    0.51    1.24
   2  -1  12    1.07    1.07
   2  -1  12    0.68    0.82
  -3   1 -12   85.02    3.65
  -3   1 -12   78.58    3.39
  -3   1 -12   81.08    3.65
  -3   1 -12   78.37    3.36
   3  -1  12   77.72    3.54
   3  -1  12   68.39    3.57
   3  -1  12   81.71    3.65
  -4   1 -12    6.01    1.06
  -4   1 -12    6.45    0.97
  -4   1 -12    5.95    1.45
  -4   1 -12    6.91    1.12
   4  -1  12    7.94    1.49
   4  -1  12    4.70    1.02
   4  -1  12    5.79    1.25
  -5   1 -12    1.20    0.67
  -5   1 -12    0.06    0.77
   5  -1  12   -0.81    0.79
   5  -1  12    0.45    1.14
   5  -1  12   -1.48    0.87
   1   0 -12    3.45    0.82
   1   0 -12    2.63    2.51
   1   0 -12    3.52    1.06
  -1   0  12    6.26    1.50
  -1   0  12    3.35    1.11
  -1   0  12    1.97    1.21
   0   0 -12    7.93    1.37
   0   0 -12   11.89    1.31
   0   0 -12   12.86    1.74
   0   0  12   11.51    1.57
   0   0  12    6.92    1.65
   0   0  12    8.84    1.71
   0   0  12   10.85    1.60
   0   0  12    8.10    1.54
  -1   0 -12    8.33    1.50
  -1   0 -12    8.24    1.25
  -1   0 -12    7.21    1.23
   1   0  12    9.50    2.37
   1   0  12    7.06    1.50
   1   0  12    5.45    1.48
   1   0  12    9.18    1.56
  -2   0 -12   85.56    3.85
  -2   0 -12   83.39    3.62
  -2   0 -12   80.65    3.75
  -2   0 -12   87.42    3.77
   2   0  12   84.98    3.79
   2   0  12   86.92    3.83
   2   0  12   89.56    3.86
   2   0  12   83.11    4.14
   2   0  12   82.03    3.75
  -3   0 -12   -0.15    0.70
  -3   0 -12    1.15    0.63
  -3   0 -12   -0.12    0.65
  -3   0 -12    0.09    0.52
   3   0  12    0.04    0.78
   3   0  12    1.80    1.94
   3   0  12   -0.07    0.90
   3   0  12    0.48    0.79
  -4   0 -12   33.82    1.79
  -4   0 -12   34.62    1.70
  -4   0 -12   31.19    1.75
  -4   0 -12   33.62    2.15
   4   0  12   31.70    2.05
   4   0  12   34.89    2.25
   4   0  12   29.44    2.04
  -5   0 -12    1.40    0.80
  -5   0 -12    1.12    0.62
   5   0  12    0.10    0.88
   5   0  12    0.57    0.80
   5   0  12    0.07    1.09
  -6   0 -12    8.04    1.31
   6   0  12    5.41    1.15
   6   0  12   10.58    1.70
   1  -1 -12   75.65    3.77
   1  -1 -12   63.00    4.59
   1  -1 -12   72.94    3.49
   1  -1 -12   79.54    3.43
  -1   1  12   76.64    3.71
  -1   1  12   80.98    3.52
  -1   1  12   86.38    3.93
   0  -1 -12    3.47    0.80
   0  -1 -12    3.37    0.89
   0  -1 -12    4.62    1.15
   0   1  12    2.95    1.50
   0   1  12    2.57    1.09
   0   1  12    3.17    0.95
   0   1  12    1.55    1.00
  -1  -1 -12   30.51    1.91
  -1  -1 -12   30.21    2.06
   1   1  12   32.50    1.98
   1   1  12   35.07    2.16
   1   1  12   30.70    1.94
   1   1  12   30.30    2.70
   1   1  12   30.90    2.09
  -2  -1 -12   10.48    1.19
  -2  -1 -12    8.92    1.32
  -2  -1 -12    9.77    1.50
  -2  -1 -12    9.03    1.40
   2   1  12   10.71    2.03
   2   1  12    8.31    1.40
   2   1  12    9.48    1.46
   2   1  12    9.83    1.45
  -3  -1 -12   -0.30    0.56
  -3  -1 -12    0.66    0.69
  -3  -1 -12    0.96    0.70
  -3  -1 -12    0.51    0.54
   3   1  12    1.21    1.25
   3   1  12    1.90    1.04
   3   1  12    2.65    0.80
   3   1  12    0.75    0.78
   3   1  12   -0.50    0.88
  -4  -1 -12   11.19    1.50
  -4  -1 -12   11.51    1.10
  -4  -1 -12   11.82    1.21
  -4  -1 -12   11.73    1.14
   4   1  12   10.00    1.64
   4   1  12   10.89    1.41
   4   1  12   11.56    1.49
  -5  -1 -12   54.70    2.38
  -5  -1 -12   48.40    2.80
   5   1  12   42.58    2.56
   5   1  12   56.82    2.69
   5   1  12   53.05    2.86
  -6  -1 -12    1.92    0.94
  -6  -1 -12    6.01    1.20
   6   1  12    4.95    1.09
   6   1  12    5.54    1.50
   6   1  12    4.19    1.05
   1  -2 -12   16.79    1.58
   1  -2 -12   15.84    1.57
   1  -2 -12   14.70    1.88
  -1   2  12   15.22    2.05
  -1   2  12   18.16    1.96
  -1   2  12   14.92    1.70
   0  -2 -12   22.05    1.60
   0  -2 -12   20.82    1.57
   0  -2 -12   21.60    1.84
   0   2  12   16.39    2.73
   0   2  12   22.90    1.96
   0   2  12   18.03    1.91
  -1  -2 -12   27.90    1.90
  -1  -2 -12   23.41    1.65
  -1  -2 -12   23.61    1.66
   1   2  12   24.41    1.62
   1   2  12   27.24    1.91
   1   2  12   25.12    1.89
   1   2  12   28.60    2.60
  -2  -2 -12    1.45    0.73
  -2  -2 -12    1.49    0.65
   2   2  12    1.17    0.83
   2   2  12    0.51    1.16
   2   2  12    0.68    0.80
  -3  -2 -12   36.25    2.20
  -3  -2 -12   38.66    2.24
  -3  -2 -12   40.38    1.91
  -3  -2 -12   40.41    2.00
   3   2  12   41.66    2.19
   3   2  12   36.72    2.17
   3   2  12   37.84    2.28
  -4  -2 -12   19.64    1.73
  -4  -2 -12   22.33    1.52
  -4  -2 -12   22.37    1.34
  -4  -2 -12   19.79    1.40
   4   2  12   20.04    1.64
   4   2  12   22.37    1.71
  -5  -2 -12   29.23    2.17
  -5  -2 -12   34.14    1.67
   5   2  12   26.30    1.92
   5   2  12   29.45    2.21
   5   2  12   33.81    2.00
  -6  -2 -12   46.75    2.92
   6   2  12   44.97    2.49
   1  -3 -12   61.56    3.10
   1  -3 -12   64.91    3.10
   1  -3 -12   65.21    3.35
  -1   3  12   71.19    3.47
  -1   3  12   66.80    3.46
   0  -3 -12    9.32    1.33
   0  -3 -12   10.08    1.58
   0  -3 -12    9.52    1.35
   0   3  12    8.88    1.64
   0   3  12    9.25    1.65
   0   3  12   10.46    2.50
  -1  -3 -12   90.34    3.79
  -1  -3 -12   88.13    3.96
  -1  -3 -12   82.29    3.82
   1   3  12   87.19    4.37
   1   3  12   88.69    3.98
   1   3  12   95.23    3.95
  -2  -3 -12   11.67    1.46
  -2  -3 -12    8.94    1.24
  -2  -3 -12    9.28    1.18
   2   3  12    9.73    1.53
   2   3  12    8.63    1.30
   2   3  12   10.41    2.12
  -3  -3 -12   86.33    3.66
  -3  -3 -12   84.23    3.33
  -3  -3 -12   80.61    3.70
  -3  -3 -12   78.77    3.58
   3   3  12   74.69    3.56
   3   3  12   84.75    3.64
   3   3  12   83.10    3.59
  -4  -3 -12   19.13    1.19
  -4  -3 -12   18.14    1.63
  -4  -3 -12   16.55    1.52
  -4  -3 -12   18.51    1.35
   4   3  12   17.28    1.50
   4   3  12   19.24    1.67
  -5  -3 -12   47.28    2.76
  -5  -3 -12   48.42    2.52
   5   3  12   51.31    2.57
   5   3  12   47.91    2.47
   0  -4 -12   17.33    1.58
   0  -4 -12   17.65    1.80
   0  -4 -12   17.51    1.55
   0   4  12   17.13    1.88
   0   4  12   19.14    1.99
  -1  -4 -12    4.74    0.97
  -1  -4 -12    4.01    1.16
  -1  -4 -12    3.63    0.80
   1   4  12    3.05    1.03
   1   4  12    3.71    0.98
   1   4  12    2.94    1.29
  -2  -4 -12    6.63    1.20
  -2  -4 -12    7.68    1.43
  -2  -4 -12    7.78    1.21
   2   4  12    7.11    1.41
   2   4  12    6.23    1.32
  -3  -4 -12   22.57    1.24
  -3  -4 -12   16.67    1.72
  -3  -4 -12   20.10    1.68
  -3  -4 -12   19.06    1.45
  -3  -4 -12   21.18    1.89
   3   4  12   22.13    1.76
   3   4  12   22.30    1.61
   3   4  12   19.81    1.74
  -4  -4 -12   30.35    2.13
   4   4  12   35.65    1.99
   4   4  12   34.31    2.12
  -5  -4 -12   32.14    2.22
   5   4  12   29.70    1.95
   5   4  12   34.48    2.17
   0  -5 -12   17.07    1.75
   0  -5 -12   16.61    1.63
   0  -5 -12   22.79    1.97
   0   5  12   20.07    2.05
   0   5  12   20.75    1.98
  -1  -5 -12    1.46    0.74
  -1  -5 -12    1.27    0.76
  -1  -5 -12    0.68    0.87
   1   5  12   -0.11    0.92
   1   5  12    5.99    1.51
  -2  -5 -12   22.70    1.92
  -2  -5 -12   21.41    1.73
  -2  -5 -12   24.02    1.66
   2   5  12   20.93    1.89
   2   5  12   26.17    1.83
  -3  -5 -12   12.70    1.47
  -3  -5 -12   11.95    1.35
   3   5  12   16.03    1.54
   3   5  12   10.16    1.57
   3   5  12   12.78    1.61
  -4  -5 -12    2.57    0.71
  -4  -5 -12    1.25    0.87
   4   5  12    5.53    1.31
   4   5  12    5.21    1.49
  -2  -6 -12   46.93    2.48
   2   6  12   49.99    2.67
  -3  -6 -12    3.14    0.79
   3   6  12    4.13    1.02
   3   6  12    5.64    1.61
  -1   2 -13    0.52    1.14
  -1   2 -13    0.30    0.88
  -1   2 -13   -0.22    0.88
   1  -2  13   -0.71    1.06
   1  -2  13    1.56    1.22
  -2   2 -13    7.84    1.57
   2  -2  13    6.44    1.80
   2  -2  13    3.89    1.09
   2  -2  13    4.85    1.29
  -3   2 -13   24.82    1.82
  -3   2 -13   26.16    2.07
  -3   2 -13   23.53    1.84
   3  -2  13   26.60    2.19
   3  -2  13   23.51    2.08
   3  -2  13   20.80    2.24
  -1   1 -13   16.56    1.76
  -1   1 -13   11.04    2.10
  -1   1 -13   19.18    1.79
   1  -1  13   13.85    1.91
   1  -1  13   14.40    1.85
   1  -1  13   16.23    2.20
  -2   1 -13   43.04    2.48
  -2   1 -13   43.46    2.38
   2  -1  13   40.17    2.73
   2  -1  13   36.47    2.56
   2  -1  13   41.81    2.54
  -3   1 -13   24.08    2.05
  -3   1 -13   25.12    2.02
  -3   1 -13   25.63    1.83
  -3   1 -13   22.96    1.77
   3  -1  13   26.85    2.15
   3  -1  13   26.38    2.04
   3  -1  13   19.31    2.13
  -4   1 -13    1.16    0.96
  -4   1 -13    1.35    1.03
  -4   1 -13    1.77    0.79
   4  -1  13    4.08    1.29
   4  -1  13   -0.06    1.03
   4  -1  13    2.06    1.02
   0   0 -13   27.95    2.03
  -1   0 -13    0.53    0.95
  -1   0 -13    3.71    0.88
  -1   0 -13    1.74    0.89
   1   0  13    1.38    1.16
   1   0  13    1.67    1.23
   1   0  13    0.03    0.99
  -2   0 -13   33.33    2.10
  -2   0 -13   34.20    2.25
   2   0  13   31.08    2.43
   2   0  13   32.76    2.32
   2   0  13   35.12    2.43
  -3   0 -13   26.70    2.09
  -3   0 -13   29.14    1.79
  -3   0 -13   22.44    1.97
  -3   0 -13   27.65    1.83
   3   0  13   29.58    2.24
   3   0  13   26.76    2.11
   3   0  13   19.96    2.15
  -4   0 -13   20.60    1.58
  -4   0 -13   18.72    2.03
  -4   0 -13   20.69    1.51
   4   0  13   16.03    1.99
   4   0  13   18.54    2.14
   4   0  13   18.42    1.95
   0  -1 -13   -0.19    0.87
  -1  -1 -13   -0.64    0.77
  -1  -1 -13    1.58    0.96
  -1  -1 -13    0.26    0.82
   1   1  13    0.36    1.12
   1   1  13    0.10    1.10
   1   1  13    2.02    1.14
  -2  -1 -13   68.74    3.23
  -2  -1 -13   60.96    3.50
  -2  -1 -13   74.27    3.44
   2   1  13   75.47    3.48
   2   1  13   62.92    3.38
   2   1  13   76.06    3.56
   2   1  13   73.97    3.52
  -3  -1 -13    5.52    1.31
  -3  -1 -13    3.05    0.94
  -3  -1 -13    0.93    0.94
  -3  -1 -13    4.78    1.19
   3   1  13    2.77    1.10
   3   1  13    2.27    1.12
   3   1  13    4.10    1.05
  -4  -1 -13   70.24    3.05
  -4  -1 -13   68.11    3.49
  -4  -1 -13   71.08    3.04
   4   1  13   70.83    3.39
   4   1  13   70.18    3.49
   4   1  13   59.54    3.33
  -1  -2 -13    5.79    1.19
  -1  -2 -13    4.44    0.97
  -1  -2 -13    6.81    1.46
   1   2  13    7.02    1.88
   1   2  13    3.61    1.18
   1   2  13    3.07    1.17
  -2  -2 -13    1.25    0.82
  -2  -2 -13   -0.07    0.93
   2   2  13    2.17    1.16
   2   2  13    4.02    1.15
   2   2  13    1.73    1.09
   2   2  13    1.56    1.12
  -3  -2 -13    2.80    0.70
  -3  -2 -13    2.41    0.76
  -3  -2 -13    0.22    0.79
   3   2  13   -0.90    1.06
   3   2  13    0.67    0.97
   3   2  13    2.00    1.03
  -4  -2 -13   10.07    1.17
  -4  -2 -13    7.61    1.36
  -4  -2 -13   10.15    1.75
   4   2  13    5.75    1.62
   4   2  13    9.94    1.84
   4   2  13    9.37    1.71
  -1  -3 -13    1.58    0.81
  -1  -3 -13    1.04    0.80
  -1  -3 -13    0.98    1.03
   1   3  13    2.41    1.17
  -2  -3 -13   58.21    3.00
  -2  -3 -13   58.78    2.87
   2   3  13   61.49    3.10
   2   3  13   57.65    3.17
  -3  -3 -13   11.33    1.65
  -3  -3 -13   13.42    1.28
   3   3  13    9.81    1.78
  -4  -3 -13    6.40    1.32
   4   3  13    3.20    1.04
   4   3  13    3.63    1.11
   2   4  13   51.16    2.84
  -3  -4 -13    6.29    1.39
   3   4  13    4.05    1.36
   3   4  13    3.36    1.10
   0   0   0    0.00    0.00
;
_shelx_hkl_checksum              78904
loop_
_space_group_symop_operation_xyz
'x, y, z'
'-x, -y, -z'
loop_
_atom_site_label
_atom_site_type_symbol
_atom_site_fract_x
_atom_site_fract_y
_atom_site_fract_z
_atom_site_U_iso_or_equiv
_atom_site_adp_type
_atom_site_occupancy
_atom_site_site_symmetry_order
_atom_site_calc_flag
Ba1 Ba 0.22932(4) 0.33177(3) 0.55628(3) 0.01095(7) Uani 1 1 d
Ba2 Ba 0.75497(4) 0.82700(3) 1.07632(2) 0.00868(7) Uani 1 1 d
Ce1 Ce 0.81453(3) 0.10888(2) 0.39455(2) 0.00558(7) Uani 1 1 d
Ce2 Ce 0.30991(3) 0.62213(2) 0.89848(2) 0.00600(7) Uani 1 1 d
Si1 Si 0.60533(17) -0.05978(12) 0.68762(11) 0.0059(2) Uani 1 1 d
Si2 Si 0.80096(17) 0.12232(12) 0.84495(11) 0.0058(2) Uani 1 1 d
Si3 Si 0.67875(17) 0.38547(12) 0.67667(11) 0.0063(2) Uani 1 1 d
Si4 Si 0.88969(17) 0.56702(12) 0.82318(11) 0.0057(2) Uani 1 1 d
O1 O 1.0257(4) 0.7141(3) 0.7968(3) 0.0092(6) Uani 1 1 d
O2 O 0.4718(4) -0.2078(3) 0.7076(3) 0.0098(6) Uani 1 1 d
O3 O 0.6655(4) 0.5960(3) 0.9359(3) 0.0082(6) Uani 1 1 d
O4 O 0.8278(4) -0.0869(3) 0.5742(3) 0.0082(6) Uani 1 1 d
O5 O 0.6519(4) -0.0158(3) 0.8335(3) 0.0080(6) Uani 1 1 d
O6 O 0.8441(4) 0.5163(3) 0.6802(3) 0.0077(6) Uani 1 1 d
O7 O 0.4719(5) 0.0755(3) 0.6349(3) 0.0119(6) Uani 1 1 d
O8 O 1.0179(5) 0.4293(3) 0.8775(3) 0.0114(6) Uani 1 1 d
O9 O 1.0275(4) 0.1068(3) 0.7399(3) 0.0093(6) Uani 1 1 d
O10 O 0.4496(5) 0.4585(3) 0.7013(3) 0.0135(6) Uani 1 1 d
O11 O 0.7835(5) 0.3161(3) 0.5320(3) 0.0161(7) Uani 1 1 d
O12 O 0.8059(4) 0.1275(3) 1.0008(3) 0.0092(6) Uani 1 1 d
O13 O 0.6683(4) 0.2731(3) 0.8127(3) 0.0086(6) Uani 1 1 d
loop_
_atom_site_aniso_label
_atom_site_aniso_U_11
_atom_site_aniso_U_22
_atom_site_aniso_U_33
_atom_site_aniso_U_23
_atom_site_aniso_U_13
_atom_site_aniso_U_12
Ba1 0.01260(14) 0.00951(13) 0.01181(13) -0.00002(9) -0.00506(10) -0.00132(9)
Ba2 0.00725(13) 0.00832(13) 0.01090(13) -0.00161(9) -0.00312(10) 0.00008(9)
Ce1 0.00482(12) 0.00544(12) 0.00655(12) -0.00057(8) -0.00180(9) 0.00046(8)
Ce2 0.00489(12) 0.00595(12) 0.00684(12) 0.00040(8) -0.00148(9) 0.00069(8)
Si1 0.0050(5) 0.0066(5) 0.0063(5) -0.0007(4) -0.0019(4) -0.0009(4)
Si2 0.0049(5) 0.0062(5) 0.0057(5) -0.0010(4) -0.0007(4) 0.0001(4)
Si3 0.0064(5) 0.0061(5) 0.0065(5) -0.0012(4) -0.0015(4) -0.0001(4)
Si4 0.0040(5) 0.0069(5) 0.0060(5) -0.0006(4) -0.0012(4) -0.0014(4)
O1 0.0092(15) 0.0080(14) 0.0114(15) 0.0018(11) -0.0044(12) -0.0030(11)
O2 0.0096(15) 0.0098(14) 0.0104(15) 0.0006(11) -0.0032(12) -0.0036(11)
O3 0.0050(14) 0.0101(14) 0.0092(14) -0.0004(11) -0.0013(11) -0.0012(11)
O4 0.0044(14) 0.0103(14) 0.0100(14) -0.0017(11) -0.0020(11) 0.0000(11)
O5 0.0083(14) 0.0080(13) 0.0081(14) -0.0014(11) -0.0029(11) 0.0000(11)
O6 0.0092(14) 0.0087(14) 0.0058(13) -0.0012(11) -0.0024(11) -0.0031(11)
O7 0.0120(15) 0.0095(14) 0.0156(16) -0.0010(12) -0.0066(13) 0.0018(11)
O8 0.0112(15) 0.0091(14) 0.0149(15) -0.0005(11) -0.0055(12) 0.0016(11)
O9 0.0070(14) 0.0111(14) 0.0088(14) -0.0038(11) 0.0002(12) -0.0008(11)
O10 0.0116(16) 0.0131(15) 0.0180(16) -0.0044(12) -0.0076(13) 0.0032(12)
O11 0.0199(17) 0.0135(15) 0.0118(15) -0.0053(12) 0.0020(13) -0.0045(12)
O12 0.0107(15) 0.0091(14) 0.0079(14) -0.0009(11) -0.0028(12) 0.0005(11)
O13 0.0073(14) 0.0077(13) 0.0094(14) 0.0015(11) -0.0008(11) 0.0013(11)
loop_
_atom_type_symbol
_atom_type_description
_atom_type_scat_dispersion_real
_atom_type_scat_dispersion_imag
_atom_type_scat_source
O O 0.0106 0.0060 'International Tables Vol C Tables 4.2.6.8 and 6.1.1.4'
Si Si 0.0817 0.0704 'International Tables Vol C Tables 4.2.6.8 and 6.1.1.4'
Ba Ba -0.3244 2.2819 'International Tables Vol C Tables 4.2.6.8 and 6.1.1.4'
Ce Ce -0.2486 2.6331 'International Tables Vol C Tables 4.2.6.8 and 6.1.1.4'
loop_
_geom_angle_atom_site_label_1
_geom_angle_atom_site_label_2
_geom_angle_atom_site_label_3
_geom_angle
_geom_angle_site_symmetry_1
_geom_angle_site_symmetry_3
O10 Ba1 O4 147.78(8) . 2_656
O10 Ba1 O9 102.71(9) . 1_455
O4 Ba1 O9 67.45(8) 2_656 1_455
O10 Ba1 O6 120.38(9) . 2_666
O4 Ba1 O6 82.14(8) 2_656 2_666
O9 Ba1 O6 133.92(8) 1_455 2_666
O10 Ba1 O7 77.36(8) . .
O4 Ba1 O7 71.22(8) 2_656 .
O9 Ba1 O7 59.95(8) 1_455 .
O6 Ba1 O7 140.87(8) 2_666 .
O10 Ba1 O6 93.08(8) . 1_455
O4 Ba1 O6 115.19(8) 2_656 1_455
O9 Ba1 O6 84.00(8) 1_455 1_455
O6 Ba1 O6 78.51(8) 2_666 1_455
O7 Ba1 O6 138.65(8) . 1_455
O10 Ba1 O11 141.87(8) . 1_455
O4 Ba1 O11 66.32(8) 2_656 1_455
O9 Ba1 O11 71.17(8) 1_455 1_455
O6 Ba1 O11 65.05(8) 2_666 1_455
O7 Ba1 O11 124.23(8) . 1_455
O6 Ba1 O11 49.36(7) 1_455 1_455
O10 Ba1 O2 109.51(8) . 2_656
O4 Ba1 O2 53.90(8) 2_656 2_656
O9 Ba1 O2 112.80(8) 1_455 2_656
O6 Ba1 O2 69.31(8) 2_666 2_656
O7 Ba1 O2 71.86(8) . 2_656
O6 Ba1 O2 146.90(8) 1_455 2_656
O11 Ba1 O2 107.32(8) 1_455 2_656
O10 Ba1 O11 75.19(8) . 2_666
O4 Ba1 O11 130.87(8) 2_656 2_666
O9 Ba1 O11 145.09(8) 1_455 2_666
O6 Ba1 O11 48.73(8) 2_666 2_666
O7 Ba1 O11 146.79(8) . 2_666
O6 Ba1 O11 61.61(8) 1_455 2_666
O11 Ba1 O11 88.98(8) 1_455 2_666
O2 Ba1 O11 100.24(8) 2_656 2_666
O10 Ba1 O8 57.89(8) . 1_455
O4 Ba1 O8 130.19(8) 2_656 1_455
O9 Ba1 O8 64.14(7) 1_455 1_455
O6 Ba1 O8 125.32(7) 2_666 1_455
O7 Ba1 O8 93.80(8) . 1_455
O6 Ba1 O8 49.39(7) 1_455 1_455
O11 Ba1 O8 87.41(8) 1_455 1_455
O2 Ba1 O8 163.46(7) 2_656 1_455
O11 Ba1 O8 87.21(7) 2_666 1_455
O10 Ba1 Si3 90.54(7) . 2_666
O4 Ba1 Si3 107.17(6) 2_656 2_666
O9 Ba1 Si3 161.95(6) 1_455 2_666
O6 Ba1 Si3 30.17(6) 2_666 2_666
O7 Ba1 Si3 136.25(6) . 2_666
O6 Ba1 Si3 83.08(6) 1_455 2_666
O11 Ba1 Si3 90.83(6) 1_455 2_666
O2 Ba1 Si3 73.14(6) 2_656 2_666
O11 Ba1 Si3 27.89(5) 2_666 2_666
O8 Ba1 Si3 115.09(5) 1_455 2_666
O10 Ba1 Si1 128.72(6) . 2_656
O4 Ba1 Si1 26.91(6) 2_656 2_656
O9 Ba1 Si1 87.47(6) 1_455 2_656
O6 Ba1 Si1 78.45(6) 2_666 2_656
O7 Ba1 Si1 64.75(6) . 2_656
O6 Ba1 Si1 138.18(6) 1_455 2_656
O11 Ba1 Si1 89.19(6) 1_455 2_656
O2 Ba1 Si1 27.66(5) 2_656 2_656
O11 Ba1 Si1 121.59(6) 2_666 2_656
O8 Ba1 Si1 150.93(5) 1_455 2_656
Si3 Ba1 Si1 93.81(3) 2_666 2_656
O3 Ba2 O12 130.42(8) . 1_565
O3 Ba2 O9 143.04(8) . 2_767
O12 Ba2 O9 82.13(8) 1_565 2_767
O3 Ba2 O8 70.86(8) . 2_767
O12 Ba2 O8 140.65(9) 1_565 2_767
O9 Ba2 O8 72.32(8) 2_767 2_767
O3 Ba2 O12 111.21(8) . 2_767
O12 Ba2 O12 72.89(9) 1_565 2_767
O9 Ba2 O12 56.01(8) 2_767 2_767
O8 Ba2 O12 68.08(8) 2_767 2_767
O3 Ba2 O13 66.35(8) . 2_667
O12 Ba2 O13 118.00(8) 1_565 2_667
O9 Ba2 O13 118.27(8) 2_767 2_667
O8 Ba2 O13 100.55(8) 2_767 2_667
O12 Ba2 O13 168.07(8) 2_767 2_667
O3 Ba2 O5 76.59(8) . 1_565
O12 Ba2 O5 54.50(8) 1_565 1_565
O9 Ba2 O5 135.88(8) 2_767 1_565
O8 Ba2 O5 136.30(8) 2_767 1_565
O12 Ba2 O5 98.79(8) 2_767 1_565
O13 Ba2 O5 92.03(8) 2_667 1_565
O3 Ba2 O7 128.31(8) . 2_667
O12 Ba2 O7 87.32(8) 1_565 2_667
O9 Ba2 O7 58.73(8) 2_767 2_667
O8 Ba2 O7 103.47(8) 2_767 2_667
O12 Ba2 O7 113.47(8) 2_767 2_667
O13 Ba2 O7 64.48(8) 2_667 2_667
O5 Ba2 O7 119.60(8) 1_565 2_667
O3 Ba2 O5 105.08(8) . 2_667
O12 Ba2 O5 67.36(8) 1_565 2_667
O9 Ba2 O5 103.98(8) 2_767 2_667
O8 Ba2 O5 147.20(8) 2_767 2_667
O12 Ba2 O5 137.81(8) 2_767 2_667
O13 Ba2 O5 51.40(7) 2_667 2_667
O5 Ba2 O5 69.16(9) 1_565 2_667
O7 Ba2 O5 52.35(8) 2_667 2_667
O3 Ba2 O1 53.94(8) . .
O12 Ba2 O1 94.87(8) 1_565 .
O9 Ba2 O1 115.45(8) 2_767 .
O8 Ba2 O1 71.03(8) 2_767 .
O12 Ba2 O1 61.61(8) 2_767 .
O13 Ba2 O1 119.34(8) 2_667 .
O5 Ba2 O1 66.37(7) 1_565 .
O7 Ba2 O1 173.49(8) 2_667 .
O5 Ba2 O1 134.10(7) 2_667 .
O3 Ba2 Si2 128.11(6) . 2_767
O12 Ba2 Si2 79.66(6) 1_565 2_767
O9 Ba2 Si2 28.15(6) 2_767 2_767
O8 Ba2 Si2 63.64(6) 2_767 2_767
O12 Ba2 Si2 28.34(6) 2_767 2_767
O13 Ba2 Si2 143.81(6) 2_667 2_767
O5 Ba2 Si2 122.34(6) 1_565 2_767
O7 Ba2 Si2 86.77(6) 2_667 2_767
O5 Ba2 Si2 126.65(6) 2_667 2_767
O1 Ba2 Si2 87.60(6) . 2_767
O3 Ba2 Si2 103.01(6) . 1_565
O12 Ba2 Si2 27.60(6) 1_565 1_565
O9 Ba2 Si2 106.62(6) 2_767 1_565
O8 Ba2 Si2 138.83(7) 2_767 1_565
O12 Ba2 Si2 77.53(6) 2_767 1_565
O13 Ba2 Si2 114.36(6) 2_667 1_565
O5 Ba2 Si2 29.35(6) 1_565 1_565
O7 Ba2 Si2 110.71(6) 2_667 1_565
O5 Ba2 Si2 73.93(6) 2_667 1_565
O1 Ba2 Si2 73.09(5) . 1_565
Si2 Ba2 Si2 95.56(3) 2_767 1_565
O11 Ce1 O9 159.49(11) . 2_756
O11 Ce1 O4 97.12(10) . .
O9 Ce1 O4 77.35(9) 2_756 .
O11 Ce1 O1 84.34(10) . 2_766
O9 Ce1 O1 92.01(9) 2_756 2_766
O4 Ce1 O1 153.45(9) . 2_766
O11 Ce1 O4 82.16(10) . 2_756
O9 Ce1 O4 77.37(9) 2_756 2_756
O4 Ce1 O4 70.45(11) . 2_756
O1 Ce1 O4 83.58(9) 2_766 2_756
O11 Ce1 O2 93.55(10) . 2_656
O9 Ce1 O2 104.76(9) 2_756 2_656
O4 Ce1 O2 132.62(9) . 2_656
O1 Ce1 O2 73.41(10) 2_766 2_656
O4 Ce1 O2 156.92(9) 2_756 2_656
O11 Ce1 O7 131.37(10) . 2_656
O9 Ce1 O7 67.59(9) 2_756 2_656
O4 Ce1 O7 79.27(9) . 2_656
O1 Ce1 O7 119.38(9) 2_766 2_656
O4 Ce1 O7 137.76(9) 2_756 2_656
O2 Ce1 O7 59.72(9) 2_656 2_656
O11 Ce1 O7 70.33(10) . .
O9 Ce1 O7 120.76(9) 2_756 .
O4 Ce1 O7 59.24(9) . .
O1 Ce1 O7 143.28(9) 2_766 .
O4 Ce1 O7 117.31(9) 2_756 .
O2 Ce1 O7 81.86(9) 2_656 .
O7 Ce1 O7 66.42(10) 2_656 .
O11 Ce1 Si1 112.57(8) . 2_656
O9 Ce1 Si1 87.92(7) 2_756 2_656
O4 Ce1 Si1 105.55(7) . 2_656
O1 Ce1 Si1 98.19(7) 2_766 2_656
O4 Ce1 Si1 165.25(7) 2_756 2_656
O2 Ce1 Si1 29.74(7) 2_656 2_656
O7 Ce1 Si1 30.18(6) 2_656 2_656
O7 Ce1 Si1 69.42(6) . 2_656
O11 Ce1 Si1 82.72(8) . .
O9 Ce1 Si1 99.73(7) 2_756 .
O4 Ce1 Si1 29.27(7) . .
O1 Ce1 Si1 167.01(7) 2_766 .
O4 Ce1 Si1 93.52(7) 2_756 .
O2 Ce1 Si1 108.49(7) 2_656 .
O7 Ce1 Si1 70.85(7) 2_656 .
O7 Ce1 Si1 29.98(6) . .
Si1 Ce1 Si1 87.85(3) 2_656 .
O11 Ce1 Ce2 89.41(8) . 2_666
O9 Ce1 Ce2 99.86(7) 2_756 2_666
O4 Ce1 Ce2 167.88(6) . 2_666
O1 Ce1 Ce2 37.20(7) 2_766 2_666
O4 Ce1 Ce2 120.78(7) 2_756 2_666
O2 Ce1 Ce2 36.22(6) 2_656 2_666
O7 Ce1 Ce2 88.74(6) 2_656 2_666
O7 Ce1 Ce2 114.21(6) . 2_666
Si1 Ce1 Ce2 62.41(2) 2_656 2_666
Si1 Ce1 Ce2 143.45(2) . 2_666
O11 Ce1 Ba1 138.35(8) . 2_656
O9 Ce1 Ba1 44.23(7) 2_756 2_656
O4 Ce1 Ba1 42.70(6) . 2_656
O1 Ce1 Ba1 135.77(7) 2_766 2_656
O4 Ce1 Ba1 90.68(6) 2_756 2_656
O2 Ce1 Ba1 106.97(6) 2_656 2_656
O7 Ce1 Ba1 47.65(6) 2_656 2_656
O7 Ce1 Ba1 77.08(6) . 2_656
Si1 Ce1 Ba1 77.80(2) 2_656 2_656
Si1 Ce1 Ba1 56.698(19) . 2_656
Ce2 Ce1 Ba1 128.165(8) 2_666 2_656
O2 Ce2 O1 74.62(10) 1_565 1_455
O2 Ce2 O10 75.54(10) 1_565 .
O1 Ce2 O10 89.16(9) 1_455 .
O2 Ce2 O12 78.17(9) 1_565 2_667
O1 Ce2 O12 75.54(9) 1_455 2_667
O10 Ce2 O12 152.31(10) . 2_667
O2 Ce2 O3 84.63(9) 1_565 .
O1 Ce2 O3 159.21(9) 1_455 .
O10 Ce2 O3 86.96(9) . .
O12 Ce2 O3 99.15(9) 2_667 .
O2 Ce2 O3 150.77(9) 1_565 2_667
O1 Ce2 O3 131.52(9) 1_455 2_667
O10 Ce2 O3 90.28(9) . 2_667
O12 Ce2 O3 117.18(9) 2_667 2_667
O3 Ce2 O3 68.96(10) . 2_667
O2 Ce2 O8 147.39(9) 1_565 2_667
O1 Ce2 O8 81.87(9) 1_455 2_667
O10 Ce2 O8 126.99(9) . 2_667
O12 Ce2 O8 74.24(9) 2_667 2_667
O3 Ce2 O8 116.49(9) . 2_667
O3 Ce2 O8 60.61(9) 2_667 2_667
O2 Ce2 O8 121.14(9) 1_565 1_455
O1 Ce2 O8 60.13(9) 1_455 1_455
O10 Ce2 O8 68.66(9) . 1_455
O12 Ce2 O8 119.73(9) 2_667 1_455
O3 Ce2 O8 135.84(9) . 1_455
O3 Ce2 O8 74.73(9) 2_667 1_455
O8 Ce2 O8 61.63(11) 2_667 1_455
O2 Ce2 Si4 171.83(7) 1_565 2_667
O1 Ce2 Si4 108.50(7) 1_455 2_667
O10 Ce2 Si4 111.72(7) . 2_667
O12 Ce2 Si4 95.14(7) 2_667 2_667
O3 Ce2 Si4 91.88(7) . 2_667
O3 Ce2 Si4 30.26(6) 2_667 2_667
O8 Ce2 Si4 30.43(6) 2_667 2_667
O8 Ce2 Si4 66.22(6) 1_455 2_667
O2 Ce2 Si4 99.85(7) 1_565 1_455
O1 Ce2 Si4 29.88(7) 1_455 1_455
O10 Ce2 Si4 80.10(7) . 1_455
O12 Ce2 Si4 96.09(7) 2_667 1_455
O3 Ce2 Si4 164.70(7) . 1_455
O3 Ce2 Si4 102.74(7) 2_667 1_455
O8 Ce2 Si4 66.62(7) 2_667 1_455
O8 Ce2 Si4 30.49(6) 1_455 1_455
Si4 Ce2 Si4 85.43(3) 2_667 1_455
O2 Ce2 Si2 97.48(7) 1_565 2_667
O1 Ce2 Si2 95.93(7) 1_455 2_667
O10 Ce2 Si2 170.00(7) . 2_667
O12 Ce2 Si2 25.06(7) 2_667 2_667
O3 Ce2 Si2 85.24(7) . 2_667
O3 Ce2 Si2 92.75(7) 2_667 2_667
O8 Ce2 Si2 62.47(6) 2_667 2_667
O8 Ce2 Si2 121.34(6) 1_455 2_667
Si4 Ce2 Si2 74.83(3) 2_667 2_667
Si4 Ce2 Si2 108.46(3) 1_455 2_667
O2 Ce2 Ce1 37.72(7) 1_565 2_666
O1 Ce2 Ce1 36.91(7) 1_455 2_666
O10 Ce2 Ce1 81.17(7) . 2_666
O12 Ce2 Ce1 72.71(6) 2_667 2_666
O3 Ce2 Ce1 122.32(6) . 2_666
O3 Ce2 Ce1 165.08(6) 2_667 2_666
O8 Ce2 Ce1 115.49(6) 2_667 2_666
O8 Ce2 Ce1 90.72(6) 1_455 2_666
Si4 Ce2 Ce1 144.71(2) 2_667 2_666
Si4 Ce2 Ce1 63.87(2) 1_455 2_666
Si2 Ce2 Ce1 97.755(19) 2_667 2_666
O4 Si1 O2 109.82(15) . .
O4 Si1 O7 109.99(16) . .
O2 Si1 O7 107.14(16) . .
O4 Si1 O5 107.84(15) . .
O2 Si1 O5 112.15(15) . .
O7 Si1 O5 109.91(15) . .
O4 Si1 Ce1 118.93(11) . 2_656
O2 Si1 Ce1 50.61(11) . 2_656
O7 Si1 Ce1 56.99(11) . 2_656
O5 Si1 Ce1 133.17(11) . 2_656
O4 Si1 Ce1 48.21(10) . .
O2 Si1 Ce1 124.67(11) . .
O7 Si1 Ce1 61.80(11) . .
O5 Si1 Ce1 122.69(11) . .
Ce1 Si1 Ce1 92.15(3) 2_656 .
O4 Si1 Ba1 49.68(10) . 2_656
O2 Si1 Ba1 62.01(11) . 2_656
O7 Si1 Ba1 111.31(11) . 2_656
O5 Si1 Ba1 138.03(11) . 2_656
Ce1 Si1 Ba1 78.10(2) 2_656 2_656
Ce1 Si1 Ba1 72.36(2) . 2_656
O4 Si1 Ba2 150.66(11) . 2_667
O2 Si1 Ba2 99.51(11) . 2_667
O7 Si1 Ba2 58.81(11) . 2_667
O5 Si1 Ba2 59.23(10) . 2_667
Ce1 Si1 Ba2 79.52(2) 2_656 2_667
Ce1 Si1 Ba2 113.43(3) . 2_667
Ba1 Si1 Ba2 157.10(3) 2_656 2_667
O9 Si2 O12 112.84(16) . .
O9 Si2 O13 112.73(16) . .
O12 Si2 O13 106.88(15) . .
O9 Si2 O5 112.06(15) . .
O12 Si2 O5 108.51(15) . .
O13 Si2 O5 103.24(15) . .
O9 Si2 Ba2 55.46(11) . 2_767
O12 Si2 Ba2 58.75(11) . 2_767
O13 Si2 Ba2 116.94(11) . 2_767
O5 Si2 Ba2 139.73(11) . 2_767
O9 Si2 Ba2 107.18(11) . 1_545
O12 Si2 Ba2 53.64(10) . 1_545
O13 Si2 Ba2 140.06(11) . 1_545
O5 Si2 Ba2 61.65(10) . 1_545
Ba2 Si2 Ba2 84.44(3) 2_767 1_545
O9 Si2 Ce2 120.83(11) . 2_667
O12 Si2 Ce2 41.77(10) . 2_667
O13 Si2 Ce2 66.17(10) . 2_667
O5 Si2 Ce2 126.09(11) . 2_667
Ba2 Si2 Ce2 72.39(2) 2_767 2_667
Ba2 Si2 Ce2 92.21(3) 1_545 2_667
O9 Si2 Ba2 152.41(12) . 2_667
O12 Si2 Ba2 94.63(11) . 2_667
O13 Si2 Ba2 53.15(10) . 2_667
O5 Si2 Ba2 58.15(10) . 2_667
Ba2 Si2 Ba2 149.66(3) 2_767 2_667
Ba2 Si2 Ba2 90.87(3) 1_545 2_667
Ce2 Si2 Ba2 77.88(2) 2_667 2_667
O11 Si3 O10 117.02(17) . .
O11 Si3 O13 116.17(16) . .
O10 Si3 O13 105.06(16) . .
O11 Si3 O6 102.04(16) . .
O10 Si3 O6 110.02(15) . .
O13 Si3 O6 105.99(15) . .
O11 Si3 Ba1 72.82(12) . 2_666
O10 Si3 Ba1 79.92(12) . 2_666
O13 Si3 Ba1 164.34(11) . 2_666
O6 Si3 Ba1 58.59(10) . 2_666
O11 Si3 Ba1 59.79(12) . 1_655
O10 Si3 Ba1 161.33(13) . 1_655
O13 Si3 Ba1 91.85(11) . 1_655
O6 Si3 Ba1 56.45(10) . 1_655
Ba1 Si3 Ba1 81.71(3) 2_666 1_655
O11 Si3 Ba1 78.24(13) . .
O10 Si3 Ba1 43.30(11) . .
O13 Si3 Ba1 108.75(11) . .
O6 Si3 Ba1 140.87(11) . .
Ba1 Si3 Ba1 85.19(3) 2_666 .
Ba1 Si3 Ba1 138.01(3) 1_655 .
O11 Si3 Ba2 117.06(12) . 2_667
O10 Si3 Ba2 63.59(12) . 2_667
O13 Si3 Ba2 46.68(10) . 2_667
O6 Si3 Ba2 139.01(11) . 2_667
Ba1 Si3 Ba2 142.92(3) 2_666 2_667
Ba1 Si3 Ba2 135.03(3) 1_655 2_667
Ba1 Si3 Ba2 64.161(19) . 2_667
O8 Si4 O1 109.00(16) . .
O8 Si4 O3 109.58(16) . .
O1 Si4 O3 111.10(15) . .
O8 Si4 O6 107.57(15) . .
O1 Si4 O6 111.85(15) . .
O3 Si4 O6 107.65(15) . .
O8 Si4 Ce2 58.17(11) . 2_667
O1 Si4 Ce2 130.27(11) . 2_667
O3 Si4 Ce2 51.59(10) . 2_667
O6 Si4 Ce2 117.83(11) . 2_667
O8 Si4 Ce2 59.45(11) . 1_655
O1 Si4 Ce2 50.12(10) . 1_655
O3 Si4 Ce2 119.97(11) . 1_655
O6 Si4 Ce2 132.34(11) . 1_655
Ce2 Si4 Ce2 94.57(3) 2_667 1_655
O8 Si4 Ba2 107.35(11) . .
O1 Si4 Ba2 63.27(11) . .
O3 Si4 Ba2 51.79(10) . .
O6 Si4 Ba2 144.10(11) . .
Ce2 Si4 Ba2 75.06(2) 2_667 .
Ce2 Si4 Ba2 74.34(2) 1_655 .
O8 Si4 Ba1 64.09(11) . 1_655
O1 Si4 Ba1 99.32(11) . 1_655
O3 Si4 Ba1 148.91(11) . 1_655
O6 Si4 Ba1 52.43(10) . 1_655
Ce2 Si4 Ba1 112.05(3) 2_667 1_655
Ce2 Si4 Ba1 84.34(2) 1_655 1_655
Ba2 Si4 Ba1 158.15(3) . 1_655
Si4 O1 Ce1 138.86(16) . 2_766
Si4 O1 Ce2 99.99(13) . 1_655
Ce1 O1 Ce2 105.89(11) 2_766 1_655
Si4 O1 Ba2 88.92(12) . .
Ce1 O1 Ba2 121.12(10) 2_766 .
Ce2 O1 Ba2 91.71(8) 1_655 .
Si1 O2 Ce2 136.12(16) . 1_545
Si1 O2 Ce1 99.65(13) . 2_656
Ce2 O2 Ce1 106.05(11) 1_545 2_656
Si1 O2 Ba1 90.32(12) . 2_656
Ce2 O2 Ba1 120.04(10) 1_545 2_656
Ce1 O2 Ba1 97.55(9) 2_656 2_656
Si4 O3 Ce2 128.51(15) . .
Si4 O3 Ce2 98.15(13) . 2_667
Ce2 O3 Ce2 111.04(10) . 2_667
Si4 O3 Ba2 100.71(13) . .
Ce2 O3 Ba2 114.04(10) . .
Ce2 O3 Ba2 100.00(9) 2_667 .
Si1 O4 Ce1 102.52(13) . .
Si1 O4 Ce1 129.27(15) . 2_756
Ce1 O4 Ce1 109.55(11) . 2_756
Si1 O4 Ba1 103.42(13) . 2_656
Ce1 O4 Ba1 99.43(9) . 2_656
Ce1 O4 Ba1 108.67(10) 2_756 2_656
Si2 O5 Si1 124.05(18) . .
Si2 O5 Ba2 89.00(11) . 1_545
Si1 O5 Ba2 138.38(14) . 1_545
Si2 O5 Ba2 94.24(11) . 2_667
Si1 O5 Ba2 92.76(12) . 2_667
Ba2 O5 Ba2 110.84(9) 1_545 2_667
Si4 O6 Si3 123.66(18) . .
Si4 O6 Ba1 135.50(14) . 2_666
Si3 O6 Ba1 91.24(12) . 2_666
Si4 O6 Ba1 101.36(12) . 1_655
Si3 O6 Ba1 95.66(12) . 1_655
Ba1 O6 Ba1 101.49(8) 2_666 1_655
Si1 O7 Ce1 92.83(13) . 2_656
Si1 O7 Ce1 88.22(13) . .
Ce1 O7 Ce1 113.58(10) 2_656 .
Si1 O7 Ba1 176.04(16) . .
Ce1 O7 Ba1 89.55(8) 2_656 .
Ce1 O7 Ba1 93.74(9) . .
Si1 O7 Ba2 94.18(13) . 2_667
Ce1 O7 Ba2 97.79(9) 2_656 2_667
Ce1 O7 Ba2 148.40(11) . 2_667
Ba1 O7 Ba2 82.35(7) . 2_667
Si4 O8 Ce2 91.40(13) . 2_667
Si4 O8 Ce2 90.06(12) . 1_655
Ce2 O8 Ce2 118.37(10) 2_667 1_655
Si4 O8 Ba2 169.47(17) . 2_767
Ce2 O8 Ba2 94.46(9) 2_667 2_767
Ce2 O8 Ba2 94.83(9) 1_655 2_767
Si4 O8 Ba1 89.81(12) . 1_655
Ce2 O8 Ba1 142.43(11) 2_667 1_655
Ce2 O8 Ba1 99.17(9) 1_655 1_655
Ba2 O8 Ba1 80.22(7) 2_767 1_655
Si2 O9 Ce1 127.51(15) . 2_756
Si2 O9 Ba2 96.40(12) . 2_767
Ce1 O9 Ba2 112.05(10) 2_756 2_767
Si2 O9 Ba1 125.95(15) . 1_655
Ce1 O9 Ba1 98.29(9) 2_756 1_655
Ba2 O9 Ba1 89.81(8) 2_767 1_655
Si3 O10 Ce2 118.56(15) . .
Si3 O10 Ba1 112.84(14) . .
Ce2 O10 Ba1 126.81(12) . .
Si3 O11 Ce1 146.62(18) . .
Si3 O11 Ba1 93.84(14) . 1_655
Ce1 O11 Ba1 102.16(11) . 1_655
Si3 O11 Ba1 79.30(12) . 2_666
Ce1 O11 Ba1 128.76(12) . 2_666
Ba1 O11 Ba1 91.02(8) 1_655 2_666
Si2 O12 Ce2 113.17(14) . 2_667
Si2 O12 Ba2 98.76(13) . 1_545
Ce2 O12 Ba2 138.97(11) 2_667 1_545
Si2 O12 Ba2 92.91(13) . 2_767
Ce2 O12 Ba2 96.67(9) 2_667 2_767
Ba2 O12 Ba2 107.11(9) 1_545 2_767
Si3 O13 Si2 135.08(18) . .
Si3 O13 Ba2 109.05(13) . 2_667
Si2 O13 Ba2 100.11(12) . 2_667
loop_
_geom_bond_atom_site_label_1
_geom_bond_atom_site_label_2
_geom_bond_distance
_geom_bond_site_symmetry_2
Ba1 O10 2.698(3) .
Ba1 O4 2.732(3) 2_656
Ba1 O9 2.801(3) 1_455
Ba1 O6 2.841(3) 2_666
Ba1 O7 2.937(3) .
Ba1 O6 2.979(3) 1_455
Ba1 O11 3.081(3) 1_455
Ba1 O2 3.078(3) 2_656
Ba1 O11 3.235(3) 2_666
Ba1 O8 3.315(3) 1_455
Ba1 Si3 3.3274(11) 2_666
Ba1 Si1 3.4854(11) 2_656
Ba2 O3 2.770(3) .
Ba2 O12 2.774(3) 1_565
Ba2 O9 2.783(3) 2_767
Ba2 O8 2.770(3) 2_767
Ba2 O12 2.874(3) 2_767
Ba2 O13 2.919(3) 2_667
Ba2 O5 2.997(3) 1_565
Ba2 O7 3.049(3) 2_667
Ba2 O5 3.058(3) 2_667
Ba2 O1 3.095(3) .
Ba2 Si2 3.3574(11) 2_767
Ba2 Si2 3.4047(11) 1_565
Ce1 O11 2.355(3) .
Ce1 O9 2.444(3) 2_756
Ce1 O4 2.473(3) .
Ce1 O1 2.473(3) 2_766
Ce1 O4 2.501(3) 2_756
Ce1 O2 2.522(3) 2_656
Ce1 O7 2.700(3) 2_656
Ce1 O7 2.855(3) .
Ce1 Si1 3.2163(11) 2_656
Ce1 Si1 3.2381(11) .
Ce1 Ce2 3.9605(3) 2_666
Ce1 Ba1 3.9741(4) 2_656
Ce2 O2 2.435(3) 1_565
Ce2 O1 2.490(3) 1_455
Ce2 O10 2.482(3) .
Ce2 O12 2.510(3) 2_667
Ce2 O3 2.514(3) .
Ce2 O3 2.533(3) 2_667
Ce2 O8 2.719(3) 2_667
Ce2 O8 2.751(3) 1_455
Ce2 Si4 3.1993(11) 2_667
Ce2 Si4 3.1949(11) 1_455
Ce2 Si2 3.4640(11) 2_667
Ce2 Ce1 3.9605(3) 2_666
Si1 O4 1.622(3) .
Si1 O2 1.618(3) .
Si1 O7 1.619(3) .
Si1 O5 1.672(3) .
Si1 Ce1 3.2164(11) 2_656
Si1 Ba1 3.4853(11) 2_656
Si1 Ba2 3.5551(11) 2_667
Si2 O9 1.594(3) .
Si2 O12 1.596(3) .
Si2 O13 1.641(3) .
Si2 O5 1.669(3) .
Si2 Ba2 3.3573(11) 2_767
Si2 Ba2 3.4047(11) 1_545
Si2 Ce2 3.4640(11) 2_667
Si2 Ba2 3.5906(11) 2_667
Si3 O11 1.584(3) .
Si3 O10 1.591(3) .
Si3 O13 1.649(3) .
Si3 O6 1.672(3) .
Si3 Ba1 3.3275(11) 2_666
Si3 Ba1 3.5574(12) 1_655
Si3 Ba2 3.7919(12) 2_667
Si4 O8 1.621(3) .
Si4 O1 1.616(3) .
Si4 O3 1.628(3) .
Si4 O6 1.660(3) .
Si4 Ce2 3.1993(11) 2_667
Si4 Ce2 3.1949(11) 1_655
Si4 Ba1 3.6851(11) 1_655
O1 Ce1 2.473(3) 2_766
O1 Ce2 2.490(3) 1_655
O2 Ce2 2.435(3) 1_545
O2 Ce1 2.522(3) 2_656
O2 Ba1 3.078(3) 2_656
O3 Ce2 2.533(3) 2_667
O4 Ce1 2.501(3) 2_756
O4 Ba1 2.732(3) 2_656
O5 Ba2 2.997(3) 1_545
O5 Ba2 3.058(3) 2_667
O6 Ba1 2.841(3) 2_666
O6 Ba1 2.979(3) 1_655
O7 Ce1 2.701(3) 2_656
O7 Ba2 3.049(3) 2_667
O8 Ce2 2.719(3) 2_667
O8 Ce2 2.751(3) 1_655
O8 Ba2 2.770(3) 2_767
O8 Ba1 3.315(3) 1_655
O9 Ce1 2.444(3) 2_756
O9 Ba2 2.783(3) 2_767
O9 Ba1 2.801(3) 1_655
O11 Ba1 3.081(3) 1_655
O11 Ba1 3.235(3) 2_666
O12 Ce2 2.510(3) 2_667
O12 Ba2 2.774(3) 1_545
O12 Ba2 2.874(3) 2_767
O13 Ba2 2.919(3) 2_667
