#------------------------------------------------------------------------------
#$Date: 2019-12-26 21:24:38 +0200 (Thu, 26 Dec 2019) $
#$Revision: 246104 $
#$URL: file:///home/coder/svn-repositories/cod/cif/2/31/17/2311782.cif $
#------------------------------------------------------------------------------
#
# This file is available in the Crystallography Open Database (COD),
# http://www.crystallography.net/. The original data for this entry
# were provided by IUCr Journals, http://journals.iucr.org/.
#
# The file may be used within the scientific community so long as
# proper attribution is given to the journal article from which the
# data were obtained.
#
data_2311782
loop_
_publ_author_name
'Fulle, Kyle'
'Sanjeewa, Liurukara D.'
'McMillen, Colin D.'
'Kolis, Joseph W.'
_publ_section_title
;
 Crystal chemistry and the role of ionic radius in rare earth
 tetrasilicates:
 Ba<sub>2</sub>RE<sub>2</sub>Si<sub>4</sub>O<sub>12</sub>F<sub>2</sub> (RE
 = Er<sup>3+</sup>-Lu<sup>3+</sup>) and
 Ba<sub>2</sub>RE<sub>2</sub>Si<sub>4</sub>O<sub>13</sub> (RE =
 La<sup>3+</sup>-Ho<sup>3+</sup>).
;
_journal_issue                   'Pt 5'
_journal_name_full
'Acta crystallographica Section B, Structural science, crystal engineering and materials'
_journal_page_first              907
_journal_page_last               915
_journal_paper_doi               10.1107/S2052520617009544
_journal_volume                  73
_journal_year                    2017
_chemical_formula_sum            'Ba2 Dy2 O13 Si4'
_chemical_formula_weight         920.04
_space_group_crystal_system      monoclinic
_space_group_IT_number           15
_space_group_name_Hall           '-C 2yc'
_space_group_name_H-M_alt        'C 1 2/c 1'
_atom_sites_solution_primary     direct
_atom_sites_solution_secondary   difmap
_audit_creation_method           SHELXL-2014/7
_cell_angle_alpha                90
_cell_angle_beta                 104.077(15)
_cell_angle_gamma                90
_cell_formula_units_Z            4
_cell_length_a                   12.8478(9)
_cell_length_b                   5.2020(6)
_cell_length_c                   17.525(3)
_cell_measurement_reflns_used    3018
_cell_measurement_temperature    298(2)
_cell_measurement_theta_max      26.7372
_cell_measurement_theta_min      2.3964
_cell_volume                     1136.1(3)
_computing_cell_refinement       'CrystalClear (Rigaku/MSC, 2008)'
_computing_data_collection       'CrystalClear (Rigaku/MSC, 2008)'
_computing_data_reduction        'CrystalClear (Rigaku/MSC, 2008)'
_computing_molecular_graphics    'DIAMOND (Bradenburg, 1999)'
_computing_publication_material  'SHELXL-2014/7 (Sheldrick, 2014)'
_computing_structure_refinement  'SHELXL-2014/7 (Sheldrick, 2014)'
_computing_structure_solution    'SHELXL-2014/7 (Sheldrick, 2014)'
_diffrn_ambient_temperature      298(2)
_diffrn_detector_area_resol_mean 14.6199
_diffrn_measured_fraction_theta_full 0.997
_diffrn_measured_fraction_theta_max 0.985
_diffrn_measurement_device_type  'Rigaku AFC8S'
_diffrn_measurement_method       '\w scans'
_diffrn_radiation_type           MoK\a
_diffrn_radiation_wavelength     0.71073
_diffrn_reflns_av_R_equivalents  0.0747
_diffrn_reflns_av_unetI/netI     0.0458
_diffrn_reflns_Laue_measured_fraction_full 0.997
_diffrn_reflns_Laue_measured_fraction_max 0.985
_diffrn_reflns_limit_h_max       16
_diffrn_reflns_limit_h_min       -16
_diffrn_reflns_limit_k_max       6
_diffrn_reflns_limit_k_min       -6
_diffrn_reflns_limit_l_max       22
_diffrn_reflns_limit_l_min       -21
_diffrn_reflns_number            4778
_diffrn_reflns_point_group_measured_fraction_full 0.997
_diffrn_reflns_point_group_measured_fraction_max 0.985
_diffrn_reflns_theta_full        25.242
_diffrn_reflns_theta_max         26.717
_diffrn_reflns_theta_min         3.269
_diffrn_source                   'fine-focus sealed tube'
_exptl_absorpt_coefficient_mu    20.337
_exptl_absorpt_correction_T_max  1.0000
_exptl_absorpt_correction_T_min  0.4051
_exptl_absorpt_correction_type   multi-scan
_exptl_absorpt_process_details   'REQAB, CrystalClear'
_exptl_crystal_colour            green
_exptl_crystal_density_diffrn    5.379
_exptl_crystal_description       block
_exptl_crystal_F_000             1616
_exptl_crystal_size_max          0.255
_exptl_crystal_size_mid          0.190
_exptl_crystal_size_min          0.175
_refine_diff_density_max         1.895
_refine_diff_density_min         -4.004
_refine_diff_density_rms         0.572
_refine_ls_extinction_coef       0.0043(3)
_refine_ls_extinction_expression Fc^*^=kFc[1+0.001xFc^2^\l^3^/sin(2\q)]^-1/4^
_refine_ls_extinction_method     'SHELXL-2014/7 (Sheldrick 2014'
_refine_ls_goodness_of_fit_ref   1.162
_refine_ls_hydrogen_treatment    undef
_refine_ls_matrix_type           full
_refine_ls_number_parameters     97
_refine_ls_number_reflns         1190
_refine_ls_number_restraints     0
_refine_ls_restrained_S_all      1.162
_refine_ls_R_factor_all          0.0446
_refine_ls_R_factor_gt           0.0431
_refine_ls_shift/su_max          0.001
_refine_ls_shift/su_mean         0.000
_refine_ls_structure_factor_coef Fsqd
_refine_ls_weighting_details
'w=1/[\s^2^(Fo^2^)+(0.0790P)^2^+31.2028P] where P=(Fo^2^+2Fc^2^)/3'
_refine_ls_weighting_scheme      calc
_refine_ls_wR_factor_gt          0.1283
_refine_ls_wR_factor_ref         0.1304
_reflns_Friedel_coverage         0.000
_reflns_number_gt                1130
_reflns_number_total             1190
_reflns_threshold_expression     'I > 2\s(I)'
_cod_data_source_file            rm5005sup1.cif
_cod_data_source_block           Dy
_cod_original_sg_symbol_H-M      'C 2/c'
_cod_database_code               2311782
_shelx_shelxl_version_number     2014/7
_shelx_space_group_comment
;
The symmetry employed for this shelxl refinement is uniquely defined
by the following loop, which should always be used as a source of
symmetry information in preference to the above space-group names.
They are only intended as comments.
;
_shelx_estimated_absorpt_t_min   0.110
_shelx_estimated_absorpt_t_max   0.175
_shelx_res_file
;

    C2c.res created by SHELXL-2014/7


TITL C2c in C2/c
CELL 0.71073  12.8478   5.2020  17.5248  90.000 104.077  90.000
ZERR    4.00   0.0009   0.0006   0.0031   0.000   0.015   0.000
LATT  7
SYMM -X, Y, 0.5-Z
SFAC O SI BA DY
UNIT 52 16 8 8

L.S. 20
BOND
FMAP 2
PLAN 20
acta
WGHT    0.075600   20.119606
EXTI    0.004310
FVAR       0.14248
DY1   4    0.886484    0.010234    0.415765    11.00000    0.00573    0.01244 =
         0.00588    0.00022    0.00390   -0.00007
BA1   3    0.662444    0.494745    0.333072    11.00000    0.00804    0.01388 =
         0.00840   -0.00091    0.00427   -0.00187
SI1   2    0.880614   -0.467825    0.542614    11.00000    0.00611    0.01218 =
         0.00696   -0.00026    0.00403   -0.00106
SI2   2    1.062311   -0.544360    0.683000    11.00000    0.00723    0.01319 =
         0.00676    0.00044    0.00323   -0.00025
O1    1    0.980270   -0.644766    0.599373    11.00000    0.01124    0.01321 =
         0.01233    0.00024    0.00318    0.00074
O2    1    0.791651   -0.457703    0.594628    11.00000    0.00580    0.01920 =
         0.01248   -0.00265    0.00708   -0.00026
O3    1    0.929243   -0.177055    0.536615    11.00000    0.00945    0.01263 =
         0.00754   -0.00141    0.00183    0.00148
O4    1    0.842711   -0.601207    0.458345    11.00000    0.01111    0.01531 =
         0.00921    0.00100    0.00345    0.00099
O5    1    0.500000    0.140582    0.250000    10.50000    0.01222    0.01652 =
         0.00950    0.00000    0.00615    0.00000
O6    1    0.918191    0.243981    0.312294    11.00000    0.01507    0.01854 =
         0.01237   -0.00309    0.00598   -0.00377
O7    1    0.835290   -0.269795    0.307825    11.00000    0.00700    0.01801 =
         0.01253   -0.00154    0.00572    0.00154

HKLF 4

REM  C2c in C2/c
REM R1 =  0.0431 for    1130 Fo > 4sig(Fo)  and  0.0446 for all    1190 data
REM     97 parameters refined using      0 restraints

END

WGHT      0.0662     19.4960

REM Highest difference peak  1.895,  deepest hole -4.004,  1-sigma level  0.572
Q1    1   0.9229  0.0040  0.3199  11.00000  0.05    1.90
Q2    1   0.8787 -0.1347  0.3517  11.00000  0.05    1.88
Q3    1   0.8987  0.1295  0.3601  11.00000  0.05    1.79
Q4    1   0.9199  0.0838  0.3713  11.00000  0.05    1.73
Q5    1   0.8775  0.1277  0.4699  11.00000  0.05    1.66
Q6    1   0.9011  0.2193  0.4214  11.00000  0.05    1.66
Q7    1   0.9400  0.0122  0.3759  11.00000  0.05    1.58
Q8    1   0.7023  0.4555  0.2888  11.00000  0.05    1.58
Q9    1   0.8748 -0.1275  0.4729  11.00000  0.05    1.56
Q10   1   0.6779  0.6138  0.2781  11.00000  0.05    1.55
Q11   1   0.6129  0.2935  0.3120  11.00000  0.05    1.45
Q12   1   0.8523 -0.3321  0.6443  11.00000  0.05    1.44
Q13   1   0.9358 -0.8194  0.5349  11.00000  0.05    1.38
Q14   1   0.6146  0.7072  0.3144  11.00000  0.05    1.37
Q15   1   0.8374 -0.0022  0.4606  11.00000  0.05    1.34
Q16   1   0.6596  0.6325  0.3911  11.00000  0.05    1.33
Q17   1   0.5000 -0.1648  0.2500  10.50000  0.05    1.32
Q18   1   0.8976 -0.4891  0.5025  11.00000  0.05    1.24
Q19   1   0.8169 -0.8054  0.4484  11.00000  0.05    1.24
Q20   1   0.7386 -0.4977  0.5309  11.00000  0.05    1.19
;
_shelx_res_checksum              29860
_shelx_hkl_file
;
   0   0  -1   -3.15    0.61
   0   0   1   -1.50    0.39
   0   0  -3    4.72    2.29
   0   0   3    3.24    1.21
   0   0  -4 1914.47   46.66
   0   0  -5    6.36    1.79
   0   0   5    2.61    2.04
   0   0  -6   85.72   10.00
   0   0   6   84.69    9.89
   0   0  -7    5.17    1.39
   0   0   7   15.87    2.91
   0   0  -8 3744.10   91.24
   0   0   8 3506.66   85.68
   0   0  -9   -0.05    1.28
   0   0 -10  186.20    7.29
   0   0  10  142.77    6.38
   0   0 -12 4712.53  157.76
   0   0  12 4150.44  139.28
   0   0  13   40.41    5.27
   0   0  14  594.11   28.62
   0   0  15   54.18    4.19
   0   0 -16 1176.97   41.83
   0   0  16 1335.13   47.54
   0   0 -17    5.18    2.54
   0   0  17    3.70    2.52
   0   0 -18  230.19   11.33
   0   0  18  188.73    9.67
   0   0  18  299.87   14.87
   0   0  19   29.78    4.53
   0   0 -20  378.78   22.95
   0   0  20  333.92   20.52
  -2   0  21    2.11    2.52
  -2   0  21    9.54    3.59
   2   0 -20 1985.18   89.92
  -2   0  20 2202.82  100.14
  -2   0  20 3024.45  136.40
   2   0 -18  115.21   17.30
  -2   0  18  126.57    7.59
  -2   0  18  187.09   10.53
  -2   0  17    0.63    1.84
   2   0 -16 3979.86  122.56
  -2   0  16 5154.77  593.73
  -2   0  15   26.98    3.25
   2   0 -14   98.54    5.76
  -2   0  14   80.57    5.02
  -2   0  14   95.56    6.21
   2   0 -13    0.75    1.54
  -2   0  13    1.83    1.76
  -2   0  13    1.78    2.39
  -2   0  12   35.72    4.87
  -2   0  12   14.18    2.95
   2   0 -11    5.30    2.07
  -2   0  11    5.31    2.14
  -2   0  11    2.63    2.25
   2   0 -10  140.47    6.36
  -2   0  10  142.00    7.15
  -2   0  10  111.93    5.98
   2   0  -9    3.35    2.30
  -2   0   9    1.82    1.77
  -2   0   9    4.41    7.28
   2   0  -8 4164.81  101.41
  -2   0   8 3642.35   89.06
  -2   0   8 3793.34   93.18
   2   0  -7    2.72    1.20
  -2   0   7    4.00    1.98
  -2   0   7   -0.38    2.28
   2   0  -6  475.26   13.61
  -2   0   6  409.16   12.08
  -2   0   6  359.01   11.50
   2   0  -5   10.12    2.51
  -2   0   5   16.72    3.10
  -2   0   5   13.67    4.20
   2   0  -4 2413.76   59.11
  -2   0   4 2338.79   57.24
  -2   0   4 2531.12   62.88
   2   0  -3    1.46    0.91
  -2   0   3    0.10    0.84
  -2   0   3    7.65    3.29
   2   0  -3   27.18    7.25
  -2   0   2  609.49   15.32
  -2   0   2  581.62   15.31
   2   0  -2  557.60   14.77
  -2   0   1    7.32    1.99
   2   0  -1    3.37    1.19
  -2   0   1    6.33    1.43
   2   0  -1    5.10    1.26
  -2   0   0   24.92    2.92
   2   0   0   28.72    3.25
  -2   0   0   29.58    3.31
   2   0   0   48.99    5.63
  -2   0  -1   14.03    1.87
   2   0   1   13.56    1.94
  -2   0  -2  150.39    4.79
   2   0   2  130.54    4.08
  -2   0  -3    9.72    1.90
   2   0   3   10.72    2.38
  -2   0  -4 1769.39   43.13
   2   0   4 1954.70   47.62
  -2   0  -5    3.34    1.12
   2   0   5    4.20    1.54
  -2   0  -6  851.50   22.00
   2   0   6  782.30   20.41
  -2   0  -7    3.08    1.55
   2   0   7    3.05    1.71
  -2   0  -8 4982.76  119.60
   2   0   8 4468.84  107.63
  -2   0  -9    2.28    1.42
  -2   0 -10 1485.79   51.34
  -2   0 -11    3.52    2.17
   2   0  11    2.95    2.29
  -2   0 -12  322.64   10.98
   2   0  12  291.79   10.53
  -2   0 -13   16.00    2.77
   2   0  13    2.44    1.70
  -2   0 -14   62.56    3.87
   2   0  14   40.04    3.33
  -2   0 -15    1.42    1.61
  -2   0 -16 2398.37   61.86
   2   0  16 2340.29   61.14
  -2   0 -18  745.11   27.47
   2   0  18  628.96   23.97
   2   0  20 1978.12   67.45
  -4   0  22 1565.24   55.43
  -4   0  20  671.29   33.50
  -4   0  20  790.74   38.46
  -4   0  19    5.62    3.14
  -4   0  19   13.91    5.18
  -4   0  18 1090.70   32.05
  -4   0  18 1217.53   36.55
   4   0 -17    0.04    3.06
  -4   0  17    2.25    2.14
  -4   0  17   14.64    6.38
   4   0 -16  339.83   26.83
  -4   0  16  495.66   19.81
   4   0 -15    1.30    0.54
  -4   0  15    9.16    3.17
  -4   0  15   -0.25    4.96
   4   0 -14 1267.06   36.43
  -4   0  14 1087.48   32.16
  -4   0  14 1180.07   34.60
   4   0 -13    1.89    1.00
  -4   0  13    4.39    2.63
  -4   0  13    0.36    4.53
   4   0 -12 1756.94   61.00
  -4   0  12 1460.20   51.36
  -4   0  12 1691.15   59.59
   4   0 -11    9.03    1.93
  -4   0  11    5.62    2.66
  -4   0  11   -2.87    3.02
   4   0 -10 2918.63   72.22
  -4   0  10 2976.38   74.32
  -4   0  10 3295.30   82.77
   4   0  -9    4.33    1.86
  -4   0   9    4.45    2.81
  -4   0   9   37.99    6.22
   4   0  -8 3210.24   79.14
  -4   0   8 2886.40   71.99
  -4   0   8 3443.91   86.62
   4   0  -7    3.02    0.95
  -4   0   7    2.25    0.94
  -4   0   7   26.28    4.16
   4   0  -6   57.20    8.10
  -4   0   6  106.61   12.92
  -4   0   6   53.88    6.96
   4   0  -6   48.53    6.92
  -4   0   5   20.21    4.02
  -4   0   5    6.98    2.33
  -4   0   5   19.22    4.57
   4   0  -5   14.98    6.38
  -4   0   4   75.23    8.65
  -4   0   4   67.32    7.75
  -4   0   4   71.28   14.11
  -4   0   3   10.49    2.64
   4   0  -3    8.88    3.17
  -4   0   3   12.94    3.27
   4   0  -3   10.85    3.27
  -4   0   2  946.84   23.97
   4   0  -2  940.98   23.85
  -4   0   2 1017.43   25.98
   4   0  -2  922.73   24.09
  -4   0   1    2.38    2.33
   4   0  -1    2.01    1.92
  -4   0   1    0.18    0.41
   4   0  -1    2.71    1.18
  -4   0   0 4766.39  530.37
   4   0   0 5572.50  620.05
   4   0   0 5022.65  558.86
  -4   0  -1   13.04    2.07
   4   0   1   14.86    2.19
   4   0   1   20.98    2.91
  -4   0  -2 3666.10   88.18
   4   0   2 4002.95   96.26
  -4   0  -3   10.77    1.95
   4   0   3    6.64    1.56
  -4   0  -4 3759.20   90.91
   4   0   4 3487.94   84.55
  -4   0  -5   20.24    2.74
   4   0   5    6.19    2.20
  -4   0  -6  396.28   11.23
   4   0   6  399.20   11.48
  -4   0  -7    9.07    1.95
   4   0   7    6.59    1.93
  -4   0  -8 1592.64   40.18
   4   0   8 1532.41   39.04
  -4   0  -9    4.79    1.46
   4   0   9    1.34   10.82
  -4   0 -10 1787.84   60.93
   4   0  10 1870.01   64.10
  -4   0 -11    0.84    1.34
  -4   0 -12 2811.80  124.76
   4   0  12 2682.92  119.35
  -4   0 -13    4.71    2.28
  -4   0 -14 1279.87   45.69
  -4   0 -15    1.79    1.65
   4   0  15   -0.28    3.50
  -4   0 -16 1210.16   43.45
   4   0  16 1291.32   46.92
  -4   0 -17   -0.43    1.43
   4   0  17    2.41    2.11
  -4   0 -18   62.58    5.78
   4   0  18   72.06    6.80
   4   0  19    2.13    2.15
  -6   0  21    2.91    3.32
   6   0 -20  685.87   33.34
  -6   0  20  729.16   36.28
  -6   0  20  698.41   34.52
   6   0 -19    2.05    1.46
  -6   0  19    2.56    2.83
   6   0 -18 2880.91   99.62
  -6   0  18 3596.94  125.64
  -6   0  18 2813.10   98.17
   6   0 -17   10.79    4.37
  -6   0  17    6.16    3.61
   6   0 -16 2703.21   92.14
  -6   0  16 2353.00   81.12
  -6   0  16 2248.80   77.84
   6   0 -15    0.50    0.81
  -6   0  15    0.88    1.73
  -6   0  15   -3.67    2.69
   6   0 -14 3585.40  158.63
  -6   0  14 3903.86  173.41
  -6   0  14 3585.42  159.58
   6   0 -13    0.82    0.70
  -6   0  13    0.00    2.06
  -6   0  13    0.14    3.47
   6   0 -12  177.60   11.03
  -6   0  12  198.51    8.88
  -6   0  12  214.69   10.29
   6   0 -11    5.77    2.47
  -6   0  11    7.51    2.61
  -6   0  11    7.77    2.96
   6   0 -10    5.79    1.40
  -6   0  10    7.63    1.37
  -6   0  10    7.59    2.81
  -6   0   9    3.39    1.20
  -6   0   9    5.78    1.95
  -6   0   8 3242.40   81.12
  -6   0   8 3090.75   77.08
  -6   0   8 3375.93   85.00
   6   0  -8 3082.80   78.20
  -6   0   7    1.55    0.83
  -6   0   7   -2.65    2.19
  -6   0   7   -1.26    2.26
   6   0  -7   -2.59    3.36
  -6   0   6 3272.55   79.65
  -6   0   6 3308.66   80.89
  -6   0   6 3424.67   84.69
   6   0  -6 3686.29   91.95
  -6   0   5    6.91    1.66
  -6   0   5    6.79    2.42
  -6   0   5    9.39    2.96
   6   0  -5    9.66    3.43
  -6   0   4 3698.63   90.34
   6   0  -4 3896.89   95.14
  -6   0   4 3313.15   81.93
   6   0  -4 2982.32   74.08
  -6   0   3    8.81    2.02
   6   0  -3    9.30    2.18
  -6   0   3    6.93    2.34
   6   0  -3   24.69    5.70
  -6   0   2 3777.46   91.48
   6   0  -2 3676.05   89.06
  -6   0   2 3677.57   89.04
   6   0  -2 3443.88   84.04
  -6   0   1   -1.36    1.22
   6   0  -1    1.92    1.81
  -6   0   1    0.48    0.67
   6   0  -1    2.63    1.33
  -6   0   0  420.78   12.11
   6   0   0  383.03   11.05
   6   0   0  426.76   12.06
  -6   0  -1    5.72    1.73
   6   0   1    8.29    1.86
   6   0   1    9.37    2.55
  -6   0  -2   41.87    5.29
   6   0   2   43.72    5.53
   6   0   2   63.51    3.68
  -6   0  -3    6.76    1.79
   6   0   3    5.58    1.83
  -6   0  -4 1740.95   43.17
   6   0   4 1648.81   40.95
  -6   0  -5    1.34    1.79
   6   0   5    3.64    1.60
  -6   0  -6 1192.73   41.05
   6   0   6 1177.78   40.68
  -6   0  -7    4.05    1.33
   6   0   7    0.69    1.43
  -6   0  -8 2450.48   63.16
   6   0   8 2593.37   67.10
  -6   0  -9    4.79    2.38
   6   0   9    9.58    3.85
  -6   0 -10 2644.20  117.36
   6   0  10 2384.94  106.07
  -6   0 -11    1.63    1.32
   6   0  11    1.83    2.61
  -6   0 -12  233.31   10.31
   6   0  12  217.16   10.14
  -6   0 -13    1.91    1.55
   6   0  13   -1.38    1.74
  -6   0 -14  262.60   12.12
   6   0  14  229.89   11.07
  -6   0 -15    4.25    2.74
   6   0  15    0.39    1.56
  -6   0 -16  743.29   36.18
   6   0  16  535.52   26.62
  -8   0  20   67.50    7.42
  -8   0  20   75.32   21.56
   8   0 -19    2.79    2.43
  -8   0  19    1.71    2.38
  -8   0  19   -0.40    1.01
   8   0 -18 1513.87   49.66
  -8   0  18 1559.36   52.34
  -8   0  18 1776.53   60.28
   8   0 -17    0.01    0.77
  -8   0  17    1.26    2.29
  -8   0  17   -0.55    3.26
   8   0 -16  307.88   11.08
  -8   0  16  357.72   14.19
  -8   0  16  379.86   25.40
  -8   0  15    3.09    2.38
  -8   0  15    3.72    3.06
  -8   0  14  743.64   26.58
  -8   0  14  755.50   27.34
  -8   0  14  905.96   33.16
  -8   0  13   -2.14    1.71
  -8   0  13   -2.25    2.37
  -8   0  13    3.08    1.08
  -8   0  12  414.02   21.91
  -8   0  12  406.42   21.21
  -8   0  12  377.47   20.33
  -8   0  11    1.18    1.23
  -8   0  11    2.91    2.68
  -8   0  11    2.73    1.56
  -8   0  10 4047.11  104.21
  -8   0  10 4018.66  103.70
  -8   0  10 4097.75  106.97
  -8   0   9    3.54    1.26
  -8   0   9    1.54    2.22
  -8   0   9    4.30    1.97
   8   0  -9    3.45    4.31
  -8   0   8   26.96    5.71
  -8   0   8   23.46    3.92
  -8   0   8   19.07    3.85
   8   0  -8   14.34    4.48
  -8   0   7   -0.66    1.08
  -8   0   7    1.49    1.89
  -8   0   7   -0.52    1.82
   8   0  -7    1.32    2.85
  -8   0   6 2666.60   89.86
  -8   0   6 2885.27   97.70
  -8   0   6 2908.51   98.94
   8   0  -6 2751.33   94.46
  -8   0   5    2.56    2.85
   8   0  -5    1.53    2.04
  -8   0   5   -0.61    1.38
   8   0  -5    1.78    2.17
  -8   0   4   26.80    4.12
   8   0  -4   18.87    3.12
  -8   0   4   28.74    5.64
   8   0  -4   27.90    4.94
  -8   0   3    1.84    1.49
   8   0  -3    7.17    2.78
  -8   0   3    1.41    0.66
   8   0  -3    8.13    2.06
  -8   0   2  218.54    7.64
   8   0  -2  223.99    7.66
   8   0  -2  219.64    8.28
  -8   0   1    1.12    1.36
   8   0  -1    0.44    1.79
   8   0  -1    1.35    0.98
  -8   0   0  569.94   15.98
   8   0   0  620.50   17.29
   8   0   0  675.58   18.72
  -8   0  -1    3.85    1.51
   8   0   1    6.45    2.48
   8   0   1    2.63    0.65
  -8   0  -2 5194.97  172.65
   8   0   2 5578.13  517.75
   8   0   2 5342.65  495.80
  -8   0  -3    3.42    2.12
   8   0   3    4.06    2.00
   8   0   3    3.95    2.44
  -8   0  -4  626.22   22.76
   8   0   4  589.76   21.52
   8   0   4  604.99   21.31
  -8   0  -5    2.14    2.13
   8   0   5    0.32    1.38
   8   0   5    0.26    0.65
  -8   0  -6 3757.05   95.63
   8   0   6 3515.14   89.62
  -8   0  -7    1.55    1.24
   8   0   7    3.19    2.61
  -8   0  -8    5.24    1.48
   8   0   8    9.63    1.98
  -8   0  -9    1.64    1.44
   8   0   9    1.52    1.93
  -8   0 -10 1048.90   37.26
   8   0  10 1073.06   38.55
  -8   0 -11   -0.32    1.48
   8   0  11   -0.61    2.50
  -8   0 -12  338.63   14.51
   8   0  12  325.22   14.34
  -8   0 -13   -0.46    1.33
   8   0  13    0.87    2.76
   8   0  14 2563.68  115.06
   8   0  15    4.81    3.49
 -10   0  20   46.45    4.75
 -10   0  19    6.32    3.67
 -10   0  19    1.79    3.78
 -10   0  18 1939.95  104.36
 -10   0  18 2194.79  118.15
 -10   0  17   -1.54    2.31
 -10   0  17    0.79    2.75
 -10   0  17   -2.69    2.16
 -10   0  16   36.25    5.01
 -10   0  16   13.39    4.27
 -10   0  16   10.53    3.34
 -10   0  15   -1.74    1.70
 -10   0  15   -0.19    2.51
 -10   0  15   -1.96    2.90
 -10   0  14 5390.61  133.65
 -10   0  14 5564.46  507.43
 -10   0  14 6004.30  547.88
 -10   0  13    1.14    0.90
 -10   0  13    4.55    2.51
 -10   0  13   -0.98    2.31
 -10   0  12   41.05    9.33
 -10   0  12   12.37    3.28
 -10   0  12    3.92    2.27
 -10   0  11    3.36    0.78
 -10   0  11   -0.98    1.90
 -10   0  11    1.26    0.86
 -10   0  10  312.07   20.35
 -10   0  10  228.91   12.80
 -10   0  10  224.56   16.08
  10   0 -10  268.81   15.88
 -10   0   9    0.58    0.74
 -10   0   9    1.86    2.43
 -10   0   9    5.71    2.43
  10   0  -9   -1.12    2.78
 -10   0   8   22.67    3.52
 -10   0   8   12.65    2.90
 -10   0   8   23.30    5.06
  10   0  -8   26.65    5.34
 -10   0   7    1.62    1.05
 -10   0   7    2.31    2.15
 -10   0   7    0.08    1.04
  10   0  -7   -0.32    2.49
 -10   0   6 4288.94  109.58
  10   0  -6 4448.65  113.55
 -10   0   6 4267.80  109.68
  10   0  -6 5271.27  136.60
 -10   0   5    1.11    1.94
  10   0  -5    1.21    2.24
 -10   0   5    1.50    1.31
  10   0  -5    2.85    2.12
 -10   0   4   38.25    4.92
  10   0  -4   28.76    4.23
 -10   0   4   30.34    5.89
  10   0  -4   26.34    4.45
 -10   0   3    3.81    2.37
  10   0  -3    1.63    1.88
  10   0  -3    4.13    2.36
 -10   0   2 3710.70   94.71
  10   0  -2 3596.49   91.71
  10   0  -2 3667.33   94.57
 -10   0   1    1.36    1.73
  10   0  -1    0.04    1.73
  10   0  -1    2.21    0.96
 -10   0   0   14.81    2.73
  10   0   0   23.30    3.43
  10   0   0   18.32    3.39
 -10   0  -1    2.38    1.56
  10   0   1    7.05    2.50
  10   0   1    4.17    1.41
 -10   0  -2   29.45    2.53
  10   0   2   34.73    2.83
  10   0   2   35.54    3.23
 -10   0  -3    4.79    2.32
  10   0   3    0.97    1.53
  10   0   3    1.55    0.74
 -10   0  -4  173.66    8.01
  10   0   4  177.95    7.94
  10   0   4  188.06    9.41
 -10   0  -5    2.17    2.06
  10   0   5    3.70    2.04
  10   0   5    0.57    0.52
 -10   0  -6 1942.13   66.22
  10   0   6 1882.41   64.25
  10   0   6 1785.20   59.99
 -10   0  -7    0.64    1.24
  10   0   7    0.97    1.52
  10   0   7    1.26    0.53
 -10   0  -8  154.66    6.70
  10   0   8  184.07    8.02
  10   0   8  186.96   10.83
 -10   0  -9    3.14    1.61
  10   0   9    1.25    1.95
  10   0   9   -0.56    0.69
 -10   0 -10 2564.39   81.69
  10   0  10 2600.85   82.93
  10   0  10 2486.63   77.54
 -10   0 -11   -0.73    1.46
  10   0  11    3.30    2.89
  10   0  12   84.70    6.89
 -12   0  18 1318.28   46.57
 -12   0  18 1437.47   50.82
 -12   0  17    4.69    4.08
 -12   0  16  892.07   49.70
 -12   0  16  805.68   44.87
 -12   0  16  832.93   46.61
 -12   0  15    4.04    1.93
 -12   0  15    0.49    1.95
 -12   0  15    1.69    1.63
 -12   0  14  149.92   15.60
 -12   0  14  138.21   13.79
 -12   0  14  153.14   31.72
 -12   0  13    1.15    1.19
 -12   0  13   -0.46    2.14
 -12   0  13    4.02    2.52
 -12   0  12    3.55    1.23
 -12   0  12   20.34    4.01
 -12   0  12    8.36    2.18
 -12   0  11    4.02    1.45
 -12   0  11    1.88    2.15
 -12   0  11    3.82    1.15
  12   0 -11    2.17    2.44
 -12   0  10 2861.04   73.71
 -12   0  10 2696.93   70.16
 -12   0  10 2256.24   60.85
  12   0 -10 2683.15   71.53
 -12   0   9    1.15    0.56
 -12   0   9    0.93    1.96
 -12   0   9    0.97    0.80
  12   0  -9    2.85    2.76
 -12   0   8  590.06   32.82
 -12   0   8  561.51   22.15
 -12   0   8  538.58   21.13
 -12   0   7    0.90    1.31
 -12   0   7    0.93    1.85
 -12   0   7    3.37    1.97
 -12   0   6 2349.62   79.93
 -12   0   6 2472.34   84.04
  12   0  -6 2688.43   92.87
 -12   0   5    1.56    1.80
  12   0  -5    2.02    2.42
  12   0  -5    4.51    2.55
  12   0  -4  457.11   18.82
  12   0  -3    1.92    1.66
  12   0  -3    2.15    2.24
  12   0  -2   93.75    5.66
  12   0  -2   88.67    5.77
 -12   0   1    0.20    1.49
  12   0  -1    3.83    2.55
  12   0  -1    1.21    0.71
 -12   0   0   12.72    2.85
  12   0   0    8.81    2.10
  12   0   0   51.94   11.21
 -12   0  -1    2.06    2.00
  12   0   1    1.12    2.22
  12   0   1    1.79    0.52
 -12   0  -2 3039.18   76.63
  12   0   2 3073.23   77.31
  12   0   2 3131.66   78.75
 -12   0  -3    1.15    1.49
  12   0   3    3.55    2.51
  12   0   3    0.97    1.05
 -12   0  -4  336.76   14.20
  12   0   4  338.95   14.45
  12   0   4  382.29   19.03
 -12   0  -5    0.61    1.44
  12   0   5    2.75    2.30
  12   0   5    0.25    0.76
 -12   0  -6 2717.23   86.14
  12   0   6 2740.35   87.14
  12   0   6 2790.60   87.68
 -12   0  -7   -0.29    1.31
  12   0   7   -2.33    1.70
  12   0   7    1.86    1.13
 -12   0  -8  135.01    9.08
  12   0   8  161.48   10.91
  12   0   8  161.03   11.95
  12   0   9    0.54    0.44
  12   0  10    5.74    1.32
 -14   0  15    2.35    1.28
 -14   0  14 3067.91  101.62
 -14   0  14 2957.52   98.19
 -14   0  13   10.86    3.10
 -14   0  13    3.45    2.97
 -14   0  13    0.25    0.84
 -14   0  12 1125.14   61.71
 -14   0  12  946.29   52.14
 -14   0  12  919.64   50.85
 -14   0  11    1.73    1.70
 -14   0  11    1.53    2.10
 -14   0  11   -1.25    1.72
  14   0 -11    1.68    2.36
 -14   0  10 1052.73   49.50
 -14   0  10  856.95   40.66
 -14   0  10  894.85   42.44
  14   0 -10 1079.62   52.06
 -14   0   9    2.09    1.57
 -14   0   9    1.05    1.14
  14   0  -9    4.26    2.82
 -14   0   8  194.69   12.25
 -14   0   8  152.21   14.87
 -14   0   8  162.64    8.78
  14   0  -8  185.78   11.53
 -14   0   7    1.55    1.77
 -14   0   7    4.05    2.31
  14   0  -7    4.25    3.62
 -14   0   6 1039.46   35.50
  14   0  -6 1201.04   40.87
  14   0  -6 1387.74   48.70
 -14   0   5    1.68    1.93
  14   0  -5    3.51    2.32
  14   0  -5   -0.04    2.81
 -14   0   4  994.29   34.40
  14   0  -4  934.93   32.55
  14   0  -4 1046.41   38.11
 -14   0   3    5.84    3.27
  14   0  -3    5.24    2.45
  14   0  -3    0.86    2.12
 -14   0   2 2463.18   78.97
  14   0  -2 2524.25   80.62
  14   0  -2 2379.05   77.18
 -14   0   1    2.03    1.79
  14   0  -1    4.12    2.21
  14   0  -1   -0.19    1.73
 -14   0   0  608.64   29.26
  14   0   0  656.45   31.28
  14   0   0  612.41   29.94
 -14   0  -1   -0.02    1.71
  14   0   1   -0.56    1.38
  14   0   1    6.27    1.81
 -14   0  -2  389.40   20.14
  14   0   2  367.94   19.12
  14   0   2  379.99   25.24
  14   0   3   -1.79    2.01
  14   0   3    2.12    1.47
 -14   0  -4   16.55    3.44
  14   0   4   11.77    2.84
  14   0   4   51.91    9.14
  14   0   5    3.65    3.39
  16   0  -9    0.21    2.74
 -16   0   8 1962.60   67.68
  16   0  -8 1673.74   59.93
 -16   0   7    0.92    1.47
 -16   0   7    1.71    2.25
  16   0  -7    5.72    4.91
 -16   0   6  485.65   19.98
  16   0  -6  735.68   32.19
  16   0  -4  899.34   33.50
  15   1   2 2001.24   69.46
  15   1   0 1075.77   38.64
  15   1  -1    7.90    3.71
  15   1  -1    3.42    3.51
  15   1  -2  575.19   33.06
 -15  -1   3    1.30    1.98
  15   1  -3    2.28    2.72
  15   1  -3    2.81    3.25
 -15  -1   4   63.80    6.78
  15   1  -4   54.58    9.72
  15   1  -4   71.98    7.53
 -15  -1   5    1.25    1.95
  15   1  -5    7.01    2.94
  15   1  -5    5.25    2.42
 -15  -1   6  315.78   19.29
 -15  -1   7    4.52    2.33
 -15  -1   7    3.20    2.29
 -15  -1   7    5.14    2.28
 -15  -1   8 1189.60   65.39
 -15  -1   8  882.21   48.97
 -15  -1   8  939.69   51.52
 -15  -1   9    8.98    2.03
 -15  -1   9    4.82    3.00
 -15  -1   9   16.61    4.77
 -15  -1  10 1120.84   41.21
 -15  -1  12 1342.59   49.47
  13   1   7    3.08    2.77
  13   1   7    5.52    2.24
  13   1   6 1959.51  104.86
  13   1   6 1868.84   99.36
 -13  -1  -5    1.31    1.47
  13   1   5    1.32    2.03
  13   1   5   -0.53    1.40
 -13  -1  -4    6.27    2.53
  13   1   4    9.63    3.49
  13   1   4    6.62    2.34
 -13  -1  -3   -0.12    1.41
  13   1   3    4.49    2.59
  13   1   3    2.60    2.21
 -13  -1  -2  141.53   13.50
  13   1   2  137.20   13.34
  13   1   2  187.04   10.26
 -13  -1  -1    5.00    2.82
  13   1   1    8.35    3.25
  13   1   1    5.65    3.43
 -13  -1   0  140.56    7.92
  13   1   0  143.15    8.04
  13   1   0  151.96    9.29
 -13  -1   1   36.33    4.68
  13   1  -1   40.80    5.59
  13   1  -1   42.99    6.35
 -13  -1   2  943.50   35.27
  13   1  -2  917.93   34.31
  13   1  -2 1101.22   42.25
 -13  -1   3    0.92    1.82
  13   1  -3    3.78    1.95
  13   1  -3    3.51    2.40
 -13  -1   4  474.96   15.86
  13   1  -4  600.59   19.90
  13   1  -4  566.52   19.87
 -13  -1   5    2.51    2.02
  13   1  -5    5.47    2.73
 -13  -1   5    1.91    0.93
  13   1  -5    1.85    2.58
 -13  -1   6 2697.51   93.30
  13   1  -6 3313.85  114.89
 -13  -1   7   10.35    1.89
 -13  -1   7   16.27    3.52
 -13  -1   7   12.13    2.70
 -13  -1   8  206.90   14.18
 -13  -1   8  215.35   11.29
 -13  -1   8  205.89   21.63
 -13  -1   9   20.20    5.39
 -13  -1   9   17.43    3.50
 -13  -1   9   16.18    3.98
 -13  -1  10  943.13   34.54
 -13  -1  10  772.37   28.74
 -13  -1  10  823.22   30.19
 -13  -1  11    2.58    1.99
 -13  -1  11    2.97    2.52
 -13  -1  11   -0.33    1.57
 -13  -1  12  263.11   19.13
 -13  -1  12  240.31   14.59
 -13  -1  12  273.26   15.49
 -13  -1  13    2.49    1.34
 -13  -1  13    2.51    2.57
 -13  -1  13   -0.17    1.87
 -13  -1  14 1334.70   72.97
 -13  -1  14 1338.10   73.09
 -13  -1  14 1501.14   81.72
 -13  -1  15    4.62    3.82
 -13  -1  15    3.63    1.59
 -13  -1  16  492.99   25.94
  11   1  11   19.41    3.35
  11   1  10 1653.04   88.73
  11   1  10 1878.96   99.12
 -11  -1  -9    1.39    1.36
  11   1   9    4.05    2.11
  11   1   9    0.22    0.53
 -11  -1  -8   10.29    3.51
  11   1   8   10.94    3.76
  11   1   8   11.56    3.89
 -11  -1  -7    0.95    1.49
  11   1   7    5.21    3.03
  11   1   7    0.05    0.54
 -11  -1  -6   18.80    2.98
  11   1   6    3.28    1.57
 -11  -1  -5    9.09    2.45
  11   1   5    7.86    2.11
  11   1   5   14.53    2.91
 -11  -1  -4  236.78   10.67
  11   1   4  246.06   11.35
  11   1   4  214.51    9.70
 -11  -1  -3    2.02    1.53
  11   1   3    9.14    2.54
  11   1   3    7.42    2.22
 -11  -1  -2 4403.76  258.44
  11   1   2 5225.30  306.67
  11   1   2 3823.44  224.59
 -11  -1  -1    5.10    2.79
  11   1   1    7.15    1.95
  11   1   1    9.21    2.23
 -11  -1   0  173.34    8.18
  11   1   0  200.37    9.04
  11   1   0  184.97    9.46
 -11  -1   1   15.89    2.70
  11   1  -1   11.77    2.19
  11   1  -1   14.54    2.78
 -11  -1   2 3310.79  101.50
  11   1  -2 4592.80  528.71
  11   1  -2 5533.35  637.30
 -11  -1   3    6.99    2.80
  11   1  -3    1.28    2.02
 -11  -1   3    3.99    1.39
  11   1  -3    2.96    3.41
 -11  -1   4   79.38    5.14
  11   1  -4   96.83    6.31
 -11  -1   4   87.62   10.16
  11   1  -4   95.80    7.10
 -11  -1   5    1.70    1.93
  11   1  -5    0.25    2.01
 -11  -1   5    0.85    0.75
  11   1  -5   -0.81    2.11
 -11  -1   6  377.87   14.91
 -11  -1   6  379.89   15.35
  11   1  -6  446.22   18.02
 -11  -1   7   36.74    7.91
 -11  -1   7   26.37    3.35
 -11  -1   7   33.44    5.34
 -11  -1   8  182.71    8.84
 -11  -1   8  171.34    9.18
 -11  -1   8  167.11   13.33
 -11  -1   9   19.92    4.00
 -11  -1   9   14.19    3.64
 -11  -1   9   21.72    5.32
 -11  -1  10 4134.62  243.76
 -11  -1  11   16.71    3.03
 -11  -1  11   23.92    4.66
 -11  -1  11   25.59    5.52
 -11  -1  12  328.16   21.42
 -11  -1  12  255.11   11.01
 -11  -1  12  294.38   12.51
 -11  -1  13    2.86    1.65
 -11  -1  13    3.18    2.76
 -11  -1  13    2.47    1.62
 -11  -1  14 2410.12   87.79
 -11  -1  14 2209.89   78.31
 -11  -1  14 2276.87   80.57
 -11  -1  15   -0.58    1.83
 -11  -1  15    1.11    2.99
 -11  -1  15    0.86    1.33
 -11  -1  16   53.99    5.82
 -11  -1  16   49.84    5.72
 -11  -1  16   55.75   16.04
 -11  -1  17   13.91    3.87
 -11  -1  17   14.48    3.92
 -11  -1  18   12.61    3.16
 -11  -1  19   19.57    4.14
  -9  -1 -13   10.19    3.39
   9   1  13    8.16    3.36
  -9  -1 -12  107.66    7.30
   9   1  12   92.07    6.77
   9   1  12   89.30    5.08
  -9  -1 -11    1.85    1.51
   9   1  11    4.55    1.97
   9   1  11    1.84    0.73
  -9  -1 -10 1100.55   39.18
   9   1  10 1271.00   45.77
   9   1  10 1152.62   39.38
  -9  -1  -9   36.80    3.76
   9   1   9   33.07    3.86
   9   1   9   30.60    4.16
  -9  -1  -8    1.59    1.61
   9   1   8    4.79    1.07
  -9  -1  -7    8.79    2.24
   9   1   7    5.60    2.52
   9   1   7    6.07    1.05
  -9  -1  -6 3820.06  116.34
   9   1   6 3799.40  116.13
   9   1   6 3952.95  119.34
  -9  -1  -5   56.72    3.87
   9   1   5   58.41    3.88
   9   1   5   57.54    6.34
  -9  -1  -4  365.96   18.19
   9   1   4  386.53   18.89
   9   1   4  390.08   18.66
  -9  -1  -3   15.15    2.66
   9   1   3   13.96    2.64
   9   1   3   18.61    3.14
  -9  -1  -2  750.01   21.63
   9   1   2  777.20   22.61
   9   1   2  678.95   19.83
  -9  -1  -1   85.08    4.62
   9   1   1   89.83    5.18
   9   1   1   64.45    4.32
  -9  -1   0   77.74    4.54
   9   1   0   80.69    4.85
   9   1   0   92.70    5.87
  -9  -1   1    3.73    2.54
   9   1  -1    2.07    1.63
  -9  -1   1    2.08    0.82
   9   1  -1    3.68    3.00
  -9  -1   2  933.36   33.16
   9   1  -2  999.33   35.61
  -9  -1   2  934.43   32.74
   9   1  -2 1017.38   37.48
  -9  -1   3    9.76    2.32
   9   1  -3   10.90    2.55
  -9  -1   3   10.21    1.86
   9   1  -3    8.78    2.99
  -9  -1   4   14.90    2.86
   9   1  -4   23.38    4.23
  -9  -1   4   19.69    4.19
   9   1  -4   14.58    3.32
  -9  -1   5    0.89    2.34
   9   1  -5    6.20    3.64
  -9  -1   5   -0.65    1.59
   9   1  -5   15.35    4.47
  -9  -1   6 3675.92   94.81
  -9  -1   6 3967.49  102.42
  -9  -1   6 3775.22   97.87
  -9  -1   7   14.37    3.27
  -9  -1   7   18.85    4.08
  -9  -1   7   19.39    3.75
  -9  -1   8  285.35   10.82
  -9  -1   8  269.99   10.68
  -9  -1   8  270.64   16.13
  -9  -1   9  135.67   14.45
  -9  -1   9  112.16    6.60
  -9  -1   9  167.43   10.10
  -9  -1  10 2067.86   92.92
  -9  -1  10 2072.89   93.46
  -9  -1  10 2443.28  110.01
  -9  -1  11    4.32    1.65
  -9  -1  11    0.75    2.67
  -9  -1  11    2.11    2.14
  -9  -1  12  314.39   13.99
  -9  -1  12  346.88   15.27
  -9  -1  13    6.55    4.31
  -9  -1  14 1024.44   38.86
  -9  -1  15   36.19    4.96
  -9  -1  15   41.71    6.31
  -9  -1  15   28.26    4.81
  -9  -1  16   48.19    6.56
  -9  -1  16   46.59    6.76
  -9  -1  16   55.78    7.76
  -9  -1  17   25.08    4.44
  -9  -1  17   27.62    4.98
  -9  -1  17   28.09    7.89
  -9  -1  18 4804.77  723.97
  -9  -1  18 4572.08  204.43
  -9  -1  18 4426.85  197.93
  -9  -1  19    2.60    3.47
  -9  -1  20  348.63   16.37
   7   1  16    9.52    2.15
  -7  -1 -15    3.82    1.79
   7   1  15    7.81    3.21
  -7  -1 -14 1226.93   55.99
   7   1  14 1299.53   60.04
  -7  -1 -13    6.03    1.98
   7   1  13    5.86    4.12
  -7  -1 -12 1537.61   40.65
   7   1  12 1576.84   42.58
  -7  -1 -11   53.94    7.25
   7   1  11   48.97    6.79
  -7  -1 -10 1767.12   55.13
   7   1  10 1705.18   53.78
  -7  -1  -9    4.36    1.72
   7   1   9    1.62    1.47
  -7  -1  -8  683.12   31.53
   7   1   8  639.80   29.83
   7   1   8  673.96   30.03
  -7  -1  -7   20.23    3.15
   7   1   7   21.08    3.39
   7   1   7   17.32    3.77
  -7  -1  -6  616.44   17.84
   7   1   6  647.35   19.12
   7   1   6  632.20   16.77
  -7  -1  -5   10.61    1.85
   7   1   5   13.25    2.33
   7   1   5   18.50    3.34
  -7  -1  -4   86.83    8.82
   7   1   4   82.82    8.55
   7   1   4   97.65    7.26
  -7  -1  -3   43.92    5.12
   7   1   3   40.75    4.91
   7   1   3   40.02    5.61
  -7  -1  -2 2705.05   66.11
   7   1   2 2935.96   71.98
   7   1   2 2256.65   55.29
  -7  -1  -1   54.66    6.04
   7   1   1   53.88    6.92
   7   1   1   41.38    5.52
  -7  -1   0 1415.25   35.79
   7   1   0 1542.79   39.31
  -7  -1   0 1479.77   36.25
   7   1   0 1507.60   39.37
  -7  -1   1   71.93    3.98
   7   1  -1   69.01    3.98
  -7  -1   1   71.86    3.95
   7   1  -1   70.93    5.24
  -7  -1   2 5604.25  134.72
   7   1  -2 5869.86  546.60
  -7  -1   2 5689.46  529.77
   7   1  -2 5349.38  130.52
  -7  -1   3   32.63    4.94
   7   1  -3   24.84    3.96
  -7  -1   3   32.23    6.31
   7   1  -3   23.01    4.35
  -7  -1   4 2044.27   51.77
   7   1  -4 2011.76   50.95
  -7  -1   4 1697.30   43.37
   7   1  -4 1683.87   44.15
  -7  -1   5    9.92    2.04
  -7  -1   5    8.91    2.00
  -7  -1   5   19.76    4.78
  -7  -1   6   32.19    9.52
  -7  -1   6   20.77    3.54
  -7  -1   6   27.76    5.29
  -7  -1   7   26.05    7.23
  -7  -1   7   29.26    4.75
  -7  -1   7   27.67    4.73
  -7  -1   8  372.68   17.25
  -7  -1   8  291.27   12.86
  -7  -1   8  288.54   13.33
  -7  -1   9   10.98    2.10
  -7  -1   9    1.61    2.69
  -7  -1   9    9.72    3.38
  -7  -1  10 3723.48  125.91
  -7  -1  10 3943.12  133.59
  -7  -1  10 3989.89  135.30
  -7  -1  11   21.45    4.66
  -7  -1  11   17.44    3.99
  -7  -1  11   16.00    5.17
   7   1 -12 1530.29   41.72
  -7  -1  12 1574.85   44.09
  -7  -1  12 1785.67   82.04
   7   1 -13   13.95    3.09
  -7  -1  13    9.43    2.50
  -7  -1  13  -13.14    3.89
   7   1 -14 2664.19   83.21
  -7  -1  14 3214.64  100.68
   7   1 -15   51.08   11.95
  -7  -1  15   47.96    7.19
  -7  -1  15   30.49    6.18
   7   1 -16  188.59    8.45
  -7  -1  16  260.36   12.23
  -7  -1  16  260.22   13.31
   7   1 -17    3.56    1.57
  -7  -1  17    8.26    3.72
  -7  -1  17    6.21    4.34
   7   1 -18  153.67   20.60
  -7  -1  18  142.13   14.31
  -7  -1  18  169.78   11.29
   7   1 -19   10.31    2.93
  -7  -1  19    6.94    3.08
  -7  -1  19    8.15    3.64
   7   1 -20    5.03    2.05
  -7  -1  20   10.68    3.43
  -7  -1  20   28.25    6.37
   5   1  18 1167.43   41.65
  -5  -1 -16 2058.81   92.92
  -5  -1 -15   15.63    2.91
  -5  -1 -14 1150.04   31.30
   5   1  14 1046.70   29.39
  -5  -1 -13   27.21    4.26
   5   1  13   18.77    4.17
  -5  -1 -12  668.15   22.72
   5   1  12  623.15   21.73
  -5  -1 -11   16.36    2.48
   5   1  11    4.00    1.37
  -5  -1 -10  684.43   19.81
   5   1  10  618.03   18.30
  -5  -1  -9   43.91    4.91
   5   1   9   39.27    4.54
  -5  -1  -8 1051.90   36.26
   5   1   8 1171.85   40.76
  -5  -1  -7   17.55    2.64
   5   1   7   18.00    3.06
  -5  -1  -6 4677.39  112.32
   5   1   6 4364.15  105.12
  -5  -1  -5   13.46    2.29
   5   1   5   15.97    2.72
   5   1   5   17.91    3.25
  -5  -1  -4 3594.66   86.44
   5   1   4 4044.59   97.49
   5   1   4 3900.79   92.60
  -5  -1  -3  144.39    5.41
   5   1   3  128.46    4.96
   5   1   3  123.05    4.46
  -5  -1  -2 1842.22   45.63
   5   1   2 1809.68   45.08
  -5  -1  -1  288.34    8.60
   5   1   1  322.96    9.95
  -5  -1  -1  302.77    7.95
   5   1   1  265.24    8.76
  -5  -1   0 1211.81   30.60
   5   1   0 1390.43   35.26
  -5  -1   0 1260.73   31.17
   5   1   0 1057.14   28.56
  -5  -1   1   83.13    9.77
   5   1  -1   85.25   10.19
  -5  -1   1   93.35    4.88
   5   1  -1   64.54    7.80
  -5  -1   2  473.01   13.61
   5   1  -2  481.00   13.94
  -5  -1   2  405.56   13.76
  -5  -1   3   50.53    6.03
   5   1  -3   49.96    6.52
  -5  -1   3   35.28    4.87
  -5  -1   4  546.92   15.62
  -5  -1   4  534.60   15.58
  -5  -1   4  507.41   15.77
  -5  -1   5   40.76    5.42
  -5  -1   5   42.04    5.51
  -5  -1   5   33.71    4.76
  -5  -1   6 3534.22   87.29
  -5  -1   6 3782.53   93.87
  -5  -1   6 3390.87   84.86
  -5  -1   7   10.60    2.45
  -5  -1   7   15.44    5.21
   5   1  -8 1929.33   48.74
  -5  -1   8 1867.16   47.88
  -5  -1   8 2071.62   54.25
   5   1  -9    1.43    1.16
  -5  -1   9    4.43    1.86
  -5  -1   9    1.09   20.52
   5   1 -10 2210.14   75.53
  -5  -1  10 2252.15   77.70
  -5  -1  10 2097.00   73.39
   5   1 -11   40.46    8.37
  -5  -1  11   32.32    4.77
   5   1 -12 1975.37   53.64
  -5  -1  12 1619.54   45.01
  -5  -1  12 1649.66   47.03
   5   1 -13   10.99    2.89
  -5  -1  13   49.57    6.55
   5   1 -14  147.78   12.29
  -5  -1  14  137.76    9.41
  -5  -1  14  139.35    9.89
   5   1 -15    4.18    1.20
  -5  -1  15   13.92    3.11
  -5  -1  15   10.51    3.65
   5   1 -16  309.11   14.81
  -5  -1  16  291.00   13.82
  -5  -1  16  294.99   15.23
   5   1 -17    1.98    1.17
  -5  -1  17    6.92    4.01
   5   1 -18 2781.76   98.34
  -5  -1  18 2740.43   98.17
  -5  -1  18 2468.44   88.47
  -5  -1  19   21.98    4.32
   5   1 -20 2659.32  142.74
  -5  -1  20 2107.84  113.75
  -5  -1  21    4.71    2.59
  -3  -1 -18   10.63    2.90
   3   1  18    7.85    2.64
  -3  -1 -17    4.83    2.65
   3   1  17   -0.48    1.52
   3   1  17    4.84    2.91
  -3  -1 -16   33.78    4.42
   3   1  16   32.05    7.24
   3   1  16   58.53    7.04
  -3  -1 -15    5.42    2.44
   3   1  15    1.22    1.68
   3   1  15    6.77    2.06
  -3  -1 -14  285.78   12.29
   3   1  14  417.49   16.06
  -3  -1 -13    2.44    1.48
   3   1  13    6.41    2.30
  -3  -1 -12 3043.75  134.40
   3   1  12 2542.44  112.61
   3   1  12 2325.35  102.77
  -3  -1 -11   73.71    4.01
   3   1  11   55.52    3.96
  -3  -1 -10  394.48   14.95
   3   1  10  318.03   12.37
  -3  -1  -9    2.54    1.26
   3   1   9    5.89    1.50
  -3  -1  -8 3765.68   90.83
   3   1   8 3343.54   81.01
  -3  -1  -7   15.21    2.19
   3   1   7   17.72    2.80
  -3  -1  -6  202.70    6.37
   3   1   6  202.61    6.75
  -3  -1  -5  205.68    6.31
   3   1   5  218.11    6.97
  -3  -1  -4  177.32    5.66
   3   1   4  170.02    5.55
  -3  -1  -3  414.99   11.16
   3   1   3  427.51   11.60
   3   1   3  358.71    8.81
  -3  -1  -2  131.38    4.82
   3   1   2  115.59    4.26
  -3  -1  -1    7.40    2.21
   3   1   1   -0.24    1.95
  -3  -1  -1    4.12    1.00
  -3  -1   0 3615.45   87.06
   3   1   0 3669.33   88.50
  -3  -1   0 2941.56   71.37
  -3  -1   1   17.17    3.40
   3   1  -1    8.46    2.14
  -3  -1   1   20.88    3.76
  -3  -1   2 2310.09   56.62
   3   1  -2 2337.54   57.46
  -3  -1   3   20.41    5.67
  -3  -1   3   25.09    4.28
   3   1  -4 4344.28  105.11
  -3  -1   4 5161.89  574.80
   3   1  -5   23.18    5.36
  -3  -1   5   30.32    6.17
   3   1  -6  322.61   10.63
  -3  -1   6  262.89   10.06
   3   1  -7  253.06    9.41
  -3  -1   7  191.76    7.83
   3   1  -8   90.59    9.42
  -3  -1   8   75.74    4.83
   3   1  -9   47.14    7.06
  -3  -1   9   44.96    6.41
   3   1 -10  814.72   24.06
  -3  -1  10  701.58   21.48
   3   1 -11   49.94   11.71
  -3  -1  11   41.57    5.44
   3   1 -12 4072.92  137.27
  -3  -1  12 3842.52  129.86
   3   1 -13   58.42   13.20
  -3  -1  13   49.20    6.22
   3   1 -14 1046.50   48.55
  -3  -1  14 1037.53   48.57
  -3  -1  15    7.17    2.15
   3   1 -16 2095.42   72.54
  -3  -1  16 2245.43   78.30
  -3  -1  16 2155.71   74.57
   3   1 -17    7.95    1.98
  -3  -1  17   16.83    3.87
   3   1 -18  288.68   13.69
  -3  -1  18  299.49   14.52
  -3  -1  18  388.30   17.99
   3   1 -19   13.67    3.93
  -3  -1  19   17.01    3.59
  -3  -1  19   19.52    4.61
  -3  -1  20    9.38    3.32
  -3  -1  20   49.98    6.29
  -3  -1  21    2.96    3.44
  -1  -1 -20  287.75   12.84
   1   1  20  320.37   15.11
  -1  -1 -18   10.46    3.68
   1   1  18    9.22    3.44
   1   1  18   18.70    3.75
  -1  -1 -17    4.46    1.65
  -1  -1 -16 3750.46  220.51
   1   1  16 4278.44  251.32
  -1  -1 -15    7.21    1.84
  -1  -1 -14  178.23    9.65
   1   1  14  172.06    9.72
   1   1  14  191.34   10.74
  -1  -1 -13    9.11    1.98
   1   1  13    8.66    3.83
  -1  -1 -12 2699.10   69.57
   1   1  12 2393.76   62.30
   1   1  12 2545.52   66.45
  -1  -1 -11    5.89    2.20
   1   1  11   -0.23    1.73
  -1  -1 -10   70.70    3.83
   1   1  10   66.75    3.80
   1   1  10   48.58    6.66
  -1  -1  -9    7.66    1.74
   1   1   9    5.90    2.12
   1   1   9    2.26    2.69
  -1  -1  -8 1835.52   44.98
   1   1   8 1698.49   41.86
   1   1   8 1622.05   41.03
  -1  -1  -7  162.51    5.51
   1   1   7  131.72    4.77
   1   1   7  109.18    4.75
  -1  -1  -6  230.96    6.81
   1   1   6  228.96    7.02
  -1  -1  -5   13.65    1.79
   1   1   5   15.30    2.10
   1   1   5   10.50    1.90
  -1  -1  -4 6861.07  763.29
   1   1   4 6905.05  768.21
   1   1   4 4642.93  516.56
  -1  -1  -3  111.57    3.73
   1   1   3  108.48    3.70
   1   1   3   97.88    2.78
  -1  -1  -3   89.71    3.88
  -1  -1  -2   95.71    3.39
   1   1   2  104.90    3.52
  -1  -1  -2   88.14    2.41
  -1  -1  -1   13.18    1.88
   1   1   1   22.87    3.28
  -1  -1   0 1498.01   36.35
   1   1   0 1527.41   37.38
  -1  -1   1   10.33    2.72
  -1  -1   1    8.94    2.59
   1   1  -2  134.96    5.77
  -1  -1   2  133.47    7.48
   1   1  -3   34.31    4.36
  -1  -1   3   33.33    8.08
   1   1  -4 1230.77   31.39
  -1  -1   4 1367.24   34.92
   1   1  -5  136.17    5.33
  -1  -1   5  128.84    5.37
   1   1  -6  545.04   15.54
  -1  -1   6  495.94   14.50
   1   1  -7  106.82    5.23
  -1  -1   7   90.73    4.79
   1   1  -8 4954.81  551.84
  -1  -1   8 4127.82  101.02
   1   1  -9   16.20    4.67
  -1  -1   9   15.05    3.01
   1   1 -10  233.79    9.18
  -1  -1  10  269.01   11.12
  -1  -1  11    4.26    3.17
   1   1 -12 2875.13   98.13
  -1  -1  12 2515.64   86.24
   1   1 -13   54.85    4.39
  -1  -1  13   55.15    4.31
   1   1 -14  482.11   24.02
  -1  -1  14  374.88   19.11
   1   1 -15    6.93    2.09
  -1  -1  15    2.87    1.84
   1   1 -16  221.32   11.14
  -1  -1  16  206.17   10.65
  -1  -1  17    6.57    2.53
   1   1 -18  428.07   18.58
  -1  -1  18  420.71   18.66
   1   1 -20 2711.96  144.22
  -1  -1  20 2865.44   96.05
  -1  -1  20 3496.01  116.25
  -1  -1  21   11.12    3.27
   1  -1 -20 2740.82  145.21
  -1   1  20 3493.77  114.07
   1  -1 -18  434.94   18.03
  -1   1  18  461.29   18.69
   1  -1 -16  189.23    9.06
  -1   1  16  179.42    8.78
  -1   1  16  184.74    8.80
  -1   1  15    1.86    1.67
   1  -1 -14  430.72   20.84
  -1   1  14  343.16   16.87
  -1   1  14  390.00   19.30
  -1   1  13   45.54    5.80
  -1   1  12 2205.95   74.62
  -1   1  12 2298.80   78.33
  -1   1  11   -1.44    3.09
   1  -1 -10  230.84    7.84
  -1   1  10  207.16    7.38
  -1   1  10  189.47    7.79
  -1   1   9   28.43    4.64
  -1   1   9   13.45    2.79
   1  -1  -8 4803.71  534.69
  -1   1   8 3867.68   95.05
   1  -1  -7   72.27    8.13
  -1   1   7  108.34    4.12
  -1   1   7   82.44   11.21
   1  -1  -6  567.30   14.78
  -1   1   6  548.51   14.24
  -1   1   6  569.91   16.09
   1  -1  -6  514.97   15.73
   1  -1  -5  159.01    5.01
  -1   1   5  166.71    4.99
  -1   1   5  173.94    6.69
   1  -1  -5  176.30    7.26
   1  -1  -4 1477.58   35.79
  -1   1   4 1557.61   37.52
  -1   1   4 1865.26   45.59
   1  -1  -4 1674.99   41.48
   1  -1  -3   43.19    5.22
  -1   1   3   57.88    6.23
  -1   1   3   57.93    6.33
   1  -1  -3   64.69    7.23
   1  -1  -2  170.58    4.78
  -1   1   0 1359.65   32.86
   1  -1   0 1674.95   40.24
  -1   1  -1   16.02    2.27
   1  -1   1    5.00    1.60
  -1   1  -2   72.41    7.94
   1  -1   2   88.81    3.45
  -1   1  -4 4979.79  554.22
   1  -1   4 5266.58  586.13
  -1   1  -5   24.59    5.92
   1  -1   5   14.12    2.42
  -1   1  -6  197.29    6.92
   1  -1   6  180.95    6.55
  -1   1  -7  161.04    6.31
  -1   1  -8 1862.13   46.94
   1  -1   8 1692.97   42.84
  -1   1  -9   16.07    3.33
   1  -1   9    6.96    2.41
  -1   1 -10   51.38    5.90
   1  -1  10   54.51    6.55
  -1   1 -12 3065.17   80.35
   1  -1  14  196.17   11.59
  -1   1 -18    5.57    2.58
   1  -1  18    7.27    2.86
  -1   1 -19    9.72    3.12
   1  -1  20  272.72   13.49
   3  -1 -21    2.94    0.84
  -3   1  21   10.95    4.37
   3  -1 -20    3.05    1.04
  -3   1  20    4.39    2.28
  -3   1  20    9.25    2.69
   3  -1 -19   16.22    4.01
  -3   1  19   11.02    4.53
  -3   1  19   21.01    4.29
   3  -1 -18  361.55   31.46
  -3   1  18  321.67   14.60
  -3   1  18  298.45   14.28
   3  -1 -17   17.17    5.86
  -3   1  17   22.53    4.09
  -3   1  17   12.24    2.77
  -3   1  16 2211.96   75.88
  -3   1  16 2342.43   80.08
   3  -1 -14  959.96   43.79
  -3   1  14 1118.34   51.22
  -3   1  14 1124.27   51.83
   3  -1 -13   53.84    8.93
  -3   1  13   45.05   11.57
   3  -1 -12 3908.52  130.73
  -3   1  12 4136.36  138.53
  -3   1  12 4583.47  154.09
   3  -1 -11   49.82   14.20
  -3   1  11   45.59    5.25
  -3   1  11   59.50   12.81
   3  -1 -10  651.12   18.11
  -3   1  10  709.48   19.95
  -3   1  10  697.86   20.84
   3  -1  -9   45.30    6.83
  -3   1   9   65.46    4.47
  -3   1   9   49.00   13.48
   3  -1  -9   47.88    6.84
   3  -1  -8   80.33    9.00
  -3   1   8   71.96    8.08
  -3   1   8   82.33   13.56
   3  -1  -8   94.95    6.78
   3  -1  -7  215.27    8.02
  -3   1   7  190.75    6.39
  -3   1   7  235.99   10.79
   3  -1  -7  231.60    9.48
   3  -1  -6  344.34   10.05
  -3   1   6  293.83    8.97
  -3   1   6  316.98   11.80
   3  -1  -6  282.80    9.62
   3  -1  -5   21.05    4.35
  -3   1   5   18.76    2.61
  -3   1   5   31.09    7.55
   3  -1  -5   26.31    4.76
  -3   1   4 3858.67   92.60
  -3   1   4 5364.85  596.94
  -3   1   4 4924.34  548.04
   3  -1  -4 6644.53  739.49
  -3   1   3   22.87    3.00
  -3   1   3   21.16    3.30
  -3   1   3   18.36    4.68
   3  -1  -3   23.85    3.32
  -3   1   2 2595.09   62.11
   3  -1  -2 2497.43   59.79
   3  -1  -2 2581.54   62.34
  -3   1   1    9.08    1.28
   3  -1  -1   10.80    1.61
  -3   1   0 3966.32   94.87
   3  -1   0 3411.44   81.52
  -3   1  -1    3.66    1.14
   3  -1   1    2.71    0.98
  -3   1  -2  104.08    3.67
   3  -1   2  102.71    3.57
  -3   1  -3  433.02   11.76
   3  -1   3  462.61   12.56
  -3   1  -4  172.08    5.76
   3  -1   4  167.40    5.68
  -3   1  -5  196.88    6.48
   3  -1   5  206.32    6.86
  -3   1  -6  224.87    7.67
   3  -1   6  187.17    6.55
  -3   1  -7   14.93    2.57
  -3   1  -8 3946.38   96.30
  -3   1  -9    6.09    2.02
  -3   1 -10  373.60   14.92
   3  -1  10  316.43   12.82
  -3   1 -12 2854.15  126.58
   3  -1  12 2775.03  123.28
  -3   1 -13    1.48    1.48
   3  -1  13    6.17    3.32
  -3   1 -14  472.74   18.80
   3  -1  14  421.04   17.22
  -3   1 -15    8.28    3.06
   3  -1  15    6.09    2.59
  -3   1 -16   49.19    6.17
   3  -1  16   40.03    5.53
  -3   1 -17    1.33    1.92
   3  -1  17   -0.63    1.72
  -3   1 -18   11.94    3.51
   3  -1  18   11.91    3.64
   5  -1 -20 1768.52   80.00
  -5   1  20 2031.82   92.46
  -5   1  20 1970.59   89.38
   5  -1 -19   15.95    3.82
  -5   1  19   36.26    5.48
  -5   1  19   21.28    6.33
   5  -1 -18 1698.77   59.52
  -5   1  18 1871.29   66.39
  -5   1  18 2189.69   77.11
   5  -1 -17    2.80    0.90
  -5   1  17   10.38    2.25
  -5   1  17    4.23    2.14
   5  -1 -16  211.40    9.65
  -5   1  16  198.99    9.92
   5  -1 -15   11.05    1.99
  -5   1  15    5.17    1.92
  -5   1  15    9.31    3.78
   5  -1 -14  160.64   11.70
  -5   1  14  150.69    9.69
  -5   1  14  136.73    8.96
   5  -1 -13   12.79    2.54
  -5   1  13    9.32    2.52
  -5   1  13    7.65    2.16
   5  -1 -12 1759.73   46.60
  -5   1  12 1371.96   37.61
  -5   1  12 1570.88   43.44
   5  -1 -11   36.59    8.10
  -5   1  11   29.17    3.99
  -5   1  11   37.12    8.74
   5  -1 -11   32.25    5.49
   5  -1 -10 2326.08   78.52
  -5   1  10 2253.84   76.96
  -5   1  10 2308.06   80.02
   5  -1 -10 2181.18   76.11
   5  -1  -9    4.38    1.93
  -5   1   9    4.11    2.05
  -5   1   9    6.47    2.96
   5  -1  -9    4.25    3.58
  -5   1   8 2113.79   52.75
  -5   1   8 1943.52   49.72
   5  -1  -8 2488.39   64.27
  -5   1   7   12.70    2.93
  -5   1   7   19.38    3.30
  -5   1   7   13.63    3.94
   5  -1  -7   13.08    3.89
  -5   1   6 2988.39   72.86
  -5   1   6 3422.65   83.15
  -5   1   6 3236.87   79.79
   5  -1  -6 3380.65   83.53
  -5   1   5   46.14    5.61
  -5   1   5   43.11    5.02
  -5   1   5   47.88   10.32
   5  -1  -5   49.71   11.50
  -5   1   4  622.03   16.33
   5  -1  -4  526.14   14.09
  -5   1   4  577.71   15.95
   5  -1  -4  627.01   17.92
  -5   1   3   47.77    5.37
   5  -1  -3   41.61    4.84
  -5   1   3   43.78    5.07
   5  -1  -3   54.09    7.77
  -5   1   2  506.90   13.26
   5  -1  -2  515.04   13.57
   5  -1  -2  478.27   13.04
  -5   1   1   92.45    3.38
   5  -1  -1   90.95    3.43
   5  -1  -1   90.87    3.60
  -5   1   0 1211.99   30.00
   5  -1   0 1316.42   32.50
  -5   1  -1  301.50    8.57
   5  -1   1  311.46    8.77
  -5   1  -2 1699.30   41.96
   5  -1   2 1571.45   38.66
  -5   1  -3  126.45    4.63
   5  -1   3  140.79    5.02
  -5   1  -4 3288.07   79.31
   5  -1   4 3448.65   82.98
  -5   1  -5   15.03    2.64
   5  -1   5   12.85    2.41
  -5   1  -6 4692.48  113.24
   5  -1   6 4613.26  111.23
  -5   1  -7   20.67    3.18
   5  -1   7   19.01    3.25
  -5   1  -8 1089.03   38.01
   5  -1   8 1222.07   42.73
  -5   1  -9   47.49    5.57
   5  -1   9   44.54    5.59
  -5   1 -10  736.99   34.36
   5  -1  10  713.70   33.50
  -5   1 -11    5.58    1.88
  -5   1 -12  918.73   32.23
   5  -1  12  664.70   23.52
  -5   1 -13   26.04    4.47
   5  -1  13   17.35    4.41
  -5   1 -14 1037.71   29.10
   5  -1  14 1196.64   33.97
  -5   1 -15   22.10    3.54
   5  -1  15   16.62    4.79
  -5   1 -16 1639.34   74.59
   5  -1  16 1702.68   77.91
   7  -1 -21    2.37    1.27
   7  -1 -20    6.29    2.20
  -7   1  20    8.81    2.61
  -7   1  20    8.38    2.30
   7  -1 -19    6.83    2.14
  -7   1  19   30.39    6.96
  -7   1  19   21.79    6.48
   7  -1 -18  141.32   15.33
  -7   1  18  170.60    9.58
  -7   1  18  152.87   15.10
   7  -1 -17    5.45    1.13
  -7   1  17    3.36    2.44
  -7   1  17    5.01    1.95
   7  -1 -16  195.08    7.93
  -7   1  16  192.26    9.03
  -7   1  16  227.12   11.09
   7  -1 -15   58.18    8.41
  -7   1  15   46.20    6.50
  -7   1  15   63.45   14.45
   7  -1 -14 3042.76   93.22
  -7   1  14 3081.81   95.58
   7  -1 -13   10.77    1.94
  -7   1  13   10.63    2.15
  -7   1  13   13.86    4.63
  -7   1  12 1602.54   43.51
  -7   1  12 1637.61   44.63
  -7   1  12 1675.18   47.79
   7  -1 -12 1716.08   49.12
  -7   1  11   18.05    3.02
  -7   1  11   21.31    3.94
  -7   1  11   13.28    3.32
   7  -1 -11   19.09    4.80
  -7   1  10 4055.55  136.03
  -7   1  10 3782.29  127.07
  -7   1  10 3720.58  126.10
   7  -1 -10 4367.03  148.65
  -7   1   9    3.57    1.15
  -7   1   9    5.45    2.54
  -7   1   9    4.17    1.31
   7  -1  -9    0.90    3.04
  -7   1   8  261.43   14.04
  -7   1   8  268.86   11.16
  -7   1   8  324.44   13.67
   7  -1  -8  259.83   11.94
  -7   1   7   28.76    4.02
  -7   1   7   29.98    4.28
  -7   1   7   31.34    9.28
   7  -1  -7   28.38    4.63
  -7   1   6   21.89    5.73
  -7   1   6   42.49    5.50
  -7   1   6   22.06    5.52
   7  -1  -6   43.00    8.83
  -7   1   5   12.54    2.32
   7  -1  -5   12.04    2.31
  -7   1   5   12.13    3.05
   7  -1  -5   13.02    2.51
  -7   1   4 1998.12   49.07
   7  -1  -4 1968.97   48.38
  -7   1   4 2019.54   50.30
   7  -1  -4 2175.45   54.42
  -7   1   3   25.18    3.40
   7  -1  -3   24.46    3.40
   7  -1  -3   30.88    7.10
  -7   1   2 5601.05  133.78
   7  -1  -2 6465.41  601.73
   7  -1  -2 6490.77  604.28
  -7   1   1   80.29    3.77
   7  -1  -1   79.08    3.66
   7  -1  -1   77.39    6.37
  -7   1   0 1360.77   33.89
   7  -1   0 1473.73   36.58
   7  -1   0 1440.32   36.02
  -7   1  -1   54.08    5.88
   7  -1   1   51.27    6.33
   7  -1   1   55.46    5.79
  -7   1  -2 2706.99   65.96
   7  -1   2 2602.54   63.27
  -7   1  -3   43.78    4.95
   7  -1   3   40.43    4.57
  -7   1  -4   81.08    8.27
   7  -1   4  103.80    5.41
  -7   1  -5    9.75    1.97
   7  -1   5   12.37    2.24
  -7   1  -6  683.33   19.93
   7  -1   6  641.86   18.64
  -7   1  -7   14.95    2.66
   7  -1   7   13.06    2.31
  -7   1  -8  739.72   34.46
   7  -1   8  697.36   32.46
  -7   1  -9    2.54    1.53
   7  -1   9    3.09    2.03
  -7   1 -10 1792.46   56.51
   7  -1  10 1831.71   57.80
  -7   1 -11   49.05    6.72
   7  -1  11   43.88    8.95
  -7   1 -12 1521.96   41.11
   7  -1  12 1399.56   37.99
  -7   1 -13    7.77    2.37
  -7   1 -14 1604.33   74.21
  -7   1 -15   10.80    3.15
   7  -1  15    8.41    3.92
  -9   1  20  375.01   16.87
  -9   1  19    4.78    2.86
  -9   1  18 3481.79  154.76
  -9   1  18 4555.21  202.27
  -9   1  18 3585.08  159.99
  -9   1  17   28.26    4.16
  -9   1  17   38.61    5.93
  -9   1  17   22.89    6.41
  -9   1  16   44.79    5.75
  -9   1  16   71.74   20.14
  -9   1  16   38.27   11.62
  -9   1  15   34.63    4.31
  -9   1  15   33.80    4.44
  -9   1  15   29.24    5.88
  -9   1  14  890.61   32.52
  -9   1  14  858.31   31.57
  -9   1  14  881.86   33.51
  -9   1  13    4.17    1.71
  -9   1  13    1.29    1.67
  -9   1  13    4.10    1.66
   9  -1 -13    3.04    3.16
  -9   1  12  300.60   15.58
  -9   1  12  312.01   12.67
  -9   1  12  312.90   14.12
   9  -1 -12  351.07   16.53
  -9   1  11    1.06    0.73
  -9   1  11   -0.39    1.78
  -9   1  11    1.95    1.97
   9  -1 -11    9.24    6.00
  -9   1  10 2151.70   96.03
  -9   1  10 1988.87   88.85
  -9   1  10 1943.50   87.66
   9  -1 -10 2149.58   97.44
  -9   1   9  134.40    7.27
  -9   1   9  134.64    6.70
  -9   1   9  113.91   14.00
   9  -1  -9  145.94    8.91
  -9   1   8  298.07   10.29
  -9   1   8  296.65   10.82
  -9   1   8  264.68   10.28
   9  -1  -8  255.20   10.88
  -9   1   7   15.61    3.77
  -9   1   7   14.83    2.67
  -9   1   7   17.86    4.05
   9  -1  -7   19.92    4.12
  -9   1   6 3447.25   87.78
  -9   1   6 3606.52   92.90
   9  -1  -6 3651.21   94.66
  -9   1   5    1.98    1.51
   9  -1  -5    1.06    1.59
   9  -1  -5    3.45    1.06
  -9   1   4   24.21    3.26
   9  -1  -4   21.07    3.12
   9  -1  -4   20.63    4.44
  -9   1   3   13.53    2.47
   9  -1  -3    9.75    1.82
   9  -1  -3   14.50    2.73
  -9   1   2  991.82   34.56
   9  -1  -2 1029.78   35.81
   9  -1  -2  979.90   34.47
  -9   1   1    2.90    1.43
   9  -1  -1    8.57    2.14
   9  -1  -1    4.73    0.83
  -9   1   0   76.35    3.93
   9  -1   0   86.78    4.30
   9  -1   0   68.74    6.92
  -9   1  -1   89.37    4.70
   9  -1   1   89.29    4.46
   9  -1   1   77.48    3.77
  -9   1  -2  711.97   20.34
   9  -1   2  713.28   20.07
   9  -1   2  732.19   20.38
  -9   1  -3   14.93    2.55
   9  -1   3   12.29    2.23
   9  -1   3   12.91    4.48
  -9   1  -4  392.64   18.97
   9  -1   4  370.61   17.90
   9  -1   4  391.10   18.41
  -9   1  -5   51.21    3.20
   9  -1   5   47.45    3.23
   9  -1   6 3424.13  104.30
  -9   1  -7    8.71    2.57
   9  -1   7    4.51    2.32
  -9   1  -8    2.07    1.35
   9  -1   8    5.60    1.87
  -9   1  -9   35.77    4.22
   9  -1   9   33.47    3.76
  -9   1 -10 1203.98   43.33
   9  -1  10 1336.93   47.86
  -9   1 -11    0.43    1.39
   9  -1  11   -0.51    1.87
  -9   1 -12   93.84    6.74
   9  -1  12   94.98    7.15
   9  -1  13    0.05    2.17
 -11   1  18    9.11    2.44
 -11   1  17   18.25    4.21
 -11   1  17   12.17    3.40
 -11   1  16   35.45    7.39
 -11   1  16   44.07   11.66
 -11   1  15    2.23    1.74
 -11   1  15    0.67    1.72
 -11   1  15   -0.25    2.04
 -11   1  14 2143.70   74.72
 -11   1  14 1958.28   68.52
 -11   1  14 1932.32   68.64
  11  -1 -14 2286.36   82.06
 -11   1  13    1.28    1.06
 -11   1  13    0.34    1.87
 -11   1  13   -2.35    1.95
  11  -1 -13    0.08    2.54
 -11   1  12  234.75   13.79
 -11   1  12  286.91   11.75
 -11   1  12  244.89   10.66
  11  -1 -12  337.25   15.49
 -11   1  11   21.65    4.52
 -11   1  11   14.19    3.02
 -11   1  11   14.42    5.44
  11  -1 -11   23.90    5.53
 -11   1  10 4486.37  263.72
 -11   1  10 3577.86  119.80
 -11   1  10 3346.34  113.11
  11  -1 -10 3770.80  223.01
 -11   1   9   20.23    4.48
 -11   1   9   12.85    2.94
 -11   1   9   15.46    5.06
  11  -1  -9   10.60    3.31
 -11   1   8  182.71    9.73
 -11   1   8  172.57    8.20
 -11   1   8  169.78   11.85
  11  -1  -8  173.16    9.19
 -11   1   7   33.47    9.37
 -11   1   7   24.75    2.58
 -11   1   7   27.95    3.26
  11  -1  -7   33.28    3.84
 -11   1   6  382.55   14.36
  11  -1  -6  378.94   14.13
  11  -1  -6  386.93   15.50
 -11   1   5   -0.82    1.53
  11  -1  -5   -0.05    1.41
  11  -1  -5    1.80    0.96
 -11   1   4   90.98    6.02
  11  -1  -4  103.75    6.53
  11  -1  -4   99.64   17.27
 -11   1   3    6.35    2.35
  11  -1  -3    3.78    1.92
  11  -1  -3    3.57    0.78
 -11   1   2 4330.31  498.32
  11  -1  -2 4328.35  131.14
  11  -1  -2 4886.18  562.44
 -11   1   1   12.13    1.88
  11  -1  -1   18.07    2.48
  11  -1  -1   15.79    2.31
 -11   1   0  176.66    8.00
  11  -1   0  224.97    9.42
  11  -1   0  179.30   10.04
 -11   1  -1    7.80    1.79
  11  -1   1    7.91    1.81
  11  -1   1    7.50    1.84
  11  -1   2 4368.55  256.14
 -11   1  -3    6.34    2.33
  11  -1   3    6.04    1.68
  11  -1   4  215.23    9.15
 -11   1  -5    5.11    1.52
  11  -1   5    5.31    1.53
  11  -1   5    6.74    1.80
 -11   1  -6   18.23    2.84
  11  -1   6    1.35    1.40
  11  -1   6   14.40    4.15
 -11   1  -7    3.93    2.11
  11  -1   7    0.81    1.51
  11  -1   7    2.13    0.96
 -11   1  -8   15.33    2.95
  11  -1   8   14.37    3.55
  11  -1   8   20.64    2.91
 -11   1  -9    2.41    2.35
  11  -1   9    0.67    1.86
 -11   1 -10 1787.60   95.77
  11  -1  10 1678.80   89.85
  11  -1  11   21.34    3.61
 -13   1  16  568.42   22.54
 -13   1  16  547.71   21.76
 -13   1  15    4.72    2.12
 -13   1  14 1325.10   71.48
 -13   1  14 1379.37   74.74
  13  -1 -14 1540.21   84.84
 -13   1  13    0.38    1.22
 -13   1  13    0.82    1.72
  13  -1 -13    0.34    2.72
 -13   1  12  252.47   19.71
 -13   1  12  237.53   13.38
 -13   1  12  221.88   26.97
  13  -1 -12  241.79   15.53
 -13   1  11    1.16    0.91
 -13   1  11    1.40    1.74
 -13   1  11    4.15    2.06
  13  -1 -11    8.36    4.30
 -13   1  10  790.73   34.78
 -13   1  10  683.94   24.53
 -13   1  10  683.81   25.43
  13  -1 -10  740.78   28.68
 -13   1   9   21.14    5.03
 -13   1   9   17.05    3.21
  13  -1  -9   24.11    4.93
 -13   1   8  227.29   20.13
 -13   1   8  200.47    9.98
  13  -1  -8  196.47   11.10
 -13   1   7   10.81    2.15
 -13   1   7   10.93    2.33
  13  -1  -7    4.42    2.07
 -13   1   6 3354.23  115.15
  13  -1  -6 2524.34   86.49
  13  -1  -6 2870.23  100.15
 -13   1   5    1.54    1.76
  13  -1  -5    1.56    1.43
  13  -1  -5    2.33    1.53
 -13   1   4  537.62   17.02
  13  -1  -4  509.13   15.94
 -13   1   3    3.63    2.30
  13  -1  -3    1.24    1.30
  13  -1  -3    3.26    1.22
 -13   1   2  790.73   29.19
  13  -1  -2  828.91   30.30
  13  -1  -2  843.82   31.56
 -13   1   1   48.90    5.94
  13  -1  -1   40.56    4.89
  13  -1  -1   36.50   10.04
 -13   1   0  160.82    8.72
  13  -1   0  152.71    7.86
  13  -1   0  141.73   10.73
 -13   1  -1    3.12    1.86
  13  -1   1   18.12    3.17
  13  -1   1   13.55    4.05
 -13   1  -2  167.02    8.61
  13  -1   2  159.89    8.07
  13  -1   2  144.72   14.40
 -13   1  -3    2.37    1.59
  13  -1   3    2.58    1.81
  13  -1   3    1.05    1.11
 -13   1  -4   18.54    4.34
  13  -1   4    3.48    1.70
  13  -1   4    6.49    2.06
 -13   1  -5    3.93    2.16
  13  -1   5    1.85    1.63
  13  -1   5    1.72    0.71
 -13   1  -6 1776.60   94.69
  13  -1   6 2004.61  106.69
  13  -1   6 1907.89  101.26
 -13   1  -7    7.12    2.70
  13  -1   7    3.95    2.03
  13  -1   7    1.62    1.21
 -15   1  12  909.31   32.72
 -15   1  12  954.83   34.45
  15  -1 -11   12.39    5.22
 -15   1  10 1098.53   39.45
 -15   1  10  821.23   29.81
  15  -1 -10 1053.63   40.81
 -15   1   9    2.81    1.85
 -15   1   9    2.81    1.91
  15  -1  -9    0.21    2.35
 -15   1   8 1156.37   63.02
 -15   1   8 1058.62   58.12
  15  -1  -8 1194.70   67.19
 -15   1   7    5.43    2.68
  15  -1  -7    1.96    2.78
 -15   1   6  377.06   22.33
  15  -1  -6  353.17   20.87
  15  -1  -6  352.49   21.92
 -15   1   5   10.56    3.34
  15  -1  -5    7.82    2.71
  15  -1  -5    3.70    3.23
  15  -1  -4   48.72    8.26
  15  -1  -4   61.23    5.85
  15  -1  -3    2.93    1.92
  15  -1  -3    6.67    2.41
 -15   1   2  617.13   34.95
  15  -1  -2  550.85   31.05
  15  -1  -2  567.51   37.71
 -15   1   1    1.15    1.78
  15  -1  -1    3.92    2.37
  15  -1  -1    2.53    1.89
 -15   1   0 1115.00   39.17
  15  -1   0 1054.99   36.74
  15  -1   0 1144.60   40.58
  15  -1   1    6.48    2.65
  15  -1   1    3.31    1.26
  15  -1   2 1573.15   53.78
  14   2   0  851.20   47.52
 -14  -2   1   66.88    6.25
  14   2  -1   57.81    5.49
  14   2  -2 2615.32  139.52
 -14  -2   3    6.74    2.48
  14   2  -3   10.36    3.56
 -14  -2   4  790.93   37.73
  14   2  -4  877.30   42.55
 -14  -2   5    8.70    2.96
 -14  -2   5    7.42    3.91
 -14  -2   6  591.33   33.77
 -14  -2   6  570.54   28.37
 -14  -2   6  568.64   27.29
 -14  -2   7    7.19    2.65
 -14  -2   7    6.20    3.14
 -14  -2   7    7.38    2.11
 -14  -2   8   94.28   18.50
 -14  -2   8   89.93    9.68
 -14  -2   9   21.32    5.31
 -14  -2   9   24.30    5.44
 -14  -2   9   18.28    5.65
 -14  -2  10 1323.39   48.10
 -14  -2  10 1268.26   45.17
 -14  -2  11    4.88    2.35
 -14  -2  13    6.56    1.53
  12   2   7    2.10    2.38
  12   2   6 2362.70  126.23
  12   2   5    1.12    2.09
 -12  -2  -4  311.49   12.64
  12   2   4  353.34   14.99
 -12  -2  -3   17.16    2.86
  12   2   3   11.73    3.81
 -12  -2  -2 2326.58   80.45
  12   2   2 2379.48   82.65
 -12  -2  -1    9.44    2.55
  12   2   1   12.80    3.02
 -12  -2   0  102.07    6.30
  12   2   0   74.26    5.45
 -12  -2   1   15.19    2.64
  12   2  -1   21.35    3.41
 -12  -2   2   11.99    2.42
  12   2  -2    8.49    2.55
 -12  -2   3   56.09    5.36
  12   2  -3   73.09    7.05
 -12  -2   3   58.99   10.33
 -12  -2   4  207.65    9.20
  12   2  -4  229.98   10.25
 -12  -2   4  194.19   10.17
 -12  -2   5   33.22    4.01
 -12  -2   5   30.04    7.18
 -12  -2   6 1759.82   47.26
 -12  -2   6 1650.07   44.87
 -12  -2   6 1989.87   52.72
 -12  -2   7    2.93    1.06
 -12  -2   7    3.70    2.15
 -12  -2   7    6.18    1.62
 -12  -2   8  356.72   15.94
 -12  -2   8  377.95   17.52
 -12  -2   8  366.82   33.03
 -12  -2   9   26.30    6.08
 -12  -2   9   27.45    4.69
 -12  -2   9   28.75    8.67
 -12  -2  10 3030.95  106.01
 -12  -2  10 2869.51  100.65
 -12  -2  10 3351.95  116.24
 -12  -2  11   72.46   10.39
 -12  -2  11   57.94    7.56
 -12  -2  11   70.50    8.06
 -12  -2  12   28.54    4.84
 -12  -2  12   25.82    4.33
 -12  -2  12   28.17    5.82
 -12  -2  13   12.37    3.71
 -12  -2  13   10.75    3.82
 -12  -2  13   15.89    5.48
 -12  -2  14  336.50   44.16
 -12  -2  14  308.79   19.62
 -12  -2  14  417.44   26.02
 -12  -2  15   14.45    2.42
 -12  -2  15    8.84    3.11
 -12  -2  15   30.75    8.65
 -12  -2  16  407.90   27.43
  10   2  11   48.00    4.68
  10   2  10 2557.10  135.80
 -10  -2  -9   -0.91    1.29
  10   2   9    1.86    2.50
 -10  -2  -8  216.63    9.90
  10   2   8  189.56    9.37
 -10  -2  -7   51.61    8.07
  10   2   7   58.99    7.04
 -10  -2  -6 1644.78   43.27
  10   2   6 1719.77   46.00
 -10  -2  -5    2.09    1.70
  10   2   5    4.50    2.45
 -10  -2  -4   15.78    2.93
  10   2   4   15.30    3.55
 -10  -2  -3  171.51    8.30
  10   2   3  170.73    8.80
 -10  -2  -2  134.80    6.65
  10   2   2  143.08    7.42
 -10  -2  -1   38.77    3.15
  10   2   1   40.10    5.81
 -10  -2   0   18.31    2.50
  10   2   0   21.83    2.85
 -10  -2   1   17.29    2.61
  10   2  -1   18.21    2.73
 -10  -2   1   18.10    3.52
 -10  -2   2 3905.85  172.50
  10   2  -2 4451.64   32.78
 -10  -2   2 3781.80  166.21
 -10  -2   3   32.23    3.23
  10   2  -3   39.73    3.92
 -10  -2   3   41.31    7.58
 -10  -2   4   16.79    3.08
  10   2  -4   17.53    2.92
 -10  -2   4   15.50    4.30
 -10  -2   5   65.16    5.19
 -10  -2   5   51.23    4.42
 -10  -2   5   68.26   13.07
 -10  -2   6 3490.18  107.87
 -10  -2   6 3164.96   97.95
 -10  -2   7    2.61    1.64
 -10  -2   7   -0.06    2.50
 -10  -2   7    1.31    1.21
 -10  -2   8  201.80    9.75
 -10  -2   8  208.81   10.45
 -10  -2   8  263.09   19.64
 -10  -2   9    7.25    2.73
 -10  -2   9    3.22    2.72
 -10  -2   9    5.59    1.93
 -10  -2  10  524.79   21.69
 -10  -2  10  446.55   19.00
 -10  -2  11    7.78    2.11
 -10  -2  11    4.86    3.75
 -10  -2  11    6.99    3.51
 -10  -2  12   14.04    2.67
 -10  -2  12   21.12    4.28
 -10  -2  12   19.43    3.83
 -10  -2  13    1.65    1.74
 -10  -2  13    2.74    3.78
 -10  -2  13    1.37    2.73
 -10  -2  14 3966.65  125.91
 -10  -2  14 4490.39  142.62
 -10  -2  14 4575.34  834.89
 -10  -2  15   26.12    4.70
 -10  -2  15   30.58    5.56
 -10  -2  15    0.86    9.83
 -10  -2  16    9.71    3.61
 -10  -2  16   13.55    5.37
 -10  -2  16    6.35    3.38
 -10  -2  17   31.56    6.65
 -10  -2  17   39.19    8.16
 -10  -2  17   38.89    8.16
 -10  -2  18 1387.82   49.86
   8   2  14 1742.41   59.27
  -8  -2 -13   14.82    3.22
   8   2  13    9.45    2.69
  -8  -2 -12  161.71    9.51
   8   2  12  121.82    7.97
  -8  -2 -11   31.87    4.07
   8   2  11   30.03    4.11
  -8  -2 -10  594.02   22.17
   8   2  10  591.93   22.85
  -8  -2  -9   34.80    3.61
   8   2   9   31.50    3.55
  -8  -2  -8   26.92    4.07
   8   2   8   30.94    4.83
  -8  -2  -7   49.11    6.61
   8   2   7   41.56    5.83
  -8  -2  -6 1574.09   49.57
   8   2   6 1991.24   62.47
  -8  -2  -5   47.15    3.12
   8   2   5   52.57    4.08
  -8  -2  -4  353.86   17.22
   8   2   4  366.57   18.26
  -8  -2  -3    0.52    1.67
   8   2   3    4.49    2.17
  -8  -2  -2 5647.36   31.46
   8   2   2 5232.07  132.74
  -8  -2  -1   35.48    4.24
   8   2   1   34.96    4.39
  -8  -2   0  857.61   24.18
   8   2   0  905.29   26.07
  -8  -2   0  802.29   21.15
  -8  -2   1   77.76    8.28
   8   2  -1   86.26    9.36
  -8  -2   1   84.44    9.50
  -8  -2   2  160.74    7.81
   8   2  -2  172.12    8.59
  -8  -2   2  175.04   12.34
  -8  -2   3   54.33    6.39
   8   2  -3   67.25    7.96
  -8  -2   3   59.80   10.73
  -8  -2   4   22.10    3.69
   8   2  -4   29.41    4.67
  -8  -2   4   68.58    9.94
  -8  -2   5   44.89    6.94
  -8  -2   5   58.81    7.26
  -8  -2   5   47.82    5.83
  -8  -2   6 2015.44   53.66
  -8  -2   6 1990.78   53.41
  -8  -2   6 2006.91   54.03
  -8  -2   7  399.17   13.89
  -8  -2   7  390.68   13.94
  -8  -2   7  410.75   14.81
  -8  -2   8  385.20   14.20
  -8  -2   8  361.37   14.07
  -8  -2   8  489.40   18.37
  -8  -2   9    6.14    1.42
  -8  -2   9    9.47    4.09
  -8  -2   9    5.25    3.30
  -8  -2  10 4119.02  183.66
  -8  -2  10 3331.15  148.64
  -8  -2  10 3871.81  172.85
  -8  -2  11   17.57    2.38
  -8  -2  11    7.78    3.33
  -8  -2  11   12.59   30.90
  -8  -2  12  178.41   20.55
  -8  -2  12  184.58   10.94
  -8  -2  12  158.63   10.02
  -8  -2  13   13.93    2.93
  -8  -2  13   40.58    7.01
  -8  -2  13   10.96    4.16
  -8  -2  14  655.58   22.32
  -8  -2  14  649.01   22.61
  -8  -2  14  625.58   22.44
  -8  -2  15   52.60    6.38
  -8  -2  15   47.66    6.69
  -8  -2  15   49.12    6.44
  -8  -2  16  246.72   12.65
  -8  -2  16  258.08   14.14
   8   2 -17   10.09    3.56
  -8  -2  17    8.32    3.99
  -8  -2  17   12.92    5.62
   8   2 -18 1505.00   69.29
  -8  -2  18 1673.41   77.80
  -8  -2  18 1785.94   83.65
  -8  -2  19    1.91    2.34
   6   2  16  449.97   17.94
  -6  -2 -15    6.20    2.06
   6   2  15    1.37    1.97
   6   2  14  126.69   12.26
  -6  -2 -13   12.88    2.48
   6   2  13    8.43    2.12
  -6  -2 -12  115.34    5.87
   6   2  12   93.99    5.23
  -6  -2 -11    5.73    1.68
  -6  -2  -9    2.82    1.27
   6   2   9    0.95    1.44
  -6  -2  -8 2797.73  123.66
   6   2   8 2326.18  103.38
  -6  -2  -7   35.58    4.46
   6   2   7   33.31    4.11
  -6  -2  -6 1573.04   41.42
   6   2   6 1462.52   39.20
  -6  -2  -5   43.53    4.79
   6   2   5   48.82    5.63
  -6  -2  -4 1287.78   44.22
   6   2   4 1369.66   47.61
  -6  -2  -3  111.92    5.52
   6   2   3  116.65    6.17
  -6  -2  -2   19.62    2.66
   6   2   2   27.03    3.74
  -6  -2  -1  139.37    5.57
   6   2   1  129.67    5.64
  -6  -2  -1  144.90    4.67
  -6  -2   0  166.89    6.31
   6   2   0  187.49    7.48
  -6  -2   0  149.99    5.39
  -6  -2   1   17.96    2.97
   6   2  -1   19.02    3.37
  -6  -2   1   13.01    2.53
  -6  -2   2 2447.46   60.66
  -6  -2   3    3.62    3.05
   6   2  -3    8.96    3.62
  -6  -2   3    3.86    1.87
  -6  -2   4 2033.49   51.17
  -6  -2   4 1934.25   48.87
  -6  -2   4 2384.96   61.48
  -6  -2   5   67.35    5.41
  -6  -2   5   74.20    5.25
  -6  -2   5   68.87    5.33
  -6  -2   6 3853.10  130.05
  -6  -2   6 3917.93  132.28
  -6  -2   6 3217.27  109.31
  -6  -2   7  335.51   15.06
  -6  -2   7  314.05   14.19
  -6  -2   7  255.13   12.55
  -6  -2   8 2143.81   74.73
  -6  -2   8 2254.44   78.83
  -6  -2   8 1888.06   66.42
  -6  -2   9    6.63    2.09
  -6  -2   9    9.47    4.19
  -6  -2   9    3.64    4.06
   6   2 -10    4.75    2.18
  -6  -2  10   30.75    7.16
  -6  -2  10    4.59    3.23
   6   2 -11    4.47    1.42
  -6  -2  11    6.87    2.06
  -6  -2  11    6.58    3.66
   6   2 -12  166.22   11.33
  -6  -2  12  193.08   12.21
  -6  -2  12  161.56   11.22
   6   2 -13    0.31    0.99
  -6  -2  13    1.84    2.16
  -6  -2  13    2.32    3.18
   6   2 -14 2964.17  100.59
  -6  -2  14 3130.78  107.05
  -6  -2  14 3076.15  105.94
   6   2 -15    4.59    2.01
  -6  -2  15    4.04    2.62
  -6  -2  15    4.96    5.61
   6   2 -16 2485.47   65.26
  -6  -2  16 2571.64   68.98
  -6  -2  16 2114.98   58.10
   6   2 -17   22.38    7.83
  -6  -2  17   23.94    4.34
  -6  -2  17   20.51    6.09
   6   2 -18 2208.33  100.47
  -6  -2  18 1900.19   87.14
  -6  -2  18 2176.20  100.25
   6   2 -19    0.59    1.12
  -6  -2  19    5.15    3.60
  -6  -2  19    7.60    5.72
   4   2  18   94.29    6.57
  -4  -2 -17   16.08    3.94
   4   2  17    5.03    2.47
  -4  -2 -16 1559.15   70.69
   4   2  16 1160.36   53.35
   4   2  16 1220.38   54.89
  -4  -2 -15   19.95    3.30
   4   2  15    6.62    4.13
   4   2  15    7.58    3.11
  -4  -2 -14  830.36   23.14
   4   2  14  755.79   21.99
   4   2  14  751.04   20.27
  -4  -2 -13    8.00    2.07
   4   2  13    9.12    4.53
   4   2  13    8.66    1.76
  -4  -2 -12 3319.25  101.43
   4   2  12 2892.69   89.21
   4   2  12 2695.95   81.37
  -4  -2 -11    8.85    1.51
   4   2  11    7.65    1.61
   4   2  11   10.06    1.67
  -4  -2 -10 1133.19   50.81
   4   2  10 1098.42   49.66
  -4  -2  -9   45.15    4.89
   4   2   9   40.57    4.70
  -4  -2  -8  385.52   14.35
   4   2   8  361.63   13.94
  -4  -2  -7    8.52    1.78
   4   2   7    8.23    2.04
  -4  -2  -6  625.95   22.19
   4   2   6  548.05   19.90
  -4  -2  -5   52.62    6.35
   4   2   5   51.58    6.45
  -4  -2  -4 2699.33   65.43
   4   2   4 2533.47   61.98
  -4  -2  -3   25.04    3.42
   4   2   3    5.76    1.73
  -4  -2  -2 4240.74  101.57
   4   2   2 4454.85  107.33
  -4  -2  -2 3565.58   84.59
  -4  -2  -1   10.11    1.96
   4   2   1   11.02    2.41
  -4  -2  -1   15.48    2.67
  -4  -2   0 4395.93  106.18
   4   2   0 4596.95  511.86
  -4  -2   1   26.57    3.68
   4   2  -1   24.43    3.95
  -4  -2   2  696.74   18.95
  -4  -2   2  750.09   20.09
  -4  -2   3    6.01    2.30
  -4  -2   3    5.19    1.87
  -4  -2   4  141.46    6.21
  -4  -2   4  157.02    7.02
  -4  -2   5    5.01    1.87
  -4  -2   5   10.46    2.97
   4   2  -6  725.39   20.30
  -4  -2   6  898.22   25.99
   4   2  -7   41.60   10.37
  -4  -2   7   44.04   12.26
   4   2  -8 1639.68   42.41
  -4  -2   8 1643.50   43.25
   4   2  -9  221.09   10.51
  -4  -2   9  217.92   11.02
   4   2 -10 2012.56   69.77
  -4  -2  10 1973.86   69.26
   4   2 -11    1.01    1.43
  -4  -2  11    5.27    2.48
   4   2 -12 2241.88   60.80
  -4  -2  12 2039.93   56.48
   4   2 -13   -0.74    1.99
  -4  -2  13    1.62    2.10
   4   2 -14 1150.41   41.36
  -4  -2  14  838.65   30.04
   4   2 -15  252.28   32.35
  -4  -2  15  151.86    9.03
   4   2 -16  483.89   18.52
  -4  -2  16  333.78   13.30
   4   2 -17  116.91   11.70
  -4  -2  17   97.33    7.64
   4   2 -18  387.81   42.70
  -4  -2  18  360.45   17.42
  -4  -2  19   12.23    3.72
  -4  -2  19   10.99    4.47
  -4  -2  20  441.74   20.33
  -2  -2 -19   42.61    4.07
   2   2  19   86.78    6.30
  -2  -2 -18  267.66   16.00
  -2  -2 -17    5.75    2.28
   2   2  17   -1.10    1.97
  -2  -2 -16 1469.64   51.27
   2   2  16 1355.51   48.06
   2   2  16 1137.98   40.37
  -2  -2 -15    7.10    1.74
   2   2  15    3.47    1.78
   2   2  15    3.88    2.27
  -2  -2 -14   60.47    7.94
   2   2  14   46.35    6.21
   2   2  14   36.22    9.51
  -2  -2 -13  140.34    6.59
   2   2  13  115.90    5.86
   2   2  13  105.84    5.47
  -2  -2 -12  112.21    6.38
   2   2  12  110.84    6.52
   2   2  12   88.45    6.10
  -2  -2 -11  106.79    4.66
   2   2  11   96.32    4.72
   2   2  11   93.98    6.36
  -2  -2 -10  636.16   18.12
   2   2  10  507.32   14.96
   2   2  10  537.51   14.93
  -2  -2  -9   31.84    3.73
   2   2   9   25.37    3.12
   2   2   9   31.60    4.84
  -2  -2  -8 3708.98  123.11
   2   2   8 4733.44  157.43
   2   2   8 3931.16  129.83
  -2  -2  -7   41.44    5.03
   2   2   7   37.10    4.70
  -2  -2  -6   98.04    3.79
   2   2   6   91.23    3.78
  -2  -2  -5    7.49    1.46
   2   2   5    5.03    1.41
  -2  -2  -4 3838.58   92.18
   2   2   4 3871.47   93.45
  -2  -2  -3   10.83    1.68
   2   2   3    9.06    1.86
  -2  -2  -3   12.48    2.04
  -2  -2  -2   12.49    1.81
   2   2   2   11.47    1.86
  -2  -2  -1  394.86   10.66
   2   2   1  386.95   11.24
  -2  -2   0  279.32    8.15
   2   2   0  248.69    8.25
  -2  -2   1   61.54    8.55
  -2  -2   1   69.37    7.82
  -2  -2   2  171.20    6.52
  -2  -2   2  167.70    6.53
   2   2  -3  294.67    9.15
  -2  -2   3  276.22    9.22
   2   2  -4 3641.01   88.94
  -2  -2   4 3649.52   90.08
   2   2  -5   40.86   11.16
  -2  -2   5   41.15   10.20
   2   2  -6  691.46   20.07
  -2  -2   6  582.11   17.57
   2   2  -7   32.76    9.23
  -2  -2   7   22.33    4.17
   2   2  -8 3706.24   91.72
  -2  -2   8 3280.43   81.51
   2   2  -9    4.17    1.33
  -2  -2   9    1.96    2.45
   2   2 -10    8.12    2.25
  -2  -2  10    1.21    2.43
   2   2 -11  106.19    9.28
  -2  -2  11  106.98    6.68
   2   2 -12   51.03   12.83
  -2  -2  12   51.55    6.40
   2   2 -13   13.14    4.71
  -2  -2  13   11.99    2.69
   2   2 -14  639.81   23.51
  -2  -2  14  765.28   28.89
  -2  -2  15    3.81    2.29
   2   2 -16 3450.95   88.30
  -2  -2  16 3443.03   88.83
   2   2 -17   -0.54    3.75
  -2  -2  17    1.03    2.02
   2   2 -18  200.20   28.38
  -2  -2  18  182.31   10.13
  -2  -2  19   15.25    3.96
  -2  -2  20 1747.68   61.36
   0   2  19    1.05    2.52
   0  -2 -18   28.02    6.02
   0   2  18   20.72    4.81
   0   2  18   36.18   10.89
   0  -2 -17   79.18    5.39
   0   2  17   56.25    6.52
   0   2  17   33.79    9.98
   0  -2 -16 1183.00   31.73
   0   2  16 1112.26   30.71
   0   2  16 1150.96   31.97
   0  -2 -15    4.46    1.73
   0   2  15    0.36    1.45
   0   2  15    1.15    0.99
   0  -2 -14   35.39    2.68
   0   2  14   34.81    2.81
   0   2  14   40.83   11.67
   0  -2 -13   67.85    4.43
   0   2  13   42.67    4.30
   0   2  13   44.74    5.61
   0  -2 -12 3813.62   96.19
   0   2  12 3994.08  101.08
   0   2  12 3527.27   90.46
   0  -2 -11    1.53    1.40
   0   2  11    0.39    1.26
   0   2  11   -0.58    1.10
   0  -2 -10   16.37    2.29
   0   2  10   11.12    1.77
   0   2  10   10.17    2.61
   0  -2  -9  165.95    6.79
   0   2   9  140.92    5.97
   0   2   9  147.89    6.23
   0  -2  -8 1870.08   45.45
   0   2   8 1886.62   45.97
   0   2   8 1783.90   43.53
   0  -2  -8 1816.37   45.86
   0  -2  -7   81.06    3.18
   0   2   7   74.90    3.13
   0   2   7   70.08    2.81
   0  -2  -7   57.25    3.80
   0  -2  -6  216.40    6.18
   0   2   6  253.63    7.36
   0  -2  -6  186.64    6.65
   0  -2  -5    0.99    0.71
   0   2   5    4.64    1.58
   0  -2  -5    1.74    1.36
   0  -2  -4 2477.84   59.41
   0   2   4 2395.13   57.72
   0  -2  -4 2390.57   57.70
   0  -2  -3    0.28    0.62
   0   2   3    1.47    1.13
   0  -2  -3    1.19    0.51
   0  -2  -2  288.48    7.51
   0   2   2  246.54    7.27
   0  -2  -1  104.64    3.67
   0  -2  -1  132.59    4.09
   0  -2   0 3907.37   94.47
   0  -2   0 5125.72  570.38
   0   2  -1   97.65    3.96
   0  -2   1   88.36    5.09
   0   2  -2  220.84    8.09
   0  -2   2  226.69    7.48
   0   2  -3    2.99    0.99
   0  -2   3    2.53    1.81
   0   2  -4 1643.46   41.93
   0  -2   4 1970.27   49.28
   0   2  -5   -1.34    1.40
   0  -2   5    2.93    2.37
   0   2  -6  161.78    7.09
   0  -2   6  162.54    6.38
   0   2  -7   62.22    4.10
   0  -2   7   51.21    6.62
   0   2  -8 1776.95   45.86
   0  -2   8 1827.09   46.92
   0   2  -9  163.89   28.40
   0  -2   9  182.19    9.60
   0   2 -10   19.89    3.34
   0  -2  10   13.15    3.10
   0  -2  11    7.47    1.95
   0   2 -12 4377.22  113.08
   0  -2  12 3916.57  100.99
   0   2 -13   57.31    4.25
   0  -2  13   53.62    4.24
   0   2 -14   32.29    3.80
   0  -2  14   39.68    5.88
   0  -2  15    8.41    2.71
   0   2 -16 1361.13   38.56
   0  -2  16 1381.36   39.58
   0   2 -17   81.45   10.77
   0  -2  17   79.17    6.59
   0   2 -18   24.61    6.49
   0  -2  18   24.50    5.67
   2  -2 -20 1456.40   49.31
  -2   2  20 1491.05   51.34
   2  -2 -19   17.91    3.99
   2  -2 -18  189.60    8.92
  -2   2  18  183.55    8.96
  -2   2  18  191.19   11.99
  -2   2  17  -11.28    2.33
   2  -2 -16 3478.51   86.42
  -2   2  16 3414.57   85.44
  -2   2  16 3237.87   81.94
  -2   2  15    1.89    3.88
  -2   2  15    4.11    1.66
   2  -2 -14  655.68   22.12
  -2   2  14  614.45   21.01
  -2   2  14  558.64   21.77
  -2   2  13    9.85    1.79
  -2   2  13    9.18    2.34
   2  -2 -12   44.27    4.80
  -2   2  12   50.17    5.47
  -2   2  12   41.31    7.18
   2  -2 -11  111.65    5.25
  -2   2  11  105.81    5.08
  -2   2  11  110.61    6.14
   2  -2 -10    3.33    1.39
  -2   2  10    7.34    1.38
  -2   2  10    2.96    0.95
   2  -2 -10    8.88    3.79
   2  -2  -9   -0.09    1.14
  -2   2   9    2.94    1.80
  -2   2   9    1.18    0.81
   2  -2  -9    0.37    2.62
   2  -2  -8 3441.16   82.41
  -2   2   8 3615.74   86.23
  -2   2   8 3564.04   86.16
   2  -2  -8 3614.69   88.47
   2  -2  -7   26.21    3.58
  -2   2   7   31.11    3.80
  -2   2   7   29.83    7.30
   2  -2  -7   29.82    8.41
   2  -2  -6  674.01   16.80
  -2   2   6  711.77   17.34
   2  -2  -6  791.27   20.82
   2  -2  -5   39.36    4.27
  -2   2   5   51.45    5.50
   2  -2  -5   52.08    5.92
   2  -2  -4 5011.25  557.67
   2  -2  -3  432.11   11.77
  -2   2   1   71.97    8.59
   2  -2  -1   86.72    9.76
  -2   2  -1  347.00    9.93
   2  -2   1  378.81   10.06
  -2   2  -2    8.73    1.59
   2  -2   2    5.65    1.21
  -2   2  -3   16.89    2.58
   2  -2   3   21.22    2.99
  -2   2  -4 3266.78   80.11
   2  -2   4 3234.17   78.62
  -2   2  -5    5.55   13.48
   2  -2   5    1.92    1.69
  -2   2  -6   92.21    4.76
   2  -2   6   77.23    3.94
  -2   2  -8 3956.94  132.98
   2  -2   8 4334.80  145.26
  -2   2  -9   26.48    4.55
  -2   2 -10  546.18   17.54
   2  -2  10  547.15   17.25
  -2   2 -11  104.46    5.72
   2  -2  11   94.18    5.67
  -2   2 -12  123.68    8.06
   2  -2  12  115.66    8.07
  -2   2 -13  128.21    7.28
   2  -2  13  143.08    8.07
  -2   2 -14   47.85    6.81
   2  -2  14   49.85    7.14
  -2   2 -16 1789.08   64.12
  -2   2 -17    5.96    2.85
  -2   2 -18  320.74   20.32
   2  -2  18  237.70   15.16
   4  -2 -20  427.38   39.07
   4  -2 -19    7.02    2.13
  -4   2  19    9.77    2.50
   4  -2 -18  234.31   17.95
  -4   2  18  271.82   11.66
  -4   2  18  245.17   13.49
   4  -2 -17   70.69   15.11
  -4   2  17   73.95    4.81
  -4   2  17   68.19   10.19
   4  -2 -16  329.68   20.58
  -4   2  16  294.11   10.23
  -4   2  16  293.00   11.11
   4  -2 -15  119.08    9.23
  -4   2  15  121.27    7.28
   4  -2 -14  739.77   24.53
  -4   2  14  737.16   24.46
  -4   2  14  715.77   25.49
   4  -2 -13    2.83    0.89
  -4   2  13    2.78    1.25
   4  -2 -12 1729.38   45.09
  -4   2  12 1742.37   45.50
  -4   2  12 1710.89   47.01
   4  -2 -12 2002.69   55.14
   4  -2 -11    2.17    0.79
  -4   2  11    2.56    1.92
   4  -2 -11    6.56    5.44
   4  -2 -10 2295.44   77.30
  -4   2  10 1648.84   56.82
   4  -2 -10 1971.16   68.82
   4  -2  -9  196.88    8.09
  -4   2   9  184.01    8.61
   4  -2  -9  181.89    8.89
   4  -2  -8 1790.73   43.64
  -4   2   8 1571.63   38.24
  -4   2   8 1740.91   43.72
   4  -2  -8 1770.73   45.36
  -4   2   7   39.77    4.73
  -4   2   7   45.81    5.53
  -4   2   7   46.96    5.86
   4  -2  -7   48.89    8.95
  -4   2   6  814.90   19.92
  -4   2   6  945.66   23.06
   4  -2  -6 1050.45   27.72
  -4   2   5    5.31    0.85
   4  -2  -5    6.52    1.89
  -4   2   4  138.14    3.59
   4  -2  -4  173.57    7.34
  -4   2   3   11.81    1.46
   4  -2  -3    6.63    1.04
   4  -2  -3    5.87    1.31
  -4   2   2  843.96   20.74
   4  -2  -2  940.68   22.86
   4  -2  -2  916.18   23.32
  -4   2   1   19.97    2.38
   4  -2  -1   23.65    2.71
  -4   2   0 3500.59   84.12
   4  -2   0 4537.93  504.89
  -4   2  -1   12.31    1.99
   4  -2   1   15.39    2.15
  -4   2  -2 3630.51   87.32
   4  -2   2 4035.33   96.27
  -4   2  -3    6.45    1.84
   4  -2   3   11.27    2.07
  -4   2  -4 2490.32   61.44
   4  -2   4 2473.22   60.22
  -4   2  -5   55.23    6.30
   4  -2   5   53.50    6.73
  -4   2  -6  518.14   19.25
   4  -2   6  523.85   19.13
  -4   2  -7    6.96    1.92
   4  -2   7    9.29    3.03
  -4   2  -8  346.44   13.78
   4  -2   8  350.95   13.87
  -4   2  -9   39.83    4.79
   4  -2   9   38.18    5.21
  -4   2 -10 1012.54   46.38
   4  -2  10 1057.07   48.20
   4  -2  11    8.75    4.48
  -4   2 -12 2904.87   90.46
   4  -2  12 2775.17   86.16
   4  -2  13    5.76    4.30
  -4   2 -14  958.96   28.30
   4  -2  14  866.18   25.58
  -4   2 -15   76.00    9.09
  -4   2 -16 1622.88   74.56
   4  -2  16 1436.36   66.32
  -4   2 -17    9.45    3.10
   4  -2  17    9.42    3.15
   6  -2 -20  281.14   25.08
  -6   2  20  207.87   12.32
  -6   2  20  265.16   12.40
  -6   2  19    9.30    2.80
  -6   2  19    2.68    1.31
   6  -2 -18 2020.11   90.32
   6  -2 -17   17.92    4.85
  -6   2  17   14.29    4.97
   6  -2 -16 2257.41   56.93
  -6   2  16 2112.07   54.86
  -6   2  16 2274.94   60.80
   6  -2 -15    6.28    1.78
  -6   2  15    5.50    1.77
   6  -2 -14 3162.71  105.23
  -6   2  14 2432.09   81.81
   6  -2 -13    0.18    0.76
  -6   2  13    6.20    1.76
  -6   2  13    0.74    1.08
   6  -2 -13    7.22    4.09
  -6   2  12  162.32    9.08
  -6   2  12  144.53   17.96
   6  -2 -12  185.96   12.38
  -6   2  11    5.99    2.27
  -6   2  11    4.40    2.47
  -6   2  11    2.30    1.67
   6  -2 -11    1.79    3.04
  -6   2  10   11.11    2.00
  -6   2  10    5.51    2.37
  -6   2  10    4.59    1.35
   6  -2 -10    0.12    2.44
  -6   2   9    3.96    1.97
  -6   2   9    5.58    2.04
  -6   2   9    2.40    1.12
   6  -2  -9    3.19    2.24
  -6   2   8 1928.40   64.95
  -6   2   8 1951.50   65.49
  -6   2   8 1947.23   66.62
   6  -2  -8 2128.47   73.17
  -6   2   7  293.06   11.08
  -6   2   7  312.42   11.32
  -6   2   7  316.24   12.58
   6  -2  -7  321.78   13.15
  -6   2   6 3849.63  127.93
  -6   2   6 3788.44  125.40
   6  -2  -6 4263.74  142.73
  -6   2   5   64.59    3.74
  -6   2   5   81.22    3.00
   6  -2  -5   78.42    5.07
  -6   2   4 2161.90   51.86
   6  -2  -4 2390.77   57.68
   6  -2  -4 2337.43   57.61
  -6   2   3    5.55    1.05
   6  -2  -3    1.30    0.68
   6  -2  -3    3.27    1.58
  -6   2   2 2552.78   61.43
   6  -2  -2 2646.56   63.50
   6  -2  -2 2558.22   62.39
  -6   2   1   16.32    2.22
   6  -2  -1   16.20    2.21
   6  -2  -1   14.92    2.27
  -6   2   0  150.45    4.95
   6  -2   0  182.75    5.64
  -6   2  -1  146.75    5.41
   6  -2   1  162.68    5.58
  -6   2  -2   16.32    2.23
   6  -2   2   24.74    3.03
  -6   2  -3  112.76    5.63
   6  -2   3   99.99    4.63
  -6   2  -4 1073.88   37.23
   6  -2   4 1081.48   37.03
  -6   2  -5   44.50    5.05
   6  -2   5   42.01    4.74
  -6   2  -6 1378.15   37.23
   6  -2   6 1372.14   36.43
  -6   2  -7   36.68    4.69
   6  -2   7   33.19    4.54
  -6   2  -8 2597.87  115.67
   6  -2   8 2491.04  110.56
  -6   2  -9    5.18    2.96
   6  -2   9   -7.30    5.88
   6  -2  10 2573.19   80.07
  -6   2 -11    3.16    1.58
   6  -2  11    1.56    1.74
  -6   2 -12  105.31    6.01
   6  -2  12   96.08    5.94
  -6   2 -13   12.38    2.72
   6  -2  13    7.51    2.27
  -6   2 -14  150.76   14.71
   6  -2  14  154.65   15.15
  -6   2 -15    6.40    2.34
   6  -2  15    3.60    2.21
   6  -2  16  565.61   22.71
  -8   2  20   44.65    4.29
  -8   2  19    1.01    1.47
  -8   2  19    3.94    1.72
  -8   2  18 1295.40   59.05
  -8   2  18 1829.61   83.00
  -8   2  18 1248.59   57.81
  -8   2  17    7.05    2.77
  -8   2  17   16.62    3.56
  -8   2  17    7.21    2.68
  -8   2  16  204.52    9.41
  -8   2  16  272.53   11.99
  -8   2  16  188.50    9.73
  -8   2  15   47.47    4.84
  -8   2  15   48.78    4.77
  -8   2  15   38.76    9.67
   8  -2 -15   48.02    6.46
  -8   2  14  528.81   16.03
  -8   2  14  605.57   18.06
  -8   2  14  513.17   17.48
   8  -2 -14  631.16   22.05
  -8   2  13   15.21    2.69
  -8   2  13   13.19    2.56
  -8   2  13   12.46    2.88
   8  -2 -13   25.47    5.73
  -8   2  12  177.00    7.97
  -8   2  12  134.26    6.27
  -8   2  12  125.55    7.14
   8  -2 -12  146.62    8.89
  -8   2  11   11.78    1.86
  -8   2  11   10.13    1.68
  -8   2  11   12.26    2.44
   8  -2 -11   18.14    4.62
  -8   2  10 3896.25  171.65
  -8   2  10 3382.62  149.10
  -8   2  10 2894.76  128.85
   8  -2 -10 3135.74  139.84
  -8   2   9    7.69    1.37
  -8   2   9    7.57    2.22
  -8   2   9    5.08    2.15
   8  -2  -9    6.28    2.46
  -8   2   8  316.59    9.95
  -8   2   8  358.04   10.93
  -8   2   7  430.18   12.93
  -8   2   7  440.70   12.75
   8  -2  -7  433.03   14.43
  -8   2   6 1931.35   49.31
  -8   2   6 2145.26   54.65
  -8   2   5   57.57    5.95
   8  -2  -5   50.93    5.49
   8  -2  -5   61.33   12.39
  -8   2   4   28.96    3.37
   8  -2  -4   30.19    3.53
   8  -2  -4   36.09    9.62
  -8   2   3   59.19    6.17
   8  -2  -3   50.23    5.27
   8  -2  -3   53.43   12.10
  -8   2   2  169.31    7.02
   8  -2  -2  190.47    7.83
   8  -2  -2  170.65    7.53
  -8   2   1   86.68    8.77
   8  -2  -1   83.17    8.34
   8  -2  -1   73.60    9.26
  -8   2   0  817.99   22.29
   8  -2   0  873.70   23.36
   8  -2   0  879.31   24.11
  -8   2  -1   32.58    3.82
   8  -2   1   39.59    4.36
   8  -2   1   37.58    4.28
  -8   2  -2 4074.47  102.73
   8  -2   2 4564.06  114.48
  -8   2  -3    0.75    1.28
   8  -2   3    3.52    1.65
  -8   2  -4  356.19   17.42
   8  -2   4  411.02   19.58
  -8   2  -5   53.31    3.64
   8  -2   5   58.45    3.21
  -8   2  -6 1912.22   59.81
   8  -2   6 1811.68   56.22
  -8   2  -7   55.51    4.15
   8  -2   7   47.27    6.24
  -8   2  -8   30.71    4.61
  -8   2  -9   35.42    4.07
   8  -2   9   33.09    3.62
  -8   2 -10  694.85   26.99
   8  -2  10  616.53   23.53
  -8   2 -11   42.71    5.99
   8  -2  11   27.20    3.77
  -8   2 -12  149.37   10.04
   8  -2  12  125.66    8.08
   8  -2  13    8.51    2.97
   8  -2  14 1802.30   61.18
 -10   2  18 1383.69   47.18
 -10   2  17   35.22    6.48
 -10   2  16    8.72    2.49
 -10   2  16   10.63    2.93
 -10   2  16   10.34    3.53
  10  -2 -16    4.50    3.04
 -10   2  15   19.02    2.81
 -10   2  15   18.70    2.97
 -10   2  15   20.99    6.06
  10  -2 -15   20.54    4.58
 -10   2  14 4097.75  127.57
 -10   2  14 3721.38  116.16
 -10   2  14 3124.99   99.89
 -10   2  13    0.27    0.92
 -10   2  13    2.41    1.77
 -10   2  13   -0.24    1.93
 -10   2  12   19.94    2.72
 -10   2  12   17.80    2.84
 -10   2  12   12.10    2.82
  10  -2 -12   59.53    7.43
 -10   2  11    6.23    1.43
 -10   2  11    5.48    1.85
 -10   2  11    6.61    2.15
  10  -2 -11    7.64    2.55
 -10   2  10  454.39   17.03
 -10   2  10  440.64   16.65
 -10   2  10  384.90   16.16
  10  -2 -10  458.74   19.43
 -10   2   9    5.46    1.21
 -10   2   9    3.87    1.51
  10  -2  -9    8.27    3.02
 -10   2   8  193.46    8.77
 -10   2   8  183.52    7.51
  10  -2  -8  199.90   14.85
 -10   2   7    1.12    0.65
 -10   2   7    1.49    1.27
  10  -2  -7    3.49    1.06
 -10   2   6 2932.58   89.11
  10  -2  -6 3435.97  105.99
 -10   2   5   59.46    3.08
  10  -2  -5   66.87    4.67
  10  -2  -5   67.55    7.39
 -10   2   4   35.19    2.17
  10  -2  -4   22.55    2.03
  10  -2  -4   13.83    3.88
 -10   2   3   42.93    2.99
  10  -2  -3   34.32    2.15
  10  -2  -3   41.68    7.55
 -10   2   2 3975.79  174.76
  10  -2  -2 4345.39   23.01
  10  -2  -2 4314.96  190.03
 -10   2   1   20.71    2.32
  10  -2  -1   19.30    2.02
  10  -2  -1   15.88    4.80
 -10   2   0   19.10    1.93
  10  -2   0   23.59    2.21
  10  -2   0   19.42    4.69
 -10   2  -1   33.32    2.53
  10  -2   1   38.05    2.61
  10  -2   1   35.88    3.10
 -10   2  -2  107.09    5.33
  10  -2   2  123.12    5.62
 -10   2  -3  147.21    7.08
  10  -2   3  150.95    6.92
 -10   2  -4   14.99    2.87
  10  -2   4    9.06    1.93
 -10   2  -5    4.19    2.48
  10  -2   5    1.30    1.03
 -10   2  -6 1628.65   43.31
  10  -2   6 1338.78   34.96
 -10   2  -7   54.30    6.44
  10  -2   7   44.89    5.23
 -10   2  -8  179.97    8.71
  10  -2   8  209.13    9.54
 -10   2  -9    4.78    3.00
  10  -2   9    3.94    2.13
 -10   2 -10 2690.07  142.82
  10  -2  10 2842.63   93.53
 -10   2 -11   60.85    5.72
  10  -2  11   41.52    4.27
  10  -2  12    9.82    3.07
 -12   2  16  415.01   16.27
 -12   2  16  386.14   15.70
 -12   2  15   11.68    2.08
  12  -2 -15   17.16    4.47
 -12   2  14  319.95   18.56
 -12   2  14  293.84   18.66
  12  -2 -14  366.99   24.51
 -12   2  13   12.52    3.07
 -12   2  13   13.59    3.92
  12  -2 -13   13.27    5.09
 -12   2  12   20.13    4.72
 -12   2  12   21.86    3.15
  12  -2 -12   31.23    5.84
 -12   2  11   59.70   11.09
 -12   2  11   56.14    6.16
  12  -2 -11   60.81    7.83
 -12   2  10 2233.02   76.40
 -12   2  10 2241.65   76.89
  12  -2 -10 2327.43   82.19
 -12   2   9   26.87    4.90
 -12   2   9   24.63    3.58
  12  -2  -9   23.37    4.29
 -12   2   8  351.39   14.14
 -12   2   8  357.82   14.47
  12  -2  -8  358.08   16.13
 -12   2   7    6.99    1.16
 -12   2   7    5.97    1.66
  12  -2  -7    6.22    2.24
  12  -2  -6 1405.59   36.47
  12  -2  -6 1646.69   44.30
 -12   2   5   27.11    3.00
  12  -2  -5   30.26    3.11
  12  -2  -5   35.18    5.49
 -12   2   4  232.68    8.52
  12  -2  -4  223.95    8.11
  12  -2  -4  228.08   15.93
 -12   2   3   70.35    5.75
  12  -2  -3   64.34    5.18
  12  -2  -3   62.66   13.04
 -12   2   2   12.54    2.21
  12  -2  -2    9.57    1.97
  12  -2  -2   10.55    1.97
 -12   2   1   18.49    2.72
  12  -2  -1   20.98    2.76
  12  -2  -1   21.07    3.20
 -12   2   0   69.72    7.52
  12  -2   0   70.43    7.46
  12  -2   0   77.97    5.97
 -12   2  -1    6.46    1.90
  12  -2   1    9.16    2.03
  12  -2   1    6.57    1.87
 -12   2  -2 1945.52   67.08
  12  -2   2 2344.00   80.19
  12  -2   2 2229.99   76.76
 -12   2  -3    9.44    3.17
  12  -2   3   12.06    3.73
  12  -2   3   11.77    3.94
 -12   2  -4  371.83   15.02
  12  -2   4  324.64   12.62
  12  -2   4  313.19   12.34
 -12   2  -5    1.89    1.66
  12  -2   5    0.88    1.14
  12  -2   5    0.24    0.73
 -12   2  -6 2197.06  116.91
  12  -2   6 2096.56  111.07
  12  -2   6 2222.91  117.69
 -12   2  -7    4.76    1.89
  12  -2   7    2.55    1.63
 -12   2  -8  406.43   16.86
  12  -2   8  407.64   16.42
  12  -2   8  437.23   16.90
 -14   2  13    6.18    1.81
 -14   2  12 1057.96   36.85
 -14   2  12  838.78   29.53
  14  -2 -11    3.14    5.07
 -14   2  10  983.25   34.40
  14  -2 -10  870.82   33.15
 -14   2   9   18.81    5.73
  14  -2  -9   21.42    5.07
 -14   2   8   89.89    9.46
 -14   2   8   93.80    6.98
  14  -2  -8  104.78    9.25
 -14   2   7    3.08    1.50
  14  -2  -7    4.22    1.71
 -14   2   6  534.18   25.55
  14  -2  -6  513.70   24.57
  14  -2  -6  592.39   29.73
  14  -2  -5   14.30    3.49
  14  -2  -5   12.32    3.60
 -14   2   4  923.52   42.96
  14  -2  -4  804.57   37.18
  14  -2  -4  819.22   38.99
  14  -2  -3    8.75    2.59
  14  -2  -3    7.67    2.04
 -14   2   2 2627.17  139.06
  14  -2  -2 2260.52  119.43
  14  -2  -2 2434.36  129.50
 -14   2   1   75.24    6.05
  14  -2  -1   56.79    4.03
  14  -2  -1   54.98   12.19
  14  -2   0  820.88   44.63
  14  -2   0  798.41   43.97
 -14   2  -1   17.36    2.62
  14  -2   1   22.92    5.92
 -14   2  -2  303.67   12.78
  14  -2   2  359.16   14.59
  14  -2   3   26.21    3.03
  14  -2   4   16.21    2.75
  13   3   2  125.18    8.54
  13   3   1   -1.55    2.11
  13   3   0   78.67    7.95
 -13  -3   1  159.80   11.16
  13   3  -1  167.39   12.80
 -13  -3   2  809.39   44.58
  13   3  -2  902.94   50.60
 -13  -3   3   -1.51    1.74
  13   3  -3    2.59    2.70
 -13  -3   3    1.85    0.60
 -13  -3   4  372.17   22.37
 -13  -3   4  350.54   21.19
 -13  -3   4  328.07   18.62
 -13  -3   5   29.52    7.55
 -13  -3   5   25.20    5.32
 -13  -3   5   24.75    7.00
 -13  -3   6 2206.36  117.99
 -13  -3   6 2512.24  133.37
 -13  -3   7    2.28    2.05
 -13  -3   7    3.92    2.45
 -13  -3   7    2.91    1.22
 -13  -3   8   89.04   24.98
 -13  -3   8  125.47   16.49
 -13  -3   9  104.10   23.64
 -13  -3   9  104.76   10.77
 -13  -3  10  734.74   64.17
 -13  -3  10  670.53   26.45
 -13  -3  11    4.13    2.14
 -13  -3  12  204.78   26.45
  11   3   8   -0.22    3.35
 -11  -3  -7   32.58    3.69
  11   3   7   26.58    4.03
 -11  -3  -6    9.28    2.62
  11   3   6   43.67    7.73
 -11  -3  -5   28.09    5.94
  11   3   5   24.51    5.43
 -11  -3  -4   49.87    4.18
  11   3   4   48.01    4.90
 -11  -3  -3   36.44    4.81
  11   3   3   32.57    4.84
 -11  -3  -2 2625.11   82.91
  11   3   2 3054.97   97.50
 -11  -3  -1    1.93    1.96
  11   3   1    3.65    2.37
 -11  -3   0  119.12    6.65
  11   3   0  134.11    8.42
 -11  -3   1    5.14    1.95
  11   3  -1    5.19    2.71
 -11  -3   1    4.51    1.22
 -11  -3   2 2288.46   79.39
  11   3  -2 2655.93   92.89
 -11  -3   2 2276.90   77.21
 -11  -3   3    7.37    2.47
  11   3  -3   10.46    3.02
 -11  -3   3    5.66    2.41
 -11  -3   4   14.86    2.72
 -11  -3   4    7.45    2.27
 -11  -3   4   10.17    2.35
 -11  -3   5   11.80    6.87
 -11  -3   5   22.29    3.71
 -11  -3   5   15.38    3.46
 -11  -3   6   72.46   20.93
 -11  -3   6   72.96    5.84
 -11  -3   6   68.75    9.13
 -11  -3   7   11.66    3.16
 -11  -3   7   15.19    3.04
 -11  -3   7   18.81    4.34
 -11  -3   8  127.38   14.02
 -11  -3   8  129.09    8.82
 -11  -3   8  154.20   14.33
 -11  -3   9   30.58    7.54
 -11  -3   9   25.78    4.82
 -11  -3   9   28.20    6.36
 -11  -3  10 2974.31   95.85
 -11  -3  10 2865.10   92.69
 -11  -3  10 3651.89  116.67
 -11  -3  11  128.62   15.22
 -11  -3  11  123.34    9.27
 -11  -3  11  136.13   10.07
 -11  -3  12   90.84   20.79
 -11  -3  12   90.96    7.83
 -11  -3  12  116.25    9.35
 -11  -3  13   45.48   10.09
 -11  -3  13   40.41    7.67
 -11  -3  13   60.34    6.46
 -11  -3  14 1576.73   55.71
 -11  -3  14 1795.48   63.68
 -11  -3  15    6.98    3.41
   9   3  12  137.70    8.42
   9   3  11   -2.92    2.48
  -9  -3 -10  888.99   48.20
   9   3  10  885.87   49.17
  -9  -3  -9   51.44    4.42
   9   3   9   48.81    5.26
  -9  -3  -8   10.45    3.38
   9   3   8   17.32    3.31
  -9  -3  -7    4.69    2.48
   9   3   7    4.18    2.53
  -9  -3  -6 3452.39  117.04
   9   3   6 3626.91  124.30
  -9  -3  -5    2.04    1.93
   9   3   5    4.33    3.01
  -9  -3  -4  178.63    7.46
   9   3   4  172.24    7.90
  -9  -3  -3   23.08    3.71
   9   3   3   25.66    4.38
  -9  -3  -2  885.96   31.92
   9   3   2  779.36   29.15
  -9  -3  -1  133.91    6.64
   9   3   1  159.65    8.74
  -9  -3   0   84.29    5.07
   9   3   0   87.60    6.07
  -9  -3   0   80.15    3.51
  -9  -3   1   31.83    2.95
   9   3  -1   37.02    4.37
  -9  -3   1   33.32    7.33
  -9  -3   2  534.20   19.13
   9   3  -2  553.65   20.69
  -9  -3   2  597.82   21.16
  -9  -3   3  203.54    9.22
  -9  -3   3  251.23   12.73
  -9  -3   4    3.27    1.45
  -9  -3   4    3.22    2.25
  -9  -3   4    0.77    1.32
  -9  -3   5    2.07    1.26
  -9  -3   5    0.51    2.32
  -9  -3   5    1.19    1.49
  -9  -3   6 3400.77  105.89
  -9  -3   6 3443.59  107.26
  -9  -3   6 3133.64   97.27
  -9  -3   7   41.96   10.75
  -9  -3   7   32.29    5.31
  -9  -3   7   53.31    8.63
  -9  -3   8   77.38   19.94
  -9  -3   8   77.92    6.22
  -9  -3   8   93.70    8.20
  -9  -3   9   73.03   11.24
  -9  -3   9   73.10    6.22
  -9  -3   9   82.56    6.84
  -9  -3  10 1694.21   48.36
  -9  -3  10 1363.94   39.14
  -9  -3  10 1542.09   44.18
  -9  -3  11  164.20   13.51
  -9  -3  11  159.41    9.00
  -9  -3  11  193.99   11.31
  -9  -3  12  163.15   16.45
  -9  -3  12  188.64   11.32
  -9  -3  12  211.87   13.12
  -9  -3  13   87.82   21.28
  -9  -3  13   94.17   10.93
  -9  -3  13  118.19   13.58
  -9  -3  14  504.17   21.57
  -9  -3  14  520.88   22.21
  -9  -3  14  636.94   27.53
  -9  -3  15   14.07    4.44
  -9  -3  15   22.24    7.23
  -9  -3  15   15.73    7.54
  -9  -3  16   28.55    6.21
  -9  -3  16   29.18    7.06
  -9  -3  17    2.87    2.88
  -7  -3 -14  854.09   30.41
   7   3  14  662.51   25.11
   7   3  13   39.72    4.28
  -7  -3 -12  889.72   40.85
   7   3  12  801.52   37.97
  -7  -3 -11   26.40    3.37
   7   3  11   20.57    3.40
  -7  -3 -10 1734.48   55.30
   7   3  10 1655.94   54.07
  -7  -3  -9   92.57    5.31
   7   3   9   84.32    5.62
  -7  -3  -8  631.49   17.97
   7   3   8  724.93   21.93
   7   3   7  279.32   12.35
  -7  -3  -6  164.74   15.87
   7   3   6  168.54    8.77
  -7  -3  -5  151.18    6.64
   7   3   5  155.91    7.82
  -7  -3  -4    5.52    1.83
   7   3   4    2.03    1.91
  -7  -3  -3    5.33    2.15
   7   3   3    3.22    1.71
  -7  -3  -2 2312.72  102.30
   7   3   2 2517.71  112.19
  -7  -3  -1   49.82    3.24
   7   3   1   59.46    4.45
  -7  -3  -1   53.18    6.40
  -7  -3   0 1712.32   45.14
   7   3   0 1883.24   51.16
  -7  -3   0 1658.06   43.14
  -7  -3   1   45.02    5.23
   7   3  -1   59.89    5.17
  -7  -3   1   36.62    4.52
  -7  -3   2 3854.69   98.45
   7   3  -2 3861.06  100.08
  -7  -3   2 3664.73   94.09
  -7  -3   3    3.41    1.30
  -7  -3   3    6.07    3.14
  -7  -3   3    3.07    3.02
  -7  -3   4  997.75   28.69
  -7  -3   4 1151.48   32.70
  -7  -3   4 1043.22   30.53
  -7  -3   5   63.11    7.05
  -7  -3   5   65.11    4.98
  -7  -3   5   46.01    6.00
  -7  -3   6   49.22   14.38
  -7  -3   6   43.02    4.07
  -7  -3   6   51.57    4.98
  -7  -3   7   64.68   12.76
  -7  -3   7   50.70    4.81
  -7  -3   7   59.86    5.49
  -7  -3   8   76.22   18.13
  -7  -3   8   62.93    5.23
  -7  -3   8   51.73    5.37
  -7  -3   9    1.01    1.20
  -7  -3   9    0.77    2.54
  -7  -3   9   -2.26    2.69
  -7  -3  10 2555.56   81.62
  -7  -3  10 2679.34   85.62
  -7  -3  10 2463.61   78.91
  -7  -3  11  146.96    8.70
  -7  -3  11  194.19   11.81
  -7  -3  11  135.63   10.86
  -7  -3  12  852.74   33.14
  -7  -3  12  798.96   31.53
  -7  -3  12  781.53   31.00
  -7  -3  13   95.48    7.16
  -7  -3  13  113.26    8.58
  -7  -3  13   92.46    8.34
  -7  -3  14 3728.58 1008.02
  -7  -3  14 3680.02  128.62
   7   3 -15   15.10    3.23
  -7  -3  15   22.70    4.61
  -7  -3  15   11.96    5.50
   7   3 -16  281.10   15.79
  -7  -3  16  296.31   17.98
  -7  -3  16  284.04   17.78
   7   3 -17    1.31    1.28
  -7  -3  17    7.64    4.66
  -7  -3  17   -3.15    3.53
  -7  -3  18   78.80    7.34
  -5  -3 -16 1217.36   41.72
   5   3  15   19.11    3.00
  -5  -3 -14 1081.99   49.26
   5   3  14  976.71   45.42
  -5  -3 -13   -1.68    1.18
   5   3  13    2.59    1.92
  -5  -3 -12  429.06   16.64
   5   3  12  359.88   15.03
  -5  -3 -11   17.49    2.11
   5   3  11   16.89    2.69
  -5  -3 -10  388.38   14.50
   5   3  10  395.97   15.74
  -5  -3  -9   24.49    3.45
   5   3   9   27.42    4.15
  -5  -3  -8 1016.42   32.37
   5   3   8  883.43   29.20
  -5  -3  -7   80.13    5.01
   5   3   7   81.24    5.75
  -5  -3  -6 2706.88  119.22
   5   3   6 2871.93  127.26
  -5  -3  -5  198.38    6.97
   5   3   5  198.49    8.22
  -5  -3  -4 2913.31   73.89
   5   3   4 2918.24   75.24
  -5  -3  -3    5.01    1.77
   5   3   3    6.29    2.82
  -5  -3  -2  798.30   27.94
   5   3   2  806.82   29.29
  -5  -3  -2  590.67   20.59
  -5  -3  -1   89.52    4.80
   5   3   1   91.96    5.82
  -5  -3  -1   58.80    6.26
  -5  -3   0  225.20    9.30
   5   3   0  262.05   12.16
  -5  -3   1   71.44    7.68
  -5  -3   2  324.95   14.57
  -5  -3   2  359.01   14.34
  -5  -3   3  483.37   18.92
  -5  -3   3  503.56   19.12
  -5  -3   4  398.19   17.37
  -5  -3   4  421.34   16.82
  -5  -3   5    2.82    1.22
  -5  -3   5   -0.73    2.35
  -5  -3   6 1970.75   68.97
  -5  -3   6 2105.05   72.99
  -5  -3   7    2.64    1.79
  -5  -3   7    2.44    3.00
  -5  -3   8 2055.24   56.67
  -5  -3   8 2091.47   57.63
  -5  -3   9   48.49    9.66
   5   3 -10 1399.54   63.89
  -5  -3  10 1569.93   72.30
  -5  -3  11  409.95   17.69
   5   3 -12 1363.06   45.59
  -5  -3  12 1203.91   41.36
   5   3 -13   14.65    3.29
  -5  -3  13   13.47    3.73
   5   3 -14  287.94   12.24
  -5  -3  14  277.04   13.30
   5   3 -15   66.44   13.30
  -5  -3  15   60.56    8.15
   5   3 -16  298.88   14.20
  -5  -3  16  224.35   11.99
   5   3 -17   19.42    7.67
  -5  -3  17   19.89    5.15
  -5  -3  18 1380.70   75.75
  -5  -3  19   14.36    5.73
  -3  -3 -17   91.53    5.47
  -3  -3 -16   29.18    5.53
   3   3  16    8.07    2.40
  -3  -3 -15    3.11    1.92
   3   3  15    2.68    1.73
  -3  -3 -14  327.67   12.53
   3   3  14  272.08   11.42
  -3  -3 -13   87.31    8.77
   3   3  13   74.35    6.02
  -3  -3 -12 1926.77   64.88
   3   3  12 1749.53   59.79
  -3  -3 -11    3.46    1.17
   3   3  11   -0.65    1.06
  -3  -3 -10  360.59   12.60
   3   3  10  331.55   12.27
  -3  -3  -9  168.17    8.42
   3   3   9  168.57    9.01
  -3  -3  -8 2884.15  126.80
   3   3   8 2719.46  120.15
  -3  -3  -7   33.28    3.73
   3   3   7   28.36    3.70
  -3  -3  -6  652.12   22.81
   3   3   6  576.10   21.02
  -3  -3  -5  804.12   27.67
   3   3   5  844.33   29.92
  -3  -3  -4  291.76   10.75
   3   3   4  272.66   10.95
  -3  -3  -4  302.30   10.47
  -3  -3  -3   11.96    1.70
   3   3   3   10.75    2.12
  -3  -3  -2  357.13   12.99
   3   3   2  350.95   13.94
  -3  -3  -1   48.38    5.97
   3   3   1   32.73    4.78
  -3  -3   0 2265.69   56.40
  -3  -3   0 2834.59   68.82
  -3  -3   1  144.02    8.89
  -3  -3   1  164.31    5.95
  -3  -3   2 1335.41   36.41
  -3  -3   2 1399.52   35.67
  -3  -3   3  234.95   12.35
  -3  -3   3  261.46    9.35
  -3  -3   4 4421.18  149.73
  -3  -3   4 4423.54  148.67
  -3  -3   5   36.97   10.55
  -3  -3   5   43.23    6.24
   3   3  -6  166.20    8.07
  -3  -3   6  162.83   12.02
   3   3  -7   14.25    4.09
  -3  -3   7   12.97    3.39
   3   3  -8   38.88   10.34
  -3  -3   8   33.88    5.37
   3   3  -9    1.83    0.97
  -3  -3   9    6.51    3.03
   3   3 -10  269.50   17.75
  -3  -3  10  257.57   14.66
   3   3 -11   61.54   12.79
  -3  -3  11   51.68    5.02
  -3  -3  12 2658.20   84.54
   3   3 -13  291.11   14.23
  -3  -3  13  203.57   10.90
  -3  -3  14  685.89   27.33
   3   3 -15   16.12    3.55
  -3  -3  15   10.85    2.94
   3   3 -16 2464.31   82.23
  -3  -3  16 2083.92   70.84
   3   3 -17   60.44   14.85
  -3  -3  17   52.15    6.14
  -3  -3  18  249.93   17.51
  -1  -3 -18    2.48    1.26
  -1  -3 -17   42.28    7.12
   1   3  17   23.54    4.73
   1   3  17   34.60    5.75
  -1  -3 -16 1649.11   73.68
   1   3  16 2520.82  112.71
   1   3  16 2428.50  107.27
  -1  -3 -15   80.20    7.81
   1   3  15   39.22    4.81
  -1  -3 -14   85.11    8.64
   1   3  14   86.28    8.97
  -1  -3 -13    6.61    1.64
   1   3  13    5.23    1.40
  -1  -3 -12 2141.57   65.66
   1   3  12 1777.23   55.01
  -1  -3 -11    6.22    1.18
   1   3  11    3.59    1.10
  -1  -3 -10   63.14    2.66
   1   3  10   64.09    4.28
  -1  -3  -9    1.19    1.02
   1   3   9    0.86    1.12
  -1  -3  -8  973.20   25.36
   1   3   8  983.52   26.31
  -1  -3  -8  953.01   26.63
  -1  -3  -7   61.07    6.08
   1   3   7   64.77    6.69
  -1  -3  -7   49.11    5.42
  -1  -3  -6  860.67   29.25
   1   3   6  861.02   29.98
  -1  -3  -6  712.41   24.60
  -1  -3  -5  116.74    4.78
   1   3   5  100.34    4.84
  -1  -3  -5  126.00    5.27
  -1  -3  -4 6732.79  626.35
   1   3   4 5525.56  132.23
  -1  -3  -4 6382.15  593.80
  -1  -3  -3  134.57    4.15
   1   3   3  135.21    5.81
  -1  -3  -2    6.16    1.55
  -1  -3  -2    6.34    1.18
  -1  -3  -1    1.98    1.59
  -1  -3  -1    3.46    1.09
  -1  -3   0 1907.21   48.12
  -1  -3   0 1771.05   43.18
  -1  -3   1   58.09    7.18
  -1  -3   1   94.15    4.26
  -1  -3   2   51.06   11.54
  -1  -3   2   56.81    3.66
   1   3  -3  165.50    7.08
  -1  -3   3  146.80    8.33
   1   3  -4  682.30   19.14
  -1  -3   4  844.11   23.86
   1   3  -5  163.77    9.14
  -1  -3   5  164.26    8.07
   1   3  -6  342.14   14.53
  -1  -3   6  337.08   14.18
   1   3  -7   20.20    4.83
  -1  -3   7   15.75    3.33
   1   3  -8 3144.56  107.71
  -1  -3   8 2836.71   96.61
   1   3  -9    8.36    1.97
  -1  -3   9    9.36    2.88
   1   3 -10  403.60   21.15
  -1  -3  10  279.07   14.89
   1   3 -11   19.96    4.57
  -1  -3  11   13.93    2.75
  -1  -3  12 3108.16   98.73
   1   3 -13   96.73   10.38
  -1  -3  13  103.11    7.37
   1   3 -14   83.55   17.18
  -1  -3  14   83.39    7.61
   1   3 -15   64.03   10.52
  -1  -3  15   52.86    7.11
   1   3 -16  152.84   25.00
  -1  -3  16  147.45   14.80
   1   3 -17    0.87    1.92
  -1  -3  17    1.65    2.15
  -1  -3  18  331.89   20.99
   1  -3 -18  300.99   17.56
  -1   3  18  268.46   16.29
  -1   3  17    1.78    1.00
   1  -3 -16  167.04    7.33
  -1   3  16  132.62   12.54
  -1   3  16  132.22   14.03
   1  -3 -15   58.32    6.15
  -1   3  15   53.53    5.85
  -1   3  15   63.10    7.20
   1  -3 -14   86.09    8.67
  -1   3  14   76.03    5.61
  -1   3  14   84.11    6.24
   1  -3 -13  102.67    4.99
  -1   3  13   86.59    4.53
  -1   3  13  101.92    5.14
   1  -3 -12 2374.94   72.43
  -1   3  12 2383.96   72.90
  -1   3  11   17.63    1.83
   1  -3 -11   16.35    3.20
   1  -3 -10  283.68   13.23
  -1   3  10  320.04   14.90
   1  -3 -10  361.29   18.78
   1  -3  -9   12.80    1.79
  -1   3   9    6.98    1.31
   1  -3  -9   15.91    3.74
  -1   3   8 3119.14  103.56
   1  -3  -8 2942.11   98.84
   1  -3  -7   14.60    1.77
  -1   3   7   13.68    1.93
   1  -3  -7   14.48    3.36
   1  -3  -6  345.63   11.87
  -1   3   6  347.43   12.42
   1  -3  -6  398.28   14.52
   1  -3  -5  238.21    8.25
  -1   3   5  189.78    7.34
   1  -3  -5  260.27    9.82
   1  -3  -4  832.46   20.87
   1  -3  -4  945.65   22.69
   1  -3  -4 1014.80   25.42
   1  -3  -2   46.81    5.53
   1  -3  -2   60.41    2.09
   1  -3  -1   85.71    3.33
   1  -3  -1   89.14    3.05
   1  -3   0 2049.08   49.94
   1  -3   0 1755.41   42.87
  -1   3  -1    1.53    0.65
   1  -3   1    1.68    0.90
  -1   3  -2   18.31    4.43
   1  -3   2   11.28    1.96
  -1   3  -3   88.82    5.08
   1  -3   3  108.77    4.45
  -1   3  -4 5354.55  130.45
   1  -3   4 4808.38  115.62
  -1   3  -5   73.12    9.67
   1  -3   5  101.58    5.61
  -1   3  -6  651.50   24.54
   1  -3   6  761.65   27.79
  -1   3  -7   68.31   15.31
   1  -3   7   56.62    6.53
  -1   3  -8  944.51   28.81
   1  -3   8  936.38   26.80
  -1   3  -9    2.86    0.88
   1  -3   9    5.03    2.59
  -1   3 -10   55.69   10.63
   1  -3  10   46.19    3.87
  -1   3 -11    5.73    2.81
   1  -3  11   26.62    3.02
   1  -3  12 1928.28   66.45
  -1   3 -13    4.41    2.34
   1  -3  13    5.78    2.02
  -1   3 -14   90.96   17.10
   1  -3  14   99.25    6.54
  -1   3 -15  137.12   13.61
  -1   3 -16 2740.13  123.40
  -1   3 -17   39.39   11.06
   1  -3  17   34.33    6.69
   1  -3  18    5.04    2.93
   3  -3 -19   62.72    8.48
  -3   3  19   52.52    3.96
   3  -3 -18  187.88   13.26
  -3   3  18  165.63   10.44
   3  -3 -17   35.36    9.05
  -3   3  17   28.83    8.54
   3  -3 -16 1511.45   48.40
  -3   3  16 1190.35   38.51
  -3   3  16 1304.46   43.19
   3  -3 -15    6.16    1.83
  -3   3  15    5.04    2.41
  -3   3  15   12.39    3.73
   3  -3 -14  634.94   22.80
  -3   3  14  587.20   20.88
  -3   3  14  661.39   24.46
   3  -3 -13  200.39   37.79
  -3   3  13  212.01    9.37
   3  -3 -13  239.70   11.70
   3  -3 -12 2374.75   72.27
  -3   3  12 2339.84   71.00
   3  -3 -11   42.51    4.62
  -3   3  11   41.10    1.94
   3  -3 -11   46.75    4.68
   3  -3 -10  248.62   11.99
  -3   3  10  260.88   12.06
   3  -3 -10  220.71   11.96
   3  -3  -9    1.18    0.49
  -3   3   9    3.90    1.32
   3  -3  -9    4.88    1.72
   3  -3  -8   51.23   12.40
   3  -3  -7    7.29    2.00
   3  -3  -6  230.69   10.57
   3  -3  -5   42.64    6.13
   3  -3  -4 4597.02  152.63
  -3   3   1  146.19    4.86
   3  -3  -1  196.21    5.23
  -3   3   0 2200.21   53.88
   3  -3   0 2451.84   58.44
  -3   3  -1   30.52    5.25
   3  -3   1   39.72    4.76
  -3   3  -2  276.27   11.11
   3  -3   2  384.60   13.87
  -3   3  -3   10.95    2.29
   3  -3   3   26.11    3.25
  -3   3  -4  287.09   12.29
   3  -3   4  260.30   10.10
  -3   3  -5  706.77   26.10
   3  -3   5  701.95   24.86
  -3   3  -6  516.47   20.30
   3  -3   6  505.29   18.64
  -3   3  -7    7.71    3.40
   3  -3   7   29.47    6.80
  -3   3  -8 2452.39  109.36
   3  -3   8 2613.29  115.85
  -3   3  -9   92.49    6.65
   3  -3   9  149.18    9.30
  -3   3 -10  342.55   14.17
   3  -3  10  337.26   13.22
   3  -3  11    1.05    1.75
  -3   3 -12 1839.24   64.34
   3  -3  12 1596.24   55.22
  -3   3 -13   86.69    9.70
   3  -3  13   67.26   12.78
  -3   3 -14  359.47   16.02
   3  -3  14  252.27   11.01
  -3   3 -15    1.04    1.76
   3  -3  15    1.32    1.47
  -3   3 -16   16.14    4.33
   3  -3  16   18.22    3.90
   3  -3  17   69.25    5.52
   5  -3 -19    9.23    1.81
  -5   3  18 1077.24   57.86
  -5   3  18  894.62   49.12
   5  -3 -17   20.35    6.39
  -5   3  17   10.72    2.92
  -5   3  17   12.08    3.48
  -5   3  16  189.53    8.10
  -5   3  16  184.86    9.22
   5  -3 -15   63.23    8.21
  -5   3  15   43.50    4.78
  -5   3  15   54.58   14.86
   5  -3 -15   58.58    7.19
   5  -3 -14  253.23    8.04
  -5   3  14  199.46    6.80
  -5   3  14  216.66    9.12
   5  -3 -14  256.75   11.56
   5  -3 -13   11.06    2.30
  -5   3  13    6.26    1.52
  -5   3  13    7.89    2.15
   5  -3 -13   10.86    3.64
  -5   3  12  951.98   29.43
  -5   3  12 1118.87   34.88
   5  -3 -12 1211.84   41.18
  -5   3  11  269.81    8.70
  -5   3  11  315.98   10.53
   5  -3 -11  308.89   12.82
  -5   3  10 1130.07   49.48
   5  -3 -10 1422.66   64.72
   5  -3  -9   81.61   15.57
   5  -3  -8 2304.21   60.48
   5  -3  -7    1.95    1.28
   5  -3  -6 2577.97   87.17
   5  -3  -5    0.61    0.57
   5  -3  -4  447.20   16.77
   5  -3  -3  581.14   20.82
  -5   3   2  319.75   11.56
   5  -3  -2  366.88   12.47
  -5   3   1   61.35    6.26
   5  -3  -1   61.64    5.96
  -5   3   0  198.53    8.04
   5  -3   0  238.72    8.62
  -5   3  -1   77.67    7.98
   5  -3   1   87.28    8.44
  -5   3  -2  660.19   23.75
   5  -3   2  834.97   28.58
  -5   3  -3    6.23    2.13
   5  -3   3    6.44    1.58
  -5   3  -4 2364.86   61.44
   5  -3   4 2741.82   69.45
  -5   3  -5  130.54    6.28
   5  -3   5  187.68    6.92
  -5   3  -6 2382.91  106.07
   5  -3   6 2767.46  122.20
  -5   3  -7   52.52    4.93
   5  -3   7   66.44    5.67
  -5   3  -8  816.95   27.84
   5  -3   8  884.21   29.05
  -5   3  -9   26.18    4.37
   5  -3   9   17.23    3.42
  -5   3 -10  433.37   18.15
  -5   3 -11   20.60    3.22
   5  -3  11    9.96    2.33
  -5   3 -12  415.38   17.94
   5  -3  12  418.63   17.37
  -5   3 -13    1.81    1.90
   5  -3  13    0.70    2.52
  -5   3 -14 1074.83   50.42
   5  -3  14 1082.41   50.46
  -5   3 -15   22.26    3.64
   5  -3  15   28.79    3.90
   5  -3  16 1021.11   36.79
  -7   3  18   52.86    3.71
  -7   3  17    0.75    0.77
  -7   3  17    2.32    2.06
  -7   3  16  161.70    9.60
  -7   3  16  275.36   13.82
   7  -3 -16  278.44   16.58
  -7   3  15   12.33    4.56
   7  -3 -15    6.68    2.96
  -7   3  14 2287.41   77.11
  -7   3  14 2995.51  100.86
  -7   3  14 2530.55   87.81
   7  -3 -14 3801.05 1027.65
  -7   3  13   39.80    3.34
  -7   3  13   88.35    8.63
  -7   3  12  500.50   17.12
  -7   3  11   86.61    3.48
  -7   3  10 1835.83   54.93
  -7   3  10 2077.59   62.11
   7  -3 -10 2413.48   75.83
   7  -3  -9    0.55    1.37
   7  -3  -8   62.43   10.60
   7  -3  -7   67.00    8.70
   7  -3  -6   59.94    6.31
  -7   3   5   57.08    2.50
  -7   3   5   54.53    1.50
   7  -3  -5   67.16    6.77
  -7   3   4  923.88   23.85
   7  -3  -4 1167.77   31.56
  -7   3   3    4.17    1.32
   7  -3  -3    2.75    1.12
   7  -3  -3   -0.28    0.97
  -7   3   2 3342.97   84.14
   7  -3  -2 4020.71  100.17
   7  -3  -2 4173.22  106.41
  -7   3   1   48.10    7.73
   7  -3  -1   53.85    2.15
   7  -3  -1   53.20    3.06
  -7   3   0 1629.35   42.65
   7  -3   0 1802.88   45.78
  -7   3  -1   47.34    3.85
   7  -3   1   57.68    2.39
  -7   3  -2 2433.63  108.01
   7  -3   2 2373.45  104.43
  -7   3  -3    4.61    2.38
   7  -3   3    1.59    1.31
  -7   3  -4    4.49    2.12
   7  -3   4    6.81    1.33
  -7   3  -5  135.76    6.75
   7  -3   5  141.82    6.04
  -7   3  -6  116.28    6.22
   7  -3   6  122.35    5.72
  -7   3  -7  224.49   10.16
   7  -3   7  220.67    9.25
  -7   3  -8  583.86   18.04
   7  -3   8  617.33   17.83
  -7   3  -9   71.01   19.83
   7  -3   9   62.44    6.98
  -7   3 -10 1591.88   52.50
   7  -3  10 1755.04   56.69
  -7   3 -11   21.12    3.86
   7  -3  11   12.25    4.02
  -7   3 -12  949.81   45.14
   7  -3  12  876.10   41.13
  -7   3 -13   45.66    4.66
   7  -3  13   47.03    4.26
   7  -3  14  750.59   28.07
  -9   3  17   -0.08    0.63
  -9   3  17    2.53    1.99
  -9   3  16   15.92    2.94
  -9   3  16   19.62    4.37
   9  -3 -16   29.22    6.53
  -9   3  15   10.03    2.40
   9  -3 -15    9.88    4.29
  -9   3  14  382.92   13.45
   9  -3 -14  424.46   18.63
  -9   3  13   71.81    6.77
  -9   3  13   81.47    7.55
   9  -3 -13  111.38   12.52
  -9   3  12  124.86    5.36
  -9   3  12  138.69    5.70
   9  -3 -12  147.03    8.75
  -9   3  11  154.59    5.50
  -9   3  11  152.78    4.99
   9  -3 -11  148.35    8.28
  -9   3  10 1155.87   28.59
   9  -3 -10 1279.94   36.23
  -9   3   9   91.17    4.31
  -9   3   9   68.32    3.02
   9  -3  -9   90.21   15.38
  -9   3   8   67.07    3.37
  -9   3   8   63.19    4.22
   9  -3  -8   67.11   11.89
  -9   3   7   33.09    6.08
  -9   3   7   32.44    4.06
   9  -3  -7   39.49    8.52
  -9   3   6 2980.27   89.88
  -9   3   6 2672.63   80.56
   9  -3  -6 3386.14  104.09
  -9   3   5    0.08    0.22
  -9   3   5   -0.32    0.47
   9  -3  -5    6.65    1.71
  -9   3   4    8.06    1.09
   9  -3  -4    3.36    0.99
   9  -3  -4    5.11    3.43
  -9   3   3  230.69    8.63
   9  -3  -3  209.29    7.52
   9  -3  -3  218.07    9.00
  -9   3   2  548.55   18.30
   9  -3  -2  562.81   18.19
   9  -3  -2  574.92   19.65
  -9   3   1   34.02    2.70
   9  -3  -1   38.48    2.38
   9  -3  -1   26.70    6.25
  -9   3   0   77.53    4.33
   9  -3   0   87.46    4.07
   9  -3   0   92.55    7.17
  -9   3  -1  128.29    6.20
   9  -3   1  150.35    6.38
   9  -3   1  153.36    7.21
  -9   3  -2  715.44   25.75
   9  -3   2  751.30   26.11
  -9   3  -3   20.29    3.41
   9  -3   3   19.42    2.84
  -9   3  -4  179.62    7.81
   9  -3   4  165.90    6.17
  -9   3  -5   -1.45    1.55
   9  -3   5    1.82    1.08
  -9   3  -6 3661.97  125.40
   9  -3   6 3125.40  105.82
  -9   3  -7    0.59    1.80
   9  -3   7    0.91    1.35
   9  -3   8   10.24    3.35
  -9   3  -9   41.87    7.45
   9  -3   9   32.79    6.63
   9  -3  10  836.12   45.64
   9  -3  11   -0.28    1.65
   9  -3  12  132.19    7.84
  11  -3 -15   13.61    5.34
 -11   3  14 1428.67   46.90
 -11   3  14 1200.54   39.48
  11  -3 -14 1359.81   49.34
  11  -3 -13   46.03    9.11
  11  -3 -12   75.78    6.90
 -11   3  11  122.55    6.59
  11  -3 -11  110.76   11.79
 -11   3  10 3132.20   96.87
  11  -3 -10 2726.15   87.95
 -11   3   9   28.47    5.47
  11  -3  -9   33.39    6.88
 -11   3   8  126.94    9.78
 -11   3   8  104.63    4.99
  11  -3  -8  125.11    9.79
 -11   3   7   19.55    4.43
 -11   3   7   18.45    2.51
  11  -3  -7   21.20    3.78
 -11   3   6   64.56    8.49
 -11   3   6   70.53    7.10
  11  -3  -6   83.99   18.05
 -11   3   5   12.14    1.99
  11  -3  -5   14.84    2.17
  11  -3  -5   16.47    2.73
 -11   3   4    7.89    1.34
  11  -3  -4   13.38    1.93
  11  -3  -4    9.72    1.84
 -11   3   3    8.15    1.93
  11  -3  -3    7.70    1.42
  11  -3  -3   10.05    2.31
 -11   3   2 2491.49   85.04
  11  -3  -2 2176.14   73.62
  11  -3  -2 2449.37   84.15
 -11   3   1    6.37    1.81
  11  -3  -1    7.05    1.66
  11  -3  -1    7.17    1.90
 -11   3   0  158.47    7.90
  11  -3   0  127.79    6.06
  11  -3   0  107.75    5.85
 -11   3  -1    0.94    1.32
  11  -3   1    3.03    1.24
  11  -3   1    4.84    1.08
 -11   3  -2 2618.69   82.64
  11  -3   2 2736.12   85.27
  11  -3   2 2785.23   87.66
 -11   3  -3   24.92    3.38
  11  -3   3   24.80    3.01
  11  -3   3   24.93    6.87
 -11   3  -4   43.15    7.41
  11  -3   4   47.56    3.64
  11  -3   4   67.42    4.99
 -11   3  -5   27.54    6.04
  11  -3   5   25.84    5.30
 -11   3  -6   10.42    3.18
  11  -3   6    1.72    1.16
 -11   3  -7   26.29    3.39
  11  -3   8    2.70    1.37
 -13   3  11    7.75    1.53
  13  -3 -11    0.67    2.62
 -13   3  10  514.67   18.36
 -13   3  10  503.19   18.16
  13  -3 -10  492.07   21.18
 -13   3   9  104.64    9.81
  13  -3  -9   79.35   18.40
 -13   3   8  133.60   11.25
  13  -3  -8  139.82   29.86
 -13   3   7    1.37    0.59
  13  -3  -7    3.01    1.23
 -13   3   6 2110.22  111.15
 -13   3   6 1881.28   99.39
  13  -3  -6 2172.49  116.00
  13  -3  -5   25.86    4.60
  13  -3  -5   26.27    6.06
  13  -3  -4  361.09   20.43
  13  -3  -4  368.37   29.18
  13  -3  -3    3.23    1.66
  13  -3  -3    1.15    1.11
 -13   3   2  870.25   47.18
  13  -3  -2  848.11   45.52
  13  -3  -2 1032.63   56.40
  13  -3  -1  133.56    8.38
  13  -3  -1  160.30   12.66
  13  -3   0   77.71    5.56
  13  -3   0   59.09   14.12
  13  -3   1    1.62    1.42
  13  -3   1    1.19    1.28
  13  -3   2  107.29    5.88
  13  -3   2   93.42    5.66
  13  -3   3  118.61    6.12
  13  -3   4   13.63    1.97
  13  -3   4    1.75    1.36
  12   4   1    0.19    2.77
  12   4   0    3.58    2.72
 -12  -4   2   -0.05    2.02
 -12  -4   3   24.07    6.87
 -12  -4   3   21.25    4.04
 -12  -4   4  131.34   15.09
 -12  -4   4  142.67    8.57
 -12  -4   5  106.03   27.34
 -12  -4   6 1568.21   55.27
 -12  -4   6 1674.79   57.02
 -12  -4   7   18.46    4.87
 -12  -4   7   14.53    4.43
 -12  -4   8  535.77   22.73
 -12  -4  10 1538.61   54.19
  10   4   7   89.56    6.95
  10   4   6  764.30   29.15
 -10  -4  -4   62.60    5.14
  10   4   4   65.88    6.35
 -10  -4  -3  116.96    7.50
  10   4   3  117.56    8.68
 -10  -4  -2   59.27    4.81
  10   4   2   63.46    6.49
 -10  -4  -1   42.68    7.52
  10   4   1   48.46    5.88
 -10  -4   0    7.96    2.82
  10   4   0   14.00    4.03
 -10  -4   0   14.03    3.13
 -10  -4   1   40.83    5.15
 -10  -4   1   43.31    6.90
 -10  -4   2 2692.95   86.37
 -10  -4   2 2621.66   83.27
 -10  -4   2 2866.95   89.54
 -10  -4   3    1.63    1.07
 -10  -4   3    2.91    2.09
 -10  -4   3    0.35    0.57
 -10  -4   4   29.07    8.35
 -10  -4   4   40.74    5.51
 -10  -4   4   39.77   10.27
 -10  -4   5  146.24   17.32
 -10  -4   5  162.39    8.98
 -10  -4   5  170.55    9.17
 -10  -4   6 2211.85   73.25
 -10  -4   6 2201.06   72.15
 -10  -4   6 2146.72   69.75
 -10  -4   7   46.39   11.41
 -10  -4   7   39.31    5.74
 -10  -4   7   37.48    5.44
 -10  -4   8   98.33   19.96
 -10  -4   8  116.47    8.87
 -10  -4   8  146.25   10.93
 -10  -4   9   33.93    9.51
 -10  -4   9   30.02    7.04
 -10  -4   9   55.59    7.41
 -10  -4  10  219.88   34.16
 -10  -4  10  226.84   14.06
 -10  -4  10  297.84   18.09
 -10  -4  11   18.24    4.65
 -10  -4  11   16.67    4.93
 -10  -4  12    5.83    2.57
 -10  -4  12    0.97    3.17
   8   4  10  336.21   15.28
  -8  -4  -9   38.31    3.35
   8   4   9   34.07    4.41
   8   4   8    4.15    2.48
  -8  -4  -7    3.24    1.97
   8   4   7    1.25    2.15
  -8  -4  -6 1027.55   33.62
   8   4   6 1020.93   35.48
  -8  -4  -5   33.86    4.00
   8   4   5   33.85    4.68
  -8  -4  -4  195.44    8.81
   8   4   4  210.55   11.08
  -8  -4  -3    9.32    2.02
   8   4   3    9.33    2.50
  -8  -4  -2 3404.34   84.36
   8   4   2 3589.42   91.82
  -8  -4  -1   33.66    3.53
   8   4   1   31.34    4.45
  -8  -4  -1   30.93    5.26
  -8  -4   0  323.22   11.21
   8   4   0  312.63   12.85
  -8  -4   0  337.30   10.62
  -8  -4   1   42.49    3.94
  -8  -4   1   40.79    3.93
  -8  -4   2  122.87    6.22
  -8  -4   2  130.55    7.06
  -8  -4   3  166.76    8.41
  -8  -4   3  153.83    8.12
  -8  -4   4    5.90    1.51
  -8  -4   4    3.67    2.31
  -8  -4   4   16.40    3.98
  -8  -4   5    7.49    2.34
  -8  -4   5   10.95    2.99
  -8  -4   5    3.58    2.44
  -8  -4   6 1578.52   43.46
  -8  -4   6 1455.31   40.91
  -8  -4   7  244.88   10.99
  -8  -4   7  277.84   11.78
  -8  -4   7  277.68   12.22
  -8  -4   8  288.64   25.65
  -8  -4   8  242.88   12.41
  -8  -4   8  259.89   13.62
  -8  -4   9   17.86    3.86
  -8  -4   9   12.85    3.42
  -8  -4   9    8.77    3.74
  -8  -4  10 2327.94   77.01
  -8  -4  10 2140.51   70.94
  -8  -4  10 2444.91   81.11
  -8  -4  11   12.06    4.00
  -8  -4  11    8.01    3.85
  -8  -4  11   -4.43    3.22
  -8  -4  12  170.26   11.87
  -8  -4  12  168.90   12.12
  -8  -4  12  189.91   13.45
  -8  -4  13   14.87    5.16
  -8  -4  13    6.88    4.55
  -8  -4  14  300.86   20.21
  -8  -4  14  342.16   23.23
  -6  -4 -13  139.07    6.87
  -6  -4 -12   85.50    5.02
   6   4  12   69.96    5.78
  -6  -4 -11   23.14    4.03
   6   4  11   28.94    6.00
  -6  -4 -10 1326.40   59.48
   6   4  10 1401.76   64.34
  -6  -4  -9   78.79    7.67
   6   4   9   70.53    7.83
  -6  -4  -8 1358.00   43.33
   6   4   8 1313.83   43.70
  -6  -4  -7   12.97    2.00
   6   4   7    9.52    2.19
  -6  -4  -6 1066.86   27.71
   6   4   6 1093.40   30.66
  -6  -4  -5  160.07    7.09
   6   4   5  152.51    8.27
  -6  -4  -4  487.31   17.73
   6   4   4  491.31   19.70
  -6  -4  -3   82.89    4.86
   6   4   3   68.11    5.67
  -6  -4  -2    2.82    1.07
   6   4   2   10.24    2.78
  -6  -4  -2   13.74    1.62
  -6  -4  -1  300.68   11.19
   6   4   1  288.66   12.81
  -6  -4  -1  235.44    9.42
  -6  -4   0   42.40   10.50
  -6  -4   0   36.21    2.71
  -6  -4   1   14.42    4.37
  -6  -4   1   13.66    1.87
  -6  -4   2 1604.39   51.96
  -6  -4   2 1889.58   59.50
  -6  -4   3   27.09    6.82
  -6  -4   3   25.86    3.06
  -6  -4   4 1480.93   50.05
  -6  -4   4 1218.53   39.84
  -6  -4   5   13.20    2.04
  -6  -4   5    8.63    2.19
  -6  -4   6 2302.78   79.08
  -6  -4   7   76.83   18.95
  -6  -4   7   75.71    6.08
  -6  -4   8  904.26   34.74
  -6  -4   8  993.78   37.54
  -6  -4   9   57.68   11.34
  -6  -4   9   49.96    7.84
  -6  -4  10   19.84    4.04
  -6  -4  10   14.59    4.34
  -6  -4  11   22.37    4.84
  -6  -4  11   15.47    4.31
  -6  -4  12  129.99   14.06
  -6  -4  12  123.34   13.79
  -6  -4  13    0.32    2.21
  -6  -4  13    3.92    3.48
  -6  -4  14 1782.46   83.20
  -6  -4  14 1610.37   75.32
   6   4 -15    4.18    2.99
  -6  -4  15    1.44    2.79
  -6  -4  16 1326.89   49.26
  -4  -4 -14  453.01   16.53
   4   4  14  437.57   17.76
  -4  -4 -13  146.42    9.10
   4   4  13  133.85    9.58
  -4  -4 -12 2011.26   89.32
   4   4  12 1830.08   82.60
  -4  -4 -11   33.72    3.76
   4   4  11   21.07    3.38
  -4  -4 -10  307.16   11.73
   4   4  10  336.29   14.48
  -4  -4  -9  112.00    4.60
   4   4   9  119.19    6.24
  -4  -4  -8  241.65    7.92
   4   4   8  221.08    8.70
  -4  -4  -7   86.36    5.24
   4   4   7   76.11    4.90
  -4  -4  -6  267.84   10.23
   4   4   6  272.40   11.79
  -4  -4  -5   11.84    1.44
   4   4   5   23.50    2.64
  -4  -4  -4 1293.37   39.96
   4   4   4 1389.79   45.17
  -4  -4  -4 1326.71   40.04
  -4  -4  -3   42.38    2.28
   4   4   3   37.24    3.98
  -4  -4  -2 1858.11   82.15
  -4  -4  -1   13.38    3.71
  -4  -4  -1   13.16    1.60
  -4  -4   0 3163.34  140.49
  -4  -4   0 3236.69  142.40
  -4  -4   1   78.22    9.54
  -4  -4   1   75.78    4.95
  -4  -4   2  809.98   38.96
  -4  -4   2  725.13   33.47
  -4  -4   3   53.81    9.95
  -4  -4   3   54.96    3.51
  -4  -4   4  151.97    9.78
  -4  -4   4  180.00   10.31
  -4  -4   5   27.43    5.41
  -4  -4   5   26.26    3.14
  -4  -4   6  430.90   22.35
  -4  -4   6  447.46   22.70
  -4  -4   7  444.77   18.17
  -4  -4   7  482.95   19.72
  -4  -4   8 1455.24   49.09
  -4  -4   8 1279.70   43.24
  -4  -4   9  226.27   12.13
   4   4 -11    5.17    2.53
  -4  -4  11   -2.77    2.27
   4   4 -12 1881.27   67.32
  -4  -4  12 1796.63   65.73
   4   4 -13    1.01    1.44
  -4  -4  13    9.12    4.64
   4   4 -14  565.74   22.06
  -4  -4  14  593.87   24.10
   4   4 -15  197.69   12.41
  -4  -4  15  165.31   11.57
  -4  -4  16   90.85    8.06
  -4  -4  17   44.21    6.91
  -2  -4 -16 1031.98   34.62
   2   4  16 1093.50   38.30
  -2  -4 -15   74.17    4.49
   2   4  15   50.14    4.50
   2   4  14    4.03    2.29
  -2  -4 -13   47.90    3.47
   2   4  13   43.66    7.40
  -2  -4 -12  195.80    7.59
   2   4  12  200.90    9.18
  -2  -4 -11   34.93    3.80
   2   4  11   30.67    3.90
  -2  -4 -10  379.27   10.86
   2   4  10  399.13   12.99
  -2  -4  -9  187.58    7.28
   2   4   9  186.10    8.45
  -2  -4  -8 2768.77   91.35
   2   4   8 2501.05   83.73
  -2  -4  -8 3062.29  101.65
  -2  -4  -7   21.51    1.65
   2   4   7   12.92    2.07
  -2  -4  -7   14.36    1.89
  -2  -4  -6  115.39    5.99
   2   4   6   97.32    6.32
  -2  -4  -6  109.47    5.82
  -2  -4  -5   95.10    4.93
   2   4   5   94.62    6.58
  -2  -4  -5  108.05    5.59
  -2  -4  -4 1466.47   64.67
  -2  -4  -4 1549.51   68.25
  -2  -4  -3    7.13    3.60
  -2  -4  -3    7.19    1.10
  -2  -4  -1  660.32   20.25
  -2  -4  -1  661.09   17.93
  -2  -4   0   81.15    9.91
  -2  -4   0  117.20    4.70
  -2  -4   1  111.13    9.29
  -2  -4   1  151.38    5.78
  -2  -4   2  295.55   11.19
  -2  -4   2  389.36   12.24
  -2  -4   3   10.91    2.49
  -2  -4   3   11.15    2.50
  -2  -4   4 1855.39   50.58
  -2  -4   4 2300.07   61.17
  -2  -4   5    4.64    2.51
  -2  -4   5    6.79    3.14
   2   4  -6  218.40   11.94
  -2  -4   6  237.58   13.26
   2   4  -7  140.28    9.65
  -2  -4   7  135.96    8.96
   2   4  -8 2855.11   89.22
  -2  -4   8 3304.29  103.77
   2   4  -9    3.63    1.89
  -2  -4   9   -0.95    1.74
   2   4 -10   34.16   10.57
   2   4 -11  142.45    8.00
   2   4 -12    9.54    2.04
  -2  -4  12    2.99    2.08
   2   4 -13    4.19    1.53
  -2  -4  13    1.23    2.07
   2   4 -14  352.50   16.19
  -2  -4  14  345.77   17.63
   2   4 -15   60.61   16.14
  -2  -4  15   38.55    8.55
  -2  -4  16 2449.26  131.63
  -2  -4  17   47.02    6.42
   0  -4 -16  506.12   18.32
   0   4  16  358.80   14.22
   0  -4 -15   44.67    7.24
   0   4  15   38.47    6.53
   0  -4 -14    8.10    2.04
   0   4  14    6.45    2.03
   0  -4 -13   10.82    3.20
   0   4  13   12.41    3.78
   0  -4 -12 2285.99   77.00
   0   4  12 2744.59   93.30
   0   4  11   16.92    2.28
   0  -4 -11   12.01    2.28
   0  -4 -10   72.47    3.53
   0  -4 -10   70.42    5.01
   0  -4  -9  274.21    9.86
   0   4   9  249.97    9.94
   0  -4  -9  246.95   10.22
   0  -4  -8 1604.62   48.62
   0   4   8 1459.53   45.52
   0  -4  -8 1655.04   51.53
   0  -4  -7   93.26    4.72
   0   4   7   74.03    5.10
   0  -4  -7   96.51    5.70
   0  -4  -6   11.25    2.24
   0  -4  -6    7.74    0.84
   0  -4  -6   10.79    2.64
   0  -4  -5   13.98    2.04
   0  -4  -5   16.32    2.57
   0  -4  -5   17.42    3.17
   0  -4  -4 1203.87   32.68
   0  -4  -4 1228.55   31.05
   0  -4  -4 1307.43   33.81
   0  -4  -3    2.26    1.37
   0  -4  -3    2.55    0.76
   0  -4  -2    4.67    1.10
   0  -4  -2    1.53    1.02
   0  -4  -1    2.22    1.45
   0  -4  -1    0.27    0.78
   0  -4   0 4729.06  119.36
   0  -4   0 3902.95   97.57
   0  -4   1    0.57    1.01
   0  -4   1    1.74    1.18
   0  -4   2    5.91    1.90
   0  -4   2   27.93    3.76
   0  -4   3    3.71    1.97
   0   4  -4 1052.33   29.50
   0  -4   4 1104.94   30.69
   0   4  -5    8.08    2.47
   0  -4   5   10.99    2.01
   0   4  -6    6.61    1.82
   0  -4   6    7.87    2.04
   0   4  -7   83.83   15.93
   0  -4   7   66.27    5.01
   0   4  -8 1955.64   63.34
   0  -4   8 1543.53   49.70
   0   4  -9  422.81   21.28
   0  -4   9  367.46   16.61
   0   4 -10   80.84   17.56
   0  -4  10   61.31    8.42
   0   4 -11   15.31    4.23
   0  -4  11   17.98    3.39
   0   4 -12 2918.21  101.37
   0  -4  12 2901.18  100.60
   0   4 -13   14.87    3.30
   0  -4  13   14.14    3.67
   0   4 -14   10.15    3.15
   0  -4  14    8.55    2.87
   0  -4  15   47.45    8.60
   0  -4  17  198.67   12.16
  -2   4  17   29.04    2.68
   2  -4 -16 2323.54  122.26
  -2   4  16 1578.85   83.55
   2  -4 -15   39.72   10.74
  -2   4  15   36.29    7.04
   2  -4 -14  254.00   10.34
  -2   4  14  238.12    9.08
   2  -4 -13    1.37    0.65
  -2   4  13    0.91    0.86
   2  -4 -13    0.97    1.53
   2  -4 -12    3.58    0.69
  -2   4  12    8.36    1.48
   2  -4 -12   10.72    3.03
   2  -4 -11  101.35    3.71
  -2   4  11   89.37    8.59
   2  -4 -11  138.36    7.40
   2  -4 -10   31.56    4.76
  -2   4  10   37.28    4.67
   2  -4 -10   35.33    5.37
   2  -4  -9    7.05    1.23
   2  -4  -8 3673.77  111.98
   2  -4  -7  165.02    8.71
   2  -4  -6  305.86   14.82
   2  -4  -5    0.44    0.39
   2  -4  -4 2476.92   63.05
   2  -4  -2  412.99   10.75
   2  -4  -2  390.91   10.06
   2  -4  -1  146.87    4.51
   2  -4  -1  150.99    4.55
   2  -4   0   99.01    3.58
   2  -4   0  101.90    3.92
   2  -4   1  620.09   16.78
  -2   4  -2   16.60    4.11
   2  -4   2    1.38    0.95
  -2   4  -3    6.33    1.93
   2  -4   3    7.03    1.80
  -2   4  -4 1449.73   66.13
   2  -4   4 1289.04   57.52
  -2   4  -5   74.27    8.90
   2  -4   5   78.70    5.04
  -2   4  -6   97.24   12.02
   2  -4   6   81.24    5.10
  -2   4  -7   18.55    3.63
   2  -4   7   11.05    2.72
  -2   4  -8 2587.54   89.35
   2  -4   8 2691.81   90.47
  -2   4  -9  170.50    9.24
   2  -4   9  179.53    8.94
  -2   4 -10  355.27   14.54
   2  -4  10  382.46   13.39
  -2   4 -11   35.27   10.51
   2  -4  11   32.32    4.51
  -2   4 -12  200.81   10.49
   2  -4  12  193.09    9.38
  -2   4 -13   43.24   12.21
   2  -4  13   45.01    4.46
  -2   4 -14    0.54    1.19
   2  -4  14    3.62    1.96
  -2   4 -15   49.63   15.89
   2  -4  15   59.49    5.67
   2  -4  16 1189.78   42.15
  -4   4  16   61.00    3.21
   4  -4 -15  177.29    8.46
  -4   4  15  127.31    6.44
   4  -4 -15  186.17   11.72
  -4   4  14  526.64   16.75
   4  -4 -14  609.97   23.61
   4  -4 -13    5.09    3.27
   4  -4 -12 1560.03   55.91
   4  -4 -11    0.98    1.48
   4  -4 -10 1620.20   56.14
   4  -4  -9  263.15   11.22
   4  -4  -8 1631.59   51.60
   4  -4  -7  509.45   17.68
   4  -4  -6  506.17   23.65
   4  -4  -5   33.52    7.35
   4  -4  -4  208.66   10.54
   4  -4  -3   72.52    4.44
   4  -4  -1   86.54    4.09
   4  -4  -1   77.44    3.99
  -4   4   0 2830.51  124.31
   4  -4   0 3591.89  157.06
  -4   4  -1   18.89    4.31
   4  -4   1   16.57    1.40
  -4   4  -2 1566.17   70.49
   4  -4   2 1793.77   78.98
  -4   4  -3   30.08    7.82
   4  -4   3   38.14    2.15
  -4   4  -4 1131.93   37.19
   4  -4   4 1222.96   37.89
  -4   4  -5   15.96    8.34
   4  -4   5    6.99    1.59
  -4   4  -6  210.88    9.99
   4  -4   6  229.29    9.16
  -4   4  -7   73.20   10.85
   4  -4   7   55.01    6.94
  -4   4  -8  199.42    9.21
   4  -4   8  162.75    6.32
  -4   4  -9   97.25    6.16
   4  -4   9   72.95    5.65
  -4   4 -10  311.79   14.35
   4  -4  10  273.54   11.49
   4  -4  11   15.43    2.39
  -4   4 -12 1948.78   88.76
   4  -4  12 1690.91   76.14
  -4   4 -13  135.35   23.32
   4  -4  13  108.19    7.71
  -4   4 -14  483.94   20.27
   4  -4  14  432.31   17.44
   6  -4 -16 1176.09   42.63
   6  -4 -15    2.76    3.03
   6  -4 -14 1326.25   61.70
   6  -4 -13    5.56    3.14
   6  -4 -12  107.77   11.12
   6  -4 -11   10.08    2.92
   6  -4 -10   26.79    4.99
   6  -4  -9   47.66   11.23
   6  -4  -5   14.98    2.82
   6  -4  -4 1262.20   39.81
   6  -4  -3   26.39    7.30
   6  -4  -2 1517.42   45.31
   6  -4  -2 1710.12   53.05
  -6   4   1   15.31    2.32
   6  -4  -1   13.29    0.87
  -6   4   0   32.00    6.76
   6  -4   0   39.25    1.55
  -6   4  -1  327.36   12.32
   6  -4   1  292.94    9.66
  -6   4  -2    2.58    1.61
   6  -4   2   11.35    1.74
  -6   4  -3   65.86    4.77
   6  -4   3   58.82    7.14
  -6   4  -4  450.49   18.30
   6  -4   4  484.15   17.34
  -6   4  -5  143.52    8.18
   6  -4   5  151.77    6.65
  -6   4  -6 1103.29   31.49
   6  -4   6 1203.46   31.43
  -6   4  -7    9.29    2.44
   6  -4   7   10.43    3.27
  -6   4  -8 1385.30   46.86
   6  -4   8 1285.11   41.63
  -6   4  -9   64.06    7.66
   6  -4   9   60.34    6.87
  -6   4 -10 1409.29   65.27
   6  -4  10 1230.58   55.84
  -6   4 -11   32.10    6.51
   6  -4  11   20.77    4.40
   6  -4  12   61.36    5.11
   6  -4  13  110.68    6.82
   8  -4 -16   91.96    8.75
   8  -4 -15  230.11   13.80
   8  -4 -14  285.49   19.34
   8  -4 -13    7.14    2.67
   8  -4 -12  171.73   11.11
   8  -4 -11    4.45    2.15
   8  -4 -10 2509.43   81.12
   8  -4  -9   18.45    4.47
   8  -4  -8  284.69   13.03
   8  -4  -7  290.04   10.57
   8  -4  -6 1733.32   45.67
   8  -4  -5   11.28    2.61
   8  -4  -4    2.86    0.93
   8  -4  -3  160.45    7.44
  -8   4   2  103.36    4.23
   8  -4  -2  111.13    3.58
   8  -4  -2  119.48    9.51
  -8   4   1   35.30    3.16
   8  -4  -1   50.33    3.54
   8  -4  -1   45.22    3.92
   8  -4   0  299.87    8.42
  -8   4  -1   27.41    3.28
   8  -4   1   30.09    2.49
  -8   4  -2 3199.80   80.67
   8  -4   2 2705.21   65.76
  -8   4  -3    5.86    2.97
   8  -4   3    9.37    1.61
  -8   4  -4  191.19    9.81
   8  -4   4  167.51    7.03
   8  -4   5   32.69    3.63
  -8   4  -6 1205.74   41.54
   8  -4   6  995.62   32.48
  -8   4  -7    2.13    1.87
   8  -4   7    2.21    1.33
   8  -4   8    4.33    1.65
   8  -4   9   33.69    3.09
   8  -4  10  336.06   13.43
  10  -4 -13    2.70    2.75
  10  -4 -12    0.81    2.25
  10  -4 -11   16.60    3.68
  10  -4 -10  249.84   17.77
  10  -4  -9   28.16    7.27
  10  -4  -8  256.52   16.83
  10  -4  -7   33.34    7.25
  10  -4  -6 2067.31   66.42
  10  -4  -5  147.56   15.78
 -10   4   4   31.38    5.39
  10  -4  -4   83.54    9.65
 -10   4   3    0.53    0.72
  10  -4  -3    3.07    1.54
  10  -4  -3    1.65    0.88
  10  -4  -2 2861.08   88.17
  10  -4  -2 2744.25   86.41
  10  -4  -1   43.25    4.33
  10  -4  -1   29.80    9.80
 -10   4   0    9.99    3.28
  10  -4   0   11.38    3.34
  10  -4   0    9.19    3.23
  10  -4   1   42.70    6.82
  10  -4   1   37.90    7.50
  10  -4   2   54.23    3.46
  10  -4   2   78.75    5.37
  10  -4   3  109.13    6.06
  10  -4   4   60.05    3.64
  10  -4   5   37.26    2.73
  10  -4   6  647.94   22.62
  10  -4   7   99.21    5.83
  12  -4  -7   19.63    4.25
  12  -4  -4  149.79   17.59
  12  -4  -3   33.43    3.02
  12  -4  -3   25.22    5.38
  12  -4  -2    7.10    1.55
  12  -4  -2    0.30    0.90
  12  -4  -1   93.01    4.60
  12  -4  -1   82.18    9.81
  12  -4   0    4.39    1.23
  12  -4   0    1.30    0.97
  12  -4   1    1.02    1.38
  12  -4   2 1765.23   57.62
   9   5   4  193.55   11.65
  -9  -5  -3   83.96    5.22
   9   5   3   73.86    6.59
  -9  -5  -2  283.40   13.09
  -9  -5  -2  332.16   13.28
  -9  -5  -1  171.44    9.88
  -9  -5  -1  179.49    8.42
  -9  -5   0   13.29    3.21
  -9  -5   0    9.21    1.87
  -9  -5   0    9.43    1.90
  -9  -5   1  288.14   21.70
  -9  -5   1  296.48   17.45
  -9  -5   1  370.47   21.01
  -9  -5   2  303.10   19.25
  -9  -5   2  309.53   18.26
  -9  -5   2  312.61   18.42
  -9  -5   3  173.42   11.35
  -9  -5   3  176.61   11.47
  -9  -5   4   16.94    4.23
  -9  -5   4   17.29    3.77
  -9  -5   4   12.15    3.54
  -9  -5   5   27.29    7.36
  -9  -5   5   23.09    4.68
  -9  -5   5   30.65    6.39
  -9  -5   6 2026.40   70.36
  -9  -5   6 2107.17   71.53
  -9  -5   7   25.41    6.97
  -9  -5   7   22.63    3.81
  -9  -5   7   37.67    6.47
  -9  -5   8   41.79    8.82
  -9  -5   8   53.84    6.35
  -9  -5  10 1097.65   41.99
  -7  -5  -8  270.56   10.72
   7   5   8  271.21   13.48
  -7  -5  -7  150.10    7.06
   7   5   6   36.84    5.16
  -7  -5  -5  171.45   10.27
   7   5   5  169.28   12.37
  -7  -5  -4   29.41    5.05
   7   5   4   13.22    3.92
  -7  -5  -3   30.48    6.51
  -7  -5  -3   33.97    6.64
  -7  -5  -2 1171.80   54.36
  -7  -5  -2 1263.01   56.93
  -7  -5  -1    2.43    1.48
  -7  -5  -1    5.41    1.72
  -7  -5  -1    7.63    2.43
  -7  -5   0  443.77   18.27
  -7  -5   0  460.26   16.61
  -7  -5   0  579.54   21.62
  -7  -5   1   71.90   19.20
  -7  -5   1   76.42    7.65
  -7  -5   1   75.03    8.01
  -7  -5   2 2224.97   73.81
  -7  -5   2 1926.02   61.54
  -7  -5   2 1912.38   61.86
  -7  -5   3   -1.32    2.52
  -7  -5   3    4.02    2.53
  -7  -5   4  423.01   18.30
  -7  -5   4  461.91   17.97
  -7  -5   5   18.07    5.44
  -7  -5   5   11.18    3.74
  -7  -5   6   23.95    6.63
  -7  -5   6   35.57    7.77
  -7  -5   7   73.08   17.59
  -7  -5   7   67.93    6.44
  -7  -5   8    4.81    2.56
  -7  -5   8    9.76    4.55
  -7  -5   9   24.21    6.76
  -7  -5   9   29.56    6.35
  -7  -5  10 1483.30   82.09
  -7  -5  10 1304.59   71.90
  -7  -5  11  361.69   19.18
  -7  -5  11  282.44   14.87
  -7  -5  12  471.23   22.23
  -5  -5 -10   74.49    3.94
   5   5  10   68.72    6.02
   5   5   9   51.00    5.24
   5   5   8  230.15   14.83
  -5  -5  -7    3.53    1.07
   5   5   7   -0.41    2.49
  -5  -5  -6 1259.50   56.23
   5   5   6 1133.10   52.99
  -5  -5  -5    3.35    1.55
   5   5   5    6.77    3.43
  -5  -5  -4 1612.19   52.85
  -5  -5  -4 1830.92   57.41
  -5  -5  -4 1543.25   47.95
  -5  -5  -3    3.97    2.25
  -5  -5  -3    4.61    2.03
  -5  -5  -3    0.73    0.46
  -5  -5  -2  448.05   18.82
  -5  -5  -2  456.57   16.73
  -5  -5  -1   67.91   18.09
  -5  -5  -1   87.26    4.61
  -5  -5   0  260.16   13.04
  -5  -5   0  271.35   10.87
  -5  -5   1    4.07    1.91
  -5  -5   1    5.74    1.60
  -5  -5   2   74.45   16.56
  -5  -5   2   97.66    5.58
  -5  -5   3  409.22   19.52
  -5  -5   3  388.60   15.75
  -5  -5   4  549.50   26.50
  -5  -5   5   52.25   12.86
  -5  -5   5   45.18    5.69
  -5  -5   6 1086.56   41.55
  -5  -5   6 1037.67   38.27
  -5  -5   7   23.52    4.62
  -5  -5   7   23.04    3.94
  -5  -5   8 1315.24   47.07
  -5  -5   8 1090.97   38.62
  -5  -5   9   23.73    6.39
  -5  -5   9   16.49    4.82
  -5  -5  10 1178.67   56.47
  -5  -5  10 1174.71   56.25
  -5  -5  11  359.20   23.43
  -5  -5  11  388.57   25.34
  -5  -5  12  466.56   22.81
  -5  -5  12  467.67   22.52
  -5  -5  13   39.61    6.05
  -3  -5 -12 1076.82   35.62
   3   5  12  874.27   31.52
  -3  -5 -11   25.64    2.10
  -3  -5 -10  414.66   22.61
   3   5  10  353.26   20.90
  -3  -5  -9   71.62    4.07
   3   5   9   67.17    5.77
  -3  -5  -8 1465.73   64.92
   3   5   8 1432.63   65.91
  -3  -5  -7   30.16    3.21
   3   5   7   21.42    3.82
  -3  -5  -6   43.92   10.03
  -3  -5  -6   71.35   19.47
  -3  -5  -6   56.43    6.13
  -3  -5  -5  373.49   15.70
  -3  -5  -5  381.52   13.81
  -3  -5  -5  434.26   15.60
  -3  -5  -4   16.17    3.45
  -3  -5  -4   19.22    1.92
  -3  -5  -4   15.67    3.24
  -3  -5  -3   42.18   11.59
  -3  -5  -3   59.76    4.42
  -3  -5  -2  307.43   12.54
  -3  -5  -2  304.43    8.99
  -3  -5  -1   21.81    4.44
  -3  -5  -1   29.30    2.68
  -3  -5   0 1508.35   42.58
  -3  -5   0 1519.49   38.32
  -3  -5   1   12.09    2.63
  -3  -5   1   19.32    3.04
  -3  -5   2  578.14   22.55
  -3  -5   2  690.12   19.59
  -3  -5   3   79.22   17.06
  -3  -5   3  101.28    5.14
  -3  -5   4 1869.16   50.93
  -3  -5   4 1916.02   49.28
  -3  -5   5    9.20    2.93
  -3  -5   5    7.62    2.18
  -3  -5   6   51.02    5.50
  -3  -5   6   64.19    6.44
  -3  -5   7   44.85    6.07
  -3  -5   7   70.66    8.98
  -3  -5   8   14.63    3.51
  -3  -5   8   16.21    3.84
  -3  -5   9   -0.10    1.98
  -3  -5   9    0.06    2.34
  -3  -5  10  214.22   13.62
  -3  -5  10  245.24   15.46
   3   5 -11   70.55    6.75
  -3  -5  11   48.62    5.63
   3   5 -12 1551.55   84.23
  -3  -5  12 1247.99   68.65
   3   5 -13   91.31   22.99
   1   5  12  742.49   26.54
   1   5  11   16.87    3.68
  -1  -5 -10    8.41    1.92
   1   5  10    7.84    2.32
  -1  -5 -10    7.54    2.15
  -1  -5  -9   26.34    2.77
  -1  -5  -9   35.37    4.30
  -1  -5  -8  247.47    9.84
  -1  -5  -8  283.30    9.60
  -1  -5  -8  272.71   10.39
  -1  -5  -7  105.28   12.22
  -1  -5  -7  120.43    4.72
  -1  -5  -7  145.18    7.45
  -1  -5  -6  110.84    8.29
  -1  -5  -6  149.10    5.85
  -1  -5  -6  150.41    6.52
  -1  -5  -5   29.33    6.28
  -1  -5  -5   34.69    2.62
  -1  -5  -5   33.46    3.94
  -1  -5  -4 2999.72   75.10
  -1  -5  -4 3054.09   73.55
  -1  -5  -4 3106.53   75.55
  -1  -5  -3   66.46    7.96
  -1  -5  -3  109.75    4.58
  -1  -5  -2   26.68    5.88
  -1  -5  -2   35.31    4.42
  -1  -5  -1   15.90    2.87
  -1  -5  -1   18.91    2.60
  -1  -5   0 1348.41   46.92
  -1  -5   0 1481.12   49.75
  -1  -5   1    0.98    1.17
  -1  -5   1    3.54    1.49
  -1  -5   2   38.28    5.45
  -1  -5   2   45.61    5.88
  -1  -5   3  258.83   11.57
  -1  -5   3  251.22   10.47
  -1  -5   4  501.94   19.91
  -1  -5   4  447.79   17.50
  -1  -5   5  291.85   11.28
  -1  -5   5  307.71   12.15
  -1  -5   6   88.71    9.47
  -1  -5   6  100.04    6.42
  -1  -5   7   81.85    5.63
   1   5  -8 2071.61   72.83
  -1  -5   8 2004.88   70.26
   1   5  -9   11.35    4.02
  -1  -5   9    2.83    2.02
   1   5 -10   43.84   15.93
  -1  -5  10   78.79    6.88
   1   5 -11   42.74   15.13
  -1  -5  11   51.93    5.85
   1   5 -12 1301.45   71.43
  -1  -5  12 1101.02   60.98
  -1  -5  13   65.39    6.30
   1   5 -14    8.82    1.57
   1  -5 -13   64.74    5.18
   1  -5 -12  995.45   52.79
   1  -5 -12 1148.82   62.52
   1  -5 -11   58.51    5.22
   1  -5 -10   71.90    7.52
   1  -5  -9   11.09    3.49
   1  -5  -8 2536.66   86.54
   1  -5  -7   91.20    5.26
   1  -5  -6  102.01    5.67
   1  -5  -5  281.35    8.65
   1  -5  -4  481.14   15.91
   1  -5  -4  505.25   18.03
   1  -5  -3  257.56    8.78
   1  -5  -2   39.85    4.77
   1  -5  -1    2.23    0.64
   1  -5   0 1500.50   50.49
   1  -5   0 1577.86   52.63
   1  -5   1   10.04    2.99
   1  -5   1   19.39    2.75
   1  -5   2   38.77    5.56
   1  -5   2   29.24    4.14
   1  -5   3   86.75    5.07
   1  -5   3   87.66    5.28
   1  -5   4 3157.93   78.52
   1  -5   4 2767.52   69.99
  -1   5  -5   27.77    7.41
   1  -5   5   28.41    3.34
  -1   5  -6  116.72   12.61
   1  -5   6  131.51    7.09
  -1   5  -7  120.73    8.67
   1  -5   7  134.72    7.19
  -1   5  -8  268.94   12.61
   1  -5   8  267.22   11.13
  -1   5  -9   34.34    7.01
   1  -5   9   22.68    3.34
  -1   5 -10   11.80    3.39
   1  -5  10   10.84    3.01
  -1   5 -11   19.14    6.83
   1  -5  11   15.82    3.87
  -1   5 -12 1295.38   47.08
   1  -5  12  989.32   35.54
  -1   5 -13  203.77   37.48
   3  -5 -14  490.39   20.38
   3  -5 -13   80.06    6.21
   3  -5 -12 1343.80   72.65
   3  -5 -11   56.71    4.83
   3  -5 -10  232.84   12.63
   3  -5  -9    2.13    0.98
   3  -5  -8   18.84    4.51
   3  -5  -7   67.46   13.24
   3  -5  -6   69.59    8.05
   3  -5  -5    8.45    1.84
   3  -5  -4 2123.76   52.95
   3  -5  -3  109.89    4.68
   3  -5  -1   14.65    1.82
   3  -5  -1   15.84    1.97
   3  -5   0 1524.98   37.03
   3  -5   0 1452.45   35.51
   3  -5   1   23.16    1.90
   3  -5   1   26.12    2.42
   3  -5   2  295.29    8.50
   3  -5   2  274.45    9.17
  -3   5  -3   42.57    5.72
   3  -5   3   53.98    4.08
  -3   5  -4   15.49    3.30
   3  -5   4   23.12    2.33
  -3   5  -5  342.52   14.59
   3  -5   5  422.16   16.12
  -3   5  -6   60.06   14.74
   3  -5   6   55.34    5.97
   3  -5   7   21.04    3.40
  -3   5  -8 1950.06   89.39
   3  -5   8 1514.52   68.21
  -3   5  -9   84.96   22.30
   3  -5   9   44.03    7.43
  -3   5 -10  417.24   24.95
   3  -5  10  358.48   20.63
   3  -5  11   17.78    2.36
   3  -5  12  958.37   33.61
   5  -5 -13   30.61    4.35
   5  -5 -12  313.19   14.13
   5  -5 -11  262.19   16.05
   5  -5 -10  993.58   46.04
   5  -5  -9   12.20    4.60
   5  -5  -8 1236.55   40.97
   5  -5  -7   19.17    4.29
   5  -5  -6 1090.55   38.51
   5  -5  -5   45.50    7.67
   5  -5  -4  592.76   21.73
   5  -5  -3  389.45   14.98
   5  -5  -2   92.69    4.82
   5  -5   0  298.85   10.72
  -5   5  -1   77.78    7.14
   5  -5   1   85.24    3.52
  -5   5  -2  433.22   16.31
   5  -5   2  489.71   17.13
   5  -5   3    3.53    1.45
  -5   5  -4 1741.26   56.84
   5  -5   4 1823.60   56.88
  -5   5  -5    5.62    1.97
   5  -5   5    1.64    1.18
  -5   5  -6 1332.32   62.01
   5  -5   6 1379.18   61.75
   5  -5   7    3.01    1.75
  -5   5  -8  228.14   17.13
   5  -5   8  280.44   16.37
  -5   5  -9   44.80   13.72
   5  -5  10   78.29    5.21
   7  -5 -12  356.11   15.87
   7  -5 -11  179.62   16.22
   7  -5 -10 1159.19   62.78
   7  -5  -9   27.45    7.36
   7  -5  -8    0.77    1.15
   7  -5  -7   73.38   10.17
   7  -5  -6   36.90    9.56
   7  -5  -5   12.63    5.74
   7  -5  -4  431.56   15.68
   7  -5  -3    1.06    0.55
   7  -5  -2 1920.32   60.97
   7  -5  -1   82.04    8.05
   7  -5   1    4.64    1.11
  -7   5  -2  968.04   43.93
   7  -5   2 1278.53   56.59
   7  -5   3   37.36    7.07
   7  -5   4   15.01    2.69
   7  -5   5  179.58   10.42
  -7   5  -6   39.61    9.42
   7  -5   6   37.90    2.70
   7  -5   7  127.21    5.93
   7  -5   8  235.15    9.64
   9  -5 -10  895.80   32.62
   9  -5  -9  107.19    6.89
   9  -5  -8   34.42    6.56
   9  -5  -7   19.50    3.28
   9  -5  -6 1959.78   65.61
   9  -5  -5   22.35    6.99
   9  -5  -4   13.01    3.64
   9  -5  -3  152.67   17.58
   9  -5  -2  286.42   16.71
   9  -5  -1  497.38   26.40
   9  -5   0   17.08    1.53
   9  -5   0   10.18    2.38
   9  -5   1  195.94    7.38
   9  -5   1  169.40    7.95
   9  -5   2  311.95   11.11
   9  -5   4  176.86    7.14
  -6  -6  -1  307.16   18.20
  -6  -6  -1  294.31   11.45
  -6  -6   0   56.13    3.67
  -6  -6   1    2.49    1.39
  -6  -6   2 1043.80   39.16
  -6  -6   2 1053.95   35.85
  -6  -6   3   11.25    2.57
  -6  -6   3   13.75    2.37
  -6  -6   4  743.78   30.56
  -6  -6   4  645.71   23.71
  -4  -6  -5   10.44    3.21
  -4  -6  -4  518.67   21.47
  -4  -6  -4  693.19   23.60
  -4  -6  -3   83.49    4.37
  -4  -6  -3   58.22    3.48
  -4  -6  -2  595.97   24.46
  -4  -6  -2  848.03   28.87
  -4  -6  -1    5.57    1.73
  -4  -6   0  913.24   50.77
  -4  -6   0 1155.93   61.44
  -4  -6   1   19.02    5.63
  -4  -6   1   31.63    5.37
  -4  -6   2   74.57   19.34
  -4  -6   2  109.51    7.24
  -4  -6   3   54.32    5.86
  -4  -6   3   66.31    4.70
  -4  -6   4   94.64    7.93
  -4  -6   4   87.27    5.53
  -4  -6   5   12.39    3.18
  -4  -6   5   10.30    2.55
  -4  -6   6   92.22    7.25
  -4  -6   6  100.32    6.49
  -4  -6   7  258.15   12.31
  -4  -6   8  571.62   23.29
  -2  -6  -6   34.72    8.33
  -2  -6  -6   63.27    8.13
  -2  -6  -5   59.97    3.09
  -2  -6  -5   47.77    5.89
  -2  -6  -4 1108.40   59.82
  -2  -6  -4 1186.38   62.46
  -2  -6  -4  951.68   50.40
  -2  -6  -3   11.31    2.70
  -2  -6  -3   21.16    3.57
  -2  -6  -3    8.66    2.92
  -2  -6  -2   32.61    5.92
  -2  -6  -2   48.40    7.78
  -2  -6  -1  583.96   32.72
  -2  -6  -1  623.35   33.43
  -2  -6   0    9.42    2.81
  -2  -6   0   14.03    2.58
  -2  -6   1  163.13   10.79
  -2  -6   1  202.65   11.78
  -2  -6   2  101.71    7.62
  -2  -6   2  118.55    7.71
  -2  -6   3   32.73    6.12
  -2  -6   3   41.72    7.10
  -2  -6   4 1595.31   85.79
  -2  -6   4 1432.20   76.25
  -2  -6   5    5.87    2.02
  -2  -6   6  419.66   17.52
  -2  -6   6  435.53   17.68
  -2  -6   7  170.36    9.44
  -2  -6   7  207.07   10.90
  -2  -6   8 1183.26   42.29
  -2  -6   8 1270.97   45.39
  -2  -6   9    3.94    2.72
  -2  -6   9   10.04    3.88
   0  -6  -8  301.09   11.94
   0  -6  -7    6.19    2.25
   0  -6  -6   50.87   11.89
   0  -6  -5    5.60    1.57
   0  -6  -4  564.63   29.66
   0  -6  -4  473.45   25.72
   0  -6  -3   26.50    4.17
   0  -6  -2   46.75    2.72
   0  -6  -1   13.02    2.94
   0  -6  -1   23.36    4.52
   0  -6   0 2060.22   91.28
   0  -6   0 2466.53  108.59
   0  -6   1    8.88    5.24
   0  -6   1   25.89    5.20
   0  -6   2   29.92    6.12
   0  -6   2   53.84    3.86
   0  -6   3   23.30    4.53
   0  -6   3   19.30    3.54
   0  -6   4  616.64   34.37
   0  -6   4  513.35   28.41
   0  -6   5    4.76    2.33
   0  -6   5    4.10    1.78
   0  -6   6   47.79    4.38
   0  -6   7    8.86    2.19
   0  -6   8  318.38   13.98
   0  -6   8  296.89   14.23
   2  -6  -9   11.33    2.23
   2  -6  -8 1326.98   44.88
   2  -6  -6  441.09   16.22
   2  -6  -5    1.72    0.76
   2  -6  -4 1438.90   76.18
   2  -6  -3   39.75    6.55
   2  -6  -1  232.49   12.30
   2  -6  -1  225.57   11.92
   2  -6   0   11.31    1.92
   2  -6   0   13.55    2.35
   2  -6   1  628.47   33.43
   2  -6   1  769.40   40.95
   2  -6   2   41.70    6.66
   2  -6   3   12.16    2.42
   2  -6   3   12.94    2.64
   2  -6   4 1190.94   63.32
   2  -6   4 1012.73   54.32
   2  -6   5   34.42    2.93
   2  -6   5   41.35    3.82
   2  -6   6   62.23    4.09
  -2   6  -7   25.04    3.23
   4  -6  -8  561.77   20.99
   4  -6  -7  246.71   10.39
   4  -6  -6   95.08   10.44
   4  -6  -5    5.71    2.14
   4  -6  -4   78.47   11.99
   4  -6  -3   59.65    3.97
   4  -6  -2  133.56    8.58
   4  -6   1   11.08    0.81
   4  -6   1   18.12    1.70
   4  -6   2  733.47   24.04
   4  -6   2  818.63   27.38
   4  -6   3   76.32    3.59
   4  -6   4  709.38   24.02
   4  -6   5   17.44    2.10
   6  -6  -5   12.15    3.50
   6  -6  -4  656.28   23.48
   6  -6  -3    9.51    2.79
   6  -6  -2 1199.08   40.72
   0   0   0    0.00    0.00
;
_shelx_hkl_checksum              77571
loop_
_space_group_symop_operation_xyz
'x, y, z'
'-x, y, -z+1/2'
'x+1/2, y+1/2, z'
'-x+1/2, y+1/2, -z+1/2'
'-x, -y, -z'
'x, -y, z-1/2'
'-x+1/2, -y+1/2, -z'
'x+1/2, -y+1/2, z-1/2'
loop_
_atom_site_label
_atom_site_type_symbol
_atom_site_fract_x
_atom_site_fract_y
_atom_site_fract_z
_atom_site_U_iso_or_equiv
_atom_site_adp_type
_atom_site_occupancy
_atom_site_site_symmetry_order
_atom_site_calc_flag
_atom_site_refinement_flags_posn
_atom_site_refinement_flags_adp
_atom_site_refinement_flags_occupancy
Dy1 Dy 0.88648(3) 0.01023(7) 0.41576(3) 0.0076(3) Uani 1 1 d . . .
Ba1 Ba 0.66244(5) 0.49475(8) 0.33307(4) 0.0097(3) Uani 1 1 d . . .
Si1 Si 0.8806(2) -0.4678(5) 0.54261(16) 0.0080(6) Uani 1 1 d . . .
Si2 Si 1.0623(2) -0.5444(5) 0.68300(15) 0.0088(5) Uani 1 1 d . . .
O1 O 0.9803(4) -0.6448(11) 0.5994(3) 0.0122(11) Uani 1 1 d . . .
O2 O 0.7917(5) -0.4577(12) 0.5946(4) 0.0117(12) Uani 1 1 d . . .
O3 O 0.9292(4) -0.1771(11) 0.5366(3) 0.0099(11) Uani 1 1 d . . .
O4 O 0.8427(4) -0.6012(12) 0.4583(3) 0.0117(11) Uani 1 1 d . . .
O5 O 0.5000 0.1406(16) 0.2500 0.0121(16) Uani 1 2 d S T P
O6 O 0.9182(4) 0.2440(12) 0.3123(3) 0.0149(12) Uani 1 1 d . . .
O7 O 0.8353(4) -0.2698(11) 0.3078(3) 0.0119(11) Uani 1 1 d . . .
loop_
_atom_site_aniso_label
_atom_site_aniso_U_11
_atom_site_aniso_U_22
_atom_site_aniso_U_33
_atom_site_aniso_U_23
_atom_site_aniso_U_13
_atom_site_aniso_U_12
Dy1 0.0057(4) 0.0124(4) 0.0059(4) 0.00022(11) 0.0039(2) -0.00007(10)
Ba1 0.0080(4) 0.0139(4) 0.0084(5) -0.00091(14) 0.0043(3) -0.00187(13)
Si1 0.0061(10) 0.0122(11) 0.0070(13) -0.0003(8) 0.0040(9) -0.0011(7)
Si2 0.0072(11) 0.0132(10) 0.0068(12) 0.0004(9) 0.0032(9) -0.0003(8)
O1 0.011(2) 0.013(3) 0.012(3) 0.000(2) 0.003(2) 0.001(2)
O2 0.006(3) 0.019(3) 0.012(3) -0.003(2) 0.007(2) 0.000(2)
O3 0.009(2) 0.013(3) 0.008(3) -0.001(2) 0.002(2) 0.001(2)
O4 0.011(2) 0.015(3) 0.009(3) 0.001(2) 0.003(2) 0.001(2)
O5 0.012(3) 0.017(4) 0.010(4) 0.000 0.006(3) 0.000
O6 0.015(3) 0.019(3) 0.012(3) -0.003(2) 0.006(2) -0.004(2)
O7 0.007(2) 0.018(3) 0.013(3) -0.002(2) 0.006(2) 0.002(2)
loop_
_atom_type_symbol
_atom_type_description
_atom_type_scat_dispersion_real
_atom_type_scat_dispersion_imag
_atom_type_scat_source
O O 0.0106 0.0060 'International Tables Vol C Tables 4.2.6.8 and 6.1.1.4'
Si Si 0.0817 0.0704 'International Tables Vol C Tables 4.2.6.8 and 6.1.1.4'
Ba Ba -0.3244 2.2819 'International Tables Vol C Tables 4.2.6.8 and 6.1.1.4'
Dy Dy -0.1892 4.4098 'International Tables Vol C Tables 4.2.6.8 and 6.1.1.4'
loop_
_geom_angle_atom_site_label_1
_geom_angle_atom_site_label_2
_geom_angle_atom_site_label_3
_geom_angle
_geom_angle_site_symmetry_1
_geom_angle_site_symmetry_3
O2 Dy1 O4 78.9(2) 7_646 1_565
O2 Dy1 O3 91.9(2) 7_646 .
O4 Dy1 O3 95.6(2) 1_565 .
O2 Dy1 O6 111.7(2) 7_646 .
O4 Dy1 O6 83.9(2) 1_565 .
O3 Dy1 O6 155.74(19) . .
O2 Dy1 O7 77.4(2) 7_646 .
O4 Dy1 O7 140.6(2) 1_565 .
O3 Dy1 O7 116.2(2) . .
O6 Dy1 O7 76.2(2) . .
O2 Dy1 O3 159.3(2) 7_646 5_756
O4 Dy1 O3 82.52(18) 1_565 5_756
O3 Dy1 O3 80.9(2) . 5_756
O6 Dy1 O3 75.02(19) . 5_756
O7 Dy1 O3 123.19(18) . 5_756
O2 Dy1 O1 125.2(2) 7_646 5_746
O4 Dy1 O1 154.24(18) 1_565 5_746
O3 Dy1 O1 76.53(18) . 5_746
O6 Dy1 O1 93.35(19) . 5_746
O7 Dy1 O1 61.95(18) . 5_746
O3 Dy1 O1 72.07(18) 5_756 5_746
O2 Dy1 Si2 101.85(17) 7_646 5_746
O4 Dy1 Si2 165.83(15) 1_565 5_746
O3 Dy1 Si2 98.46(15) . 5_746
O6 Dy1 Si2 82.67(15) . 5_746
O7 Dy1 Si2 29.92(13) . 5_746
O3 Dy1 Si2 98.36(13) 5_756 5_746
O1 Dy1 Si2 32.07(13) 5_746 5_746
O2 Dy1 Si1 77.21(18) 7_646 .
O4 Dy1 Si1 113.28(15) 1_565 .
O3 Dy1 Si1 26.21(15) . .
O6 Dy1 Si1 162.31(15) . .
O7 Dy1 Si1 91.54(15) . .
O3 Dy1 Si1 102.20(14) 5_756 .
O1 Dy1 Si1 69.41(13) 5_746 .
Si2 Dy1 Si1 80.46(7) 5_746 .
O2 Dy1 Dy1 131.35(18) 7_646 5_756
O4 Dy1 Dy1 88.45(14) 1_565 5_756
O3 Dy1 Dy1 42.43(13) . 5_756
O6 Dy1 Dy1 113.41(14) . 5_756
O7 Dy1 Dy1 130.67(13) . 5_756
O3 Dy1 Dy1 38.43(13) 5_756 5_756
O1 Dy1 Dy1 69.08(12) 5_746 5_756
Si2 Dy1 Dy1 101.07(5) 5_746 5_756
Si1 Dy1 Dy1 65.14(5) . 5_756
O2 Dy1 Ba1 53.05(17) 7_646 .
O4 Dy1 Ba1 46.88(14) 1_565 .
O3 Dy1 Ba1 128.51(13) . .
O6 Dy1 Ba1 67.38(14) . .
O7 Dy1 Ba1 93.77(13) . .
O3 Dy1 Ba1 117.82(13) 5_756 .
O1 Dy1 Ba1 152.78(13) 5_746 .
Si2 Dy1 Ba1 122.52(5) 5_746 .
Si1 Dy1 Ba1 127.08(5) . .
Dy1 Dy1 Ba1 135.31(2) 5_756 .
O2 Dy1 Ba1 41.95(17) 7_646 1_545
O4 Dy1 Ba1 120.59(13) 1_565 1_545
O3 Dy1 Ba1 92.31(14) . 1_545
O6 Dy1 Ba1 108.85(14) . 1_545
O7 Dy1 Ba1 41.11(13) . 1_545
O3 Dy1 Ba1 156.60(13) 5_756 1_545
O1 Dy1 Ba1 84.59(12) 5_746 1_545
Si2 Dy1 Ba1 60.30(5) 5_746 1_545
Si1 Dy1 Ba1 66.84(5) . 1_545
Dy1 Dy1 Ba1 130.74(2) 5_756 1_545
Ba1 Dy1 Ba1 83.936(18) . 1_545
O7 Ba1 O2 64.86(18) 1_565 7_656
O7 Ba1 O4 69.58(17) 1_565 1_565
O2 Ba1 O4 75.53(19) 7_656 1_565
O7 Ba1 O6 77.10(17) 1_565 4_655
O2 Ba1 O6 90.24(19) 7_656 4_655
O4 Ba1 O6 146.67(16) 1_565 4_655
O7 Ba1 O7 83.85(12) 1_565 4_655
O2 Ba1 O7 142.14(19) 7_656 4_655
O4 Ba1 O7 114.31(16) 1_565 4_655
O6 Ba1 O7 61.03(17) 4_655 4_655
O7 Ba1 O5 137.42(13) 1_565 .
O2 Ba1 O5 147.76(17) 7_656 .
O4 Ba1 O5 129.29(17) 1_565 .
O6 Ba1 O5 77.12(16) 4_655 .
O7 Ba1 O5 53.98(11) 4_655 .
O7 Ba1 O3 118.91(16) 1_565 7_656
O2 Ba1 O3 55.95(18) 7_656 7_656
O4 Ba1 O3 82.08(15) 1_565 7_656
O6 Ba1 O3 114.87(15) 4_655 7_656
O7 Ba1 O3 156.33(14) 4_655 7_656
O5 Ba1 O3 102.57(11) . 7_656
O7 Ba1 O1 162.01(16) 1_565 7_646
O2 Ba1 O1 115.76(18) 7_656 7_646
O4 Ba1 O1 92.87(16) 1_565 7_646
O6 Ba1 O1 120.40(16) 4_655 7_646
O7 Ba1 O1 100.64(16) 4_655 7_646
O5 Ba1 O1 51.84(12) . 7_646
O3 Ba1 O1 59.93(16) 7_656 7_646
O7 Ba1 O2 113.77(17) 1_565 7_646
O2 Ba1 O2 128.1(3) 7_656 7_646
O4 Ba1 O2 58.54(17) 1_565 7_646
O6 Ba1 O2 141.59(18) 4_655 7_646
O7 Ba1 O2 82.87(17) 4_655 7_646
O5 Ba1 O2 70.78(18) . 7_646
O3 Ba1 O2 92.62(17) 7_656 7_646
O1 Ba1 O2 50.44(15) 7_646 7_646
O7 Ba1 Si1 92.61(13) 1_565 7_656
O2 Ba1 Si1 27.86(14) 7_656 7_656
O4 Ba1 Si1 82.01(12) 1_565 7_656
O6 Ba1 Si1 99.43(13) 4_655 7_656
O7 Ba1 Si1 160.45(13) 4_655 7_656
O5 Ba1 Si1 124.71(9) . 7_656
O3 Ba1 Si1 28.84(12) 7_656 7_656
O1 Ba1 Si1 88.65(12) 7_646 7_656
O2 Ba1 Si1 115.93(14) 7_646 7_656
O7 Ba1 Si2 110.45(13) 1_565 8_445
O2 Ba1 Si2 159.30(16) 7_656 8_445
O4 Ba1 Si2 123.01(13) 1_565 8_445
O6 Ba1 Si2 69.17(13) 4_655 8_445
O7 Ba1 Si2 26.59(11) 4_655 8_445
O5 Ba1 Si2 27.67(5) . 8_445
O3 Ba1 Si2 130.20(11) 7_656 8_445
O1 Ba1 Si2 75.27(12) 7_646 8_445
O2 Ba1 Si2 72.61(14) 7_646 8_445
Si1 Ba1 Si2 150.20(7) 7_656 8_445
O7 Ba1 Si2 23.99(13) 1_565 5_756
O2 Ba1 Si2 82.41(14) 7_656 5_756
O4 Ba1 Si2 56.03(12) 1_565 5_756
O6 Ba1 Si2 92.75(12) 4_655 5_756
O7 Ba1 Si2 75.51(11) 4_655 5_756
O5 Ba1 Si2 127.12(8) . 5_756
O3 Ba1 Si2 127.90(11) 7_656 5_756
O1 Ba1 Si2 140.33(11) 7_646 5_756
O2 Ba1 Si2 90.21(12) 7_646 5_756
Si1 Ba1 Si2 108.08(6) 7_656 5_756
Si2 Ba1 Si2 100.10(6) 8_445 5_756
O4 Si1 O2 115.8(3) . .
O4 Si1 O3 112.0(3) . .
O2 Si1 O3 109.5(3) . .
O4 Si1 O1 108.9(3) . .
O2 Si1 O1 102.9(3) . .
O3 Si1 O1 107.0(3) . .
O4 Si1 Dy1 76.1(2) . .
O2 Si1 Dy1 118.7(3) . .
O3 Si1 Dy1 37.5(2) . .
O1 Si1 Dy1 131.2(2) . .
O4 Si1 Ba1 147.3(2) . 7_656
O2 Si1 Ba1 51.3(2) . 7_656
O3 Si1 Ba1 60.2(2) . 7_656
O1 Si1 Ba1 103.5(2) . 7_656
Dy1 Si1 Ba1 85.51(6) . 7_656
O4 Si1 Ba1 99.8(2) . 7_646
O2 Si1 Ba1 57.1(2) . 7_646
O3 Si1 Ba1 147.9(2) . 7_646
O1 Si1 Ba1 55.9(2) . 7_646
Dy1 Si1 Ba1 172.51(9) . 7_646
Ba1 Si1 Ba1 95.12(7) 7_656 7_646
O6 Si2 O7 118.2(3) 5_756 5_746
O6 Si2 O5 111.1(4) 5_756 7_646
O7 Si2 O5 105.8(3) 5_746 7_646
O6 Si2 O1 114.4(3) 5_756 .
O7 Si2 O1 103.1(3) 5_746 .
O5 Si2 O1 102.6(3) 7_646 .
O6 Si2 Dy1 137.7(2) 5_756 5_746
O7 Si2 Dy1 46.8(2) 5_746 5_746
O5 Si2 Dy1 111.2(3) 7_646 5_746
O1 Si2 Dy1 56.4(2) . 5_746
O6 Si2 Ba1 126.4(2) 5_756 8_546
O7 Si2 Ba1 52.0(2) 5_746 8_546
O5 Si2 Ba1 54.54(19) 7_646 8_546
O1 Si2 Ba1 119.1(2) . 8_546
Dy1 Si2 Ba1 79.09(6) 5_746 8_546
O6 Si2 Ba1 77.8(2) 5_756 5_756
O7 Si2 Ba1 42.3(2) 5_746 5_756
O5 Si2 Ba1 136.69(14) 7_646 5_756
O1 Si2 Ba1 112.0(2) . 5_756
Dy1 Si2 Ba1 70.91(5) 5_746 5_756
Ba1 Si2 Ba1 85.37(6) 8_546 5_756
O6 Si2 Ba1 138.2(2) 5_756 7_646
O7 Si2 Ba1 103.5(2) 5_746 7_646
O5 Si2 Ba1 49.73(19) 7_646 7_646
O1 Si2 Ba1 54.3(2) . 7_646
Dy1 Si2 Ba1 74.44(5) 5_746 7_646
Ba1 Si2 Ba1 76.75(5) 8_546 7_646
Ba1 Si2 Ba1 143.38(8) 5_756 7_646
Si2 O1 Si1 125.0(4) . .
Si2 O1 Dy1 91.6(2) . 5_746
Si1 O1 Dy1 139.2(3) . 5_746
Si2 O1 Ba1 99.1(3) . 7_646
Si1 O1 Ba1 96.5(2) . 7_646
Dy1 O1 Ba1 94.38(17) 5_746 7_646
Si1 O2 Dy1 141.6(4) . 7_646
Si1 O2 Ba1 100.8(3) . 7_656
Dy1 O2 Ba1 104.2(2) 7_646 7_656
Si1 O2 Ba1 96.4(3) . 7_646
Dy1 O2 Ba1 90.7(2) 7_646 7_646
Ba1 O2 Ba1 128.1(3) 7_656 7_646
Si1 O3 Dy1 116.3(3) . .
Si1 O3 Dy1 130.4(3) . 5_756
Dy1 O3 Dy1 99.1(2) . 5_756
Si1 O3 Ba1 91.0(2) . 7_656
Dy1 O3 Ba1 121.9(2) . 7_656
Dy1 O3 Ba1 98.92(17) 5_756 7_656
Si1 O4 Dy1 130.3(3) . 1_545
Si1 O4 Ba1 130.6(3) . 1_545
Dy1 O4 Ba1 97.11(19) 1_545 1_545
Si2 O5 Si2 144.7(6) 8_445 7_646
Si2 O5 Ba1 104.48(17) 8_445 2_655
Si2 O5 Ba1 97.79(17) 7_646 2_655
Si2 O5 Ba1 97.79(17) 8_445 .
Si2 O5 Ba1 104.48(17) 7_646 .
Ba1 O5 Ba1 101.0(3) 2_655 .
Si2 O6 Dy1 122.5(3) 5_756 .
Si2 O6 Ba1 121.3(3) 5_756 4_645
Dy1 O6 Ba1 111.9(2) . 4_645
Si2 O7 Dy1 103.3(3) 5_746 .
Si2 O7 Ba1 113.7(3) 5_746 1_545
Dy1 O7 Ba1 103.4(2) . 1_545
Si2 O7 Ba1 101.4(3) 5_746 4_645
Dy1 O7 Ba1 109.9(2) . 4_645
Ba1 O7 Ba1 123.6(2) 1_545 4_645
loop_
_geom_bond_atom_site_label_1
_geom_bond_atom_site_label_2
_geom_bond_distance
_geom_bond_site_symmetry_2
Dy1 O2 2.268(6) 7_646
Dy1 O4 2.272(6) 1_565
Dy1 O3 2.274(5) .
Dy1 O6 2.300(6) .
Dy1 O7 2.351(6) .
Dy1 O3 2.468(5) 5_756
Dy1 O1 2.615(5) 5_746
Dy1 Si2 3.139(3) 5_746
Dy1 Si1 3.349(3) .
Dy1 Dy1 3.6121(11) 5_756
Dy1 Ba1 3.8352(8) .
Dy1 Ba1 3.9430(7) 1_545
Ba1 O7 2.666(5) 1_565
Ba1 O2 2.718(7) 7_656
Ba1 O4 2.821(5) 1_565
Ba1 O6 2.821(6) 4_655
Ba1 O7 2.833(6) 4_655
Ba1 O5 2.897(5) .
Ba1 O3 2.968(5) 7_656
Ba1 O1 3.022(6) 7_646
Ba1 O2 3.065(7) 7_646
Ba1 Si1 3.420(3) 7_656
Ba1 Si2 3.524(3) 8_445
Ba1 Si2 3.624(3) 5_756
Si1 O4 1.597(6) .
Si1 O2 1.627(7) .
Si1 O3 1.650(6) .
Si1 O1 1.690(6) .
Si1 Ba1 3.420(3) 7_656
Si1 Ba1 3.627(3) 7_646
Si2 O6 1.581(6) 5_756
Si2 O7 1.609(6) 5_746
Si2 O5 1.651(4) 7_646
Si2 O1 1.667(6) .
Si2 Dy1 3.139(3) 5_746
Si2 Ba1 3.523(3) 8_546
Si2 Ba1 3.624(2) 5_756
Si2 Ba1 3.676(3) 7_646
O1 Dy1 2.615(5) 5_746
O1 Ba1 3.022(6) 7_646
O2 Dy1 2.268(6) 7_646
O2 Ba1 2.718(7) 7_656
O2 Ba1 3.065(7) 7_646
O3 Dy1 2.469(5) 5_756
O3 Ba1 2.968(5) 7_656
O4 Dy1 2.272(6) 1_545
O4 Ba1 2.821(5) 1_545
O5 Si2 1.651(4) 8_445
O5 Si2 1.651(4) 7_646
O5 Ba1 2.897(5) 2_655
O6 Si2 1.581(6) 5_756
O6 Ba1 2.821(6) 4_645
O7 Si2 1.609(6) 5_746
O7 Ba1 2.666(5) 1_545
O7 Ba1 2.833(6) 4_645
