#------------------------------------------------------------------------------
#$Date: 2019-12-26 20:55:13 +0200 (Thu, 26 Dec 2019) $
#$Revision: 246091 $
#$URL: file:///home/coder/svn-repositories/cod/cif/2/31/17/2311705.cif $
#------------------------------------------------------------------------------
#
# This file is available in the Crystallography Open Database (COD),
# http://www.crystallography.net/. The original data for this entry
# were provided by IUCr Journals, http://journals.iucr.org/.
#
# The file may be used within the scientific community so long as
# proper attribution is given to the journal article from which the
# data were obtained.
#
data_2311705
loop_
_publ_author_name
'Huband, S.'
'Keeble, D. S.'
'Zhang, N.'
'Glazer, A. M.'
'Bartasyte, A.'
'Thomas, P. A.'
_publ_section_title
;
 Crystallographic and optical study of
 LiNb<sub>1&#x2005;-&#x2005;x</sub>Ta<sub>x</sub>O<sub>3</sub>.
;
_journal_issue                   'Pt 3'
_journal_name_full
'Acta crystallographica Section B, Structural science, crystal engineering and materials'
_journal_page_first              498
_journal_page_last               506
_journal_paper_doi               10.1107/S2052520617004711
_journal_volume                  73
_journal_year                    2017
_chemical_formula_moiety         'Li Nb0.70 O3 Ta0.30'
_chemical_formula_sum            'Li Nb0.7 O3 Ta0.3'
_chemical_formula_weight         174.26
_chemical_name_common            'lithium niobate tantalate'
_chemical_name_systematic        'lithium niobate tantalate'
_space_group_crystal_system      trigonal
_space_group_IT_number           161
_space_group_name_Hall           'R 3 -2"c'
_space_group_name_H-M_alt        'R 3 c :H'
_atom_sites_solution_primary     other
_atom_sites_solution_secondary   other
_audit_creation_method
;
Olex2 1.2
(compiled 2016.09.09 svn.r3337 for OlexSys, GUI svn.r5227)
Dolomanov, O.V., Bourhis, L.J., Gildea, R.J, Howard, J.A.K. & Puschmann, H.
 (2009), J. Appl. Cryst. 42, 339-341.
Sheldrick, G.M. (2015). Acta Cryst. C71, 3-8.
;
_cell_angle_alpha                90
_cell_angle_beta                 90
_cell_angle_gamma                120
_cell_formula_units_Z            6
_cell_length_a                   5.1450(10)
_cell_length_b                   5.1450(10)
_cell_length_c                   13.841(5)
_cell_measurement_reflns_used    3520
_cell_measurement_temperature    293(2)
_cell_measurement_theta_max      37.2180
_cell_measurement_theta_min      4.3980
_cell_volume                     317.30(14)
_computing_cell_refinement       'CrysAlisPro 1.171.38.43d (Rigaku OD, 2015)'
_computing_data_collection       'CrysAlisPro 1.171.38.43d (Rigaku OD, 2015)'
_computing_data_reduction        'CrysAlisPro 1.171.38.43d (Rigaku OD, 2015)'
_computing_molecular_graphics    'Olex2 (Dolomanov et al., 2009)'
_computing_publication_material  'Olex2 (Dolomanov et al., 2009)'
_computing_structure_refinement  'ShelXL (Sheldrick, 2015)'
_diffrn_ambient_temperature      293(2)
_diffrn_detector_area_resol_mean 10.2833
_diffrn_measured_fraction_theta_full 1.000
_diffrn_measured_fraction_theta_max 1.000
_diffrn_measurement_device       'four-circle diffractometer'
_diffrn_measurement_device_type  'Xcalibur, Ruby, Gemini'
_diffrn_measurement_method       '\w scans'
_diffrn_radiation_monochromator  graphite
_diffrn_radiation_type           MoK\a
_diffrn_radiation_wavelength     0.71073
_diffrn_reflns_av_R_equivalents  0.0573
_diffrn_reflns_limit_h_max       8
_diffrn_reflns_limit_h_min       -8
_diffrn_reflns_limit_k_max       8
_diffrn_reflns_limit_k_min       -8
_diffrn_reflns_limit_l_max       23
_diffrn_reflns_limit_l_min       -23
_diffrn_reflns_number            3965
_diffrn_reflns_theta_full        25.242
_diffrn_reflns_theta_max         37.383
_diffrn_reflns_theta_min         5.443
_exptl_absorpt_coefficient_mu    19.233
_exptl_absorpt_correction_T_max  0.136
_exptl_absorpt_correction_T_min  0.038
_exptl_absorpt_correction_type   analytical
_exptl_absorpt_process_details
;
CrysAlisPro 1.171.38.43d (Rigaku Oxford Diffraction, 2015)
Analytical numeric absorption correction using a multifaceted crystal
   model based on expressions derived by R.C. Clark & J.S. Reid.
(Clark, R. C. & Reid, J. S. (1995). Acta Cryst. A51, 887-897)
Empirical absorption correction using spherical harmonics,
 implemented in SCALE3 ABSPACK scaling algorithm.
;
_exptl_crystal_colour            'clear green'
_exptl_crystal_density_diffrn    5.472
_exptl_crystal_description       block
_exptl_crystal_F_000             466
_exptl_crystal_size_max          0.259
_exptl_crystal_size_mid          0.196
_exptl_crystal_size_min          0.188
_refine_diff_density_max         1.714
_refine_diff_density_min         -1.541
_refine_ls_abs_structure_details
;
 Flack x determined using 178 quotients [(I+)-(I-)]/[(I+)+(I-)]
 (Parsons, Flack and Wagner, Acta Cryst. B69 (2013) 249-259).
;
_refine_ls_abs_structure_Flack   0.05(8)
_refine_ls_extinction_coef       0.113(8)
_refine_ls_extinction_expression Fc^*^=kFc[1+0.001xFc^2^\l^3^/sin(2\q)]^-1/4^
_refine_ls_extinction_method     'SHELXL-2014/7 (Sheldrick 2014'
_refine_ls_goodness_of_fit_ref   1.214
_refine_ls_hydrogen_treatment    undef
_refine_ls_matrix_type           full
_refine_ls_number_parameters     17
_refine_ls_number_reflns         375
_refine_ls_number_restraints     1
_refine_ls_restrained_S_all      1.212
_refine_ls_R_factor_all          0.0247
_refine_ls_R_factor_gt           0.0246
_refine_ls_shift/su_max          0.000
_refine_ls_shift/su_mean         0.000
_refine_ls_structure_factor_coef Fsqd
_refine_ls_weighting_details
'w=1/[\s^2^(Fo^2^)+(0.0415P)^2^] where P=(Fo^2^+2Fc^2^)/3'
_refine_ls_weighting_scheme      calc
_refine_ls_wR_factor_gt          0.0607
_refine_ls_wR_factor_ref         0.0609
_reflns_number_gt                367
_reflns_number_total             375
_reflns_threshold_expression     'I > 2\s(I)'
_cod_data_source_file            bp5094sup1.cif
_cod_data_source_block           LNT30
_cod_depositor_comments
;
The following automatic conversions were performed:

data item '_atom_sites_solution_primary' value 'Other' was changed to
'other' in accordance with the
/home/saulius/struct/COD-crude-data/automatic-downloads/DataCite-retrospective/IUCr/depositions/lib/dictionaries/cif_core.dic
dictionary named 'cif_core.dic' version 2.4.2 last updated on
2011-04-26.

data item '_atom_sites_solution_secondary' value 'Other' was changed
to 'other' in accordance with the
/home/saulius/struct/COD-crude-data/automatic-downloads/DataCite-retrospective/IUCr/depositions/lib/dictionaries/cif_core.dic
dictionary named 'cif_core.dic' version 2.4.2 last updated on
2011-04-26.

Automatic conversion script
Id: cif_fix_values 7556 2019-12-06 15:28:31Z antanas 
;
_cod_original_cell_volume        317.30(17)
_cod_original_sg_symbol_H-M      'R 3 c'
_cod_original_formula_sum        'Li Nb0.70 O3 Ta0.30'
_cod_database_code               2311705
_shelx_space_group_comment
;
The symmetry employed for this shelxl refinement is uniquely defined
by the following loop, which should always be used as a source of
symmetry information in preference to the above space-group names.
They are only intended as comments.
;
_shelx_hkl_file
;
   0   0 -21 58.9382 28.5632  13
   0   0 -21-41.9059 132.980   4
   0   0 -18 272705. 6763.02   4
   0   0 -15 15.2402 44.2634   3
   0   0 -15 48.9020 50.6485  14
   0   0 -15 5.14501 25.7011   4
   0   0 -12 379980. 6313.67   4
   0   0 -12 386948. 4978.15   3
   0   0  -9 14.6002 25.5663   3
   0   0  -9 36.9715 44.0494   4
   0   0  -6 261892. 2860.37   3
   0   0  -6 263270. 3672.01   4
   0   0  -3 17.8868 18.4069   4
   0   0  -3 70.4295 32.0124   3
   0   0  -3 112.427 34.0177  11
   0   0   3 54.5233 21.9708  11
   0   0   3 9.12362 14.2343  10
   0   0   3 18.6153 20.5267   5
   0   0   6 349718. 2418.98  11
   0   0   6 340922. 3674.62   7
   0   0   9 11.8306 36.1510  12
   0   0   9-8.21219 53.6301   5
   0   0   9 28.9127 28.5782   7
   0   0   9 11.3805 15.3017  11
   0   0  12 383892. 5590.36  12
   0   0  12 379390. 6400.24   5
   0   0  15 18.6009 22.1112  12
   0   0  15 9.90823 61.8752   5
   0   0  18 295275. 6462.39  12
   0   0  18 294335. 6819.90   9
   0   0  21 36.7340 86.6492   9
   0   0  21 77.1901 106.944  12
  -1   0 -22 132849. 5358.57   4
   0   1 -22 136362. 4480.92  13
   1  -1 -22 120388. 4920.17   4
   0   1 -22 133806. 5447.37   4
   1  -1 -19 123.038 144.488   4
   0   1 -19 101.896 121.689  13
  -1   0 -19 3.42799 56.6621   4
  -1   0 -16 247108. 4779.73  14
   0   1 -16 250299. 5167.22  13
   0   1 -16 253127. 5352.09   3
   1  -1 -16 233119. 5625.28   4
  -1   0 -16 234358. 6016.97   4
   0   1 -16 235241. 6098.13   4
   0   1 -13-8.48824 34.0794   3
  -1   0 -13 16.2945 57.7449  14
   0   1 -13 17.5953 75.2301   4
   0   1 -13 964.143 290.870  13
   1  -1 -13 93.2191 61.1806   3
  -1   0 -13 46.6143 88.6042   4
   0   1 -13 49.4519 49.9956  14
   1  -1 -13 111.399 106.437   4
   1  -1 -13 846.005 188.042  14
   0   1 -10 464351. 6890.33   4
  -1   0 -10 439497. 6551.14   4
   1  -1 -10 472240. 6510.42  10
   1  -1 -10 388674. 3541.98  14
   1  -1 -10 429431. 3897.08   3
   0   1 -10 410803. 5686.75   3
   1  -1 -10 396955. 5434.50   4
  -1   0 -10 390468. 4831.22  14
   1  -1  -7 43.0421 53.9007  10
   0   1  -7 62.1805 48.9296  14
   1  -1  -7 72.0048 56.9948   4
   0   1  -7 21.9619 22.9138  13
  -1   0  -7 142.233 85.6912  14
   1  -1  -7 119.899 55.2580   3
  -1   0  -7 176.621 110.337   4
   0   1  -7-0.07829 26.3893   3
   0   1  -4 806350. 5075.22   2
   1  -1  -4 677728. 4397.65  11
   0   1  -4 671208. 4336.05  14
   0   1  -4 740311. 3598.13   7
  -1   0  -1 198.837 60.7123   6
   1  -1  -1 3275.44 297.577  14
  -1   0  -1 19.4340 12.9426  13
   1  -1  -1 128.075 61.9256  12
   1  -1  -1 42.2361 31.8944   8
   1  -1  -1 6.92617 7.71022   1
   0   1  -1 29.8079 32.4489   3
   0   1  -1 9.76434 21.1337  11
   1  -1  -1 86.2072 48.4424   9
   0   1  -1 3608.52 310.121   2
  -1   0  -1 1453.91 187.318   8
   1  -1   2 479204. 4397.55   5
   1  -1   2 592570. 4288.87   7
  -1   0   2 567263. 3547.59   5
   0   1   2 472952. 3904.26  11
  -1   0   2 668172. 5759.63   8
   0   1   2 485301. 2634.69   3
   0   1   2 487235. 3806.45  10
   1  -1   2 462566. 2291.69  13
  -1   0   2 524880. 2950.06  11
   1  -1   2 567923. 3707.25   4
   0   1   2 513865. 4137.62   7
   0   1   2 458084. 2986.89   9
   0   1   5 83.3024 48.3313  12
  -1   0   5 203.299 114.130   8
   1  -1   5 20.2098 38.9161   5
   1  -1   5 57.3111 58.7634   7
   0   1   5 0.06390 23.0622   7
  -1   0   5 100.582 64.7770   5
   1  -1   8 472513. 4951.15   7
   1  -1   8 491009. 4478.16  11
  -1   0   8 434954. 5369.36   5
   0   1   8 444783. 5505.04   7
  -1   0   8 443818. 5815.11   9
   0   1   8 476481. 4938.86  12
   1  -1   8 409959. 5599.77   5
   0   1   8 425867. 2676.14   3
   0   1   8 438501. 4353.66  11
  -1   0  11 34.9850 70.3629   9
   0   1  11 11.7829 37.0192   7
  -1   0  11 10.4752 17.9651   5
   1  -1  11 214.654 93.0843  11
   1  -1  11 176.908 145.199   5
   1  -1  11 53.4052 76.7489   7
  -1   0  11 25.2905 53.5106  12
   0   1  11 37.8208 58.7354  12
   0   1  11 23.3073 28.4185  11
   1  -1  14 353133. 3761.88  11
   1  -1  14 316401. 5636.75   7
   1  -1  14 292021. 6593.50   5
  -1   0  14 315921. 6003.35  12
  -1   0  14 299604. 6025.14   9
  -1   0  14 306277. 6295.67   5
   0   1  14 344157. 4255.05  11
   0   1  14 336651. 5625.67  12
   0   1  14 311939. 5999.35   9
  -1   0  17 36.4622 103.208  12
   1  -1  17 17.0785 26.1345  12
   1  -1  17 56.8812 98.9737   5
   1  -1  17 12.4312 70.5895   7
  -1   0  17 330.364 210.831   5
   0   1  17 85.4906 130.446   9
  -1   0  17 110.266 122.264   9
   0   1  17 83.8786 115.730  12
  -1   0  20 171072. 5488.13   9
   1  -1  20 156765. 5872.38   5
   1  -1  20 167580. 5171.82  12
   0   1  20 188138. 4914.99  12
  -1   0  20 172421. 5173.11  12
   0   1  20 179538. 5597.54   9
   1  -1  23-75.5333 116.156  12
  -1   0  23 20.1832 113.676  12
   0   1  23 103.155 153.268   9
   1   0 -23 218.098 241.000   4
   1   0 -23 39.7562 97.2505  13
   0  -1 -23 164.093 236.578   4
  -1   1 -20 173434. 5895.35   4
   1   0 -20 166354. 5674.99   4
   1   0 -20 176247. 5037.92  13
   0  -1 -20 166054. 5592.03   4
  -1   1 -17 141.391 113.162  14
  -1   1 -17 35.0824 86.8890   4
   0  -1 -17 38.5567 55.8412  14
  -1   1 -17 21.7007 58.6377  13
   0  -1 -17 1.03167 12.4114   4
  -1   1 -14 292926. 6287.56   4
  -1   1 -14 337061. 5255.91  14
  -1   1 -14 354095. 5525.35  13
   0  -1 -14 319474. 4781.93  14
  -1   1 -14 306092. 5261.25   3
   1   0 -14 307794. 6386.18   4
   1   0 -14 332972. 5356.64   3
   0  -1 -14 316329. 6356.04   4
  -1   1 -11 11.4325 31.7190  14
   1   0 -11 45.4224 32.9611  14
   0  -1 -11 28.7971 49.1710  14
   0  -1 -11 106.250 112.419   4
   1   0 -11 37.5341 38.4727   4
  -1   1 -11 48.1006 71.2616   3
   1   0 -11 86.9426 81.9209   3
  -1   1 -11 3.21228 45.5436   4
   0  -1  -8 394985. 4682.00  14
  -1   1  -8 414943. 5592.13   4
  -1   1  -8 412568. 5106.56   3
  -1   1  -8 458931. 4846.70  14
   1   0  -8 516129. 2522.89  14
   1   0  -8 473954. 5064.99  10
   1   0  -8 464241. 5296.88   3
   0  -1  -8 439267. 5422.32   4
  -1   1  -5 35.5345 49.6438   3
  -1   1  -5 24.4782 28.2459   4
  -1   1  -5 30.0705 40.5281  14
   0  -1  -5 13.0370 20.4591   4
   1   0  -5 90.8746 69.1989   3
  -1   1  -5 75.8909 43.2979  13
   1   0  -2 522879. 4173.35  12
   1   0  -2 502213. 2901.70  11
   1   0  -2 583876. 5393.04   3
   0  -1  -2 467540. 3942.79   1
   1   0  -2 739871. 5975.78   9
  -1   1  -2 598505. 4428.82   3
   0  -1  -2 609765. 3821.61   6
  -1   1  -2 548141. 3716.30   4
  -1   1   1 139.417 53.2339   8
   0  -1   1 55.9154 32.0611   8
   0  -1   1 139.876 62.8161   1
   1   0   1 19.1086 23.2434   7
  -1   1   1 208.807 78.6423   6
   1   0   1 19.6666 19.3646  14
   1   0   1 18.0793 17.5124  12
   1   0   1 53.3932 39.4514  11
   0  -1   1 28.3780 29.1734  13
  -1   1   4 565920. 6479.75   6
   1   0   4 515182. 3957.73   5
   0  -1   4 601529. 4089.21   2
   0  -1   4 529042. 3040.68  11
   0  -1   4 622048. 4946.87   8
   1   0   4 519148. 4211.54   7
   0  -1   4 543037. 2928.17   7
   0  -1   4 636012. 6163.02   5
  -1   1   4 542941. 4854.05   2
   0  -1   4 603395. 4388.38  14
  -1   1   7 25.2519 34.6256   2
   0  -1   7 55.9768 32.3065  11
   1   0   7 43.2915 59.5911   7
   0  -1   7 34.1213 57.1391   5
  -1   1   7 11.7622 41.1197  12
   1   0   7 27.8541 45.9127   5
   1   0   7 47.9057 48.1281  11
   0  -1  10 453599. 2208.39  11
  -1   1  10 437465. 6318.23   9
   1   0  10 410391. 5757.17   5
   0  -1  10 491565. 5369.80   7
   0  -1  10 409993. 6441.48   5
  -1   1  10 468150. 5956.18  12
   1   0  10 432112. 4657.77  11
   1   0  10 430786. 5696.63   7
   0  -1  10 409596. 1877.00  11
   1   0  13 8.42434 13.5352   5
  -1   1  13 29.7243 67.9152  12
   0  -1  13 93.5933 116.872   5
   1   0  13 342.572 188.130   7
   0  -1  13 14.3396 25.3256  12
   1   0  13 6.33646 20.7879  11
  -1   1  13 139.711 135.422   9
   1   0  13 105.510 96.9468  12
   0  -1  13 65.0216 72.0106   7
   1   0  16 234447. 5080.80  12
   0  -1  16 241884. 6465.97   5
   0  -1  16 245130. 5483.40  12
  -1   1  16 246658. 5297.39  12
  -1   1  16 243795. 5759.19   9
   1   0  16 245504. 5591.04   7
   0  -1  19-66.5555 112.339   5
   0  -1  19-23.2984 62.3636   9
   0  -1  19 43.6074 96.5144  12
  -1   1  19 36.9275 104.427  12
   1   0  19 56.6973 86.9064  12
  -1   1  22 126938. 4869.58   9
   0  -1  22 133549. 5036.46  12
   0  -1  22 135230. 5221.42   9
   1   0  22 131831. 5113.74   9
  -1   1  22 128167. 4370.39  12
   2  -2 -20 138541. 5090.52   1
   0   2 -20 141030. 4568.15  13
   2  -2 -20 145476. 5024.06   4
  -2   0 -20 132565. 5184.11   4
   0   2 -20 140615. 5586.43   4
   0   2 -20 147714. 5011.57   3
   2  -2 -17 80.6232 108.714   1
  -2   0 -17 7.26422 51.9830  14
   0   2 -17 25.0079 75.8252   3
   0   2 -17 59.6514 124.219   4
  -2   0 -17 34.5086 87.4118   4
   0   2 -17 310.454 200.428  13
   2  -2 -17 30.5459 63.3962   4
  -2   0 -14 296565. 6753.46   4
   2  -2 -14 291724. 6036.45   1
   0   2 -14 297894. 7052.68   4
   0   2 -14 303485. 6486.85   3
   2  -2 -14 301901. 5612.00   4
   0   2 -14 310764. 5763.75  13
   2  -2 -14 294289. 6145.02  10
   2  -2 -11 39.9892 73.9726  10
  -2   0 -11 29.3759 38.3919  14
   0   2 -11-3.33503 19.1273   3
   2  -2 -11-0.09601 28.2912   4
   2  -2 -11 43.2750 71.4489   1
  -2   0 -11 27.9747 48.4825   4
   0   2 -11 168.300 91.8214  14
   0   2 -11 199.741 127.711  13
   2  -2  -8 427154. 4464.29   4
   0   2  -8 468303. 6732.24   3
  -2   0  -8 466122. 6682.50   4
   0   2  -8 528673. 5995.37  13
   2  -2  -8 475344. 6857.28  10
  -2   0  -8 405431. 5647.84  14
   2  -2  -8 437075. 3992.45   3
   2  -2  -8 516194. 6691.97   1
  -2   0  -5 159.039 102.500   4
   2  -2  -5 27.0885 48.7358   1
   2  -2  -5 94.0350 44.7888   4
   0   2  -5 8.04582 35.3413   3
   0   2  -2 380552. 4642.09   3
  -2   0  -2 335513. 4108.24   8
  -2   0  -2 300700. 3266.91   6
  -2   0  -2 335999. 2611.67   1
   0   2  -2 391196. 4732.53  11
   2  -2  -2 331323. 3970.75   1
  -2   0  -2 361150. 2406.97  13
  -2   0   1 102.810 61.9493   9
  -2   0   1 252.276 83.8073  14
   2  -2   1 22.0414 27.1583   4
   0   2   1 24.8855 33.7652   3
   2  -2   1 12.8413 20.9193   1
  -2   0   1 38.4825 45.0904  12
   0   2   1 122.516 91.2430  11
   0   2   1 39.4789 72.8912   2
  -2   0   1 62.1999 50.9174   6
  -2   0   1 10.7143 24.2291   8
   2  -2   1 19.0047 15.8144   8
   2  -2   1 65.0863 54.6784   7
   0   2   4 529763. 4394.07   9
   0   2   4 546104. 6779.17   2
  -2   0   4 649048. 6555.36   9
  -2   0   4 588727. 3109.93  14
  -2   0   4 698032. 6634.00  12
   0   2   4 546130. 5872.24  11
  -2   0   4 735322. 8260.08   6
   2  -2   4 622040. 6943.73   5
  -2   0   4 766698. 7889.88   8
   2  -2   4 666197. 6057.12   7
  -2   0   4 652390. 4782.96   5
  -2   0   7 28.4382 29.5280   9
   0   2   7 70.5398 64.0022   9
  -2   0   7 11.1648 58.0057  12
  -2   0   7 53.2977 60.8787   5
   2  -2   7 26.6417 22.4968   5
   0   2   7 151.637 101.232  11
   0   2   7 59.1950 47.8677  12
   0   2  10 320887. 4789.33  11
   0   2  10 413968. 4494.04  12
   2  -2  10 395221. 5782.11  11
  -2   0  10 403215. 6484.97  12
   2  -2  10 331516. 6170.32   5
  -2   0  10 352067. 6616.65   9
   0   2  10 342239. 5398.83   9
  -2   0  10 396753. 7129.07   8
   2  -2  10 360733. 5284.44   7
  -2   0  10 351066. 5208.47   5
   2  -2  13-0.56905 48.2057  11
  -2   0  13 6.53781 28.1621   9
  -2   0  13-7.97359 37.8875  12
   0   2  13 24.3755 49.8676  11
   2  -2  13 56.9808 62.5403   5
   0   2  13 9.74231 14.4262  12
  -2   0  13 103.702 121.222   5
   0   2  13 19.1180 61.5451   9
   2  -2  13 57.3894 68.9502   7
  -2   0  16 203439. 5630.73   9
   0   2  16 238028. 5867.01   2
   2  -2  16 199895. 6230.14   5
   2  -2  16 221366. 5317.83   7
   0   2  16 221033. 5507.18   9
  -2   0  16 219584. 5449.87  12
   0   2  16 238596. 4555.03  12
  -2   0  16 207258. 5174.18   5
  -2   0  19 7.47704 43.4894   5
   2  -2  19-73.5366 127.163   5
   2  -2  19-173.588 163.470   7
  -2   0  19 64.1181 104.201   9
  -2   0  19 88.2945 118.805  12
   2  -2  19 103.064 88.2094  12
   0   2  19 33.6262 61.0479   2
   0   2  19 16.5765 12.9495   9
  -2   0  22 145353. 4937.29  12
  -2   0  22 146529. 5426.58   9
   0   2  22 148983. 5281.58   9
   2  -2  22 145322. 5124.49  12
  -1  -1 -21 7210.16 1266.37   1
  -2   1 -21 7566.35 1283.78   4
   2  -1 -21 5717.91 1046.50   4
  -1  -1 -21 7145.66 1205.43   4
   1   1 -21 6281.60 963.408  13
   1   1 -21 6319.98 1173.76   4
   1  -2 -21 6661.54 1110.45   4
  -1   2 -21 7280.02 1280.60   4
   1  -2 -21 6472.16 1157.92   1
   1  -2 -18 196806. 5488.72   4
  -1   2 -18 199351. 4863.82  13
   1  -2 -18 180960. 5633.29   1
  -1   2 -18 189916. 5167.07   3
   1   1 -18 185873. 6033.63   4
   1   1 -18 186090. 4882.22  13
  -1  -1 -18 194482. 5976.43   4
   2  -1 -18 172396. 5263.59   4
  -2   1 -18 187590. 5910.24   4
  -1   2 -18 189852. 6048.94   4
  -1  -1 -18 198060. 4809.36  14
   1   1 -18 198300. 5222.33   3
  -2   1 -18 199700. 5016.26  14
  -1  -1 -15 14501.4 1495.90   4
  -2   1 -15 15816.8 1562.62   4
   1  -2 -15 13293.9 1380.25   1
   1   1 -15 15483.4 1385.50   3
   1  -2 -15 15534.4 1037.85  14
   2  -1 -15 15479.9 1058.80   3
  -1   2 -15 14689.1 1176.19  13
   1   1 -15 14313.0 1255.26  13
   1   1 -15 14456.9 1547.61   4
  -1   2 -15 14124.2 1491.30   4
   2  -1 -15 13616.1 1325.95   4
  -2   1 -15 15118.9 1264.64  14
  -1   2 -15 15875.9 1437.15   3
  -1   2 -15 17174.6 1184.26  14
   1  -2 -15 15901.2 1377.93   4
  -1  -1 -15 15530.9 1274.80  14
  -2   1 -15 17579.4 1136.99  13
  -1  -1 -12 281248. 4989.12  14
   1   1 -12 324269. 5441.59  13
  -1   2 -12 304485. 6270.20   4
  -2   1 -12 315273. 6278.27   4
  -1  -1 -12 339587. 6369.33   4
  -1   2 -12 355976. 5166.86  14
   2  -1 -12 306650. 5695.08   4
   1   1 -12 323925. 5960.27   3
  -1   2 -12 334040. 4928.63  13
   2  -1 -12 335676. 6243.87  10
  -2   1 -12 361590. 4353.17  13
   1  -2 -12 317768. 4647.81  14
   1  -2 -12 326439. 6176.16   1
  -2   1 -12 298186. 5031.70  14
  -1   2 -12 294516. 5732.84   3
   1  -2 -12 314779. 5273.56   4
   2  -1 -12 338228. 4862.50   3
   2  -1  -9 43065.5 685.625  14
  -2   1  -9 46409.2 2130.90   4
   1  -2  -9 48996.1 2123.22   1
   1   1  -9 49653.4 2215.47   3
  -2   1  -9 44967.8 1783.41  14
   1  -2  -9 45481.6 1660.37   4
  -1  -1  -9 49757.1 2045.94  14
   2  -1  -9 45815.3 1789.32   3
  -1  -1  -9 45712.7 1995.66   4
  -1   2  -9 43715.5 1550.58  13
   1  -2  -9 52557.7 2196.87  10
   2  -1  -9 37669.9 531.698  14
  -1   2  -9 42789.5 2051.72   4
  -1   2  -9 49654.4 1842.42  14
   2  -1  -9 50920.8 2199.75  10
   1   1  -9 46292.7 1917.93  13
  -1   2  -9 43966.9 1993.76   3
   2  -1  -9 52834.0 1221.03  11
  -1   2  -6 560716. 6430.21   3
  -1  -1  -6 541414. 5895.63   4
   2  -1  -6 640020. 6825.90   3
   1   1  -6 613993. 7471.95   3
  -1   2  -6 687756. 5312.51  13
  -1  -1  -6 527053. 5381.78   1
  -1   2  -6 743663. 6990.55  14
  -2   1  -6 617992. 6929.21   4
   1  -2  -6 593817. 4592.80   4
  -2   1  -6 552470. 5656.32  14
   2  -1  -6 615527. 3430.40  14
  -1   2  -6 813731. 7428.43   2
   1  -2  -6 630722. 6738.05   1
   1   1  -6 695151. 3754.63   7
  -2   1  -6 686924. 2999.13  13
   1   1  -3 158426. 1948.98   2
  -2   1  -3 137051. 2621.74   4
   1  -2  -3 145161. 1689.29   3
   1   1  -3 154494. 3380.33   3
   2  -1  -3 137479. 1931.40  14
  -2   1  -3 138493. 2074.58   8
  -1   2  -3 143387. 1168.61   8
  -1   2  -3 138730. 2819.73   3
   2  -1  -3 158093. 2223.12   2
   2  -1  -3 156402. 1886.29   5
  -1   2  -3 157765. 3258.67   2
   1   1  -3 161846. 2432.90  11
  -1   2  -3 147219. 2945.12  14
  -2   1  -3 167391. 2212.45   5
  -1  -1  -3 142189. 2393.57   1
   1  -2  -3 147340. 2878.27   1
   2  -1  -3 138929. 2176.03   1
  -1  -1   0 433484. 3202.35   6
  -1  -1   0 390173. 3959.32   8
  -2   1   0 389230. 3840.61   6
  -2   1   0 402901. 2270.05   1
  -1  -1   0 407297. 2648.28   7
  -1  -1   0 439228. 3573.43   1
  -1   2   0 493877. 4552.50   3
  -1   2   0 433011. 4849.00   2
   1   1   0 409736. 2759.34   7
  -2   1   0 350123. 4004.40   8
   2  -1   0 314429. 4383.61   7
   1   1   0 368316. 4719.03   3
   1   1   0 521954. 4156.16   1
   1   1   0 414932. 4155.88  11
  -2   1   0 332305. 3630.73   2
   1  -2   0 435052. 4431.42   1
  -1  -1   0 437627. 3140.13  12
   1  -2   3 153188. 2297.08   7
  -2   1   3 159672. 3324.53   8
  -1  -1   3 146942. 2874.16   8
   2  -1   3 142129. 2749.22   7
  -2   1   3 153130. 2333.72  14
   2  -1   3 131571. 2721.22  11
   1   1   3 141446. 2284.91   7
   1  -2   3 139632. 1307.14   8
  -1   2   3 159662. 1818.95   4
  -1  -1   3 163550. 2993.16   5
   1   1   3 138232. 2582.45  11
  -1  -1   3 146639. 2541.15   9
  -2   1   3 149986. 2256.58   2
   2  -1   3 137992. 1857.35   5
  -1   2   3 131555. 3101.29   2
  -1   2   3 140616. 3082.29   6
   1  -2   3 144141. 2952.38   1
  -1   2   3 170166. 3130.18   9
  -2   1   3 132121. 2999.32   6
  -1  -1   6 591741. 6192.95   9
   2  -1   6 473294. 5744.84  11
  -1  -1   6 578640. 5739.77  12
   1  -2   6 725434. 8771.36   5
  -1  -1   6 637538. 3137.97  11
   1  -2   6 655410. 5060.86   7
   2  -1   6 595629. 5923.67   7
  -1   2   6 534633. 6225.88   9
  -1  -1   6 675651. 6890.04   5
  -2   1   6 599247. 5022.17   5
   2  -1   6 541578. 5352.66   5
   1   1   6 489531. 5258.15  11
  -2   1   6 605764. 4110.36   2
  -1  -1   6 713236. 4225.69  14
  -1   2   6 511013. 6379.90   2
  -2   1   6 679790. 9271.12   6
  -1  -1   6 700677. 7729.53   8
  -1   2   6 686997. 5652.58  12
   1   1   6 523967. 5520.45   7
  -2   1   6 616885. 7309.94   8
  -1  -1   6 629358. 3157.63   2
  -1   2   9 45307.9 2000.06   9
  -1   2   9 50706.4 2089.28   2
   1  -2   9 46920.1 1575.45   7
   1   1   9 39076.0 1279.52  12
   2  -1   9 47595.7 1974.93   5
  -1  -1   9 46419.9 1994.17   5
   1   1   9 46271.6 1746.43  11
   2  -1   9 47212.8 1822.29  11
   2  -1   9 44787.6 1823.25   7
  -2   1   9 44531.9 1923.70  12
  -1  -1   9 40165.1 673.798  14
  -1  -1   9 44866.4 1959.68   9
  -2   1   9 45902.5 2295.77   9
   1  -2   9 45113.4 2367.33   5
   1   1   9 46161.9 1937.24   7
  -2   1   9 51092.5 1428.51   2
  -1  -1   9 49167.0 1077.13   2
  -1   2   9 45089.2 1709.13  12
  -1  -1   9 44205.8 1844.76  12
  -1  -1   9 49957.3 2254.61   8
  -2   1   9 43993.6 1697.06   5
  -2   1  12 383144. 4553.42   2
  -2   1  12 338300. 5753.70  12
  -2   1  12 315691. 5408.18   5
  -1   2  12 349633. 5336.17  12
  -1  -1  12 323025. 5883.17   5
  -1  -1  12 326294. 5686.27  12
   1  -2  12 314513. 6772.28   5
   2  -1  12 320452. 5552.92   7
   1  -2  12 344901. 5073.21   7
  -1   2  12 337624. 5725.45   2
   1   1  12 309704. 5799.17   7
  -2   1  12 322454. 6386.76   9
   2  -1  12 325325. 6170.17   5
  -1   2  12 331186. 6004.35   9
   1   1  12 308180. 4759.90  11
   1   1  12 326279. 4632.67  12
   2  -1  12 339566. 4933.19  11
  -1  -1  12 315148. 5833.89   9
   1  -2  12 368825. 3863.33  11
   2  -1  15 14151.5 1435.93   5
  -1  -1  15 13568.7 1349.78   9
   1   1  15 16131.8 1141.97  11
  -1   2  15 14648.7 1378.20   9
  -1  -1  15 14130.9 1333.78  12
  -1  -1  15 14928.1 1444.50   5
   1  -2  15 16834.8 1308.37   7
  -1   2  15 15229.4 1282.09   2
  -2   1  15 13744.9 1410.76   9
   1   1  15 15477.4 1148.53  12
  -2   1  15 13977.1 1278.55  12
   2  -1  15 16139.5 1080.28  11
   2  -1  15 14518.6 1345.95   7
   1  -2  15 13661.5 1566.39   5
   1   1  15 15473.6 1448.76   7
  -1   2  15 13612.1 1150.71  12
  -1  -1  18 187995. 5444.55  12
   1   1  18 184609. 5383.39   9
  -1  -1  18 176600. 5385.70   9
  -1   2  18 195468. 4813.34  12
   2  -1  18 181166. 4858.68  12
  -1   2  18 178124. 5280.09   9
  -2   1  18 176250. 5405.73   9
   1  -2  18 177346. 6311.00   5
  -2   1  18 183020. 4970.31  12
  -1  -1  18 179182. 5486.12   5
   2  -1  18 184698. 5374.54   7
   1  -2  18 180857. 5132.20  12
  -1  -1  21 6489.46 1116.93   9
  -1  -1  21 6529.82 1103.37   5
   2  -1  21 6188.48 1074.80   7
  -2   1  21 6284.13 1088.73   9
  -1   2  21 6700.80 1117.19   9
   1  -2  21 6205.81 1252.15   5
  -1  -1  21 6939.43 1129.15  12
   1  -2  21 6735.16 1095.95  12
   1  -2  21 6457.93 1171.25   9
   1   1  21 6695.91 1118.63   9
  -2   1  21 5448.74 908.008  12
   0  -2 -22 145508. 5753.39   1
  -2   2 -22 149151. 5904.03   4
   2   0 -22 147880. 4957.25  13
   2   0 -22 129949. 5345.60   4
   0  -2 -22 153495. 5560.16   4
   2   0 -19 167.415 197.777   4
   2   0 -19 19.6308 55.4344  13
  -2   2 -19 7.48798 28.7761   4
   0  -2 -19 4.44825 29.0222   1
   0  -2 -16 226822. 6118.37   1
   0  -2 -16 230191. 5612.94   4
   2   0 -16 234198. 5156.42   3
   2   0 -16 214741. 5998.13   4
  -2   2 -16 228379. 4933.71  14
   0  -2 -16 229129. 4838.65  14
  -2   2 -16 217573. 6044.98   4
   0  -2 -13 152.266 127.397  14
   0  -2 -13 56.7887 79.2981   1
   0  -2 -13 30.4053 72.3443   4
   2   0 -13 187.420 140.967   3
  -2   2 -13 74.6207 104.439  14
   2   0 -10 370395. 5299.74  10
  -2   2 -10 321775. 5796.98   4
   2   0 -10 340606. 5868.92   3
  -2   2 -10 337402. 5576.25   3
   0  -2 -10 366489. 5434.86   4
  -2   2 -10 399455. 4170.40  13
   0  -2 -10 370984. 6047.38   1
  -2   2 -10 381870. 5618.40  14
  -2   2  -7 96.6029 56.3657  13
  -2   2  -7 1.74295 42.5490   3
   2   0  -7 114.207 132.755   3
   0  -2  -7-9.39171 34.8954   1
   2   0  -7 50.8500 32.8164  11
   2   0  -7 77.3602 73.7240  10
   0  -2  -7 13.3824 17.1610   4
  -2   2  -7 79.9137 88.6812   4
  -2   2  -7 62.7743 73.1779  14
   0  -2  -4 688443. 5746.14  10
   2   0  -4 591224. 4345.72  11
  -2   2  -4 773442. 7608.54   2
  -2   2  -4 698355. 6052.03   4
   0  -2  -4 616294. 5355.08   6
   2   0  -4 703986. 7942.75   3
   0  -2  -4 626605. 6142.16   1
   0  -2  -4 613502. 4157.87  12
   0  -2  -1 138.556 61.7865  10
   0  -2  -1 70.1468 60.9071   1
   2   0  -1 39.3646 52.0730  13
  -2   2  -1 47.0469 29.6250   8
  -2   2  -1 66.4837 90.1798   2
   2   0  -1 12.3683 33.0765  11
  -2   2  -1 11.5513 22.8149   6
  -2   2   2 335510. 4333.68  14
   0  -2   2 420704. 3772.27   8
   0  -2   2 446074. 4841.54   1
   2   0   2 415684. 3353.46  12
   2   0   2 335105. 4225.55  11
   2   0   2 345865. 3892.49   7
  -2   2   2 320858. 4139.71   2
  -2   2   2 437970. 4832.51   6
   2   0   5 29.6049 40.2991  11
   0  -2   5 9.93026 14.7785   7
  -2   2   5 161.227 99.1354   2
   0  -2   5 58.3864 73.3123   5
  -2   2   5 3.44358 47.1621   6
   2   0   5 105.009 79.9307   7
  -2   2   8 455388. 7097.68   9
   0  -2   8 561799. 4280.32   7
   2   0   8 441239. 5579.72  11
  -2   2   8 537759. 6698.70  12
   0  -2   8 518781. 6288.83   8
  -2   2   8 494085. 6150.51   2
   0  -2   8 545212. 7677.71   5
   2   0   8 461836. 5878.59   7
  -2   2  11 85.0283 102.789   9
   2   0  11 77.1577 75.3379  11
   0  -2  11 61.6861 52.5475   7
   2   0  11 31.9982 46.5850   7
  -2   2  11 10.4536 45.9395  12
   0  -2  11 14.3673 71.0898   5
  -2   2  11 5.72076 34.6702   2
  -2   2  14 316749. 5138.33   2
  -2   2  14 301354. 6542.74   9
   2   0  14 313077. 5275.80  11
   2   0  14 291551. 4851.12  12
  -2   2  14 294827. 5476.50  12
   2   0  14 302426. 6209.78   7
   0  -2  14 308914. 6760.76   5
  -2   2  17-0.96577 37.9956  12
   2   0  17 110.682 121.386  12
   2   0  17 66.5323 99.2767   7
  -2   2  17 14.4798 58.3943   9
   0  -2  17 34.1770 87.8581   5
   0  -2  17 29.8961 68.7100   9
   0  -2  17-7.88479 66.2323  12
   0  -2  20 133759. 4866.92  12
   2   0  20 139897. 5122.57   7
  -2   2  20 134104. 4939.65   9
   0  -2  20 133846. 5333.64   5
  -2   2  20 129759. 4291.69  12
   0  -2  20 141539. 5250.18   9
   0   3 -21-74.2461 136.213   4
  -3   0 -21 368.467 291.777   1
   0   3 -21-5.14769 29.5234  13
   0   3 -21-52.4014 104.204   3
   3  -3 -21 93.4144 105.734   1
  -3   0 -21-8.68951 134.154   4
   3  -3 -18 206104. 5949.74   1
  -3   0 -18 205354. 5785.30  14
   0   3 -18 202818. 6379.97   3
   0   3 -18 220839. 5825.42  13
   0   3 -18 224256. 7320.90   4
  -3   0 -18 212348. 6615.56   4
   3  -3 -15 19.6427 59.7438  10
  -3   0 -15-18.9190 61.2592  14
   3  -3 -15-6.34905 62.3224   1
   0   3 -15-50.1616 98.1534   4
  -3   0 -15 43.8914 88.0038   4
   0   3 -15 45.2306 87.0449  13
  -3   0 -12 312886. 7098.10   4
   3  -3 -12 315334. 4507.01   4
   0   3 -12 307821. 5807.69  13
   0   3 -12 311533. 7093.21   3
   3  -3 -12 292069. 6092.24   1
  -3   0 -12 286294. 6043.76  14
   3  -3 -12 306981. 6447.29  10
  -3   0  -9 18.8128 36.9484  14
   3  -3  -9 101.556 60.8306   4
   0   3  -9 28.4652 72.4379   3
   0   3  -9 11.5541 35.0853  13
   3  -3  -9 10.8695 40.1014   1
  -3   0  -6 251355. 4472.51  14
  -3   0  -6 263759. 4870.34   8
  -3   0  -6 265441. 4563.58   6
   0   3  -6 321673. 4945.07   2
   0   3  -6 291344. 5688.17   3
   3  -3  -6 251835. 1792.50   4
   3  -3  -6 292881. 5445.17   1
  -3   0  -3 7.66983 28.8597   6
  -3   0  -3 25.5861 46.6524  14
   3  -3  -3 66.9523 77.8886   1
   0   3  -3 55.7694 85.5060   3
   0   3  -3 58.4896 69.0630   2
  -3   0  -3 165.947 117.782   8
  -3   0  -3 6.41301 10.3888   1
   0   3   0 670613. 8680.78   2
  -3   0   0 572425. 5678.41  12
   3  -3   0 587821. 6783.26   1
   0   3   0 604745. 7405.62  11
  -3   0   0 603160. 5973.08   6
  -3   0   0 586391. 5267.66  14
  -3   0   0 569042. 6589.99   8
   3  -3   0 586935. 8257.40   7
   0   3   0 670214. 6489.15   3
  -3   0   3 259.967 92.8889   5
  -3   0   3 94.4456 97.3181  12
  -3   0   3 4.59959 29.9306   6
  -3   0   3 24.6981 50.0691   8
   0   3   3 0.92486 24.2893  11
   0   3   3 99.4128 64.5266   3
   3  -3   3 20.0442 41.7349   5
   0   3   3 46.4459 45.0261   2
   3  -3   3-11.6409 13.6967   7
  -3   0   3 179.117 79.0818  14
   3  -3   6 303562. 5553.10   5
  -3   0   6 292714. 5033.36   9
   0   3   6 272409. 4911.77  11
   3  -3   6 259282. 4559.26   7
  -3   0   6 305540. 5261.94  12
  -3   0   6 302031. 5574.60   8
   0   3   6 306375. 3927.69   9
   0   3   6 265001. 5593.78   2
  -3   0   6 310218. 2618.50  14
  -3   0   6 285869. 3632.17   5
   0   3   6 271455. 2606.78   3
  -3   0   9 45.1150 72.9816  12
   3  -3   9-0.36498 6.94261  11
   0   3   9 200.957 137.549  11
   0   3   9 83.8994 129.912   2
  -3   0   9 58.6465 82.1285   9
  -3   0   9 17.0786 16.9123   5
   0   3   9 250.868 134.551   9
   3  -3   9 101.132 124.507   5
  -3   0   9 39.8227 90.4445   8
   3  -3  12 296504. 6862.42   5
   3  -3  12 291474. 5502.54   7
   0   3  12 258895. 5018.80  11
   0   3  12 298759. 5380.75   9
  -3   0  12 295311. 6789.57   9
  -3   0  12 305520. 7132.04   8
   3  -3  12 330750. 6638.89  11
  -3   0  12 293637. 5895.21  12
  -3   0  12 310237. 5335.12   5
   0   3  12 294043. 6489.23   2
  -3   0  15 60.8070 105.579   5
   3  -3  15 52.7303 70.9138  11
  -3   0  15 11.2043 54.1337  12
   3  -3  15 876.141 412.865   5
  -3   0  15 1014.20 423.379   9
   0   3  15 46.1485 59.9777   9
   0   3  15 59.9870 96.9199  11
   0   3  15 23.0043 77.9440   2
   3  -3  15 32.2596 38.5407   7
   0   3  18 215864. 5713.53   9
   0   3  18 223884. 6142.88   2
   3  -3  18 214924. 7122.64   5
   3  -3  18 217025. 5701.64   7
  -3   0  18 209305. 5677.41  12
  -3   0  18 204744. 5226.92   5
   0   3  21 59.4272 100.111   2
  -3   0  21 65.1048 126.512   9
  -3   0  21 21.6101 28.4485  12
   3  -3  21 191.510 213.915   5
   0   3  21 42.3078 89.8094   9
   3  -3  21 71.7223 111.895  12
   1   2 -22 116818. 4375.27  13
   3  -2 -22 113659. 4670.37   1
  -1   3 -19 1906.63 645.860   4
   2  -3 -19 1854.78 594.688   1
   1   2 -19 3923.17 753.327  13
   1   2 -19 1595.14 608.804   4
  -2  -1 -19 1826.04 616.051   4
  -2  -1 -19 2087.82 635.116   1
  -3   1 -19 1869.48 614.946   4
   1   2 -19 1706.71 552.669   3
   3  -2 -19 1821.89 556.509   1
  -1   3 -19 1870.83 590.752   3
  -2  -1 -19 1904.59 545.540  14
  -1   3 -19 1847.81 502.609  13
  -3   1 -19 1949.74 558.298  14
  -3   1 -16 205518. 5300.02  14
  -1   3 -16 216413. 4996.94  13
   1   2 -16 209391. 5951.16   3
   1   2 -16 229159. 6925.57   4
   3  -2 -16 204319. 5245.53  10
   2  -3 -16 204476. 5751.73   1
  -1   3 -16 220253. 6238.54   3
   3  -2 -16 205940. 5327.50   1
  -3   1 -16 211334. 6198.32   4
  -2  -1 -16 209685. 5422.44  14
   3  -2 -16 202556. 5104.37   4
  -1   3 -16 216053. 6437.24   4
   2  -3 -16 229360. 4986.67   4
  -2  -1 -16 229341. 6472.03   4
   1   2 -16 209261. 5194.50  13
  -2  -1 -16 212441. 5695.59   1
  -1   3 -13 3797.09 777.438   4
  -1   3 -13 3479.63 719.786   3
   3  -2 -13 3202.23 601.725   1
  -2  -1 -13 3579.83 725.776   4
   1   2 -13 3064.28 677.391   3
  -2  -1 -13 3961.17 735.077  14
   2  -3 -13 3523.90 701.924   1
   3  -2 -13 3869.37 696.379  10
   2  -3 -13 3799.02 696.318  10
  -1   3 -13 3597.82 590.072  14
   2  -3 -13 3570.02 528.639   4
  -3   1 -13 3757.05 760.709   4
   3  -2 -13 4192.87 535.994   3
   3  -2 -13 3412.76 581.558   4
  -3   1 -13 3608.97 646.738  14
   1   2 -13 3340.21 623.349  13
  -1   3 -13 3342.58 561.864  13
   1   2 -10 378561. 6167.69  13
  -2  -1 -10 273248. 5363.21  14
   2  -3 -10 401499. 7102.58   1
   2  -3 -10 328845. 6077.99  10
   3  -2 -10 339859. 5602.76   1
  -2  -1 -10 334015. 5485.57   1
  -3   1 -10 335372. 5774.57  14
   1   2 -10 368765. 7231.81   3
  -3   1 -10 340313. 6579.92   4
  -1   3 -10 342015. 6684.46   3
   3  -2 -10 370805. 6435.07  10
   3  -2 -10 323957. 5011.14   4
  -1   3 -10 366448. 6900.06   4
  -1   3 -10 374679. 5441.84  13
  -1   3 -10 375400. 5862.35  14
  -3   1 -10 394210. 2460.99  13
   2  -3 -10 351431. 4214.95   4
   3  -2 -10 351587. 5164.84   3
  -1   3  -7 8995.37 864.731  14
   2  -3  -7 10222.7 1019.95  10
  -3   1  -7 8147.10 818.148  14
   2  -3  -7 7875.39 460.600   4
  -3   1  -7 9174.78 990.651   4
   3  -2  -7 8289.03 802.179   1
   1   2  -7 7569.02 802.344  13
  -1   3  -7 8783.91 979.648   3
   1   2  -7 8732.30 570.510   2
  -1   3  -7 8483.27 859.105   2
  -2  -1  -7 8480.62 764.589   1
   2  -3  -7 8402.43 365.691   3
  -2  -1  -7 9500.34 926.737  14
   2  -3  -7 8583.77 917.062   1
   1   2  -7 9580.81 1096.18   3
   2  -3  -4 491904. 6533.57   1
  -1   3  -4 514865. 6669.67   3
   1   2  -4 507562. 5986.18  11
  -3   1  -4 505803. 6046.41   6
   3  -2  -4 475912. 5737.64   1
   1   2  -4 519087. 7215.90   3
  -1   3  -4 658303. 7756.13   2
   1   2  -4 605862. 5054.69   2
  -2  -1  -4 416561. 4184.91   6
  -3   1  -4 517454. 5215.02   8
  -2  -1  -4 441461. 4667.53   1
   1   2  -4 523331. 6032.02  13
   2  -3  -1 16781.7 1094.19   1
  -2  -1  -1 17739.1 784.336   1
   1   2  -1 19631.1 1268.52   3
   1   2  -1 20302.8 1209.60  11
  -3   1  -1 18108.3 996.743  14
  -3   1  -1 16479.9 967.942   6
  -1   3  -1 17601.3 1201.08   2
   1   2  -1 23783.1 1495.85   2
  -1   3  -1 15547.9 689.743   6
   3  -2  -1 15980.0 864.553   1
  -3   1  -1 16242.0 985.156   8
  -2  -1  -1 16384.5 1041.26   8
  -2  -1  -1 19104.3 797.593   6
  -2  -1  -1 18596.7 1017.41  14
   3  -2  -1 17504.2 1339.53   7
  -2  -1  -1 17782.6 698.654  12
   1   2  -1 18573.6 473.093   6
  -1   3  -1 15740.0 975.485   3
   3  -2   2 411429. 5955.73   7
  -3   1   2 423796. 4562.54  14
  -2  -1   2 508143. 5508.95   6
   1   2   2 438843. 5435.15   3
  -2  -1   2 465420. 4325.07   9
  -3   1   2 419381. 5432.19   6
  -2  -1   2 481648. 5796.28   8
   1   2   2 405994. 6126.15   2
  -3   1   2 448523. 5967.65  12
   2  -3   2 518286. 5989.96   7
   1   2   2 443791. 4692.91   7
  -3   1   2 388062. 5214.86   9
  -1   3   2 415785. 6588.67   2
  -1   3   2 537657. 5571.63   6
  -2  -1   2 503688. 5472.93  12
  -1   3   2 453976. 4408.36   3
   3  -2   2 405888. 3618.62   5
   2  -3   2 456883. 5979.92   1
   1   2   2 433111. 5697.02  11
  -3   1   2 454684. 6037.87   8
  -3   1   5 11249.5 979.884   9
  -2  -1   5 13009.1 1004.89  12
   2  -3   5 10949.7 784.891   7
  -2  -1   5 11550.2 534.605  14
   3  -2   5 11521.2 973.039   7
  -1   3   5 13423.1 1230.05   2
  -3   1   5 11845.5 1032.79  12
   2  -3   5 12241.9 1139.70   5
  -2  -1   5 14866.3 987.687   5
  -1   3   5 13674.4 896.569   9
   1   2   5 12831.9 1003.35  11
   3  -2   5 12392.9 1114.93  11
   1   2   5 12946.5 834.048   3
  -3   1   5 13851.5 1258.65   8
  -2  -1   5 11236.0 978.935   8
  -2  -1   5 13072.7 956.422   9
   1   2   5 13202.5 972.323   7
  -3   1   5 12052.8 625.191   5
  -3   1   5 13363.3 695.760  14
  -3   1   5 16711.0 1275.66   6
   3  -2   5 12025.5 798.452   5
  -3   1   8 403833. 6097.29  12
  -2  -1   8 398290. 6063.82  12
   3  -2   8 363001. 5486.61   5
  -2  -1   8 382702. 6235.60   9
   1   2   8 361539. 5865.91   7
   2  -3   8 414415. 7381.88   5
   1   2   8 356689. 3859.76   3
  -1   3   8 400117. 5771.25   9
   3  -2   8 373920. 6725.39  11
  -2  -1   8 464566. 7382.25   8
  -1   3   8 328882. 5126.26  11
  -3   1   8 426072. 7351.28   9
   3  -2   8 399389. 6073.28   7
   2  -3   8 390060. 5023.53   7
  -1   3   8 369821. 6515.03   2
  -2  -1   8 418226. 5671.57   5
  -3   1   8 408711. 4697.47   5
  -3   1   8 411636. 7379.96   8
   1   2   8 343025. 5488.90  11
  -1   3  11 3611.96 488.059  12
   1   2  11 4554.10 659.231  11
  -2  -1  11 4453.26 757.500   9
  -2  -1  11 3644.16 636.508  12
  -1   3  11 4012.43 646.524   9
   3  -2  11 3999.68 689.139   5
  -2  -1  11 3954.70 607.662   5
  -3   1  11 3855.28 770.971   8
  -2  -1  11 3906.36 751.068   8
   3  -2  11 4212.69 697.941  11
   1   2  11 3881.78 674.163   7
   2  -3  11 4202.08 584.629   7
   3  -2  11 3984.11 647.991   7
   2  -3  11 4172.56 626.041  11
   2  -3  11 3666.25 761.996   5
   1   2  11 3974.40 351.168  12
  -3   1  11 3728.71 635.015  12
  -3   1  11 4109.95 798.190   9
  -1   3  11 3993.38 686.927   2
  -3   1  11 3765.13 533.024   5
  -1   3  14 309794. 5099.03  12
   3  -2  14 265661. 6461.39   5
   3  -2  14 294728. 5588.18  11
   2  -3  14 265193. 7063.39   5
   1   2  14 263959. 5520.64   9
  -2  -1  14 272405. 6479.49   9
  -1   3  14 283286. 6004.03   9
  -3   1  14 255469. 6345.67   9
   1   2  14 266151. 6315.36   7
  -2  -1  14 275715. 6111.71  12
   2  -3  14 294603. 5482.24   7
   3  -2  14 264302. 5788.83   7
  -1   3  14 276007. 5892.93   2
   1   2  14 271841. 5330.18  11
  -2  -1  14 271559. 5656.76   5
  -3   1  14 291735. 5989.27  12
   1   2  17 1636.28 489.967   9
  -2  -1  17 1562.29 501.523  12
  -3   1  17 1508.09 506.838   9
  -2  -1  17 1477.78 464.328   5
   1   2  17 1546.05 403.836  11
  -2  -1  17 1344.89 481.450   9
   3  -2  17 1630.61 508.303   7
   2  -3  17 1838.61 479.529   7
   3  -2  17 1287.70 500.208   5
  -1   3  17 1469.77 453.580   2
   2  -3  17 1583.14 598.818   5
  -1   3  17 1392.60 456.491   9
  -3   1  17 1225.87 413.562  12
  -3   1  20 135175. 4559.23  12
   1   2  20 150198. 5414.38   2
  -1   3  20 142722. 5039.05   9
  -2  -1  20 135416. 4721.80   5
  -3   1  20 134887. 4969.42   9
   2  -3  20 144318. 6097.82   5
   3  -2  20 146587. 4803.72  12
   3  -2  20 141091. 5077.97   7
   1   2  20 146083. 5092.11   9
   2  -3  20 144056. 5054.87  12
  -2  -1  20 141327. 4911.89  12
  -2  -1  20 138391. 5237.59   9
   1  -3 -20 143036. 5502.59   1
  -1  -2 -20 149315. 5680.20   1
  -2   3 -20 152056. 5886.85   4
  -3   2 -20 150580. 5743.41   4
   2   1 -20 140665. 5738.56   4
   2   1 -20 141921. 4672.66  13
  -2   3 -17 1673.96 413.707  13
   2   1 -17 1119.84 476.079   4
  -2   3 -17 1699.15 576.256   4
   1  -3 -17 2240.52 530.222   4
  -1  -2 -17 1660.55 525.687   4
  -1  -2 -17 1658.42 539.429   1
  -3   2 -17 1253.65 487.794   4
  -2   3 -17 1544.95 416.114  14
   3  -1 -17 1680.39 529.159   4
  -3   2 -17 1596.71 464.620  14
   1  -3 -17 1521.20 530.205   1
  -1  -2 -17 2471.35 603.916  14
   2   1 -17 1788.24 524.720   3
   2   1 -17 1803.87 490.032  13
  -2   3 -14 294350. 5588.75  14
   3  -1 -14 299323. 5681.49   3
  -1  -2 -14 294719. 6325.96   4
  -2   3 -14 275851. 6612.20   4
   2   1 -14 270742. 5611.11  13
  -3   2 -14 276523. 6540.70   4
   3  -1 -14 299311. 5958.57  10
   1  -3 -14 299188. 5374.40   4
  -1  -2 -14 272837. 6160.93   1
  -3   2 -14 263378. 5633.68  14
  -1  -2 -14 290409. 6206.91  14
   1  -3 -14 294216. 6834.62   1
   3  -1 -14 276858. 6328.86   4
  -2   3 -14 302721. 4971.61  13
  -2   3 -14 265398. 6170.76   3
   1  -3 -14 298285. 5628.37  14
   2   1 -14 271593. 6294.76   3
  -2   3 -11 4345.41 648.334  14
  -3   2 -11 4050.19 338.223  13
   2   1 -11 4347.79 786.596   3
  -2   3 -11 4188.53 525.050  13
   1  -3 -11 4369.10 677.135  10
  -1  -2 -11 3848.14 645.548   1
   1  -3 -11 3653.33 510.376   4
  -1  -2 -11 4801.19 792.924  14
  -3   2 -11 4231.65 676.223  14
  -3   2 -11 4336.37 743.347   4
  -2   3 -11 4017.91 711.838   3
   1  -3 -11 4229.55 728.244   1
   2   1 -11 3744.14 611.161  13
   3  -1 -11 4736.18 701.987  10
   3  -1 -11 4801.49 730.959   3
  -3   2  -8 421845. 6567.17   4
   2   1  -8 417944. 6147.57  13
   2   1  -8 385191. 7518.14   3
  -2   3  -8 440991. 6350.22  14
   2   1  -8 414061. 3598.57  11
   3  -1  -8 372116. 5973.17   3
   3  -1  -8 423597. 5972.11  10
   1  -3  -8 413823. 6454.55   1
  -2   3  -8 366954. 5821.68   4
  -3   2  -8 403475. 6180.18  14
  -2   3  -8 392496. 6535.07   3
   1  -3  -8 390683. 5894.00  10
  -1  -2  -8 395877. 5875.45   1
   3  -1  -8 361527. 3686.86  11
   1  -3  -5 13916.8 621.544   3
  -2   3  -5 13472.4 1134.49  14
   2   1  -5 13132.9 838.419  11
   1  -3  -5 11982.9 990.408   1
  -3   2  -5 11252.5 910.596   6
  -3   2  -5 14531.4 1111.63   4
   2   1  -5 10894.5 911.798  13
   2   1  -5 13301.3 585.053  10
   2   1  -5 12713.6 559.478   7
  -2   3  -5 13327.3 1190.83   2
  -2   3  -5 12378.6 1077.04   3
   2   1  -5 14468.6 1359.63   3
   1  -3  -5 13896.6 1009.76  10
  -3   2  -5 11706.1 642.890   8
  -3   2  -5 13269.3 1062.34  14
  -2   3  -5 12166.4 892.789   4
   3  -1  -5 11678.9 765.284  11
   3  -1  -5 11023.0 668.404   1
  -1  -2  -5 11693.3 887.927   1
   3  -1  -5 13085.9 619.150   2
  -1  -2  -2 428626. 2630.53  12
   3  -1  -2 527297. 6870.59   7
  -3   2  -2 520172. 4811.89   8
   2   1  -2 523807. 7606.07   3
   3  -1  -2 407182. 4948.01  11
  -1  -2  -2 487346. 5368.11   1
  -2   3  -2 536544. 6410.26   3
   2   1  -2 460515. 5240.94  13
   2   1  -2 428716. 4979.68  11
   1  -3  -2 471535. 5966.30   1
  -2   3  -2 495426. 6781.28   2
  -3   2  -2 482433. 5424.27   6
  -2   3  -2 521647. 4501.14   4
   2   1  -2 461464. 3294.01   7
  -1  -2  -2 417362. 5415.84   8
  -2   3  -2 537304. 5224.71   6
  -2   3   1 15739.0 903.138   6
   2   1   1 17062.2 1053.44  11
   3  -1   1 18316.1 1272.19   7
   3  -1   1 14720.4 616.335  13
   3  -1   1 17657.3 1121.64  11
  -3   2   1 19006.2 1207.48  14
  -1  -2   1 17175.3 970.200   1
  -3   2   1 19896.5 1164.05   8
  -1  -2   1 16112.7 948.850   8
   1  -3   1 15946.7 663.482   8
  -2   3   1 18348.2 1227.45   2
   2   1   1 17652.9 816.330   7
   1  -3   1 16384.4 1093.73   1
  -1  -2   1 20326.8 579.176   7
  -3   2   1 17346.3 1059.17   2
  -3   2   1 16229.5 1006.69   6
  -3   2   4 460542. 5176.55   2
  -3   2   4 441134. 6386.67   6
  -2   3   4 519939. 7039.13   6
   2   1   4 440965. 5659.62  11
  -3   2   4 493969. 5415.78  14
  -2   3   4 422193. 6291.07   2
  -1  -2   4 472505. 4705.82   9
   3  -1   4 435336. 6039.16  11
  -2   3   4 628538. 6849.73   9
  -3   2   4 479938. 6338.82   8
   1  -3   4 549515. 4400.52   8
   1  -3   4 549628. 6803.40   1
  -1  -2   4 552329. 6511.14   5
   2   1   4 463934. 5150.44   7
   3  -1   4 433215. 5857.02   7
  -1  -2   4 551631. 6247.24   8
   1  -3   4 573900. 4594.01   7
   1  -3   7 8095.81 924.884   5
   3  -1   7 8932.20 931.198  11
  -2   3   7 10580.8 1090.74   2
  -1  -2   7 10842.9 1031.42   5
   1  -3   7 9173.83 621.316   7
  -3   2   7 8947.34 985.432   8
  -3   2   7 8567.01 1022.65   9
  -3   2   7 8828.03 677.500   2
   2   1   7 8442.97 810.797   7
  -1  -2   7 8638.81 773.133   9
  -1  -2   7 9106.22 942.848   8
  -2   3   7 7494.14 702.144  12
  -2   3   7 7969.73 842.912   9
   3  -1   7 8377.11 855.595   7
  -3   2   7 8681.39 1023.94   6
  -3   2   7 8820.75 953.726  12
   2   1   7 9176.85 869.684  11
   2   1  10 351064. 3411.36  12
   2   1  10 320685. 5532.60  11
   3  -1  10 335793. 5899.14  11
  -3   2  10 343808. 6780.11   9
  -2   3  10 334604. 5974.61   2
  -3   2  10 361568. 6216.83  12
  -1  -2  10 375859. 6739.46   8
  -2   3  10 376235. 5559.54  12
   2   1  10 335358. 5916.95   7
  -3   2  10 356939. 4315.07   2
   1  -3  10 381120. 4579.28   7
   3  -1  10 332370. 5850.43   7
  -1  -2  10 356323. 5840.68   9
  -1  -2  10 365703. 6411.18   5
   1  -3  10 362341. 6935.00   5
  -2   3  10 358305. 6350.22   9
  -1  -2  10 344266. 5634.54  12
   3  -1  13 3222.35 582.527  11
   1  -3  13 3485.74 752.157   5
  -2   3  13 3574.20 619.652   2
  -3   2  13 2819.02 568.498  12
  -3   2  13 3226.39 692.607   9
  -1  -2  13 3214.37 644.695   5
  -1  -2  13 3843.37 699.254   9
  -1  -2  13 3146.85 609.055  12
  -2   3  13 3208.62 576.393  12
   2   1  13 3578.22 685.223   7
   2   1  13 3874.79 638.888  11
   1  -3  13 5788.48 677.020   7
   3  -1  13 3360.74 648.323   7
  -2   3  13 3479.63 678.694   9
   2   1  16 205634. 4791.69  11
   3  -1  16 216989. 4867.74  11
  -1  -2  16 201882. 5574.10   5
  -2   3  16 217749. 4945.75   2
  -1  -2  16 205585. 5684.12   9
  -3   2  16 204745. 5707.10   9
   1  -3  16 204510. 6177.68   5
  -1  -2  16 208123. 5521.25  12
   2   1  16 202376. 5819.19   7
   3  -1  16 200166. 5580.55   7
  -2   3  16 212339. 5097.37  12
  -3   2  16 206491. 5165.64  12
  -2   3  16 211495. 5646.23   9
  -1  -2  19 1398.90 508.226   9
  -1  -2  19 1441.51 500.186  12
  -3   2  19 1541.19 492.842  12
   3  -1  19 1614.46 545.092   7
  -1  -2  19 1610.07 540.414   5
  -3   2  19 1625.83 537.206   9
  -2   3  19 1627.53 527.283   9
  -2   3  19 1728.32 493.188  12
   1  -3  19 1685.21 619.240   5
   2   1  19 1824.50 596.468   7
   1  -3  19 1765.27 551.053  12
   2   1  22 121124. 4892.90   9
  -3   2  22 118347. 4414.85  12
  -3   3 -21 55.0700 25.3959   4
   3   0 -21 67.7161 123.920  13
   3   0 -21-133.037 158.783   4
   0  -3 -21-16.7168 61.7704   1
  -3   3 -18 221759. 5445.41  14
   3   0 -18 218515. 5808.76  13
  -3   3 -18 210314. 6501.87   4
   0  -3 -18 221984. 6636.03   1
   0  -3 -18 232798. 5671.79  14
   3   0 -15 65.5041 123.583   3
  -3   3 -15 13.9564 68.4114   4
   0  -3 -15 144.066 140.671  14
   3   0 -15 13.1441 45.0776  13
  -3   3 -15 170.022 136.744  14
   0  -3 -15 10.4719 22.2658   1
   3   0 -12 331361. 5143.21  10
  -3   3 -12 313817. 5896.93  14
  -3   3 -12 303384. 6357.39   4
   0  -3 -12 328240. 6600.18   1
   3   0 -12 312891. 5995.76  13
   3   0 -12 325786. 6949.49   3
   3   0  -9 34.3307 61.5718  13
   0  -3  -9 15.5296 29.4176   1
   3   0  -9 17.6643 47.8741  10
   3   0  -9 1.97533 53.1379   3
  -3   3  -9 0.26175 25.8718  14
   3   0  -9 94.2692 53.8354  11
  -3   3  -6 269017. 1727.22   8
  -3   3  -6 286413. 5174.76  14
   0  -3  -6 272594. 4068.20  10
   3   0  -6 260625. 3415.76  11
  -3   3  -6 315199. 1988.25   8
  -3   3  -6 315908. 5060.40   4
   3   0  -6 330453. 4713.16   7
   0  -3  -6 273431. 4907.92   1
   3   0  -6 276579. 5788.90   3
   3   0  -6 280251. 4705.54  13
   3   0  -3 253.332 71.2550   1
  -3   3  -3 520.560 193.200   6
  -3   3  -3 125.684 129.074   2
   3   0  -3 24.5005 43.1321  11
   0  -3  -3 46.9755 52.8446  10
   3   0  -3 30.2841 73.5637   3
  -3   3  -3 612.230 249.663  14
  -3   3  -3 15.3009 28.6230   4
   3   0  -3 3.94701 21.2796   7
   0  -3  -3 27.6877 64.7671   1
   3   0  -3 783.033 233.299  13
   3   0   0 589286. 6346.84  11
   0  -3   0 780154. 7632.38   1
  -3   3   0 530641. 7083.63   2
   0  -3   0 652676. 5913.46   8
  -3   3   0 549181. 7248.40  14
   3   0   0 590368. 6281.42   7
  -3   3   0 770895. 7022.94   6
   3   0   0 587082. 5220.28  13
   0  -3   3 73.7777 37.7706   7
   0  -3   3 59.3430 71.3669   1
   3   0   3 12.9005 33.7581  11
  -3   3   3 102.127 79.2114   6
   0  -3   3 257.744 69.9302   7
   0  -3   3 36.4541 51.9038   8
  -3   3   3 16.3075 26.1582   2
   3   0   3 230.605 137.326   7
   3   0   6 272356. 4767.18   7
   3   0   6 256845. 4935.76  11
   0  -3   6 310881. 5764.55   5
   0  -3   6 346213. 5247.80   8
  -3   3   6 278944. 5738.35   6
  -3   3   6 288851. 4827.34   2
   0  -3   6 296921. 1686.68   7
  -3   3   6 310255. 6038.67   9
  -3   3   9 159.916 133.773   9
  -3   3   9 27.4104 54.8715  12
   3   0   9-13.0936 39.0625  11
   0  -3   9 23.4452 4.14930   5
   0  -3   9 235.075 153.911   8
  -3   3   9 60.0661 71.2018   2
   0  -3   9 45.1203 33.8459   7
   3   0   9 12.7081 56.4583   7
  -3   3  12 308852. 6096.60  12
   0  -3  12 289657. 6259.19   5
  -3   3  12 299327. 6327.59   9
   3   0  12 268256. 5829.10   7
  -3   3  12 310801. 5449.18   2
   3   0  12 280664. 5703.84  11
   3   0  15 132.665 126.572  11
  -3   3  15-7.74967 32.9623   9
   0  -3  15 195.159 174.823   9
   0  -3  15 6.86124 19.3751   5
  -3   3  15 125.587 153.051  12
  -3   3  18 209263. 5478.07  12
   0  -3  18 214005. 6291.06   5
   0  -3  18 222864. 6485.54   9
  -3   3  18 211429. 5875.73   9
   3   0  18 206464. 6257.04   7
   0  -3  18 218418. 6114.63  12
   0  -3  21 13.7423 51.2650  12
  -3   3  21 71.2861 103.393  12
   0  -3  21 15.9605 10.6525   5
   3   0  21 36.0931 108.745   7
  -3   3  21 21.6353 63.0042   9
   0  -3  21 60.6338 112.024   9
   0   4 -19 20.9194 95.2762  13
   0   4 -19 42.6524 75.9244   3
  -4   0 -19 193.227 189.802   1
   4  -4 -19 48.5276 91.8497   1
   0   4 -19-71.8669 137.046   4
  -4   0 -19 284.753 257.337  14
  -4   0 -16 172328. 5759.39  14
   0   4 -16 163007. 6193.82   3
   4  -4 -16 160156. 4869.47  10
   0   4 -16 158402. 5084.06  13
   0   4 -16 168173. 6380.29   4
   4  -4 -16 157012. 5045.86   1
  -4   0 -16 163846. 5046.79   1
   4  -4 -13 64.7405 84.4501  10
   4  -4 -13 45.9838 84.7233   1
  -4   0 -13-7.50295 29.4407   1
  -4   0 -13 150.141 142.503   8
   0   4 -13 48.4454 108.049   3
  -4   0 -13 35.2665 76.1823  14
  -4   0 -10 310797. 6299.38   6
   4  -4 -10 317308. 6569.52  10
   0   4 -10 348224. 5300.76   2
   4  -4 -10 299527. 6182.66   1
  -4   0 -10 324464. 5422.50   1
  -4   0 -10 324060. 6533.48   8
  -4   0 -10 297635. 6210.60  14
   0   4 -10 329468. 7704.12   3
   4  -4  -7 99.8981 123.263   1
  -4   0  -7 44.3072 58.8135   6
   0   4  -7-8.79875 47.9204   2
   0   4  -7 32.1406 54.8315   3
  -4   0  -7 15.6779 30.4370   1
  -4   0  -7 56.8223 70.9215   8
  -4   0  -7 25.5044 47.2378  14
  -4   0  -4 253715. 4527.15   6
   0   4  -4 304166. 5815.15   3
  -4   0  -4 282501. 4916.99  14
  -4   0  -4 266878. 5138.83   8
   0   4  -4 330004. 5534.00   2
   4  -4  -4 264011. 5675.58   1
  -4   0  -4 293062. 3181.85   1
  -4   0  -1 26.0900 34.3460   8
  -4   0  -1 39.3491 69.4522   6
  -4   0  -1-6.82487 29.1892  14
   0   4  -1 24.6803 42.4896   2
   4  -4  -1-16.7331 54.2557   1
   4  -4  -1 34.9853 64.6080   7
   0   4  -1 34.5683 66.5482   3
   0   4   2 383071. 5025.69   3
   0   4   2 365446. 6534.29  11
   4  -4   2 340621. 5479.97   5
   4  -4   2 342895. 6536.11   1
  -4   0   2 370308. 6505.16   8
  -4   0   2 331403. 5749.09   6
   4  -4   2 406533. 7646.75   7
   0   4   2 336747. 7169.76   2
  -4   0   2 411690. 3234.56   5
  -4   0   2 348748. 4367.24  14
  -4   0   2 331119. 5479.78  12
  -4   0   5-5.69095 18.4118   6
   0   4   5 28.7452 35.1586   3
   0   4   5 15.7144 86.1424   2
  -4   0   5 5.69329 20.4157   5
   4  -4   5-19.5218 44.0697   5
  -4   0   5 24.1036 69.2574  12
  -4   0   5 10.4465 12.8792   8
  -4   0   5-2.10403 48.8584   9
   0   4   5 127.065 123.284  11
  -4   0   5 39.6487 49.9378  14
   4  -4   5 36.8821 70.5883   7
  -4   0   8 299664. 5566.81   9
   0   4   8 271918. 5647.22  11
  -4   0   8 318293. 4247.37   5
   0   4   8 273886. 6522.43   2
   4  -4   8 308436. 6097.57   5
  -4   0   8 287081. 5698.74  12
   4  -4   8 285242. 5446.31   7
  -4   0   8 287983. 6043.31   8
  -4   0  11 90.1209 89.4053  12
  -4   0  11-5.47327 64.4155   9
  -4   0  11 28.7605 36.9774   5
   4  -4  11 1.93180 43.1670   5
   0   4  11 64.3359 121.826   2
  -4   0  11-19.1217 51.6980   8
   0   4  11 41.2591 66.6817  11
   4  -4  11 60.2699 65.6821  11
   4  -4  11 13.8768 40.9796   7
  -4   0  14 179171. 5042.38  12
   4  -4  14 215971. 5795.75  11
  -4   0  14 209515. 4515.54   5
   4  -4  14 188293. 5821.00   5
   0   4  14 176816. 4694.33  11
  -4   0  14 181262. 5344.63   9
  -4   0  14 181663. 5618.00   8
   4  -4  14 177980. 4758.06   7
   0   4  14 191177. 5753.12   2
  -4   0  17 133.729 140.962  12
   0   4  17 543.025 318.183   2
   4  -4  17 217.348 227.648   5
  -4   0  17 119.409 155.498   9
   4  -4  17 87.2055 71.5397   7
   4  -4  20 123412. 5392.66   5
   0   4  20 141645. 5233.78   2
   4  -3 -20 128727. 4771.04   1
   3  -4 -20 138150. 5247.67   1
  -3  -1 -20 144896. 5309.96  14
  -3  -1 -20 142377. 5421.27   1
   1   3 -20 138706. 4855.00  13
  -1   4 -20 151236. 6227.52   4
   1   3 -20 146497. 6384.23   4
  -4   1 -20 138703. 5225.34  14
  -1   4 -20 136324. 5609.34   3
   1   3 -20 125332. 5262.75   3
   4  -3 -17 2527.13 575.005  10
  -4   1 -17 2653.49 737.839   4
   1   3 -17 2724.07 763.773   3
   1   3 -17 2389.48 616.511  13
  -3  -1 -17 3158.66 767.617  14
  -3  -1 -17 2751.22 678.790   1
   4  -3 -17 2613.46 637.906   1
  -1   4 -17 2786.14 810.013   4
   3  -4 -17 2706.52 700.524   1
   1   3 -17 3012.96 861.219   4
  -1   4 -17 3308.62 861.691   3
  -4   1 -17 3125.45 747.813  14
  -3  -1 -14 218781. 6055.55  14
   4  -3 -14 227379. 5479.33   1
   4  -3 -14 209985. 5206.67  10
   3  -4 -14 220378. 5814.60  10
   3  -4 -14 212537. 5768.51   1
  -1   4 -14 227727. 6744.34   3
  -4   1 -14 213982. 6254.86   4
  -3  -1 -14 228746. 5561.45   1
  -1   4 -14 244942. 7011.33   4
  -4   1 -14 227183. 5976.95  14
   1   3 -14 217331. 6558.57   3
   1   3 -14 238737. 5917.86  13
  -1   4 -11 5429.79 986.726   3
  -4   1 -11 6851.86 961.991  14
   4  -3 -11 5472.06 795.142   1
   4  -3 -11 6239.59 658.996   3
   4  -3 -11 5830.57 851.130  10
   3  -4 -11 6318.25 938.233  10
  -4   1 -11 6190.31 823.348   8
  -3  -1 -11 7299.34 879.397   1
   3  -4 -11 5659.28 891.771   1
  -3  -1 -11 6140.72 930.149  14
   1   3 -11 5282.02 828.019  13
   1   3 -11 6035.81 1054.31   3
  -3  -1  -8 299590. 4877.60   1
   1   3  -8 315660. 5955.42  13
  -3  -1  -8 282949. 5652.75  14
  -3  -1  -8 315818. 5338.55   6
   1   3  -8 393777. 4739.65   2
   3  -4  -8 323882. 6514.51   1
   3  -4  -8 322795. 6610.17  10
  -4   1  -8 307958. 5098.63   8
   4  -3  -8 273251. 5122.61   1
  -4   1  -8 308465. 5837.84   6
  -1   4  -8 367165. 6273.10   2
   4  -3  -8 305913. 3703.22   4
  -1   4  -8 330262. 7043.66   3
  -4   1  -8 285229. 5506.13  14
   1   3  -8 316858. 6954.27   3
   1   3  -5 10270.9 799.227   2
  -3  -1  -5 11245.9 1007.39  14
   1   3  -5 12378.0 1128.07  11
   1   3  -5 11427.8 1191.44   3
  -3  -1  -5 10818.5 787.692   6
   4  -3  -5 10053.4 920.587   1
   3  -4  -5 12094.6 1229.47   1
  -4   1  -5 10407.2 941.122  14
  -1   4  -5 11604.6 1145.43   2
  -3  -1  -5 11293.3 1089.99   8
  -3  -1  -5 13240.9 876.309   1
  -1   4  -5 10862.5 1083.31   3
  -4   1  -5 10508.8 890.976   8
  -4   1  -5 10867.9 990.397   6
   1   3  -2 468906. 7018.16   3
  -3  -1  -2 411548. 4602.55   6
  -3  -1  -2 438742. 4252.10   1
  -4   1  -2 396153. 5393.05  14
  -1   4  -2 410479. 5821.91   3
   1   3  -2 517618. 6831.93   2
  -4   1  -2 349621. 5218.67   6
  -1   4  -2 535116. 4533.55   6
  -4   1  -2 368423. 5321.47   8
  -3  -1  -2 419494. 5602.57  14
  -3  -1  -2 388408. 6065.98   8
  -1   4  -2 484302. 7429.79   2
   4  -3  -2 360400. 6926.69   7
   1   3  -2 423300. 6485.07  11
   4  -3  -2 295812. 4673.01   1
   3  -4  -2 400965. 6480.05   1
  -4   1   1 13370.7 1081.89   6
  -3  -1   1 14206.1 934.999  12
   1   3   1 15948.0 1407.46   2
   1   3   1 15426.1 1272.40  11
   3  -4   1 15194.9 1320.77   7
   4  -3   1 14645.6 777.272   5
  -1   4   1 18245.5 971.481   6
  -3  -1   1 13868.3 883.792  14
  -4   1   1 14612.3 938.637  14
  -4   1   1 14374.2 1200.97   8
  -3  -1   1 13733.6 1126.14   8
   3  -4   1 12680.0 1158.18   1
   1   3   1 15208.2 1128.93   3
  -1   4   1 14588.9 1398.74   2
   4  -3   1 13670.4 1411.60   7
  -1   4   1 12755.9 890.148   3
  -3  -1   1 14918.6 987.690   6
  -4   1   4 299231. 5757.99   6
   4  -3   4 323024. 6026.90   7
  -3  -1   4 356712. 5564.87  12
   1   3   4 357727. 4959.42   3
  -1   4   4 336878. 3837.42   3
  -3  -1   4 373667. 4827.00   5
  -3  -1   4 299047. 3450.42  14
  -3  -1   4 333078. 4467.77   9
  -4   1   4 297304. 5167.18   9
  -4   1   4 348246. 6102.52   8
   4  -3   4 312491. 4280.25   5
  -4   1   4 324986. 6088.60  12
   1   3   4 350295. 6187.28  11
  -3  -1   4 346282. 6001.00   8
   1   3   4 288899. 5996.44   2
  -4   1   4 352334. 4270.28  14
  -1   4   4 278146. 6456.87   2
   3  -4   4 354442. 5645.58   7
   3  -4   4 348507. 6537.72   5
   1   3   7 9155.76 1128.02   2
  -4   1   7 9023.27 1016.79  12
  -1   4   7 9670.61 1169.46   2
  -3  -1   7 8309.10 831.854   9
   4  -3   7 9138.67 863.397   5
  -3  -1   7 9503.55 995.334  12
  -4   1   7 8567.59 957.283   9
  -3  -1   7 9520.13 826.010   5
  -3  -1   7 9164.44 444.139  14
   3  -4   7 8424.27 1072.53   5
   1   3   7 9658.08 659.851   9
  -1   4   7 8457.72 679.593   9
  -4   1   7 9127.40 1085.47   8
  -3  -1   7 8605.53 970.761   8
  -4   1   7 8536.95 1035.77   6
   4  -3   7 8260.78 933.977   7
   1   3   7 10510.9 720.947   3
  -4   1   7 8976.84 447.461  14
   1   3   7 9909.72 1070.57  11
   4  -3   7 9580.93 1195.99  11
   3  -4   7 8517.81 835.058   7
  -3  -1  10 330992. 5274.45   5
  -4   1  10 327350. 6301.33  12
  -4   1  10 340518. 7323.97   8
  -4   1  10 344126. 4639.84   5
   4  -3  10 328755. 7680.09  11
   4  -3  10 314598. 5980.74   5
   3  -4  10 320164. 7044.42   5
   1   3  10 308134. 4764.75   9
  -3  -1  10 315487. 5949.26   9
  -1   4  10 339148. 5270.52   9
  -4   1  10 329351. 6706.71   9
  -3  -1  10 334048. 6673.21   8
   4  -3  10 307552. 5969.98   7
   3  -4  10 324843. 5323.74   7
   1   3  10 292146. 5934.73  11
  -3  -1  10 326405. 6235.12  12
  -1   4  10 301774. 6641.76   2
   1   3  10 296099. 6816.62   2
   3  -4  13 5012.46 774.625  11
  -1   4  13 4446.30 819.708   2
  -4   1  13 4286.94 756.256  12
   1   3  13 5195.44 949.759   2
   4  -3  13 5079.90 919.757  11
   4  -3  13 4975.58 882.605   5
  -3  -1  13 4565.11 697.095   5
   1   3  13 4517.67 677.748   9
  -1   4  13 4437.70 691.933   9
  -3  -1  13 4770.17 836.248   9
  -4   1  13 4704.46 888.284   9
  -4   1  13 4776.44 951.866   8
  -3  -1  13 4593.45 858.457   8
  -3  -1  13 4288.41 757.044  12
   3  -4  13 4291.16 664.669   7
   4  -3  13 4213.79 742.608   7
   1   3  13 5318.32 813.226  11
   3  -4  13 4221.55 862.520   5
   1   3  16 182932. 4841.67  11
  -3  -1  16 176215. 5180.64  12
  -4   1  16 178393. 5161.91  12
   4  -3  16 209575. 5467.61  11
   1   3  16 198868. 6168.12   2
   3  -4  16 175276. 6079.13   5
   4  -3  16 187720. 6008.17   5
   1   3  16 199591. 5100.74   9
  -1   4  16 191553. 5009.96   9
  -3  -1  16 180872. 5691.80   9
  -4   1  16 167491. 5363.71   9
  -1   4  16 185753. 5444.58   2
   3  -4  16 196185. 4810.74   7
   4  -3  16 174473. 5110.43   7
  -3  -1  16 182408. 4912.95   5
  -4   1  19 2842.05 679.371  12
  -3  -1  19 2369.76 634.395  12
   1   3  19 2478.93 717.211   2
   4  -3  19 2490.41 733.911   5
   3  -4  19 1945.14 693.020   5
  -1   4  19 2141.55 570.513   9
  -3  -1  19 2388.11 700.867   9
  -4   1  19 1933.52 581.410   9
   4  -3  19 2380.50 633.025   7
  -3  -1  19 2160.06 566.301   5
  -1   4  19 2115.73 586.654   2
   2  -4 -18 151826. 5493.51   1
   2   2 -18 152239. 4832.17  13
  -2  -2 -18 161190. 5485.77   1
  -4   2 -18 151469. 5511.89   4
   4  -2 -18 151760. 4708.15   1
  -2   4 -18 168230. 6187.19   4
   2   2 -18 166493. 6272.86   4
  -2   4 -18 153723. 5600.01   3
  -2  -2 -18 164742. 5543.92  14
   2   2 -18 140630. 5263.67   3
  -4   2 -18 147596. 4992.55  14
  -2  -2 -15 6888.17 1030.65   1
  -4   2 -15 6816.54 1031.14  14
   2   2 -15 6351.12 1106.96   3
   4  -2 -15 6248.11 866.761  10
  -2   4 -15 7263.39 945.562  14
   4  -2 -15 7015.00 927.141   1
  -4   2 -15 6790.39 1098.77   4
  -2   4 -15 6881.87 1136.31   4
   4  -2 -15 6968.58 956.303   4
  -2  -2 -15 8751.03 1295.99  14
  -2   4 -15 6650.66 1121.73   3
   2  -4 -15 7020.12 1120.49   1
   2   2 -15 6509.43 940.259  13
   4  -2 -12 246273. 4785.15   3
  -2  -2 -12 252170. 5577.18   1
  -4   2 -12 246873. 5849.38  14
   4  -2 -12 227609. 4946.13  10
   2  -4 -12 238545. 5581.42  10
  -2  -2 -12 237589. 6035.63  14
   4  -2 -12 251309. 5062.18   1
  -4   2 -12 239137. 6057.89   4
  -4   2 -12 286443. 5063.09   8
  -2   4 -12 254977. 6289.95   4
   2  -4 -12 261695. 6347.84   1
   2   2 -12 252377. 5627.16  13
  -2   4 -12 243206. 6405.46   3
  -2   4 -12 259242. 5632.01  14
   2   2 -12 240695. 6739.92   3
   4  -2  -9 15439.2 1119.95   1
   2   2  -9 14089.8 1558.81   3
  -4   2  -9 14784.3 979.644   8
  -2   4  -9 13971.4 1422.03   3
   4  -2  -9 13810.4 1177.35  10
   2  -4  -9 15657.7 1330.13  10
  -4   2  -9 15046.3 1426.15   4
   4  -2  -9 16025.8 1016.11  11
   2  -4  -9 15076.7 1375.27   1
  -2  -2  -9 17198.1 1559.05  14
  -2   4  -9 14031.1 1305.45   4
   4  -2  -9 13420.5 1128.13   3
  -4   2  -9 14287.1 1330.09  14
  -2   4  -9 15419.0 1387.75  14
  -2  -2  -9 13741.1 1166.19   1
   2   2  -6 386987. 5741.06  11
  -2  -2  -6 416060. 4299.83   6
   2   2  -6 439015. 6786.87  13
   4  -2  -6 418782. 5763.58  11
   2  -4  -6 430987. 6700.99  10
   2  -4  -6 431269. 6890.27   1
  -2  -2  -6 392817. 6751.12  14
  -2   4  -6 536571. 8522.88   2
  -4   2  -6 419834. 6663.89  14
  -2   4  -6 431788. 7274.02   3
  -4   2  -6 465854. 5138.56   8
   2   2  -6 506318. 3997.09   2
   4  -2  -6 364906. 4788.53   1
   2   2  -6 403585. 7743.97   3
  -2  -2  -6 405622. 5515.81   1
  -2   4  -6 424954. 6244.78   4
  -2   4  -6 441131. 7177.32  14
  -4   2  -6 436127. 6493.49   6
  -2  -2  -3 25271.5 722.479   6
   2   2  -3 27330.0 1896.12   3
  -2   4  -3 23484.7 1207.71   6
   2   2  -3 27330.8 1546.36  11
  -2  -2  -3 27397.2 1372.31   1
   4  -2  -3 25381.7 1522.42  11
   4  -2  -3 24767.0 1713.40   7
  -2   4  -3 23687.1 1495.45   3
   2  -4  -3 26584.3 1691.90   1
  -4   2  -3 25408.0 1240.76   8
  -2   4  -3 25624.3 1770.24   2
  -2  -2  -3 25124.0 1545.36   8
   4  -2  -3 23407.5 871.972   1
  -4   2  -3 22628.4 1363.85   6
  -4   2  -3 26081.7 1588.15  14
   2   2  -3 24443.2 1221.32   2
  -2  -2   0 370565. 3998.59  12
  -4   2   0 340952. 5275.85   6
   2   2   0 382218. 5757.52   2
   4  -2   0 350807. 6019.37  11
   2   2   0 358452. 3007.02  10
   2   2   0 395334. 3336.75   9
   2   2   0 357786. 5719.57  11
  -4   2   0 335650. 5017.32   8
   2   2   0 373554. 6583.72   3
  -4   2   0 338740. 5206.62  14
  -2  -2   0 374339. 5575.24   8
  -2   4   0 352635. 6296.83   2
   2   2   0 366428. 3859.54   7
   4  -2   0 298277. 6426.90   7
  -4   2   0 397156. 2584.45   1
  -2  -2   0 405181. 4866.31   1
  -2   4   0 387564. 5365.41   3
   2  -4   0 392582. 6194.11   1
  -2   4   0 442533. 4995.47   6
  -2   4   3 28777.4 1677.50   6
  -4   2   3 24114.8 1555.32   6
   4  -2   3 26001.6 1720.34  11
   4  -2   3 22783.3 1601.76   7
   2   2   3 27170.8 1647.18   3
  -2  -2   3 22201.0 892.659   9
  -2  -2   3 27190.3 1418.44  12
  -4   2   3 26829.7 1650.70   8
   2  -4   3 21819.4 1504.88   1
  -2  -2   3 23415.6 1446.51   8
  -2   4   3 23641.4 576.684   4
   2   2   3 26509.0 1584.75  11
   2   2   3 24934.2 1246.02   7
  -2   4   3 26526.4 1844.09   2
  -4   2   3 28109.4 1466.69  14
   2  -4   3 24942.5 1339.62   7
  -2  -2   6 395889. 5891.86  12
   2   2   6 373725. 5648.79   3
  -4   2   6 351418. 6471.28   6
   2  -4   6 442146. 5074.99   7
  -2  -2   6 422340. 5274.72   9
  -4   2   6 368942. 6405.36   9
  -2   4   6 456486. 5681.94   9
   2   2   6 349163. 6040.85  11
  -4   2   6 424382. 7448.79   8
   4  -2   6 384292. 4258.80   5
   2   2   6 372656. 5668.35   7
  -2  -2   6 448433. 6517.90   5
   4  -2   6 378315. 6561.75   7
  -2  -2   6 429353. 6404.33   8
   4  -2   6 359464. 6840.96  11
  -4   2   6 411116. 6972.75  12
  -2   4   6 364153. 7436.56   2
  -4   2   6 429020. 4489.40  14
  -4   2   6 378786. 4287.01   2
   2  -4   6 421813. 7328.29   5
  -2  -2   9 13455.7 1190.92  12
   2   2   9 14397.6 1289.07  11
   2   2   9 14742.6 1047.71   3
   4  -2   9 14067.7 1055.51   5
   4  -2   9 14762.9 1516.90  11
  -2  -2   9 13152.7 1179.74   5
   2  -4   9 12414.3 1339.37   5
  -4   2   9 14674.3 1431.04   9
  -4   2   9 14711.6 748.774   2
  -4   2   9 13542.5 1438.58   8
  -2  -2   9 13274.6 1253.99   8
  -2   4   9 12576.8 1074.64   9
  -2  -2   9 14756.7 1202.30   9
   2   2   9 14280.2 1273.24   7
   4  -2   9 13114.7 1287.32   7
   2  -4   9 14744.0 974.485   7
  -4   2   9 13602.9 1281.77  12
  -2   4   9 15688.8 1478.91   2
  -2  -2  12 248007. 5630.83  12
  -4   2  12 255814. 5748.40  12
   4  -2  12 258879. 6320.35  11
  -4   2  12 244565. 6191.36   9
   2  -4  12 245502. 6363.58   5
  -2   4  12 241544. 5720.35   2
  -2  -2  12 244194. 5628.66   9
  -2   4  12 260060. 5312.46   9
  -2  -2  12 282198. 6580.88   8
   4  -2  12 259999. 5464.06   5
   2   2  12 238458. 5900.60   7
   2   2  12 236137. 5465.74  11
   2  -4  12 285454. 4764.28   7
   4  -2  12 242022. 5830.17   7
  -2  -2  12 248532. 5436.47   5
  -2  -2  15 6266.38 982.981  12
  -2  -2  15 9048.54 1103.90   5
   2   2  15 6343.99 927.196  11
   4  -2  15 6437.68 972.044  11
   2  -4  15 5726.03 1040.69   5
  -2  -2  15 6969.40 1060.49   9
  -2   4  15 6096.08 888.519   9
  -4   2  15 6080.66 980.738   9
   2   2  15 6874.58 1087.25   7
   4  -2  15 6353.22 1025.78   7
  -2   4  15 6524.32 947.624   2
  -4   2  15 6373.78 958.859  12
  -4   2  18 148141. 4826.47  12
  -2  -2  18 143065. 4826.40   5
  -2   4  18 151870. 4608.37   2
   2  -4  18 145771. 5658.21   5
   2   2  18 160231. 5102.88   9
  -2  -2  18 150023. 5529.68   9
  -2   4  18 145342. 4657.36   9
  -4   2  18 134664. 4754.48   9
  -2  -2  18 155791. 5346.63  12
   4  -2  18 144741. 5185.18   7
  -2  -2  21 3158.20 837.074   9
  -2   4  21 3123.58 700.771   9
  -4   3 -19 2325.33 601.063  14
   4  -1 -19 2387.28 647.059  13
  -1  -3 -19 2781.85 697.046  14
  -4   3 -19 2315.07 702.280   4
  -3   4 -19 2643.12 778.259   4
   3   1 -19 2776.15 667.998  13
   4  -1 -19 1828.37 567.572   4
   3   1 -19 1844.32 621.400   4
   1  -4 -19 2701.35 776.336   1
  -1  -3 -19 2361.55 706.044   1
  -1  -3 -16 190451. 5774.96   1
   1  -4 -16 171403. 4652.84  14
  -4   3 -16 176332. 5634.52   4
  -3   4 -16 188249. 5959.99   4
  -1  -3 -16 202599. 6004.76  14
   4  -1 -16 171540. 5256.29   4
  -4   3 -16 172809. 5007.84  14
  -3   4 -16 185318. 5018.82  14
   1  -4 -16 189174. 5985.79   1
   3   1 -16 184405. 5819.57   3
   3   1 -16 177639. 5028.62  13
   4  -1 -13 5583.83 827.643   3
   4  -1 -13 4855.43 714.836  10
  -4   3 -13 4367.51 756.777  14
  -4   3 -13 4566.83 843.744   4
  -3   4 -13 5989.95 958.379   4
   1  -4 -13 4758.89 853.868   1
  -1  -3 -13 4418.99 796.930   1
  -3   4 -13 4756.99 772.718  14
  -1  -3 -13 6001.54 1048.07  14
   3   1 -13 5236.36 985.071   3
  -3   4 -10 349890. 6446.21  14
   4  -1 -10 306845. 6003.53   3
   3   1 -10 333338. 6097.19  13
   1  -4 -10 313486. 5611.70  10
   4  -1 -10 322025. 5449.62  10
  -4   3 -10 323316. 6266.73  14
  -4   3 -10 352251. 6763.15   4
  -3   4 -10 326207. 6254.28   4
   1  -4 -10 335089. 6560.87   1
   3   1 -10 353233. 8092.85   3
  -1  -3 -10 337969. 6243.33   1
  -4   3  -7 9025.30 1006.01  14
   3   1  -7 10571.1 1294.16   3
  -4   3  -7 8975.21 957.306   6
   3   1  -7 10930.0 850.847  11
  -3   4  -7 8268.36 861.467   6
   4  -1  -7 9346.05 740.327  11
   4  -1  -7 9242.71 1079.54   3
   1  -4  -7 10029.1 931.768  10
   3   1  -7 10759.0 618.178  10
   4  -1  -7 12966.9 783.903   1
   3   1  -7 9880.50 548.620   7
   1  -4  -7 9737.03 1036.90   1
  -4   3  -7 9750.15 1027.10   4
  -1  -3  -7 8855.99 914.846   1
  -4   3  -7 10001.9 605.680   8
  -3   4  -7 8624.19 1061.42   2
   3   1  -7 8335.78 927.985  13
  -3   4  -7 9352.30 923.972   4
  -3   4  -7 10086.0 1080.40  14
   4  -1  -7 9222.70 969.287   7
  -3   4  -4 358083. 5253.68   6
  -3   4  -4 371429. 6803.71  14
   3   1  -4 340039. 6673.42   3
   3   1  -4 359866. 5243.14  11
  -4   3  -4 337946. 5912.49  14
   1  -4  -4 345970. 6044.55   1
   4  -1  -4 319797. 4788.33  11
   3   1  -4 365020. 3702.12   2
  -1  -3  -4 355771. 5599.95   1
   1  -4  -4 369040. 5132.05  10
   4  -1  -4 384980. 6395.58   7
  -3   4  -4 381758. 7158.54   2
  -4   3  -4 415060. 4187.48   8
  -4   3  -4 355622. 5709.30   6
  -3   4  -4 389873. 5064.46   4
   3   1  -4 351692. 5860.96  13
   3   1  -4 337814. 3421.22   7
   4  -1  -4 331446. 4946.01  13
  -4   3  -1 12613.7 1033.72   6
   3   1  -1 14903.9 1121.04  11
   1  -4  -1 13586.5 1169.08   1
   4  -1  -1 14148.9 1092.57  11
   3   1  -1 14789.2 1283.21   3
   1  -4  -1 16891.9 1020.69  10
  -3   4  -1 14394.2 1298.64  14
  -4   3  -1 12924.5 1086.31   2
  -4   3  -1 16355.1 932.580   8
  -3   4  -1 14802.8 646.882   4
  -3   4  -1 14813.5 1350.27   2
  -1  -3  -1 13534.4 1055.98   8
  -4   3  -1 14973.0 1225.65  14
   3   1  -1 13838.0 807.357   7
   4  -1  -1 14884.4 1383.46   7
  -3   4  -1 12165.0 945.207   6
  -1  -3  -1 14257.5 1086.51   1
   4  -1  -1 12903.7 870.373  13
  -3   4   2 473983. 6264.06   6
   3   1   2 385959. 6023.87  11
  -4   3   2 399065. 6388.52  14
   4  -1   2 387951. 6151.43  11
  -4   3   2 365986. 5722.91   2
  -4   3   2 404597. 5230.52   8
  -1  -3   2 465510. 5830.74   8
   1  -4   2 441595. 4299.83   8
  -1  -3   2 461846. 6079.56   1
   1  -4   2 458718. 6792.85   1
  -3   4   2 321537. 6085.26   2
   3   1   2 400190. 5008.93   7
   1  -4   2 520399. 5315.18   7
   4  -1   2 351709. 6413.99   7
  -4   3   2 421709. 6309.01   6
  -4   3   5 9671.16 1077.56   6
   3   1   5 11167.5 1080.93  11
   4  -1   5 11119.6 1117.66  11
   1  -4   5 9675.27 1065.26   5
  -1  -3   5 10017.9 1018.76   5
  -1  -3   5 11593.2 744.117   9
  -4   3   5 10681.0 1141.76   9
  -3   4   5 11014.6 1035.34   9
  -4   3   5 11391.4 1028.78   8
   1  -4   5 11683.8 788.357   8
  -4   3   5 11354.2 970.041   2
  -1  -3   5 11635.8 999.321   8
  -3   4   5 10963.4 1125.52   2
   3   1   5 11407.6 969.789   7
   1  -4   5 11158.9 635.255   7
   4  -1   5 11639.9 1141.67   7
  -3   4   5 11224.3 1166.47   6
   1  -4   8 363755. 4573.39   8
   3   1   8 292804. 5868.59  11
  -4   3   8 337100. 6373.21  12
  -1  -3   8 293817. 4649.12   9
  -1  -3   8 302479. 5760.27   5
   1  -4   8 292529. 6047.00   5
  -3   4   8 311580. 5792.27   9
  -1  -3   8 343844. 5944.53   8
  -4   3   8 312698. 4919.52   2
   3   1   8 300180. 5587.71   7
   1  -4   8 374701. 3882.16   7
   4  -1   8 296532. 6007.43   7
  -3   4   8 318522. 6413.00   2
   4  -1   8 302558. 6400.14  11
  -4   3   8 284479. 6246.03   6
  -4   3   8 319443. 6636.24   9
  -1  -3  11 5156.50 774.428  12
   3   1  11 5898.72 885.190  11
  -3   4  11 5418.12 791.405   9
  -4   3  11 5481.82 844.299  12
  -1  -3  11 5130.04 813.571   5
   1  -4  11 4801.79 823.026   5
  -1  -3  11 5465.67 761.340   9
  -1  -3  11 8680.83 1084.42   8
  -4   3  11 5755.79 649.147   2
   3   1  11 6537.76 932.734   7
   4  -1  11 5095.78 841.842   7
  -3   4  11 5541.89 841.140   2
  -4   3  11 5271.35 859.433   9
   4  -1  11 5974.92 929.645  11
  -1  -3  14 213143. 5536.39  12
  -3   4  14 213692. 4997.54  12
   3   1  14 211177. 5502.60  11
   4  -1  14 211231. 5570.73  11
  -1  -3  14 207767. 5531.67   5
   1  -4  14 194202. 5544.38   5
  -1  -3  14 218242. 5531.41   9
  -3   4  14 215195. 5380.87   9
  -4   3  14 210597. 5658.75   9
   3   1  14 207347. 5837.87   7
   4  -1  14 203911. 5764.23   7
  -3   4  14 199989. 4925.86   2
  -4   3  14 212878. 5451.91  12
  -1  -3  17 2927.27 711.836  12
  -3   4  17 2546.03 581.381  12
   4  -1  17 2763.94 644.353  11
  -1  -3  17 2310.04 619.339   5
   1  -4  17 2557.98 672.528   5
  -1  -3  17 2757.37 705.359   9
  -3   4  17 2319.54 583.814   9
   3   1  17 2821.59 650.936  11
  -4   3  17 2451.99 632.325   9
   3   1  17 2780.39 745.750   7
   4  -1  17 2795.40 733.323   7
  -4   3  17 2319.64 592.893  12
  -4   3  20 135524. 4714.22  12
  -1  -3  20 139922. 5188.20   5
   1  -4  20 131161. 5128.05   5
   1  -4  20 141847. 5356.84   9
  -1  -3  20 143290. 5579.09   9
  -3   4  20 134829. 4724.82   9
  -4   3  20 135408. 4813.51   9
   3   1  20 144353. 5696.19   7
   4  -1  20 134710. 5472.94   7
   1  -4  20 150331. 5478.97  12
  -1  -3  20 140572. 5375.70  12
   4   0 -20 114024. 4628.11   4
   4   0 -17 193.648 181.989  13
  -4   4 -17-13.0444 88.8710  14
   4   0 -17-76.9266 105.879   3
   0  -4 -17 8.63252 33.4603   1
  -4   4 -17 294.341 244.310   4
   0  -4 -17 312.312 209.344  14
   4   0 -14 190112. 5362.43   3
   4   0 -14 194929. 5249.26  13
  -4   4 -14 206740. 5807.89   4
   0  -4 -14 195397. 5626.09   1
  -4   4 -14 190131. 5160.77  14
   0  -4 -14 211667. 5985.56  14
   4   0 -11 22.9661 73.4860   3
   0  -4 -11-10.4223 74.5322   1
  -4   4 -11-38.1775 70.0412   4
  -4   4 -11-14.6511 70.1815  14
   4   0 -11 93.3436 84.5178  10
  -4   4  -8 306714. 5828.37   6
   4   0  -8 283474. 6500.45   3
   4   0  -8 315442. 4231.55  11
   0  -4  -8 289039. 5831.91   1
   4   0  -8 351149. 5343.43   7
  -4   4  -8 337181. 6104.58   4
   4   0  -8 309736. 4626.70  10
  -4   4  -8 294382. 5994.29  14
   4   0  -8 286620. 5521.28  13
  -4   4  -5 10.8715 8.23812  14
  -4   4  -5-7.97081 39.5854   6
  -4   4  -5 1.28631 48.3590   2
   4   0  -5 37.8368 49.1750  11
   4   0  -5 30.9929 63.2052   3
   4   0  -5 52.0996 77.3495  13
  -4   4  -5-4.54445 37.3939   4
   4   0  -5 36.9242 56.0610   7
   4   0  -2 376420. 5725.25  13
   4   0  -2 365343. 5433.50  11
   0  -4  -2 407875. 4004.51  10
  -4   4  -2 358372. 6683.79   2
   0  -4  -2 400433. 5963.31   8
   4   0  -2 412011. 6157.50   7
  -4   4  -2 380647. 6838.48  14
  -4   4  -2 420076. 6366.04   6
   0  -4  -2 432611. 6932.73   1
  -4   4   1 93.4492 75.8773  14
   0  -4   1 16.9755 25.1419  10
   0  -4   1 0.40872 21.9900   1
   0  -4   1 24.8180 54.7194   8
  -4   4   4 292332. 5862.95   6
   4   0   4 292145. 5770.52  11
   0  -4   4 276414. 2826.20   9
   0  -4   4 297566. 5712.91   1
   0  -4   4 303943. 4722.48   8
  -4   4   4 276529. 5566.91   2
   4   0   4 274935. 5327.95   7
  -4   4   7 14.2631 75.0865   6
   4   0   7-2.94968 8.08446  11
  -4   4   7 20.6001 36.2078   2
   0  -4   7 43.7770 53.6000   9
  -4   4   7 0.34527 42.8159   9
   0  -4   7-13.0872 16.4851   5
   0  -4   7 91.2951 97.8508   8
   4   0   7-5.70096 36.6065   7
   4   0  10 285551. 6517.81  11
   0  -4  10 288061. 6262.80   5
  -4   4  10 293987. 6139.62   9
  -4   4  10 296403. 5610.30   2
   4   0  10 292667. 6357.14   7
   4   0  13-12.5676 65.9518  11
  -4   4  13-12.8004 61.7455   2
   0  -4  13 145.563 133.604   9
  -4   4  13 29.6357 59.9991   9
   0  -4  13 14.1503 46.8638   5
  -4   4  13 5.13539 45.4424  12
   4   0  13-8.41394 30.7099   7
   0  -4  16 171736. 5473.46  12
   4   0  16 159443. 5185.59  11
   0  -4  16 152191. 4976.14   5
  -4   4  16 156185. 4815.98  12
  -4   4  16 158724. 4927.90   9
   4   0  16 163691. 5734.63   7
   0  -4  19 28.9048 78.8683  12
  -4   4  19-45.0072 81.4425  12
   0  -4  19 5.30634 30.4333   5
  -4   4  19 230.576 203.374   9
   0  -4  19-44.8912 92.3482   9
   4   0  19-28.1790 101.478   7
   0   5 -17-57.2391 115.850   3
   5  -5 -17 27.5064 96.5228  10
  -5   0 -17 3.32263 24.7899   8
   0   5 -17 64.2997 130.754   4
  -5   0 -17 67.6910 122.214  14
  -5   0 -14 167397. 4968.56   6
   5  -5 -14 161566. 4917.69  10
   5  -5 -14 182476. 5412.79   1
  -5   0 -14 179753. 5861.43  14
  -5   0 -14 168110. 5375.31   8
   0   5 -14 185906. 7003.20   3
  -5   0 -11-3.82223 52.3539  14
   0   5 -11 71.7546 160.113   3
  -5   0 -11 243.877 174.640   6
   5  -5 -11 38.7465 70.7225  10
  -5   0 -11 94.7443 141.385   8
   5  -5 -11 112.617 144.971   1
   5  -5  -8 277460. 6371.96   1
  -5   0  -8 290904. 6264.90  14
  -5   0  -8 277935. 6075.59   8
  -5   0  -8 273730. 5723.21   6
   0   5  -8 289232. 7031.66   3
  -5   0  -5 45.3499 66.4548   6
   0   5  -5 20.4195 51.9040   3
   0   5  -5 280.981 168.775   2
   5  -5  -5 372.014 223.992   1
  -5   0  -5-2.19036 22.9050  14
  -5   0  -5-26.8827 56.1286   8
  -5   0  -2 155160. 3776.84  14
  -5   0  -2 148635. 4330.33   8
   5  -5  -2 138469. 4244.42   1
   0   5  -2 172439. 4827.23   2
  -5   0  -2 164551. 4093.42   6
   5  -5  -2 146129. 5166.46   7
   0   5  -2 166264. 4330.46   3
   5  -5   1 56.1831 149.485   7
   5  -5   1 16.8972 46.8830   1
  -5   0   1 162.567 105.621  14
   0   5   1 35.0623 95.6014   2
   5  -5   1 181.383 125.774   5
  -5   0   1 75.2322 122.509   8
   0   5   1 25.4089 41.0367   3
  -5   0   4 330708. 6045.10  12
  -5   0   4 360120. 4638.98  14
   5  -5   4 368805. 6236.57   5
   0   5   4 344589. 7142.85  11
  -5   0   4 363629. 7029.14   8
   5  -5   4 372795. 7638.47   7
   0   5   4 371201. 5057.07   3
  -5   0   4 345198. 6471.81   6
  -5   0   7 536.219 263.753  12
   0   5   7 97.8856 98.8751  11
  -5   0   7 526.388 266.839   8
   5  -5   7 75.9797 113.979   7
  -5   0  10 181234. 5170.48  12
   5  -5  10 192205. 6112.73  11
   5  -5  10 194009. 5159.35   5
  -5   0  10 172456. 4587.48   9
  -5   0  10 175686. 5145.94   8
   0   5  10 173681. 5095.09  11
   5  -5  10 175425. 4843.45   7
   0   5  10 174651. 5644.19   2
  -5   0  13 368.037 240.878  12
   5  -5  13 102.545 142.832  11
   0   5  13 186.645 200.135   2
   5  -5  13 64.8807 102.314   5
  -5   0  13-5.32582 22.6393   9
   5  -5  13 214.335 201.916   7
  -5   0  16 112332. 4349.08  12
  -5   0  16 106847. 4112.47   9
   5  -5  16 109549. 4069.79   7
  -5   1 -18 110844. 4553.61   6
   5  -4 -18 114805. 4069.30  10
   4  -5 -18 117612. 4345.18  10
  -5   1 -18 135071. 5579.42  14
   4  -5 -18 115080. 4646.64   1
  -1   5 -18 132437. 6013.57   3
  -4  -1 -18 124219. 5112.12   8
  -1   5 -18 133446. 5963.99   4
   1   4 -18 133667. 6090.89   4
  -4  -1 -18 141195. 5809.46  14
   1   4 -18 116114. 5468.99   3
  -5   1 -15 2218.66 626.867   6
   5  -4 -15 2363.75 582.398  10
   4  -5 -15 2818.80 679.993  10
  -1   5 -15 2257.66 756.034   3
   4  -5 -15 2141.70 613.609   1
  -4  -1 -15 2367.75 593.113   1
  -5   1 -15 2398.88 587.654   8
  -4  -1 -15 2424.39 696.051   8
  -1   5 -15 2015.76 697.527   4
  -4  -1 -15 2439.48 693.319  14
   1   4 -15 2234.60 746.572   3
  -5   1 -15 2498.04 715.295  14
  -4  -1 -12 220756. 5126.07   1
  -5   1 -12 189576. 5393.83   6
  -4  -1 -12 197046. 4768.39   6
   5  -4 -12 191292. 5189.71  10
   4  -5 -12 196660. 5509.47  10
  -5   1 -12 196029. 5650.85  14
   4  -5 -12 183416. 5446.22   1
   5  -4 -12 199371. 5067.94   1
  -5   1 -12 200258. 5035.91   8
  -4  -1 -12 207470. 6203.75   8
  -1   5 -12 219675. 6782.36   4
  -4  -1 -12 195263. 5719.76  14
  -1   5 -12 204181. 6790.45   3
   1   4 -12 194663. 6489.94   3
  -4  -1  -9 4685.54 655.734   6
  -5   1  -9 3994.11 720.148   6
   5  -4  -9 4367.01 723.433   1
   4  -5  -9 3838.27 767.580   1
   4  -5  -9 4395.73 810.453  10
  -1   5  -9 4347.99 875.971   3
  -1   5  -9 3936.62 700.354   2
  -4  -1  -9 4618.63 811.942  14
  -5   1  -9 4717.59 794.462  14
  -5   1  -9 3729.66 637.134   8
  -4  -1  -9 3847.04 763.302   8
  -4  -1  -9 4377.12 615.215   1
   1   4  -9 3916.87 837.068   3
   4  -5  -6 314719. 7216.03   1
  -4  -1  -6 290713. 4579.33   6
  -5   1  -6 300832. 5950.95   6
  -4  -1  -6 326666. 4653.44   1
  -1   5  -6 339515. 6684.51   2
  -5   1  -6 297298. 5427.74   8
  -4  -1  -6 296171. 6379.89   8
  -1   5  -6 300529. 6468.18   3
   1   4  -6 361497. 5620.39   2
  -4  -1  -6 312713. 6202.67  14
  -5   1  -6 298130. 5782.51  14
   1   4  -6 305159. 6835.79   3
   5  -4  -6 289318. 5532.06   1
  -5   1  -3 5737.64 769.307   6
  -5   1  -3 5778.31 738.962  14
   1   4  -3 5880.02 879.847  11
   5  -4  -3 6110.49 1010.95   7
  -4  -1  -3 6816.80 667.275   6
   1   4  -3 6240.78 895.965   3
  -5   1  -3 5775.41 759.578   8
  -4  -1  -3 6740.64 913.372   8
  -1   5  -3 5696.40 895.761   2
   5  -4  -3 5976.96 739.866   1
   1   4  -3 5743.98 758.801   2
   4  -5  -3 5994.35 954.509   1
  -1   5  -3 5173.02 754.069   3
  -4  -1  -3 6122.68 760.826  14
  -4  -1   0 266414. 4462.33   6
   1   4   0 302944. 5619.89   3
  -5   1   0 261452. 5372.00   6
   1   4   0 278676. 5995.74  11
  -1   5   0 274587. 4867.46   3
  -5   1   0 261351. 4551.71  14
   1   4   0 315482. 6657.71   2
  -5   1   0 246751. 5306.52   8
  -4  -1   0 274776. 5804.31   8
   4  -5   0 272891. 6308.57   1
  -4  -1   0 276100. 4632.77  14
  -1   5   0 299135. 7122.22   2
   4  -5   0 306944. 7135.76   7
   5  -4   0 245666. 6725.47   7
   1   4   3 6173.10 958.042   2
  -5   1   3 6499.65 918.917   6
   1   4   3 6186.15 727.578   3
  -4  -1   3 6536.48 742.286  12
   1   4   3 5958.54 889.144  11
   5  -4   3 7162.89 632.477   5
  -4  -1   3 6782.40 628.533   5
   4  -5   3 5453.39 845.213   5
  -5   1   3 5720.81 839.964   8
  -4  -1   3 5503.86 841.639   8
   5  -4   3 5715.16 972.240   7
   4  -5   3 6282.44 912.008   7
  -4  -1   3 6429.80 730.536   6
  -1   5   3 5561.29 985.990   2
  -4  -1   3 7734.16 672.680  14
  -1   5   3 5595.94 597.231   3
  -5   1   3 6257.79 653.004  14
   1   4   6 324915. 4623.90   3
  -4  -1   6 299797. 5712.67  12
   4  -5   6 297534. 5641.21   7
   1   4   6 261221. 6515.68   2
  -5   1   6 280399. 6069.46  12
   1   4   6 288140. 6296.73  11
  -5   1   6 274967. 6206.32   6
   5  -4   6 289824. 7247.00  11
  -1   5   6 269244. 6771.51   2
   5  -4   6 322730. 5013.29   5
  -4  -1   6 333523. 4632.44   5
   4  -5   6 281466. 6224.29   5
  -4  -1   6 301753. 4911.13   9
  -5   1   6 298094. 6282.54   8
  -4  -1   6 302290. 6197.75   8
   5  -4   6 278111. 6259.82   7
  -4  -1   9 3744.37 686.792  12
  -5   1   9 4471.60 787.344  12
   1   4   9 3951.03 811.032   2
   5  -4   9 4423.70 923.025  11
   5  -4   9 4532.20 699.486   5
  -4  -1   9 4556.01 587.877   5
   4  -5   9 3896.31 780.858   5
  -5   1   9 3801.47 693.637   9
  -4  -1   9 3680.87 601.193   9
   1   4   9 4190.90 772.104  11
  -5   1   9 3553.65 728.226   8
  -4  -1   9 4206.65 754.108   8
   5  -4   9 4466.85 775.406   7
   4  -5   9 3857.70 640.029   7
  -1   5   9 4150.43 844.937   2
  -4  -1  12 180570. 5017.44  12
  -5   1  12 192733. 5373.94  12
   1   4  12 182978. 5219.09  11
   5  -4  12 214949. 6831.87  11
   5  -4  12 220194. 5628.20   5
   4  -5  12 203261. 5843.65  11
  -4  -1  12 215005. 4493.13   5
   4  -5  12 189053. 5833.92   5
  -4  -1  12 181317. 4696.90   9
  -5   1  12 184520. 5247.13   9
   1   4  12 183040. 5798.90   2
  -5   1  12 178474. 5431.05   8
  -4  -1  12 183892. 5310.62   8
   5  -4  12 181235. 5106.46   7
   4  -5  12 191862. 4686.70   7
  -1   5  12 194959. 5844.68   2
  -5   1  15 2922.89 690.805  12
   1   4  15 2549.26 702.600   2
  -4  -1  15 2179.26 572.866  12
   5  -4  15 2522.89 686.425  11
   4  -5  15 2484.94 719.247   5
  -4  -1  15 2150.45 559.859   9
  -4  -1  15 2085.07 592.953   8
   4  -5  15 2607.41 573.215   7
   5  -4  15 2191.23 579.432   7
   1   4  15 2274.88 588.417  11
  -1   5  15 2464.93 671.786   2
  -5   1  15 2259.96 622.115   9
  -4  -1  18 110616. 4292.90  12
  -5   1  18 113571. 4405.92  12
   4  -5  18 117089. 5251.30   5
  -4  -1  18 107816. 4271.01   9
  -5   1  18 114157. 4609.30   9
   5  -4  18 110280. 4283.26   7
   1   4  18 128353. 5269.77   2
  -1   5  18 125895. 4855.34   2
  -3  -2 -19 379.777 263.617   1
   2   3 -19 619.822 379.733   3
  -3  -2 -19 551.656 355.918  14
  -5   2 -19 363.369 274.947  14
  -5   2 -16 161583. 5628.67  14
  -5   2 -16 149810. 5259.76   6
   5  -3 -16 137044. 4300.12  10
   3  -5 -16 152575. 4938.41  10
   3  -5 -16 142256. 5132.56   1
  -2   5 -16 170322. 6232.98   4
  -2   5 -16 169375. 6360.89   3
  -3  -2 -16 166370. 5997.87  14
   2   3 -16 142932. 5757.53   3
  -3  -2 -16 154939. 5110.58   1
   2   3 -16 151813. 4997.04  13
   2   3 -13 731.116 345.615  13
  -5   2 -13 976.129 391.424   6
  -3  -2 -13 1042.25 431.172  14
   2   3 -13 1044.78 493.001   3
  -2   5 -13 849.110 444.205   3
   5  -3 -13 625.492 283.208  10
   3  -5 -13 804.659 346.609  10
   3  -5 -13 857.966 387.594   1
  -5   2 -13 842.575 294.792   8
  -2   5 -13 663.170 354.324   4
  -3  -2 -13 682.918 305.282   1
  -5   2 -13 846.545 381.281  14
  -5   2 -10 222066. 5504.67   6
   5  -3 -10 215551. 4795.49   3
   5  -3 -10 242236. 4697.33  11
   5  -3 -10 224368. 5300.97  10
   3  -5 -10 224320. 5618.61  10
   3  -5 -10 236839. 6238.44   1
  -2   5 -10 225190. 5353.77   2
  -5   2 -10 244849. 4666.01   8
  -3  -2 -10 233384. 6580.56   8
  -2   5 -10 237319. 6748.84   3
  -2   5 -10 240402. 6211.55   4
  -3  -2 -10 229271. 4975.79   1
  -3  -2 -10 216033. 5829.31  14
   2   3 -10 203751. 6346.18   3
  -5   2 -10 222641. 5867.61  14
   2   3 -10 230453. 5943.00  13
   5  -3  -7 1211.75 295.042   1
   2   3  -7 1360.35 397.999  11
  -5   2  -7 1258.09 391.657   6
  -2   5  -7 1271.02 328.432   6
   3  -5  -7 1267.07 426.743   1
  -3  -2  -7 1301.49 426.152  14
   3  -5  -7 1507.60 451.683  10
  -3  -2  -7 1096.38 310.972   1
  -2   5  -7 1378.51 463.485   2
  -2   5  -7 965.599 370.663   3
  -5   2  -7 1235.42 310.381   8
  -3  -2  -7 1154.68 424.396   8
  -2   5  -7 1394.28 421.155   4
   2   3  -7 1229.48 458.976   3
  -5   2  -7 1145.38 379.490  14
   2   3  -4 379528. 6608.77  11
   3  -5  -4 435019. 8065.58   1
  -3  -2  -4 404023. 3724.15   6
   2   3  -4 397331. 7732.67   3
  -5   2  -4 397742. 6782.03   6
  -3  -2  -4 430876. 5830.25   1
   5  -3  -4 423516. 8088.09   7
  -5   2  -4 380460. 6404.27  14
  -2   5  -4 495910. 5904.81   6
  -5   2  -4 413061. 5816.87   8
  -2   5  -4 474030. 8710.44   2
  -3  -2  -4 385464. 7160.27   8
   5  -3  -4 439764. 4762.67   1
   2   3  -4 453902. 5606.58   2
  -3  -2  -4 427342. 7143.77  14
  -2   5  -4 366015. 6449.20   3
  -2   5  -1 1390.80 303.262   6
  -5   2  -1 1353.29 376.182   6
   2   3  -1 1373.78 423.488   3
   2   3  -1 1319.59 406.821  11
  -2   5  -1 1124.59 317.655   3
   5  -3  -1 1332.46 426.995  11
   2   3  -1 1321.36 368.193   2
  -3  -2  -1 1290.70 204.216  12
  -5   2  -1 1238.97 338.642   8
  -3  -2  -1 1401.07 397.915   8
  -2   5  -1 1234.43 426.060   2
  -3  -2  -1 1441.32 297.260   1
   3  -5  -1 1057.48 361.028   1
  -3  -2  -1 1275.46 343.392  14
   5  -3  -1 1207.10 447.614   7
  -5   2  -1 1295.58 347.142  14
  -3  -2  -1 1620.99 242.370   6
  -5   2   2 227298. 5202.85   6
  -3  -2   2 226034. 3796.99  12
   2   3   2 246585. 5266.00   3
   2   3   2 243049. 5536.87  11
   5  -3   2 217616. 5702.96  11
   2   3   2 231943. 5228.46   2
  -5   2   2 230009. 4787.92   8
   3  -5   2 236643. 5609.78   1
  -3  -2   2 238257. 5254.65   8
  -2   5   2 217683. 5938.34   2
  -2   5   2 245435. 4102.07   3
  -3  -2   2 238636. 4155.16  14
   5  -3   2 222099. 6061.68   7
   3  -5   2 254223. 5266.49   7
  -5   2   2 239322. 4255.72  14
  -5   2   5 1118.18 391.460   6
  -3  -2   5 1282.49 357.292  12
  -5   2   5 1217.83 397.590  12
   2   3   5 1162.79 388.162  11
   2   3   5 1008.90 391.939   2
   2   3   5 1329.63 356.763   3
   5  -3   5 1328.60 466.818  11
   5  -3   5 951.106 368.915   7
  -3  -2   5 1244.30 353.792   5
   3  -5   5 1222.91 430.062   5
  -3  -2   5 1102.75 245.460   9
  -5   2   5 1023.54 351.913   8
  -3  -2   5 1084.36 359.726   8
   2   3   5 1372.59 371.316   7
  -2   5   5 1130.20 448.756   2
  -3  -2   5 1318.77 269.287  14
   3  -5   5 1073.17 305.942   7
  -5   2   5 1185.92 276.720  14
  -3  -2   8 297743. 5985.04  12
  -5   2   8 294330. 6283.21  12
   2   3   8 315327. 5011.31   3
   2   3   8 283871. 6312.60  11
   2   3   8 280364. 6936.33   2
   5  -3   8 305319. 4495.74   5
   5  -3   8 260129. 6926.07  11
  -3  -2   8 324028. 5666.65   5
   3  -5   8 299786. 6991.94   5
  -3  -2   8 315446. 4914.05   9
  -5   2   8 280125. 6087.14   9
  -2   5   8 324708. 4638.73   9
  -5   2   8 291757. 6571.35   8
  -3  -2   8 281389. 5784.71   8
   2   3   8 283645. 5958.06   7
   5  -3   8 274616. 6263.93   7
   3  -5   8 309892. 5045.73   7
  -2   5   8 269891. 6737.93   2
  -5   2   8 267896. 6234.00   6
  -3  -2  11 455.604 252.439  12
  -5   2  11 601.882 297.028  12
   5  -3  11 1039.81 323.690   5
   2   3  11 642.076 309.987  11
   5  -3  11 500.671 336.974  11
  -3  -2  11 562.472 244.488   5
   3  -5  11 905.572 400.331   5
  -3  -2  11 554.327 240.809   9
  -2   5  11 626.420 242.007   9
  -5   2  11 562.689 293.652   9
  -3  -2  11 621.244 292.679   8
  -5   2  11 401.495 252.845   8
   3  -5  11 511.007 213.173   7
  -2   5  11 1067.23 421.394   2
   5  -3  11 474.835 265.310   7
  -3  -2  14 195274. 5462.09  12
  -5   2  14 197662. 5548.72  12
   2   3  14 198896. 5625.18  11
   2   3  14 200368. 6510.65   2
   5  -3  14 209522. 6641.10  11
  -3  -2  14 194802. 4895.11   5
  -3  -2  14 192201. 5034.03   9
  -2   5  14 202151. 4695.49   9
  -5   2  14 199395. 5917.45   9
   3  -5  14 191970. 6224.13   5
  -3  -2  14 192800. 5500.38   8
   5  -3  14 192126. 5608.04   7
  -2   5  14 195070. 5683.23   2
  -3  -2  17 160.702 145.806  12
  -5   2  17 342.477 235.073  12
   2   3  17 666.848 324.787  11
  -2   5  17 436.525 264.637   2
   2   3  17 367.489 295.871   2
  -3  -2  17 293.676 209.797   5
   3  -5  17 347.969 300.081   5
  -3  -2  17 255.082 203.639   9
  -5   2  17 278.273 231.015   9
   5  -3  17 181.562 185.792   7
   3   2 -17 306.125 207.874  13
   2  -5 -17 149.943 183.495   1
   3   2 -17 304.595 254.581   3
   5  -2 -17 842.897 321.867  10
  -5   3 -17 459.735 308.655   6
  -5   3 -17 311.445 258.590   4
  -2  -3 -17 342.444 242.641   1
  -3   5 -17 323.171 268.917   4
  -2  -3 -17 773.344 424.015  14
  -5   3 -17 342.793 229.502  14
  -5   3 -14 201123. 5773.19   6
   5  -2 -14 187218. 4726.96  10
  -5   3 -14 195161. 5874.05   4
   2  -5 -14 208207. 6203.89   1
  -5   3 -14 191994. 5611.85  14
  -3   5 -14 208924. 6207.07   4
  -2  -3 -14 201317. 5525.53   1
  -2  -3 -14 218651. 6557.12  14
  -3   5 -14 200150. 5430.63  14
   3   2 -14 206959. 6743.92   3
   3   2 -14 197397. 5441.73  13
   3   2 -11 532.444 278.002  13
  -5   3 -11 555.411 280.768   6
  -3   5 -11 656.064 306.827  14
   2  -5 -11 575.114 301.408   1
  -2  -3 -11 857.106 409.849  14
  -3   5 -11 497.491 296.963   3
   2  -5 -11 721.841 304.383  10
   5  -2 -11 469.416 230.665  10
   3   2 -11 549.759 356.878   3
   5  -2 -11 452.120 241.105   3
  -2  -3 -11 628.080 271.680   1
  -5   3 -11 653.025 314.212  14
  -5   3 -11 443.788 256.661   4
  -3   5 -11 416.994 246.668   4
   3   2  -8 323073. 7780.82   3
   3   2  -8 360663. 5574.93  11
  -5   3  -8 295328. 5921.89   6
   5  -2  -8 332898. 5276.22  11
   5  -2  -8 299185. 6437.48   3
   2  -5  -8 320796. 5967.49  10
   2  -5  -8 302857. 6476.11   1
  -3   5  -8 334098. 7172.63   2
  -2  -3  -8 314347. 5790.50   1
  -5   3  -8 367951. 4685.77   8
  -3   5  -8 335553. 6176.08   4
  -3   5  -8 332250. 5831.06   6
  -3   5  -8 321669. 7095.55   3
  -2  -3  -8 325425. 7408.33  14
  -5   3  -8 301049. 6418.23  14
   5  -2  -8 328073. 6581.07   7
  -3   5  -8 327192. 6910.98  14
   3   2  -8 327593. 6773.58  13
   3   2  -5 1270.01 457.981   3
  -5   3  -5 978.251 332.653   6
   2  -5  -5 1173.35 393.860   1
  -3   5  -5 1079.11 300.912   6
   3   2  -5 1160.98 350.289  11
  -2  -3  -5 1050.04 321.189   1
   5  -2  -5 3020.08 551.281  11
   3   2  -5 969.323 357.150  13
   2  -5  -5 1286.49 358.120  10
   5  -2  -5 1026.11 375.828   7
  -3   5  -5 1024.68 410.807   2
  -5   3  -5 1622.80 322.553   8
  -2  -3  -5 1504.75 467.753   8
  -3   5  -5 1342.86 327.316   4
  -3   5  -5 1102.18 370.087   3
  -5   3  -5 985.514 349.257  14
   3   2  -2 241276. 4284.44   2
  -5   3  -2 233661. 5005.54   6
  -3   5  -2 257737. 4636.06   6
   3   2  -2 260443. 6250.39   3
   3   2  -2 258485. 5411.68  11
   5  -2  -2 239780. 5247.99  11
  -5   3  -2 252596. 4187.25   8
  -3   5  -2 242245. 6148.14   2
  -2  -3  -2 235760. 5207.28   8
  -3   5  -2 271940. 3428.68   4
   3   2  -2 265621. 3022.75   7
   5  -2  -2 244348. 5942.15   7
   2  -5  -2 245471. 5713.89   1
  -2  -3  -2 258579. 4887.59   1
  -5   3  -2 230360. 4981.63  14
   5  -2  -2 236218. 3965.96  13
  -2  -3   1 1497.26 304.155  12
  -3   5   1 2562.31 477.692   6
  -5   3   1 1227.47 372.648   6
   3   2   1 1118.47 362.709  11
   3   2   1 1496.87 445.784   3
   5  -2   1 1514.96 439.177  11
  -5   3   1 1288.85 332.158   8
  -2  -3   1 1217.75 316.489   1
  -2  -3   1 1110.77 334.947   8
   2  -5   1 1296.58 212.612   8
  -3   5   1 1275.63 434.461   2
   2  -5   1 1201.49 389.172   1
   5  -2   1 1315.24 458.429   7
  -5   3   1 1311.72 360.268  14
   5  -2   1 1118.61 191.813  13
  -5   3   4 354969. 6860.01   6
  -5   3   4 379574. 5808.81  14
   3   2   4 352682. 6632.65  11
   3   2   4 382093. 6835.26   3
   5  -2   4 361337. 7158.45  11
  -2  -3   4 419909. 6749.41   5
   2  -5   4 379854. 7130.61   1
  -5   3   4 375987. 6322.58   8
  -2  -3   4 431138. 6183.37  12
  -2  -3   4 417010. 6725.38   8
   3   2   4 386876. 5742.82   7
  -3   5   4 325462. 7135.76   2
   5  -2   4 339969. 7276.95   7
   2  -5   4 467888. 5763.07   7
  -3   5   4 442341. 7632.03   6
  -2  -3   7 1242.19 364.490  12
   3   2   7 1074.56 385.486  11
   5  -2   7 1188.27 444.825  11
   3   2   7 1338.21 390.396   3
  -2  -3   7 1046.42 339.198   5
   2  -5   7 1111.80 407.282   5
  -2  -3   7 1189.63 258.445   9
  -5   3   7 1253.65 290.954   2
  -5   3   7 1172.39 408.678   9
  -5   3   7 1317.39 417.815   8
  -2  -3   7 894.851 314.760   8
   3   2   7 1520.08 408.051   7
  -3   5   7 1221.66 460.482   2
   5  -2   7 1473.83 484.646   7
   2  -5   7 1278.05 274.972   7
  -5   3   7 1073.89 397.196   6
  -2  -3  10 220977. 5295.65  12
  -5   3  10 222314. 5572.17  12
   3   2  10 210265. 5617.94  11
   5  -2  10 231947. 6701.63  11
   3   2  10 247812. 5172.86   3
  -2  -3  10 225140. 5355.70   5
   2  -5  10 209050. 5745.86   5
  -2  -3  10 240055. 4695.46   9
  -3   5  10 232278. 4972.63   9
  -5   3  10 224803. 6071.76   9
  -2  -3  10 220177. 5233.32   8
   3   2  10 218486. 5520.11   7
   5  -2  10 214958. 5997.85   7
  -3   5  10 209962. 5729.68   2
  -2  -3  13 699.498 324.654  12
  -5   3  13 549.701 282.985  12
   5  -2  13 634.669 333.520   7
   3   2  13 758.926 359.227  11
   5  -2  13 623.891 354.680  11
  -2  -3  13 740.396 321.122   5
  -2  -3  13 822.249 321.002   9
  -5   3  13 891.146 384.089   9
  -3   5  13 589.471 262.563   9
   2  -5  13 622.744 327.509   5
   3   2  13 738.576 361.521   7
  -2  -3  13 705.354 317.998   8
  -3   5  13 683.896 325.509   2
  -2  -3  16 146775. 5163.40  12
  -5   3  16 137625. 4705.48  12
   3   2  16 136773. 4861.69  11
   5  -2  16 138301. 5102.73  11
  -2  -3  16 135161. 4598.41   5
   2  -5  16 132517. 4992.67   5
  -2  -3  16 146508. 4823.29   9
  -3   5  16 136543. 4259.93   9
  -5   3  16 133619. 4763.93   9
   3   2  16 145787. 5495.59   7
   5  -2  16 140342. 5262.96   7
  -3   5  16 132559. 4347.72   2
  -2  -3  19 361.492 248.041   5
  -5   4 -18 134194. 5348.34   6
  -1  -4 -18 117288. 4610.37  14
  -5   4 -18 124296. 5020.57   4
  -4   5 -18 133915. 5457.29   4
   1  -5 -18 127654. 5202.01   1
  -1  -4 -18 129260. 5044.67   1
  -5   4 -18 116990. 4448.66  14
   4   1 -18 107682. 4321.41   3
   5  -1 -18 122233. 4633.78  13
   4   1 -18 121614. 4592.94  13
   4   1 -15 2460.09 666.044   3
   5  -1 -15 2458.92 591.947   3
  -5   4 -15 2660.30 685.259   6
  -1  -4 -15 2950.07 760.677  14
  -5   4 -15 3594.30 753.552  14
  -5   4 -15 2634.22 682.830   4
   1  -5 -15 2409.68 661.922   1
  -4   5 -15 2302.61 657.382   4
  -1  -4 -15 2571.41 655.226   1
  -4   5 -15 2554.33 629.292  14
   5  -1 -15 2504.88 635.248  13
   4   1 -15 2696.87 648.121  13
   4   1 -12 174776. 5620.71   3
   5  -1 -12 171065. 4900.11   3
  -5   4 -12 192275. 5411.03   6
  -4   5 -12 199391. 5344.11   6
   5  -1 -12 192073. 4365.78  10
   1  -5 -12 186769. 5488.33   1
  -5   4 -12 194112. 5485.42   4
  -1  -4 -12 188802. 5239.92   1
  -4   5 -12 200546. 5481.81   4
  -1  -4 -12 197525. 5908.78  14
  -5   4 -12 184442. 5230.77  14
  -4   5 -12 187810. 5263.50  14
   5  -1 -12 182680. 5061.72  13
   4   1 -12 184198. 5092.47  13
   4   1  -9 3960.35 829.200   3
  -5   4  -9 3963.83 713.434   6
  -4   5  -9 3939.07 684.380   6
   5  -1  -9 4335.40 829.956   3
   5  -1  -9 4737.40 669.589  10
   1  -5  -9 4573.93 660.637  10
   1  -5  -9 4258.28 772.666   1
  -1  -4  -9 4113.64 721.867   1
  -5   4  -9 4666.20 792.934   4
  -4   5  -9 4574.37 738.800   4
   5  -1  -9 4168.34 694.106   7
  -5   4  -9 4241.08 772.381  14
  -4   5  -9 4366.50 780.497  14
   5  -1  -9 3915.52 686.738  13
   4   1  -9 3967.57 714.007  13
  -5   4  -6 308708. 5944.14   6
  -4   5  -6 319523. 5701.13   6
   1  -5  -6 310507. 6368.61   1
   4   1  -6 306149. 6980.08   3
   4   1  -6 337210. 5337.63  11
  -1  -4  -6 312082. 6009.50   1
   5  -1  -6 321090. 5234.80  11
   5  -1  -6 306536. 7014.64   3
   1  -5  -6 339043. 5286.20  10
  -4   5  -6 317848. 7024.00   2
  -4   5  -6 356690. 5400.93   4
  -1  -4  -6 305277. 6618.65   8
   5  -1  -6 372587. 6780.25   7
  -5   4  -6 308971. 6423.92  14
  -4   5  -6 319211. 6747.91  14
   5  -1  -6 304183. 5566.84  13
   4   1  -6 324018. 6425.74  13
   4   1  -3 5513.42 826.584  13
  -5   4  -3 5599.06 824.764   6
  -4   5  -3 5361.50 752.954   6
   4   1  -3 7257.29 835.882  11
   4   1  -3 6400.07 610.987   2
   4   1  -3 6308.81 965.812   3
   5  -1  -3 6017.62 772.759  11
   1  -5  -3 7478.53 695.406  10
   5  -1  -3 5537.59 677.298  13
  -4   5  -3 5970.56 976.076   2
  -1  -4  -3 6415.32 865.600   8
   4   1  -3 6800.18 606.486   7
   5  -1  -3 6026.96 875.172   7
  -5   4  -3 6739.81 924.115  14
  -4   5  -3 6031.72 952.085  14
   1  -5  -3 5988.41 901.422   1
  -1  -4  -3 6765.46 901.121   1
  -4   5   0 301187. 5561.42   6
  -5   4   0 281870. 5703.34   6
   4   1   0 272293. 5405.53  11
   5  -1   0 269137. 5512.32  11
   4   1   0 265846. 6018.25   3
  -5   4   0 269853. 5894.11  14
   1  -5   0 335582. 4307.58  10
  -5   4   0 225928. 5030.03   2
  -5   4   0 299239. 3957.37   8
  -4   5   0 245672. 6182.06   2
  -1  -4   0 293887. 5368.29   8
   1  -5   0 294735. 4446.33   8
  -1  -4   0 305738. 5880.23   1
   1  -5   0 290905. 6192.12   1
   4   1   0 271934. 4425.28   7
   5  -1   0 269021. 6265.18   7
   5  -1   0 255701. 3913.99  13
  -4   5   3 5408.85 808.404   6
  -5   4   3 5511.50 847.917   6
   4   1   3 6225.02 885.925  11
   5  -1   3 5965.22 876.049  11
  -5   4   3 5675.69 781.939   2
  -1  -4   3 5887.24 812.516   1
   1  -5   3 6083.37 883.188   1
   1  -5   3 5943.20 595.297   8
  -1  -4   3 5808.88 751.457   8
  -4   5   3 6479.11 978.913   2
   4   1   3 6061.28 744.925   7
   5  -1   3 6454.49 975.089   7
   1  -5   3 6691.51 598.238   7
  -5   4   3 6111.66 851.051  14
   4   1   6 280749. 6357.04  11
   5  -1   6 283368. 6502.92  11
  -1  -4   6 306663. 6381.69   5
   1  -5   6 291932. 6513.66   5
  -5   4   6 267982. 5246.57   2
  -1  -4   6 311613. 5487.75   8
  -4   5   6 274593. 6356.70   2
   4   1   6 285266. 5703.86   7
   5  -1   6 272817. 6532.25   7
  -4   5   6 289367. 6411.76   6
  -5   4   6 263216. 6280.94   6
   4   1   9 4096.04 816.019  11
  -1  -4   9 3388.16 668.820   5
   1  -5   9 3190.30 677.655   5
  -5   4   9 3821.34 758.311   9
  -4   5   9 3572.38 667.606   9
  -1  -4   9 5460.74 783.393   8
  -5   4   9 3980.61 626.131   2
  -4   5   9 3961.48 761.616   2
   4   1   9 3725.35 718.239   7
   5  -1   9 4101.24 820.477   7
  -5   4   9 3576.08 756.653   6
  -1  -4  12 201412. 5464.60  12
   4   1  12 191097. 5813.56  11
   5  -1  12 190213. 6062.45  11
  -1  -4  12 184397. 5116.46   5
   1  -5  12 179109. 5278.91   5
  -4   5  12 185745. 4903.19   9
  -5   4  12 187907. 5387.90   9
   4   1  12 192085. 5766.04   7
  -4   5  12 193153. 5323.26   2
   5  -1  12 186628. 5834.37   7
  -1  -4  15 2205.13 626.049  12
   4   1  15 2221.76 642.770  11
   5  -1  15 2358.77 697.759  11
  -1  -4  15 2412.01 609.670   5
   1  -5  15 1799.36 555.248   5
  -4   5  15 1800.15 507.500   9
  -5   4  15 1768.01 537.515   9
   4   1  15 2093.53 647.800   7
   5  -1  15 2779.48 754.733   7
   4   1  18 109640. 4501.18  11
  -1  -4  18 108715. 4258.45   5
   1  -5  18 104758. 4349.78   5
  -1  -4  18 124200. 5079.85  12
  -4   5  18 109973. 4091.61   9
  -5   4  18 114214. 4364.42   9
   4   1  18 114795. 5261.75   7
   5  -1  18 114660. 5202.23   7
   5   0 -16 123642. 4535.87   3
  -5   5 -16 139491. 5211.27   6
   0  -5 -16 125851. 4791.00  14
   0  -5 -16 128674. 4974.71   1
  -5   5 -16 129957. 5014.35   4
  -5   5 -16 124404. 4572.27  14
   5   0 -16 128402. 4653.10  13
   5   0 -13 10.8520 49.8416  13
   0  -5 -13-2.21202 42.4952   1
  -5   5 -13 44.6886 104.464   6
   5   0 -13 105.202 136.720   3
  -5   5 -13-34.9485 74.0935   4
  -5   5 -13 63.4941 95.5312  14
  -5   5 -10 171931. 4821.42   6
   0  -5 -10 171263. 5026.49   1
   5   0 -10 163406. 5361.26   3
  -5   5 -10 177841. 5140.27  14
   5   0 -10 169216. 4777.89  13
   5   0  -7 52.9295 76.6373  13
  -5   5  -7 112.475 122.012   6
   5   0  -7 21.8869 55.2155  11
   5   0  -7 19.8603 86.4101   3
  -5   5  -7 590.141 227.652   4
   0  -5  -7-7.79904 47.2027   1
  -5   5  -7 472.794 269.371  14
  -5   5  -4 396263. 6938.22   6
   5   0  -4 355948. 5917.16  11
   5   0  -4 352019. 7708.89   3
  -5   5  -4 330233. 6933.07   2
   0  -5  -4 370350. 6623.26   8
   5   0  -4 404215. 5985.00   7
  -5   5  -4 363402. 7289.59  14
   0  -5  -4 390907. 7350.72   1
   5   0  -4 370929. 6506.99  13
  -5   5  -1-2.24219 37.0617   6
  -5   5  -1 75.7518 97.7960   2
   5   0  -1 306.689 188.709  11
   5   0  -1-20.9465 52.3355   3
   0  -5  -1 54.3345 80.3848   8
  -5   5  -1 253.661 190.576  14
  -5   5   2 165001. 4646.72   6
   5   0   2 158782. 4489.20  11
   0  -5   2 165222. 4713.11   1
   0  -5   2 172228. 3848.44   8
   5   0   2 166102. 4517.43   7
  -5   5   5-11.4065 45.6363   6
   5   0   5-1.35104 67.2961  11
  -5   5   5 43.6795 76.9715   2
   0  -5   5 26.1723 54.9051   8
   5   0   5 45.0633 89.7888   7
   5   0   8 272157. 6941.70  11
   0  -5   8 262298. 6345.60   5
  -5   5   8 258582. 5889.00   2
   5   0   8 255272. 6348.49   7
  -5   5   8 251597. 6434.31   6
   5   0  11 84.7617 127.068  11
  -5   5  11 25.6014 56.8029   2
  -5   5  11 16.7903 70.7486   9
   0  -5  11-15.4984 87.2568   5
   5   0  11 162.727 154.379   7
   5   0  14 178469. 6182.61  11
   0  -5  14 163154. 5097.44   5
  -5   5  14 162824. 4987.21   9
   5   0  14 172879. 6050.88   7
   0  -5  17 49.5897 98.5986  12
   5   0  17-43.6273 94.2666  11
   0  -5  17 223.005 190.358   5
  -5   5  17 80.1666 67.2728   9
   6  -6 -12 131624. 4654.51  10
  -6   0 -12 127776. 4673.87   8
  -6   0 -12 144273. 5346.78  14
   0   6 -12 133606. 5617.01   3
   0   6  -9-37.4437 85.4351   3
   6  -6  -9 18.1358 94.1365  10
  -6   0  -9-10.0703 95.6112   8
  -6   0  -9 8.57461 54.2069  14
   0   6  -6 183815. 5205.87   2
  -6   0  -6 157744. 4847.94   8
  -6   0  -6 173240. 4906.56  14
   6  -6  -6 170111. 6183.22   7
   0   6  -6 165372. 5324.49   3
  -6   0  -3 112.402 112.609   6
   6  -6  -3 130.415 136.147   1
   0   6  -3 54.6425 134.584   3
   0   6  -3 6.20525 29.9808   2
  -6   0  -3 34.1031 19.5724   8
  -6   0  -3 102.576 90.4484  14
   6  -6  -3 5.16307 94.1876   7
  -6   0   0 245048. 5490.00   6
   6  -6   0 220073. 7075.41   7
  -6   0   0 218916. 5908.41   8
   0   6   0 227819. 6394.85   2
  -6   0   0 224870. 4716.71  14
   0   6   0 243152. 5337.91   3
  -6   0   3 38.0633 68.8772   6
   0   6   3 304.161 249.690   2
  -6   0   3-18.0700 103.414   8
   6  -6   3 65.5453 102.119   7
   6  -6   6 148785. 5099.13   7
  -6   0   6 143453. 4363.69  12
  -6   0   6 138814. 4679.67   8
   0   6   6 139884. 5246.56   2
  -6   0   9 98.3029 144.533  12
   6  -6   9-2.67097 23.9504  11
   0   6   9 107.805 154.724   2
  -6   0   9 81.0141 131.746   8
   6  -6   9 58.9041 111.647   7
  -6   0  12 128957. 4597.46  12
   6  -6  12 141639. 5748.83  11
  -6   0  12 132824. 4733.98   8
   6  -6  12 135800. 4700.03   7
   0   6  12 136546. 5363.03   2
  -6   1 -13 1520.59 499.342   6
   5  -6 -13 1714.39 557.877   1
   6  -5 -13 1863.03 544.490  10
   5  -6 -13 2424.47 620.903  10
  -6   1 -13 1667.31 489.329   8
  -5  -1 -13 1997.51 635.345   8
  -1   6 -13 1597.39 627.716   4
  -1   6 -13 1817.95 669.441   3
  -5  -1 -13 2138.90 654.516  14
  -6   1 -13 1915.15 613.243  14
   1   5 -13 1814.52 656.614   3
   5  -6 -10 160203. 5258.64   1
  -6   1 -10 163700. 5091.31   6
   6  -5 -10 170472. 5151.02  10
   5  -6 -10 170225. 5156.71  10
  -6   1 -10 162870. 4677.36   8
  -5  -1 -10 172601. 5554.36   8
  -5  -1 -10 185015. 5656.42  14
  -1   6 -10 167041. 5822.73   3
  -6   1 -10 175797. 5405.26  14
   1   5 -10 167661. 5866.18   3
  -5  -1  -7 2420.55 590.825  14
  -6   1  -7 2420.55 599.240   6
   1   5  -7 1845.65 574.905   3
  -1   6  -7 2347.59 608.512   2
  -6   1  -7 2284.99 528.989   8
  -5  -1  -7 2603.37 656.046   8
  -6   1  -7 2197.09 550.442  14
  -1   6  -7 2225.96 618.503   3
   5  -6  -7 2237.81 628.980   1
   6  -5  -7 2344.15 687.267   7
  -6   1  -4 227942. 5577.70   6
  -1   6  -4 229409. 5636.81   3
  -6   1  -4 214601. 5209.69   8
  -5  -1  -4 221388. 5812.64   8
  -1   6  -4 243595. 6150.06   2
   1   5  -4 253804. 5472.30   2
   5  -6  -4 205119. 6033.77   1
  -5  -1  -4 233921. 5277.94  14
  -6   1  -4 230555. 5210.91  14
   1   5  -4 241412. 6060.45   3
   6  -5  -4 218261. 6662.37   7
  -6   1  -1 2738.07 611.752   6
   1   5  -1 2497.96 630.056  11
  -6   1  -1 2503.15 575.204   8
   5  -6  -1 2216.67 613.316   1
  -5  -1  -1 3095.59 699.951   8
  -1   6  -1 2369.09 668.802   2
   1   5  -1 3809.21 758.934   2
  -5  -1  -1 2493.63 488.372  14
  -1   6  -1 2113.63 486.678   3
  -6   1  -1 2537.51 508.500  14
   6  -5  -1 2411.61 717.364   7
   5  -6  -1 2542.20 713.850   7
   1   5  -1 2572.12 573.317   3
  -6   1   2 213147. 5689.41   6
   1   5   2 211345. 5820.16  11
  -1   6   2 225265. 4426.40   3
   5  -6   2 214640. 5342.50   5
  -6   1   2 204641. 5237.23   8
  -5  -1   2 218378. 5902.31   8
  -1   6   2 211040. 6602.97   2
  -5  -1   2 212979. 4066.49  14
   6  -5   2 214500. 6865.90   7
   5  -6   2 233156. 6442.99   7
   1   5   2 220929. 5921.55   2
  -6   1   2 222918. 4410.76  14
  -5  -1   2 223880. 4452.91   6
   1   5   2 232280. 4996.72   3
  -5  -1   5 1966.76 453.147  12
   1   5   5 2419.40 622.025  11
   6  -5   5 1840.26 614.104  11
   5  -6   5 4052.94 757.847   5
  -6   1   5 1663.92 489.089   8
  -5  -1   5 1970.27 541.442   8
   6  -5   5 2106.34 618.447   7
  -1   6   5 2733.40 718.137   2
   5  -6   5 1866.06 523.457   7
   1   5   5 2005.18 593.288   2
  -6   1   5 1930.56 549.171   6
   1   5   8 166676. 5609.84   2
  -5  -1   8 170288. 4791.63  12
  -6   1   8 172976. 5170.79  12
   1   5   8 175189. 5362.15  11
   6  -5   8 182216. 6249.63  11
   5  -6   8 186466. 5460.58   5
  -6   1   8 171894. 5224.72   8
  -5  -1   8 165701. 4974.90   8
   6  -5   8 170739. 5422.17   7
   5  -6   8 176890. 4889.71   7
  -1   6   8 168884. 5731.38   2
   1   5  11 1116.96 457.221   2
  -5  -1  11 1196.80 426.452  12
  -6   1  11 1214.19 449.196  12
   1   5  11 1266.48 464.849  11
   6  -5  11 1725.38 628.212  11
   5  -6  11 1347.16 525.388  11
   5  -6  11 2070.69 599.556   5
  -5  -1  11 1095.11 347.134   9
  -6   1  11 1058.36 390.661   9
  -6   1  11 1907.31 565.676   8
  -5  -1  11 1155.52 428.417   8
   6  -5  11 1114.96 438.752   7
   5  -6  11 1585.60 455.356   7
  -1   6  11 1639.44 580.691   2
   1   5  14 143237. 5535.87   2
  -5  -1  14 133065. 4568.79  12
  -6   1  14 137977. 4850.18  12
   1   5  14 139457. 4972.24  11
   6  -5  14 155317. 6094.56  11
   5  -6  14 140704. 5236.77   5
  -6   1  14 135611. 4607.46   9
  -6   1  14 134746. 4944.69   8
  -5  -1  14 134161. 4726.15   8
   6  -5  14 141521. 4921.98   7
  -1   6  14 147483. 5527.27   2
  -6   2 -14 150292. 5113.00   6
   4  -6 -14 150510. 5338.32   1
   6  -4 -14 150935. 4731.03  10
   4  -6 -14 167285. 5446.11  10
  -4  -2 -14 154230. 5620.74   8
  -2   6 -14 178343. 6498.12   4
  -2   6 -14 194151. 7328.02   3
  -4  -2 -14 170903. 6021.06  14
  -6   2 -14 175200. 6074.30  14
   2   4 -14 161018. 6513.80   3
  -6   2 -11 5141.93 899.032   6
   4  -6 -11 5090.65 960.854   1
   6  -4 -11 5865.87 926.811  10
   4  -6 -11 5932.62 988.851  10
  -4  -2 -11 6962.45 1161.70  14
  -4  -2 -11 6691.06 1159.22   8
  -2   6 -11 6155.57 1111.74   4
  -2   6 -11 5698.88 1125.36   3
  -6   2 -11 6214.97 1047.55  14
   2   4 -11 5830.27 1136.63   3
   4  -6  -8 190771. 5861.45   1
  -6   2  -8 179485. 5167.34   6
   6  -4  -8 190593. 5057.99  11
   4  -6  -8 191092. 5531.13  10
  -2   6  -8 201189. 5798.40   2
  -6   2  -8 200010. 4550.56   8
  -4  -2  -8 191780. 5972.29   8
  -4  -2  -8 194358. 5548.36  14
  -6   2  -8 187554. 5303.04  14
   6  -4  -8 184646. 5759.87   7
  -2   6  -8 175807. 5488.15   3
   2   4  -8 180238. 5927.42   3
   2   4  -5 8411.66 1210.14   3
  -6   2  -5 8082.02 1066.79   6
   2   4  -5 8379.00 1110.78  11
  -2   6  -5 7746.45 1168.80   2
  -6   2  -5 7989.08 923.248   8
  -4  -2  -5 8731.92 1197.45   8
  -4  -2  -5 8909.30 1077.75  14
  -2   6  -5 6871.29 969.203   3
   4  -6  -5 9838.77 1378.83   1
  -6   2  -5 8428.29 1046.70  14
   6  -4  -5 7908.29 1210.62   7
   2   4  -2 281825. 6440.44   3
  -6   2  -2 263171. 5948.30   6
   2   4  -2 261926. 6198.89  11
   6  -4  -2 267701. 6650.25  11
  -6   2  -2 257689. 5370.37   8
  -4  -2  -2 260132. 6197.93   8
  -2   6  -2 293537. 7441.71   2
   4  -6  -2 280313. 7122.06   1
  -2   6  -2 265073. 5420.48   3
  -4  -2  -2 272703. 5375.09  14
   2   4  -2 306141. 5988.21   2
   6  -4  -2 249139. 7058.95   7
  -6   2  -2 269677. 5456.95  14
  -6   2   1 9613.05 1174.91   6
   2   4   1 11772.6 1239.37   3
   2   4   1 9197.32 1181.61  11
   6  -4   1 9326.10 1300.24  11
  -6   2   1 9701.25 1048.19   8
   4  -6   1 10049.8 1311.64   1
  -4  -2   1 10031.2 1213.09   8
  -2   6   1 8823.66 1323.49   2
  -2   6   1 8854.27 892.549   3
  -4  -2   1 9690.10 904.638  14
   6  -4   1 8892.88 1340.97   7
   4  -6   1 10533.2 1268.84   7
  -6   2   1 9509.94 936.435  14
   2   4   1 9275.51 1083.95   2
  -6   2   4 212122. 5746.65   6
   2   4   4 214563. 5688.22   2
   2   4   4 233030. 5051.30   3
  -4  -2   4 216616. 4322.73  12
   2   4   4 214380. 5783.36  11
   6  -4   4 216044. 6670.02  11
  -4  -2   4 253056. 4770.89   5
   4  -6   4 224178. 6191.39   5
  -6   2   4 214153. 5121.37   8
  -4  -2   4 215625. 5646.65   8
  -2   6   4 190442. 6246.80   2
   6  -4   4 211917. 6421.41   7
  -4  -2   4 220076. 3796.55  14
   4  -6   4 226078. 5225.27   7
  -6   2   4 240335. 4258.29  14
  -4  -2   7 7296.75 906.146  12
   2   4   7 7793.76 1163.66   2
   2   4   7 7882.12 1133.88  11
   6  -4   7 8201.15 1342.65  11
  -4  -2   7 9091.87 908.542   5
   4  -6   7 7713.86 1169.46   5
  -6   2   7 7345.97 1026.40   8
  -4  -2   7 6753.09 968.680   8
  -2   6   7 8418.67 1273.80   2
   6  -4   7 7587.33 1163.99   7
   4  -6   7 8249.01 947.836   7
  -6   2   7 7477.10 1111.32   6
  -4  -2  10 186828. 5063.05  12
  -6   2  10 189109. 5473.98  12
   2   4  10 180148. 5896.24   2
   2   4  10 187242. 5663.72  11
   6  -4  10 198629. 6748.70  11
   4  -6  10 176531. 5821.95   5
  -6   2  10 188994. 5412.46   9
  -6   2  10 185670. 5528.48   8
  -4  -2  10 184659. 5171.59   8
   6  -4  10 181751. 5624.96   7
  -2   6  10 179446. 5822.03   2
  -4  -2  13 4740.13 847.178  12
  -6   2  13 5326.95 949.278  12
   2   4  13 5199.07 1049.05   2
   2   4  13 5324.17 980.896  11
   6  -4  13 5693.11 1181.02  11
  -2   6  13 5227.90 985.730   2
   4  -6  13 4667.89 983.781   5
  -6   2  13 5326.65 948.931   9
  -4  -2  13 4069.28 794.255   8
   6  -4  13 5164.43 957.647   7
  -4  -2  16 125273. 4530.59  12
  -6   2  16 130147. 4761.76  12
   2   4  16 132645. 5505.05   2
   2   4  16 129800. 4852.62  11
   4  -6  16 120746. 5178.58   5
  -6   2  16 130754. 4919.89   9
  -4  -2  16 116385. 4447.55   8
   6  -4  16 127564. 4880.90   7
  -2   6  16 131157. 4915.63   2
   3   3 -15 158.427 176.691  13
   3  -6 -15 205.415 205.576   1
  -6   3 -15 215.142 181.363   6
  -3   6 -15 324.836 248.780   6
  -3  -3 -15 189.908 180.899   1
   3   3 -15 175.130 183.978   3
   3  -6 -15 906.290 371.806  10
   6  -3 -15 221.747 177.955  10
  -3  -3 -15 1068.32 484.820   8
  -3   6 -15 122.292 140.577   4
  -3  -3 -15 288.625 251.114  14
  -6   3 -15 244.430 219.529  14
   3   3 -12 186294. 5725.32  13
  -6   3 -12 168278. 5169.48   6
  -3   6 -12 204851. 5298.75   6
   3  -6 -12 186948. 5999.52   1
   6  -3 -12 175304. 5004.91  10
   3  -6 -12 180337. 5211.96  10
  -3  -3 -12 192734. 5135.66   1
  -3   6 -12 197483. 5946.95   4
  -3  -3 -12 179902. 6065.34   8
  -3   6 -12 199340. 6720.55   3
  -3  -3 -12 189556. 6215.03  14
  -6   3 -12 181623. 5767.25  14
   6  -3 -12 164322. 5014.00   7
   3   3 -12 187353. 6643.46   3
  -6   3  -9 322.799 210.604   6
  -3   6  -9 378.659 211.705   6
  -3   6  -9 328.988 236.733   2
  -3   6  -9 306.441 234.787   3
  -3  -3  -9 717.124 292.121   1
   3  -6  -9 353.722 228.169  10
   3   3  -9 367.288 275.795   3
   6  -3  -9 479.313 272.035   3
  -3  -3  -9 341.739 266.507   8
  -3   6  -9 277.881 191.306   4
   3  -6  -9 254.589 208.007   1
  -3  -3  -9 541.903 323.860  14
  -6   3  -9 336.293 237.633  14
   6  -3  -9 685.340 324.976   7
   3  -6  -6 192666. 5743.56   1
   3   3  -6 214926. 6517.48   3
  -3  -3  -6 214788. 4793.03   1
  -6   3  -6 195375. 5320.40   6
  -3   6  -6 215854. 4496.27   6
   3   3  -6 206887. 4893.29  11
   6  -3  -6 196023. 5023.90  11
   3  -6  -6 200095. 5057.99  10
  -3   6  -6 217974. 6541.63   2
  -6   3  -6 218842. 4336.43   8
  -3  -3  -6 193998. 5922.98   8
  -3   6  -6 230427. 4836.93   4
  -3   6  -6 179464. 5060.46   3
  -3  -3  -6 218663. 6029.37  14
   6  -3  -6 199783. 5798.65   7
  -6   3  -6 190343. 5094.20  14
  -6   3  -3 300.773 194.332   6
  -3   6  -3 465.992 212.175   6
   3   3  -3 427.511 252.594  11
  -3   6  -3 424.155 217.971   3
   6  -3  -3 443.346 253.631  11
  -3   6  -3 464.064 299.039   2
   3   3  -3 433.075 281.453   3
   3   3  -3 363.003 182.580   2
   3  -6  -3 349.216 240.479   1
  -6   3  -3 431.852 185.399   8
  -3  -3  -3 377.343 240.576   8
  -3  -3  -3 553.060 232.895   1
  -3  -3  -3 517.724 263.594  14
  -6   3  -3 319.977 187.988  14
   6  -3  -3 474.387 292.573   7
  -3   6   0 429868. 6607.01   6
   3   3   0 329057. 5984.16   2
  -6   3   0 306719. 6523.08   6
   3   3   0 350348. 7502.77   3
   3   3   0 348686. 7230.32  11
   6  -3   0 304677. 7103.27  11
  -6   3   0 301140. 5272.58   8
  -3  -3   0 374412. 5647.43   1
  -3  -3   0 316124. 6486.86   8
  -3   6   0 297153. 7436.00   2
   3  -6   0 320788. 7247.27   1
  -3  -3   0 351970. 6215.03  14
   6  -3   0 281921. 7224.80   7
  -6   3   0 303365. 5586.97  14
   3  -6   0 376999. 7031.58   7
  -3  -3   3 484.057 184.598  12
  -6   3   3 373.939 237.433   6
   3  -6   3 369.086 238.154   1
   3   3   3 256.372 192.060  11
   6  -3   3 320.243 240.449  11
  -3   6   3 401.533 271.971   2
   3   3   3 466.033 244.540   2
  -3  -3   3 427.198 216.041   5
  -6   3   3 268.984 168.224   8
  -3  -3   3 406.178 238.126   8
  -3  -3   3 548.288 223.605  14
   3   3   3 509.646 212.547   7
   6  -3   3 586.945 334.335   7
  -6   3   3 415.161 199.155  14
   3  -6   3 386.861 200.251   7
  -3   6   3 822.128 321.760   6
  -3  -3   6 198463. 4578.84  12
   3   3   6 204224. 5121.10   3
   3   3   6 177128. 5346.50  11
   3   3   6 190638. 5457.77   2
   3  -6   6 210561. 4201.12   7
   6  -3   6 179685. 5911.93  11
  -3  -3   6 196725. 4816.89   5
   3  -6   6 184302. 5604.69   5
  -6   3   6 186960. 4902.41   8
  -3  -3   6 187095. 4919.71   8
   3   3   6 196903. 4830.81   7
  -3   6   6 177873. 5967.81   2
   6  -3   6 185755. 5925.87   7
  -6   3   6 182754. 5529.19   6
  -3  -3   9 359.374 226.321  12
  -6   3   9 458.428 281.139   6
   3   3   9 291.179 208.517  11
   6  -3   9 246.337 208.242  11
   3   3   9 388.412 277.398   2
  -3  -3   9 337.992 213.589   5
   3  -6   9 261.203 221.314   5
  -6   3   9 545.930 296.871   8
  -3  -3   9 394.801 223.445   8
  -3   6   9 922.207 408.049   2
   3   3   9 248.176 194.831   7
   6  -3   9 359.028 249.907   7
  -3  -3  12 168734. 5091.51  12
  -6   3  12 172577. 5307.53  12
   3   3  12 175053. 5732.53  11
   6  -3  12 179286. 6676.68  11
   3   3  12 178590. 6292.15   2
  -3  -3  12 169190. 4762.03   5
   3  -6  12 156731. 5466.14   5
  -6   3  12 176824. 5657.14   9
  -3  -3  12 153711. 4732.93   8
   3   3  12 167552. 5510.05   7
   6  -3  12 159203. 5508.92   7
  -3   6  12 157599. 5292.77   2
  -3  -3  15 255.251 217.095  12
  -6   3  15 199.071 189.932  12
   3   3  15 355.283 267.170  11
   6  -3  15 229.849 174.266  11
  -3   6  15 89.9746 121.323   2
   3   3  15 128.573 152.151   2
  -3  -3  15 211.662 198.506   5
   3  -6  15 238.198 240.635   5
  -6   3  15 263.462 215.323   9
  -3  -3  15 181.928 177.851   8
   6  -3  15 162.336 182.899   7
  -6   4 -16 133390. 5084.44   6
  -4   6 -16 143547. 5146.20   6
   2  -6 -16 138521. 5387.83   1
  -2  -4 -16 134845. 4923.03   1
  -4   6 -16 149029. 5616.86   4
  -2  -4 -16 133268. 5165.70  14
  -6   4 -16 130839. 4918.23  14
   6  -2 -16 128653. 4675.11  13
   4   2 -16 120026. 4938.28   3
   4   2 -16 128051. 4773.04  13
   4   2 -13 5275.78 1052.53   3
   6  -2 -13 5259.39 874.874   3
  -6   4 -13 5044.29 915.116   6
  -4   6 -13 5185.37 907.697   6
   2  -6 -13 5635.36 1026.55   1
  -2  -4 -13 5280.20 912.717   1
  -4   6 -13 5809.07 1008.30   4
  -2  -4 -13 6887.25 1192.12  14
  -6   4 -13 5108.65 950.467  14
   6  -2 -13 4943.10 868.339  13
   4   2 -13 5072.01 920.715  13
   4   2 -10 197138. 6124.19   3
  -6   4 -10 195131. 5356.02   6
  -4   6 -10 205642. 5120.96   6
   6  -2 -10 200184. 5798.79   3
   2  -6 -10 200088. 5832.36   1
  -2  -4 -10 198643. 5179.02   1
   6  -2 -10 208892. 5106.29  10
   2  -6 -10 205522. 4988.74  10
  -2  -4 -10 210177. 6424.02   8
  -2  -4 -10 204344. 6236.84  14
   6  -2 -10 212638. 5502.40   7
  -6   4 -10 201114. 5740.24  14
   6  -2 -10 197200. 5222.56  13
   4   2 -10 201163. 5674.02  13
   4   2  -7 7567.60 1120.44  13
   2  -6  -7 7912.74 1113.44   1
   4   2  -7 7770.08 1179.41   3
  -6   4  -7 7103.62 994.029   6
  -4   6  -7 7647.87 919.388   6
  -2  -4  -7 12120.9 1228.14   1
   6  -2  -7 8996.05 980.847  11
   6  -2  -7 8338.12 1255.31   3
   2  -6  -7 9162.10 998.087  10
  -4   6  -7 7223.98 1150.28   2
  -2  -4  -7 8574.30 1197.11   8
   6  -2  -7 8049.76 1102.53   7
  -6   4  -7 7876.28 1090.26  14
   6  -2  -7 7703.95 936.497  13
  -6   4  -4 211622. 5458.91   6
  -4   6  -4 238941. 5121.82   6
   4   2  -4 217685. 6024.63   3
   4   2  -4 229119. 5162.89  11
   6  -2  -4 224088. 5286.04  11
   2  -6  -4 253978. 4899.27  10
  -4   6  -4 224803. 6588.49   2
  -2  -4  -4 219457. 5838.10   8
   6  -2  -4 240730. 6155.67   7
   2  -6  -4 219502. 5910.67   1
  -2  -4  -4 238157. 5525.46   1
  -6   4  -4 215613. 5398.14  14
   6  -2  -4 225610. 4505.66  13
  -4   6  -1 9338.63 1036.83   6
  -6   4  -1 8872.46 1120.38   6
   4   2  -1 9474.37 928.130   2
   4   2  -1 9850.74 1127.34  11
   4   2  -1 9498.77 1233.51   3
   6  -2  -1 8907.26 1114.86  11
   2  -6  -1 11904.4 1011.94  10
  -4   6  -1 9654.50 1351.34   2
  -2  -4  -1 10025.7 1140.59   8
  -2  -4  -1 10909.8 1131.04   1
   2  -6  -1 9684.08 1256.70   1
   6  -2  -1 9771.71 1268.27   7
  -6   4  -1 9980.94 1098.40  14
  -4   6   2 305830. 6296.65   6
  -6   4   2 262348. 6249.87   6
   4   2   2 278965. 6410.07  11
   4   2   2 266039. 6345.02   3
   6  -2   2 260835. 6380.70  11
  -6   4   2 271400. 4929.51   8
  -2  -4   2 290965. 5762.65   1
   2  -6   2 266774. 6449.30   1
  -2  -4   2 277628. 5913.03   8
  -4   6   2 230195. 6577.46   2
   4   2   2 296165. 5041.33   7
   6  -2   2 256545. 7063.05   7
   2  -6   2 329889. 5339.85   7
  -6   4   2 266620. 5510.74  14
  -6   4   5 7457.85 1101.93   6
  -2  -4   5 8746.48 924.075  12
   4   2   5 7868.09 1129.75  11
   4   2   5 8687.38 1115.88   3
   6  -2   5 8016.88 1182.07  11
  -2  -4   5 8356.36 1070.73   5
   2  -6   5 7081.43 1076.80   5
  -6   4   5 8121.01 956.236   8
  -2  -4   5 7766.74 981.346   8
  -4   6   5 8997.16 1311.37   2
   4   2   5 10917.0 1120.50   7
   6  -2   5 10429.7 1457.14   7
  -4   6   5 8859.82 1170.53   6
  -2  -4   8 196864. 5030.94  12
   4   2   8 186887. 5794.12  11
   6  -2   8 179553. 5950.16  11
   4   2   8 202040. 5343.97   3
  -2  -4   8 171882. 4776.39   5
   2  -6   8 166444. 5277.90   5
  -2  -4   8 186197. 4674.16   8
  -4   6   8 193256. 6079.31   2
   4   2   8 184433. 5142.22   7
   6  -2   8 181823. 6189.52   7
  -6   4   8 174899. 5494.64   6
  -2  -4  11 5144.46 891.225  12
   4   2  11 5485.11 1037.19  11
   6  -2  11 5493.04 1124.66  11
  -2  -4  11 5068.81 842.740   5
   2  -6  11 4596.13 892.586   5
  -6   4  11 5295.27 967.848   9
  -2  -4  11 5368.52 839.161   8
   4   2  11 5236.78 962.509   7
  -4   6  11 5515.67 967.215   2
   6  -2  11 5315.98 1064.74   7
  -2  -4  14 154563. 5335.54  12
   4   2  14 153155. 5657.36  11
   6  -2  14 149066. 6080.04  11
  -2  -4  14 141271. 4617.36   5
   2  -6  14 138747. 4959.27   5
  -6   4  14 144707. 5049.48   9
  -4   6  14 147719. 4351.75   9
   4   2  14 141499. 5349.09   7
  -4   6  14 131567. 4523.73   2
   6  -2  14 153808. 5858.79   7
   4   2  17 3554.10 862.536  11
   5   1 -14 142372. 5338.91   3
   6  -1 -14 138336. 4832.76   3
  -6   5 -14 152065. 5120.15   6
  -5   6 -14 162167. 5321.40   6
   1  -6 -14 157343. 5477.24   1
  -1  -5 -14 153491. 5194.40   1
  -6   5 -14 155061. 5194.80   4
  -1  -5 -14 157514. 5591.67  14
  -6   5 -14 144666. 5046.18  14
  -5   6 -14 147282. 5021.64  14
   6  -1 -14 144535. 4855.60  13
   5   1 -14 148063. 5074.09  13
   5   1 -11 1420.06 524.632   3
  -6   5 -11 1213.96 431.319   6
  -5   6 -11 1230.59 428.565   6
   6  -1 -11 1660.19 547.228   3
   1  -6 -11 1455.14 499.207   1
  -1  -5 -11 1367.19 469.916   1
  -6   5 -11 1251.64 448.713  14
  -5   6 -11 1297.45 462.594  14
   6  -1 -11 1236.52 424.168  13
   5   1 -11 1110.91 412.791  13
   1  -6  -8 176145. 5299.05   1
  -1  -5  -8 184217. 5154.16   1
  -6   5  -8 175434. 5000.42   6
  -5   6  -8 179583. 4797.98   6
   5   1  -8 174744. 5702.72   3
   6  -1  -8 185810. 6141.38   3
  -1  -5  -8 177289. 5376.98   8
  -6   5  -8 179331. 5354.74  14
  -5   6  -8 178859. 5397.06  14
   6  -1  -8 174181. 4687.10  13
   5   1  -8 177341. 5195.51  13
   5   1  -5 1741.66 507.609  13
  -6   5  -5 1853.94 504.421   6
  -5   6  -5 1713.69 469.399   6
   5   1  -5 3396.79 781.411   3
   5   1  -5 2171.45 487.785  11
   6  -1  -5 2334.95 519.948  11
   6  -1  -5 2156.30 647.389   3
   1  -6  -5 2319.32 408.126  10
  -5   6  -5 1803.65 572.140   2
  -1  -5  -5 2103.56 553.041   8
   1  -6  -5 2231.74 500.426   8
   6  -1  -5 2361.10 557.878   7
   1  -6  -5 2168.81 586.172   1
  -6   5  -5 1953.29 541.935  14
  -1  -5  -5 2323.36 574.655   1
  -5   6  -5 1864.69 552.814  14
   6  -1  -5 1982.25 469.281  13
  -5   6  -2 234444. 5616.93   6
  -6   5  -2 222663. 5751.58   6
   5   1  -2 219881. 5223.59  11
   5   1  -2 219618. 6206.35   3
   6  -1  -2 218011. 5328.90  11
  -5   6  -2 206410. 6162.98   2
  -1  -5  -2 220959. 5407.64   8
   1  -6  -2 238650. 4783.20   8
  -1  -5  -2 239476. 6031.50   1
   1  -6  -2 222594. 6086.79   1
   6  -1  -2 222486. 5596.23   7
  -6   5  -2 217677. 5724.39  14
  -5   6   1 2193.66 544.932   6
  -6   5   1 2221.07 573.643   6
   5   1   1 2838.23 623.094  11
   6  -1   1 2586.91 614.039  11
   5   1   1 2465.70 641.783   3
  -6   5   1 2265.76 537.815   2
  -5   6   1 2437.76 665.947   2
  -1  -5   1 2552.98 595.803   1
  -1  -5   1 2724.63 562.990   8
   1  -6   1 2694.83 663.163   1
   5   1   1 2818.36 519.467   7
   6  -1   1 5391.51 922.586   7
  -6   5   1 2807.53 631.242  14
  -5   6   4 223107. 5804.87   6
  -6   5   4 216769. 5954.93   6
   5   1   4 231520. 6066.19  11
   6  -1   4 229317. 6112.73  11
   5   1   4 234414. 6139.58   3
  -6   5   4 203069. 4984.96   2
   1  -6   4 234043. 6108.78   1
  -1  -5   4 248835. 5304.34   8
  -5   6   4 215168. 6165.80   2
   5   1   4 242599. 5486.11   7
   6  -1   4 223901. 6505.84   7
  -1  -5   7 2311.68 525.049  12
   5   1   7 2308.04 657.825  11
   6  -1   7 2940.06 734.321  11
   5   1   7 2238.28 591.746   3
  -1  -5   7 1958.20 558.343   5
   1  -6   7 1935.74 578.771   5
  -6   5   7 2358.05 527.821   2
  -1  -5   7 2192.42 485.180   8
  -5   6   7 2398.27 643.335   2
   5   1   7 2091.19 558.373   7
   6  -1   7 2136.80 652.888   7
  -5   6   7 2659.01 668.556   6
  -6   5   7 1966.09 574.177   6
  -1  -5  10 174991. 5230.52  12
   5   1  10 164548. 5878.57  11
   6  -1  10 168880. 6083.37  11
  -1  -5  10 154197. 4851.62   5
   1  -6  10 142634. 4873.22   5
  -5   6  10 157174. 5173.89   2
   5   1  10 162609. 5457.50   7
   6  -1  10 155469. 5785.92   7
  -6   5  10 159282. 5350.70   6
  -1  -5  13 1986.28 602.217  12
   5   1  13 1733.66 619.467  11
   6  -1  13 1764.25 663.503  11
  -1  -5  13 1303.07 451.865   5
   1  -6  13 1354.56 470.537   5
  -6   5  13 1465.93 490.659   9
   5   1  13 1618.48 584.127   7
   6  -1  13 1339.30 559.283   7
  -5   6  16 110841. 4055.79   9
   6   0 -12 132971. 5248.13   3
  -6   6 -12 150351. 4943.38   6
   0  -6 -12 157107. 5280.59   1
  -6   6 -12 147456. 5060.53  14
   6   0 -12 139051. 4837.27  13
   6   0  -9 23.0701 58.1248  13
  -6   6  -9-20.7939 81.0364   6
   0  -6  -9 20.2248 75.7608   8
   0  -6  -9-34.8005 75.4380   1
  -6   6  -9 90.7510 126.199  14
  -6   6  -6 148193. 4570.30   6
   6   0  -6 160021. 5761.65   3
   0  -6  -6 143377. 4335.31   8
   0  -6  -6 147718. 4878.71   1
  -6   6  -6 153648. 5118.61  14
   6   0  -6 153035. 4596.00  13
  -6   6  -3 4.27898 53.1008   6
  -6   6  -3 103.798 120.769   2
   6   0  -3 145.847 141.508  11
   6   0  -3 38.2634 86.0756   3
   0  -6  -3-17.3383 68.0900   8
  -6   6  -3 139.810 160.145  14
  -6   6   0 234693. 6097.43   6
   6   0   0 226695. 5791.18  11
   6   0   0 239276. 6816.90   3
   0  -6   0 253025. 5262.32   8
   0  -6   0 246141. 6506.84   1
   6   0   0 246243. 5468.10   7
   0  -6   3-36.8297 147.145   1
  -6   6   3 4.52136 63.4918   6
  -6   6   3 186.991 187.987   2
   6   0   3 24.9634 50.1351  11
   6   0   3 39.0353 79.1518   7
   6   0   6 173698. 5692.84  11
   0  -6   6 165088. 5392.98   5
  -6   6   6 150866. 4877.36   2
   6   0   6 163896. 5412.37   7
  -6   6   6 154007. 5120.76   6
  -6   6   9 57.9769 98.6872   6
  -6   6   9-9.17977 117.824   2
   6   0   9-52.0046 103.414  11
   0  -6   9-17.1926 56.8731   5
   6   0   9-3.79413 57.8655   7
   6   0  12 131363. 5842.49  11
   0  -6  12 112198. 4355.22   5
   6   0  12 125532. 5407.32   7
  -7   0  -7 13.3989 73.2004   8
  -7   0  -7 43.2733 88.6913  14
   7  -7  -7 122.079 238.917   7
  -7   0  -4 122904. 4653.20   8
  -7   0  -4 120916. 4109.74  14
   7  -7  -4 118033. 5455.67   7
   0   7  -4 122750. 4543.08   3
   0   7  -1 10.3525 42.9722   2
  -7   0  -1 99.3397 151.691   8
   7  -7  -1-140.092 182.374   7
   7  -7   2 141844. 5926.28   7
  -7   0   2 135624. 4874.56   8
   0   7   2 122941. 4749.64   2
   0   7   5 11.6983 94.8583   2
  -7   0   5 250.731 197.531   8
   7  -7   5 136.770 158.506   7
   7  -7   8 138859. 5931.79  11
   7  -7   8 128135. 4959.12   7
   7  -6 -11 5966.92 1008.33  10
  -6  -1 -11 5955.27 1089.41   8
  -6  -1 -11 6511.07 1137.52  14
  -7   1 -11 6561.76 1139.37  14
   6  -7  -8 122923. 4575.59  10
  -7   1  -8 117212. 4200.38   8
  -6  -1  -8 126336. 4871.27   8
  -1   7  -8 125907. 4979.86   3
  -6  -1  -8 134235. 4788.85  14
  -7   1  -8 131941. 4745.77  14
   7  -6  -8 111477. 5072.89   7
   1   6  -8 127009. 5073.82   3
  -7   1  -5 7979.19 1103.40   6
  -7   1  -5 6499.15 991.855   8
  -1   7  -5 6550.77 1086.76   2
  -6  -1  -5 7234.35 1151.34   8
   6  -7  -5 7412.95 1184.26   1
  -6  -1  -5 7551.65 1039.41  14
  -1   7  -5 6742.47 1056.11   3
  -7   1  -5 7449.42 1041.80  14
   7  -6  -5 7693.18 1352.26   7
   6  -7  -5 8067.07 1386.13   7
   1   6  -5 6722.31 1079.39   3
  -7   1  -2 195374. 5561.80   6
   6  -7  -2 168007. 5523.06   1
  -7   1  -2 171367. 5114.68   8
  -6  -1  -2 186691. 5936.54   8
  -1   7  -2 187720. 6123.64   2
   1   6  -2 201328. 5708.78   2
  -1   7  -2 188846. 5083.77   3
  -6  -1  -2 178914. 4610.31  14
   7  -6  -2 178630. 6559.81   7
  -7   1  -2 189960. 4907.32  14
   6  -7  -2 185197. 6552.80   7
   1   6  -2 187271. 5301.53   3
  -7   1   1 7235.40 1039.89   8
  -6  -1   1 8591.47 1280.88   8
  -1   7   1 6644.97 1195.49   2
   1   6   1 6884.65 1059.77   2
   7  -6   1 7585.37 1352.96   7
   6  -7   1 8440.55 1388.93   7
   1   6   1 8028.78 1007.86   3
  -7   1   1 8270.82 1162.64   6
   7  -6   4 128243. 5303.53  11
   7  -6   4 136002. 5664.64   7
  -7   1   4 122395. 4315.96   8
  -6  -1   4 128892. 4774.09   8
  -1   7   4 128315. 5223.86   2
   6  -7   4 127169. 4825.98   7
   1   6   4 127501. 4775.11   2
  -7   1   4 133393. 4721.19   6
   1   6   7 6785.26 1140.77  11
   7  -6   7 6073.17 1201.37  11
  -7   1   7 5562.10 967.174   8
  -6  -1   7 5906.55 994.871   8
  -1   7   7 5461.01 1070.72   2
   7  -6   7 5988.23 1132.87   7
   6  -7   7 5943.98 991.856   7
   1   6   7 6378.10 1138.08   2
   7  -6  10 151878. 6256.49  11
   6  -7  10 146135. 5848.40  11
  -7   1  10 136267. 4914.39   8
  -6  -1  10 134996. 4838.16   8
   7  -6  10 142400. 5302.53   7
   6  -7  10 130892. 4495.00   7
  -1   7  10 129931. 5264.18   2
   1   6  10 136739. 5405.25   2
   5  -7 -12 121051. 4952.14   1
  -7   2 -12 122454. 4788.47   6
   7  -5 -12 131546. 4666.10  10
   5  -7 -12 126380. 4633.13  10
  -5  -2 -12 135351. 5478.67   8
  -2   7 -12 136547. 5800.53   3
  -5  -2 -12 140556. 5499.17  14
  -7   2 -12 136986. 5287.55  14
   7  -5 -12 112552. 4619.34   7
   2   5 -12 123922. 5482.04   3
  -7   2  -9 891.569 392.096   6
  -2   7  -9 908.753 436.614   3
   5  -7  -9 908.026 408.614  10
   2   5  -9 710.617 396.485   3
  -2   7  -9 958.530 410.713   2
   5  -7  -9 864.067 411.210   1
  -5  -2  -9 1067.25 473.898   8
  -5  -2  -9 950.302 415.606  14
  -7   2  -9 1278.23 479.585  14
   7  -5  -9 881.851 424.488   7
  -7   2  -6 162492. 5380.38   6
   7  -5  -6 146316. 4941.76  11
   5  -7  -6 154440. 5114.54  10
  -2   7  -6 164943. 5639.19   2
  -7   2  -6 160064. 4527.00   8
  -5  -2  -6 164922. 5653.52   8
   5  -7  -6 153738. 5649.68   1
  -2   7  -6 158169. 5153.27   3
  -5  -2  -6 179160. 5266.46  14
   7  -5  -6 164994. 5992.29   7
  -7   2  -6 167093. 5037.22  14
   2   5  -6 158895. 5517.56   3
  -7   2  -3 1178.58 441.003   6
   7  -5  -3 1135.09 456.839  11
  -7   2  -3 1297.55 409.691   8
  -5  -2  -3 1565.94 545.622   8
  -2   7  -3 1177.72 494.097   2
   5  -7  -3 1448.33 567.560   1
  -2   7  -3 1033.92 378.073   3
  -5  -2  -3 1327.00 417.487  14
   7  -5  -3 1275.04 539.482   7
  -7   2  -3 1147.43 390.853  14
   5  -7  -3 1700.35 601.873   7
   2   5  -3 1212.21 448.453   3
  -7   2   0 191530. 5811.31   6
   2   5   0 183973. 5668.65  11
   7  -5   0 183933. 6051.46  11
   5  -7   0 181851. 6250.73   1
  -7   2   0 173369. 4751.95   8
  -5  -2   0 198815. 6096.46   8
  -2   7   0 208044. 7132.18   2
  -2   7   0 201727. 4721.52   3
   2   5   0 198620. 5328.45   2
  -5  -2   0 186575. 4419.23  14
   7  -5   0 179536. 6448.26   7
   5  -7   0 212573. 6596.03   7
  -7   2   0 183956. 4496.77  14
   2   5   0 195330. 5406.08   3
  -7   2   3 1219.77 473.888   6
   2   5   3 1333.07 483.445  11
   7  -5   3 1205.05 509.169  11
   5  -7   3 1357.66 495.605   5
  -7   2   3 1211.51 403.141   8
  -5  -2   3 1238.21 473.175   8
  -2   7   3 1127.53 489.702   2
   7  -5   3 1448.03 574.323   7
   5  -7   3 1298.10 453.406   7
   2   5   3 1429.24 473.286   2
   2   5   3 1639.39 453.706   3
   2   5   6 156441. 5347.38  11
   7  -5   6 162533. 6221.57  11
   5  -7   6 149920. 5149.05   5
  -7   2   6 152104. 4718.85   8
  -5  -2   6 159186. 5094.45   8
  -2   7   6 145358. 5530.18   2
   7  -5   6 168118. 6239.52   7
   5  -7   6 155661. 4578.76   7
  -7   2   6 155261. 5356.58   6
   2   5   6 152597. 5153.30   2
   2   5   9 1033.74 456.320   2
   2   5   9 1665.96 559.445  11
   7  -5   9 1317.59 583.498  11
   5  -7   9 1063.97 441.234   5
  -7   2   9 2548.00 637.886   8
  -5  -2   9 992.581 397.572   8
  -2   7   9 1347.43 529.651   2
   7  -5   9 1983.40 650.245   7
   2   5  12 117263. 5054.69   2
  -5  -2  12 111509. 4087.74  12
   2   5  12 120148. 4910.83  11
   7  -5  12 133880. 5906.79  11
   5  -7  12 111141. 4725.52   5
  -7   2  12 114019. 4557.82   8
  -5  -2  12 113929. 4400.41   8
   7  -5  12 118866. 4969.27   7
  -2   7  12 115457. 4950.16   2
   4  -7 -13 1778.05 608.795   1
  -7   3 -13 1768.55 573.540   6
   7  -4 -13 1894.49 554.154  10
   4  -7 -13 2214.71 612.991  10
  -4  -3 -13 1866.95 638.594   8
  -3   7 -13 1877.77 677.729   3
  -4  -3 -13 2470.18 766.486  14
  -7   3 -13 1902.79 616.405  14
   7  -4 -13 1637.33 531.229   7
   3   4 -13 1475.36 578.782   3
   4  -7 -10 183772. 6262.97   1
  -7   3 -10 175557. 5567.73   6
   7  -4 -10 187631. 5580.52  10
   4  -7 -10 178275. 5292.01  10
  -3   7 -10 166632. 5357.74   2
  -4  -3 -10 189605. 6462.40   8
  -3   7 -10 179940. 6086.66   3
  -4  -3 -10 202844. 6436.34  14
   7  -4 -10 164538. 5435.48   7
  -7   3 -10 181640. 5641.10  14
   3   4 -10 192445. 6639.75   3
   3   4  -7 2518.50 742.153   3
  -7   3  -7 2407.69 634.892   6
   7  -4  -7 2500.20 614.060  11
   4  -7  -7 3156.73 702.199  10
  -3   7  -7 2479.68 718.099   2
  -4  -3  -7 2937.68 797.120   8
  -3   7  -7 2529.66 650.372   3
  -4  -3  -7 3373.88 768.008  14
   4  -7  -7 2962.77 785.549   1
   7  -4  -7 2389.74 688.282   7
  -7   3  -7 2599.32 632.400  14
   3   4  -4 171760. 5756.89   3
  -7   3  -4 159990. 5225.56   6
   3   4  -4 161003. 4826.00  11
   7  -4  -4 151903. 5082.67  11
   4  -7  -4 160508. 4948.79  10
  -3   7  -4 175896. 6383.85   2
  -4  -3  -4 159103. 5467.26   8
   4  -7  -4 166630. 5961.42   1
  -3   7  -4 150684. 4550.37   3
  -4  -3  -4 169156. 5017.54  14
   7  -4  -4 160638. 5808.77   7
  -7   3  -4 155502. 4585.17  14
  -7   3  -1 3401.50 753.551   6
   3   4  -1 3009.03 717.347   3
   3   4  -1 3702.74 790.369  11
   7  -4  -1 2855.84 737.012  11
  -7   3  -1 3422.89 609.759   8
  -4  -3  -1 3373.77 752.588   8
  -3   7  -1 3249.51 858.033   2
   4  -7  -1 3357.49 829.622   1
  -4  -3  -1 3580.70 662.707  14
   7  -4  -1 3630.53 891.299   7
   4  -7  -1 3627.30 803.198   7
  -7   3  -1 3211.52 615.825  14
  -7   3   2 202068. 6067.65   6
   3   4   2 204893. 5673.78   3
   3   4   2 201051. 6011.04  11
   7  -4   2 194257. 6416.16  11
   4  -7   2 190907. 6149.33   1
  -7   3   2 195978. 4833.18   8
  -4  -3   2 205964. 5883.44   8
  -3   7   2 189008. 6781.79   2
   7  -4   2 189208. 6464.03   7
  -4  -3   2 211510. 4576.20  14
   4  -7   2 217197. 5570.60   7
  -7   3   2 203714. 4525.82  14
   3   4   2 194550. 5127.88   2
   3   4   5 3071.06 695.379   2
   3   4   5 3322.76 672.546   3
   3   4   5 3248.87 785.573  11
   7  -4   5 3043.72 848.029  11
   4  -7   5 3169.50 786.448   5
  -7   3   5 3337.60 668.989   8
  -4  -3   5 3123.34 695.914   8
  -3   7   5 2956.01 810.418   2
   7  -4   5 3403.06 893.417   7
   4  -7   5 3654.53 649.647   7
  -7   3   5 3147.06 770.867   6
   3   4   8 154910. 5288.00   2
   3   4   8 166706. 5732.96  11
   7  -4   8 167783. 6513.43  11
   4  -7   8 154285. 5590.13   5
  -7   3   8 148912. 4645.84   8
  -4  -3   8 159360. 4860.85   8
  -3   7   8 153602. 5669.52   2
   7  -4   8 160563. 6060.53   7
  -7   3   8 155860. 5379.86   6
  -4  -3  11 2323.70 564.332  12
   3   4  11 2443.62 733.021   2
   3   4  11 2330.60 692.307  11
   7  -4  11 3155.89 906.496  11
   4  -7  11 2279.91 692.112   5
  -4  -3  11 2152.63 577.974   8
  -3   7  11 2368.73 697.464   2
   7  -4  11 2482.41 746.372   7
  -4  -3  14 99715.3 3971.30  12
   7  -3 -14 95780.4 3898.32  13
   4   3 -11 2180.63 685.165   3
   3  -7 -11 2587.01 725.124   1
  -7   4 -11 2950.60 711.812   6
   7  -3 -11 2632.50 681.843   3
   7  -3 -11 2838.93 659.238  10
   3  -7 -11 3321.09 683.454  10
  -3  -4 -11 2604.84 755.506   8
  -3  -4 -11 2992.63 784.606  14
  -7   4 -11 2354.03 650.226  14
   7  -3 -11 2195.93 557.884  13
   4   3  -8 164697. 5772.80   3
  -7   4  -8 162121. 5192.13   6
   7  -3  -8 166173. 5754.68   3
   3  -7  -8 174974. 4817.64  10
  -4   7  -8 165721. 5824.38   2
  -3  -4  -8 168108. 5866.56   8
  -3  -4  -8 185118. 6053.33  14
   7  -3  -8 158642. 5273.25   7
  -7   4  -8 163480. 5142.16  14
   3  -7  -8 163795. 5609.77   1
  -7   4  -5 2848.43 689.448   6
   4   3  -5 4395.28 913.210   3
   4   3  -5 3719.57 686.821  11
   7  -3  -5 3429.77 722.524  11
   3  -7  -5 3872.66 685.810  10
  -4   7  -5 3240.40 852.169   2
  -3  -4  -5 3745.47 841.530   8
   3  -7  -5 3242.63 786.512   1
  -3  -4  -5 3684.50 799.783  14
   7  -3  -5 3312.84 781.102   7
  -7   4  -5 3475.50 706.864  14
  -7   4  -2 210545. 6021.36   6
   4   3  -2 218941. 6312.82   3
   4   3  -2 221760. 5867.66  11
   7  -3  -2 207745. 5954.67  11
   3  -7  -2 237777. 5198.40  10
  -4   7  -2 210483. 6932.40   2
  -3  -4  -2 208273. 5832.28   8
   3  -7  -2 212642. 6483.67   1
  -3  -4  -2 237720. 6036.80  14
   7  -3  -2 207577. 6326.16   7
  -7   4  -2 201044. 5102.79  14
  -7   4   1 2873.24 709.235   6
   4   3   1 3136.49 623.688   2
   4   3   1 3759.13 804.631   3
   4   3   1 3621.23 778.623  11
   7  -3   1 3153.94 781.107  11
   3  -7   1 3238.51 791.438   1
  -3  -4   1 3598.51 753.214   8
  -4   7   1 5130.05 1082.89   2
  -3  -4   1 3489.57 669.406  14
   7  -3   1 3208.29 813.043   7
   3  -7   1 3687.18 672.386   7
  -7   4   1 3203.64 613.432  14
  -7   4   4 146980. 5249.56   6
   4   3   4 168627. 5270.67   3
   4   3   4 154065. 4706.84   2
   4   3   4 163903. 5531.58  11
   7  -3   4 155214. 5651.12  11
  -3  -4   4 166303. 4903.00   5
   3  -7   4 149463. 5239.03   5
  -7   4   4 159137. 4286.70   8
  -3  -4   4 156779. 4876.09   8
  -4   7   4 152378. 5998.44   2
   7  -3   4 154519. 5873.59   7
  -3  -4   4 180427. 4340.32  14
   4   3   7 2967.63 685.380   3
   4   3   7 2507.42 704.190  11
   4   3   7 2686.43 673.568   2
   7  -3   7 2341.68 733.542  11
  -3  -4   7 2467.62 586.705   5
   3  -7   7 2007.27 611.635   5
  -3  -4   7 2326.10 573.261   8
  -4   7   7 2757.58 784.545   2
   7  -3   7 3101.85 857.579   7
  -7   4   7 2404.30 675.928   6
   4   3  10 169770. 6040.04  11
   4   3  10 165738. 5777.30   2
   7  -3  10 175150. 6631.23  11
  -3  -4  10 166830. 4867.68   5
   3  -7  10 154029. 5375.47   5
  -3  -4  10 158518. 4733.83   8
   4   3  10 174549. 5578.83   7
  -4   7  10 155363. 5549.42   2
   7  -3  10 171049. 6409.15   7
  -3  -4  13 1547.73 496.638  12
   4   3  13 1662.10 616.770  11
   4   3  13 1874.46 673.074   2
   7  -3  13 1986.33 744.022  11
  -3  -4  13 1842.38 521.606   5
   3  -7  13 1662.08 569.328   5
  -3  -4  13 2335.00 588.367   8
  -4   7  13 1702.72 554.328   2
   7  -3  13 1610.97 623.916   7
   5   2 -12 119389. 4762.84  13
   5   2 -12 116625. 5013.88   3
   2  -7 -12 120416. 4882.22   1
  -7   5 -12 117596. 4555.21   6
  -5   7 -12 123195. 4348.85   6
   7  -2 -12 121010. 4784.15   3
  -2  -5 -12 119045. 4456.65   1
  -2  -5 -12 123799. 5055.53   8
  -2  -5 -12 128083. 5212.45  14
  -7   5 -12 119382. 4764.54  14
   7  -2 -12 108124. 4028.50  13
  -2  -5  -9 1253.18 442.264   1
   5   2  -9 1067.24 478.379   3
  -7   5  -9 1171.95 451.112   6
  -5   7  -9 1284.39 428.101   6
   7  -2  -9 1341.35 534.532   3
  -2  -5  -9 1277.38 493.708   8
  -2  -5  -9 1289.58 489.750  14
  -7   5  -9 1371.21 489.555  14
   2  -7  -9 1186.30 473.726   1
  -7   5  -6 165249. 5122.82   6
  -5   7  -6 168285. 4726.61   6
   5   2  -6 169584. 5839.97   3
   7  -2  -6 181045. 4942.47  11
   7  -2  -6 173939. 6286.08   3
  -5   7  -6 164525. 5767.19   2
  -2  -5  -6 162652. 5335.22   8
  -2  -5  -6 171580. 5064.67   1
   7  -2  -6 179721. 5416.39   7
   2  -7  -6 164111. 5454.01   1
  -7   5  -6 163714. 5162.57  14
  -5   7  -3 1227.82 422.274   6
  -7   5  -3 1305.10 468.989   6
   5   2  -3 1460.35 524.394   3
   5   2  -3 1202.87 407.016  11
   7  -2  -3 1341.98 460.386  11
  -5   7  -3 1451.98 555.324   2
  -2  -5  -3 1412.11 474.440   8
  -2  -5  -3 1668.21 507.531   1
   2  -7  -3 1134.14 459.099   1
   7  -2  -3 1339.38 493.848   7
  -7   5  -3 1380.45 452.340  14
  -5   7   0 216088. 5735.11   6
  -7   5   0 194318. 5858.54   6
   5   2   0 187154. 5355.78  11
   5   2   0 194895. 5953.73   3
   7  -2   0 198118. 5854.01  11
  -5   7   0 177690. 6286.28   2
  -2  -5   0 207663. 5430.51   1
  -2  -5   0 197289. 5438.17   8
   2  -7   0 192015. 6073.80   1
   7  -2   0 187640. 5998.68   7
  -7   5   0 183671. 4979.64  14
  -5   7   3 1272.42 447.359   6
  -7   5   3 1294.90 493.475   6
   5   2   3 1340.47 478.659  11
   5   2   3 1212.48 461.636   3
   7  -2   3 1348.15 512.836  11
   5   2   3 1371.84 445.124   2
   2  -7   3 1088.33 448.515   1
  -5   7   3 1299.99 537.970   2
  -2  -5   3 3548.74 708.280   8
   7  -2   3 3089.60 809.699   7
  -7   5   3 1289.98 408.254  14
   5   2   6 161421. 5640.55  11
   5   2   6 155833. 5185.98   3
   7  -2   6 159747. 5812.58  11
  -2  -5   6 155156. 5040.55   5
   2  -7   6 152708. 5399.57   5
  -2  -5   6 155907. 4523.42   8
  -5   7   6 160661. 5946.27   2
   7  -2   6 159654. 6302.92   7
  -5   7   6 162995. 5403.87   6
  -7   5   6 150031. 5388.79   6
  -7   5   9 919.584 419.177   6
   5   2   9 908.962 455.167  11
   7  -2   9 1058.38 497.930  11
  -5   7   9 809.045 405.561   2
  -2  -5   9 847.082 364.008   5
   2  -7   9 796.705 370.381   5
   5   2   9 1012.13 423.662   7
   7  -2   9 860.845 485.867   7
  -2  -5  12 129652. 4707.25  12
   5   2  12 128160. 5572.59  11
   7  -2  12 130520. 5937.63  11
  -2  -5  12 115716. 4246.54   5
   2  -7  12 111421. 4507.33   5
  -5   7  12 107180. 4428.95   2
   5   2  12 127810. 5270.36   7
   7  -2  12 128276. 5879.75   7
   6   1 -10 139049. 5033.97  13
   6   1 -10 145326. 5671.94   3
  -7   6 -10 151443. 5115.48   6
  -6   7 -10 155301. 5042.70   6
   7  -1 -10 150466. 5832.15   3
  -1  -6 -10 140559. 4950.12   8
   1  -7 -10 151247. 5352.22   1
  -1  -6 -10 152111. 5199.03   1
  -7   6  -7 5880.19 969.935   6
  -6   7  -7 5811.01 931.925   6
   6   1  -7 6626.26 1192.41   3
   7  -1  -7 8284.79 1406.06   3
  -1  -6  -7 6517.02 1033.00   8
  -1  -6  -7 6579.34 1045.03   1
   1  -7  -7 6549.84 1096.33   1
  -7   6  -7 6945.11 1117.33  14
  -6   7  -4 128993. 4418.00   6
  -7   6  -4 130903. 4623.48   6
   6   1  -4 138930. 5451.88   3
   6   1  -4 138680. 4382.45  11
   7  -1  -4 138074. 4486.67  11
   7  -1  -4 141870. 5737.77   3
  -6   7  -4 124754. 4958.16   2
  -1  -6  -4 124365. 4295.00   8
  -1  -6  -4 129967. 4705.79   1
   1  -7  -4 132461. 4929.35   1
  -7   6  -4 134264. 4810.46  14
  -6   7  -1 7088.63 1096.85   6
  -7   6  -1 6951.14 1121.58   6
   6   1  -1 7247.32 1062.85  11
   6   1  -1 8430.61 1326.38   3
   7  -1  -1 7665.17 1115.99  11
   7  -1  -1 7676.37 1308.29   3
  -6   7  -1 7649.32 1245.57   2
  -1  -6  -1 7871.43 1161.13   1
  -1  -6  -1 8073.24 1062.77   8
   1  -7  -1 7801.07 1221.72   1
  -7   6  -1 6928.61 1041.90  14
  -6   7   2 182625. 5698.96   6
  -7   6   2 180920. 5859.27   6
   6   1   2 182631. 5590.40  11
   7  -1   2 191136. 5887.31  11
   6   1   2 197987. 6362.66   3
  -1  -6   2 187457. 5599.02   1
  -6   7   2 177792. 6082.97   2
   1  -7   2 191406. 6104.35   1
   7  -1   2 186055. 5772.69   7
   6   1   5 7417.36 1191.95  11
   7  -1   5 7256.31 1205.99  11
   6   1   5 6640.82 1144.60   3
  -7   6   5 6283.34 921.059   2
  -1  -6   5 7178.57 1153.84   5
   1  -7   5 6243.22 1094.57   5
  -6   7   5 7183.05 1202.11   2
   7  -1   5 6857.12 1183.98   7
  -6   7   5 6144.04 1041.84   6
  -7   6   5 6494.94 1126.50   6
   6   1   8 142853. 5627.98  11
   7  -1   8 140238. 5619.32  11
   6   1   8 130830. 5041.67   3
  -1  -6   8 122214. 4560.91   5
   1  -7   8 126162. 4863.39   5
  -6   7   8 121230. 4900.31   2
   6   1   8 139412. 5119.26   7
   7  -1   8 127111. 5538.74   7
  -6   7   8 114509. 4663.23   6
  -7   6   8 121323. 4809.21   6
  -1  -6  11 4993.27 932.401   5
   6   1  11 5749.52 1120.75   7
   7  -1  11 4660.78 1106.45   7
  -7   7  -8 132299. 4705.66   6
   0  -7  -8 129641. 4925.73   1
  -7   7  -5 35.2009 75.5735   6
   7   0  -5-50.7449 107.583   3
   0  -7  -5 9.12510 118.122   1
  -7   7  -2 144977. 5078.09   6
   7   0  -2 140141. 4851.49  11
   7   0  -2 134157. 5669.01   3
   0  -7  -2 141835. 5188.81   1
  -7   7   1 0.26558 119.760   6
   0  -7   1-19.1278 60.6405   1
  -7   7   1 61.8961 147.144   2
   7   0   1-14.3712 17.3363  11
   7   0   4 131910. 5197.45  11
   0  -7   4 125816. 5058.51   5
  -7   7   4 122150. 4934.06   6
  -7   7   7 148.905 183.734   6
  -7   7   7 85.5663 129.449   2
   7   0   7 191.383 216.114  11
   7   0   7 80.9873 166.824   3
   0  -7   7-21.9540 129.831   5
  -8   1  -3 240.887 197.519   8
  -8   1   0 102661. 4064.96   8
  -1   8   0 106407. 4688.14   2
  -2   8  -7 398.274 272.133   3
  -8   2  -4 141128. 5272.21   6
   8  -6  -4 129859. 4987.51  11
  -2   8  -4 147234. 5754.11   2
   6  -8  -4 131783. 5416.00   1
  -6  -2  -4 154391. 5799.74   8
  -2   8  -4 147658. 4875.88   3
  -6  -2  -4 142621. 4547.03  14
   8  -6  -4 147280. 6031.71   7
   6  -8  -4 154449. 6146.89   7
  -8   2  -4 140831. 4539.16  14
   2   6  -4 142875. 5110.44   3
   6  -8  -1 464.155 294.295   1
  -8   2  -1 676.410 373.238   6
   8  -6  -1 370.941 262.143  11
  -2   8  -1 599.306 369.946   2
   2   6  -1 389.646 243.611   3
  -8   2  -1 492.338 262.708   8
   8  -6  -1 449.890 319.717   7
   6  -8  -1 666.442 421.235   7
   8  -6   2 100885. 4773.89  11
  -8   2   2 92510.8 3663.87   8
  -6  -2   2 109450. 4677.66   8
  -2   8   2 109242. 5147.45   2
   2   6   2 102062. 4052.64   2
   8  -6   2 106844. 5202.61   7
   6  -8   2 104870. 4578.39   7
  -8   2   2 101968. 4431.12   6
  -8   2   5 679.665 363.698   6
   2   6   5 564.331 336.105  11
   8  -6   5 587.547 379.698  11
  -2   8   5 526.695 354.130   2
   2   6   5 468.958 281.242   2
  -8   2   5 569.717 296.353   8
  -6  -2   5 533.894 323.103   8
   8  -6   5 840.561 486.927   7
   6  -8   5 517.092 287.865   7
  -8   3  -8 149204. 5390.24   6
   5  -8  -8 160667. 5306.16  10
  -3   8  -8 149527. 5434.94   2
  -3   8  -8 164802. 5607.33   3
   5  -8  -8 145130. 5650.34   1
  -5  -3  -8 172297. 5777.92  14
   8  -5  -8 149127. 5600.25   7
  -8   3  -8 160614. 5238.36  14
  -8   3  -5 580.511 343.720   6
  -3   8  -5 340.954 273.292   2
  -3   8  -5 373.552 244.382   3
   8  -5  -5 235.510 205.440  11
   3   5  -5 292.160 230.459   3
   5  -8  -5 505.326 287.302  10
   5  -8  -5 334.351 283.473   1
  -5  -3  -5 636.318 380.036   8
  -5  -3  -5 486.235 289.792  14
   8  -5  -5 257.099 235.977   7
  -8   3  -5 188.091 154.940  14
   5  -8  -5 282.216 232.290   7
   3   5  -2 89730.3 4112.16   3
  -8   3  -2 90354.8 4282.35   6
   3   5  -2 86075.5 3822.72  11
   8  -5  -2 81217.3 4106.98  11
   5  -8  -2 91224.4 4906.08   1
  -5  -3  -2 83930.3 4263.52   8
  -3   8  -2 98599.8 5130.13   2
   8  -5  -2 89317.0 4638.63   7
  -5  -3  -2 87112.2 3502.23  14
   5  -8  -2 96644.6 4743.51   7
  -8   3  -2 83563.3 3302.32  14
   5  -8   1 397.362 270.437   1
  -8   3   1 197.841 196.039   6
   3   5   1 287.843 214.586  11
   8  -5   1 263.327 231.756  11
  -3   8   1 383.939 313.989   2
   3   5   1 220.287 195.765   3
   5  -8   1 188.110 195.401   5
  -8   3   1 281.828 192.478   8
  -5  -3   1 263.288 252.118   8
   8  -5   1 391.050 306.201   7
   5  -8   1 236.615 192.902   7
   3   5   4 177477. 5988.83  11
   8  -5   4 186504. 6816.75  11
   5  -8   4 160871. 5679.37   5
  -8   3   4 168889. 4866.79   8
  -5  -3   4 184657. 5775.17   8
  -3   8   4 153598. 6127.35   2
   8  -5   4 185840. 6959.94   7
   3   5   4 172582. 5303.24   2
  -8   3   4 177890. 5984.88   6
  -8   3   7 182.195 187.265   6
   3   5   7 224.243 200.544  11
   8  -5   7 310.498 279.824  11
   3   5   7 258.780 205.565   2
   5  -8   7 446.839 308.556   5
  -8   3   7 300.658 213.010   8
  -5  -3   7 284.829 217.055   8
  -3   8   7 1415.24 571.559   2
   8  -5   7 1291.22 608.141   7
  -4   8  -9 369.255 256.330   2
   4  -8  -9 37.7829 111.454  10
   8  -4  -9 56.1190 99.9787   7
   4   4  -6 157520. 5750.52   3
  -8   4  -6 150862. 5379.66   6
   4  -8  -6 158928. 4744.55  10
  -4   8  -6 159080. 6173.10   2
  -4  -4  -6 156610. 5892.67   8
   4  -8  -6 156095. 5901.95   1
  -4  -4  -6 159119. 5368.43  14
   8  -4  -6 140771. 5383.91   7
  -8   4  -6 143230. 4799.81  14
  -8   4  -3-6.72149 68.9940   6
   4   4  -3 43.2225 70.5691  11
  -4   8  -3 0.34470 108.137   2
   8  -4  -3 5.09907 41.7183  11
   4   4  -3 346.738 283.807   3
   4  -8  -3 160.929 169.124   1
  -4  -4  -3 124.863 156.271   8
  -4  -4  -3 10.3775 40.2935  14
   8  -4  -3 309.269 283.710   7
  -8   4  -3 35.9692 70.1970  14
   4  -8  -3 96.3876 15.1381   7
  -8   4   0 130279. 5197.88   6
   4   4   0 138523. 5150.04   3
   4   4   0 127382. 4731.04  11
   8  -4   0 127059. 5223.62  11
   4  -8   0 126297. 5366.85   1
  -4   8   0 131174. 5912.00   2
  -4  -4   0 134122. 5131.70   8
   8  -4   0 129807. 5488.53   7
  -4  -4   0 134340. 4276.95  14
  -8   4   0 121884. 3886.41  14
  -8   4   3 6.05499 68.2598   6
   4   4   3 17.2196 45.0717  11
   8  -4   3 17.0132 97.0046  11
  -4   8   3-8.98761 48.3548   2
   4   4   3 162.007 187.903   3
   4  -8   3 37.4909 87.1240   5
  -4  -4   3 309.265 224.469   8
   8  -4   3-97.2274 151.006   7
   4   4   6 135063. 4821.60   2
   4   4   6 152752. 5805.77  11
   8  -4   6 148390. 6182.26  11
   4  -8   6 129748. 5158.45   5
  -4  -4   6 124027. 4565.91   8
  -4   8   6 135677. 5772.96   2
   8  -4   6 139939. 6039.22   7
  -8   4   6 141762. 5433.37   6
   4   4   9-14.8315 51.9426   2
   4  -8   9 118.329 153.327   5
  -4  -4   9 106.656 127.801   8
  -8   5  -7 171.977 168.424   6
  -5   8  -7 527.753 338.206   2
   5   3  -7 231.946 217.496   3
   8  -3  -7 306.901 256.895   3
   3  -8  -7 246.905 221.891   1
  -3  -5  -7 511.840 327.060   8
  -3  -5  -7 516.649 321.047  14
  -8   5  -7 296.888 221.233  14
  -8   5  -4 197003. 6108.83   6
   5   3  -4 191436. 6211.31   3
   8  -3  -4 187605. 5679.57  11
  -5   8  -4 191327. 6783.18   2
  -3  -5  -4 182414. 5870.35   8
   3  -8  -4 190824. 6294.99   1
  -3  -5  -4 200287. 5886.27  14
   8  -3  -4 189428. 6158.97   7
  -8   5  -4 186265. 5387.29  14
  -8   5  -1 324.627 254.745   6
   5   3  -1 324.709 246.648  11
  -5   8  -1 210.563 220.715   2
   8  -3  -1 365.720 260.980  11
   3  -8  -1 178.865 198.752   1
   5   3  -1 303.966 260.998   3
  -3  -5  -1 340.851 247.364   8
  -3  -5  -1 304.749 205.260  14
   8  -3  -1 342.470 260.633   7
  -8   5  -1 256.592 187.984  14
  -8   5   2 75370.3 4003.81   6
   5   3   2 91243.4 4103.99   3
   5   3   2 88081.3 4039.20  11
   8  -3   2 94913.8 4575.40  11
  -3  -5   2 87015.3 3854.38   5
   3  -8   2 75122.4 4037.99   1
  -5   8   2 97217.1 5133.82   2
  -3  -5   2 83843.2 3849.42   8
   8  -3   2 87079.6 4464.18   7
  -3  -5   2 96855.9 3687.95  14
  -8   5   5 302.113 255.865   6
   5   3   5 80.2949 126.188  11
   8  -3   5 273.685 257.596  11
  -5   8   5 472.302 360.482   2
   5   3   5 313.709 233.429   3
  -3  -5   5 310.641 211.106   5
   3  -8   5 283.707 230.786   5
  -3  -5   5 351.593 240.007   8
   8  -3   5 506.993 380.156   7
   5   3   8 136538. 5052.75   2
  -3  -5   8 147519. 4784.70   5
  -5   8   8 138299. 5664.32   2
  -8   6  -5 431.903 292.253   6
  -6   8  -5 613.200 375.982   2
   6   2  -5 599.198 368.695   3
   8  -2  -5 743.954 436.553   3
   2  -8  -5 474.296 300.222   1
  -2  -6  -5 613.336 326.898   8
  -8   6  -5 682.331 341.248  14
  -8   6  -2 105918. 4537.73   6
   6   2  -2 112788. 4899.12   3
   6   2  -2 100834. 4025.48  11
   8  -2  -2 107514. 4404.36  11
   8  -2  -2 107925. 5113.85   3
  -6   8  -2 102483. 4899.87   2
  -2  -6  -2 101880. 4098.99   8
   2  -8  -2 105611. 4601.53   1
  -8   6  -2 100759. 3970.70  14
  -8   6   1 535.391 341.323   6
   2  -8   1 703.331 380.694   1
  -6   8   1 653.491 407.684   2
   6   2   1 393.529 283.607  11
   8  -2   1 686.288 371.008  11
   6   2   1 735.917 393.989   3
  -2  -6   1 480.132 280.802   8
   8  -2   1 503.956 325.835   7
  -8   6   4 142122. 5550.71   6
   6   2   4 148500. 5442.44  11
   6   2   4 148729. 5472.06   3
   8  -2   4 152576. 5867.93  11
  -2  -6   4 148774. 5298.73   5
   2  -8   4 140219. 5439.05   5
  -6   8   4 148994. 6107.85   2
   8  -2   4 136328. 5632.54   7
  -2  -6   7 369.108 266.436   5
  -7   8  -3 123.520 146.136   6
  -7   8   0 120981. 4876.24   6
   7   1   0 113773. 4582.31  11
   8  -1   0 120411. 4890.23  11
  -1  -7   0 117290. 4707.69   1
   0   0   0    0.00    0.00   0
TITL paper_1818_red_abs_2016 in R3c
REM R3c (#161 in standard setting)
CELL 0.71073   5.145135   5.145135  13.840930  90.0000  90.0000 120.0000
ZERR    6.00   0.000124   0.000124   0.000359   0.0000   0.0000   0.0000
LATT -3
SYMM -y, x-y, z
SYMM -x+y,-x, z
SYMM -y,-x, z+1/2
SYMM -x+y, y, z+1/2
SYMM  x, x-y, z+1/2
SFAC Li O Nb Ta
UNIT 6.00 18.00 4.20 1.80
TREF
HKLF 4
END
;
_shelx_hkl_checksum              88663
_shelx_res_file
;
    paper_1818_red_abs_2016.res created by SHELXL-2014/7
TITL paper_1818_red_abs_2016 in R3c
REM R3c (#161 in standard setting)
CELL 0.71073 5.145 5.145 13.841 90 90 120
ZERR 6 0.001 0.001 0.005 0 0 0
LATT -3
SYMM -Y,+X-Y,+Z
SYMM +Y-X,-X,+Z
SYMM -Y,-X,0.5+Z
SYMM +Y-X,+Y,0.5+Z
SYMM +X,+X-Y,0.5+Z
SFAC Li O Nb Ta
UNIT 6 18 4.2 1.8
EADP Ta Nb
EXYZ Ta Nb
L.S. 10
PLAN  25
LIST 3
fmap 2
acta
MERG 2
REM <olex2.extras>
REM <HklSrc "%.\\paper_1818_red_abs_2016.hkl">
REM </olex2.extras>
WGHT    0.041500
EXTI    0.112604
FVAR       5.16838
TA    4    0.000000    0.000000    0.003372    10.10000    0.00829    0.00829 =
         0.00785    0.00000    0.00000    0.00415
NB    3    0.000000    0.000000    0.003372    10.23333    0.00829    0.00829 =
         0.00785    0.00000    0.00000    0.00415
O     2    0.048110    0.343342    0.068278    11.00000    0.00771    0.00649 =
         0.00768   -0.00174   -0.00091    0.00337
LI    1    0.000000    0.000000    0.280684    10.33333    0.00942    0.00942 =
         0.01409    0.00000    0.00000    0.00471
HKLF 4
REM  paper_1818_red_abs_2016 in R3c
REM R1 =  0.0246 for     367 Fo > 4sig(Fo)  and  0.0247 for all     375 data
REM     17 parameters refined using      1 restraints
END
WGHT      0.0415      0.0000
REM Highest difference peak  1.714,  deepest hole -1.541,  1-sigma level  0.432
Q1    1  -0.0639 -0.1108 -0.0185  11.00000  0.05    1.71
Q2    1   0.0407 -0.0752  0.0233  11.00000  0.05    1.63
Q3    1   0.1159  0.4597  0.1062  11.00000  0.05    0.72
Q4    1  -0.1242  0.1613  0.0350  11.00000  0.05    0.55
Q5    1   0.0429  0.5281  0.1380  11.00000  0.05    0.55
Q6    1   0.2742  0.3084  0.1072  11.00000  0.05    0.53
Q7    1  -0.0743  0.4456  0.1070  11.00000  0.05    0.52
Q8    1  -0.1867  0.2229  0.0683  11.00000  0.05    0.49
Q9    1  -0.1534 -0.2916 -0.0071  11.00000  0.05    0.37
Q10   1   0.0000  0.0000  0.1979  10.33333  0.05    0.32
Q11   1   0.1943  0.0862  0.3192  11.00000  0.05    0.30
Q12   1   0.2020  0.2333  0.0624  11.00000  0.05    0.23
Q13   1   0.2701  0.4816  0.0972  11.00000  0.05    0.23
Q14   1  -0.2196  0.2432  0.0247  11.00000  0.05    0.22
Q15   1   0.0857 -0.0935  0.3361  11.00000  0.05    0.05
;
_shelx_res_checksum              39796
loop_
_space_group_symop_operation_xyz
'x, y, z'
'-y, x-y, z'
'-x+y, -x, z'
'-y, -x, z+1/2'
'-x+y, y, z+1/2'
'x, x-y, z+1/2'
'x+2/3, y+1/3, z+1/3'
'-y+2/3, x-y+1/3, z+1/3'
'-x+y+2/3, -x+1/3, z+1/3'
'-y+2/3, -x+1/3, z+5/6'
'-x+y+2/3, y+1/3, z+5/6'
'x+2/3, x-y+1/3, z+5/6'
'x+1/3, y+2/3, z+2/3'
'-y+1/3, x-y+2/3, z+2/3'
'-x+y+1/3, -x+2/3, z+2/3'
'-y+1/3, -x+2/3, z+7/6'
'-x+y+1/3, y+2/3, z+7/6'
'x+1/3, x-y+2/3, z+7/6'
loop_
_atom_site_type_symbol
_atom_site_label
_atom_site_fract_x
_atom_site_fract_y
_atom_site_fract_z
_atom_site_U_iso_or_equiv
_atom_site_adp_type
_atom_site_calc_flag
_atom_site_occupancy
Ta Ta 0.0000 0.0000 0.0034(4) 0.0081(2) Uani d 0.3
Nb Nb 0.0000 0.0000 0.0034(4) 0.0081(2) Uani d 0.7
O O 0.0481(3) 0.3433(4) 0.0683(4) 0.0074(4) Uani d 1
Li Li 0.0000 0.0000 0.281(3) 0.011(4) Uani d 1
loop_
_atom_site_aniso_label
_atom_site_aniso_U_11
_atom_site_aniso_U_22
_atom_site_aniso_U_33
_atom_site_aniso_U_12
_atom_site_aniso_U_13
_atom_site_aniso_U_23
Ta 0.0083(3) 0.0083(3) 0.0078(3) 0.00415(13) 0.000 0.000
Nb 0.0083(3) 0.0083(3) 0.0078(3) 0.00415(13) 0.000 0.000
O 0.0077(9) 0.0065(6) 0.0077(6) 0.0034(8) -0.0009(8) -0.0017(4)
Li 0.009(6) 0.009(6) 0.014(9) 0.005(3) 0.000 0.000
loop_
_atom_type_symbol
_atom_type_description
_atom_type_scat_dispersion_real
_atom_type_scat_dispersion_imag
_atom_type_scat_source
Li Li -0.0003 0.0001 'International Tables Vol C Tables 4.2.6.8 and 6.1.1.4'
O O 0.0106 0.0060 'International Tables Vol C Tables 4.2.6.8 and 6.1.1.4'
Nb Nb -2.0727 0.6215 'International Tables Vol C Tables 4.2.6.8 and 6.1.1.4'
Ta Ta -0.7052 6.5227 'International Tables Vol C Tables 4.2.6.8 and 6.1.1.4'
loop_
_exptl_crystal_face_index_h
_exptl_crystal_face_index_k
_exptl_crystal_face_index_l
_exptl_crystal_face_perp_dist
4 -6 10 0.1080
-3 4 17 0.1217
2 3 14 0.1285
4 -5 -13 0.1174
0 1 -19 0.1382
-1 6 12 0.0845
-5 5 -10 0.0886
-6 7 0 0.1106
1 -6 -10 0.1002
-6 0 9 0.0822
6 -1 -10 0.0928
loop_
_geom_angle_atom_site_label_1
_geom_angle_atom_site_label_2
_geom_angle_atom_site_label_3
_geom_angle_site_symmetry_1
_geom_angle_site_symmetry_3
_geom_angle
_geom_angle_publ_flag
O Ta O . 3 99.2(2) n
O Ta O 2 10_554 166.6(3) n
O Ta O 2 12_454 88.74(6) n
O Ta O . 2 99.2(2) n
O Ta O . 12_454 90.15(6) n
O Ta O 3 2 99.2(2) n
O Ta O 3 10_554 90.15(6) n
O Ta O . 11_444 166.6(3) n
O Ta O 11_444 10_554 80.4(2) n
O Ta O 3 11_444 88.74(6) n
O Ta O 3 12_454 166.6(3) n
O Ta O 2 11_444 90.15(6) n
O Ta O 11_444 12_454 80.4(2) n
O Ta O . 10_554 88.73(6) n
O Ta O 10_554 12_454 80.4(2) n
O Ta Li 11_444 13_544 41.4(5) n
O Ta Li 2 10_444 32.98(12) n
O Ta Li . 13_544 142.7(3) n
O Ta Li 12_454 13_544 119.4(6) n
O Ta Li 10_554 13_554 41.4(5) n
O Ta Li 2 4_554 118.47(17) n
O Ta Li 2 13_544 103.3(3) n
O Ta Li 10_554 4_554 48.19(13) n
O Ta Li 10_554 10_444 147.2(3) n
O Ta Li . 10_554 71.4(2) n
O Ta Li 12_454 13_554 75.8(4) n
O Ta Li 2 10_554 120.2(5) n
O Ta Li 3 13_544 48.3(6) n
O Ta Li 10_554 10_554 72.5(5) n
O Ta Li . 10_444 120.2(5) n
O Ta Li 10_554 13_544 75.8(4) n
O Ta Li . 13_444 103.3(3) n
O Ta Li 3 4_554 118.47(17) n
O Ta Li 3 13_444 142.7(3) n
O Ta Li 11_444 4_554 48.19(13) n
O Ta Li 2 13_444 48.3(6) n
O Ta Li 12_454 4_554 48.19(13) n
O Ta Li 11_444 13_444 75.7(4) n
O Ta Li 3 10_554 32.98(12) n
O Ta Li 10_554 13_444 119.4(6) n
O Ta Li 11_444 10_554 112.1(3) n
O Ta Li 12_454 13_444 41.4(5) n
O Ta Li 12_454 10_554 147.2(3) n
O Ta Li . 13_554 48.3(6) n
O Ta Li 3 10_444 71.4(2) n
O Ta Li 3 13_554 103.3(3) n
O Ta Li 11_444 10_444 72.5(5) n
O Ta Li 2 13_554 142.7(3) n
O Ta Li 12_454 10_444 112.1(3) n
O Ta Li 11_444 13_554 119.4(6) n
O Ta Li . 4_554 118.47(17) n
Li Ta Li 13_444 10_554 167.4(12) n
Li Ta Li 13_444 4_554 75.4(6) n
Li Ta Li 4_554 10_444 117.3(5) n
Li Ta Li 13_554 10_554 71.68(12) n
Li Ta Li 13_554 4_554 75.4(6) n
Li Ta Li 13_544 10_554 71.68(12) n
Li Ta Li 13_444 13_554 113.8(5) n
Li Ta Li 4_554 10_554 117.3(5) n
Li Ta Li 13_444 10_444 71.68(12) n
Li Ta Li 13_544 4_554 75.4(6) n
Li Ta Li 13_544 10_444 71.68(12) n
Li Ta Li 13_444 13_544 113.8(5) n
Li Ta Li 10_554 10_444 100.7(7) n
Li Ta Li 13_554 13_544 113.8(5) n
Li Ta Li 13_554 10_444 167.4(12) n
Ta O Ta . 16_554 140.34(12) n
Ta O Nb 16_554 16_554 0.0(2) n
Ta O Nb . 16_554 140.3 n
Ta O Li . 10_454 116.8(4) n
Ta O Li 16_554 13_554 88.6(6) n
Ta O Li . 13_554 93.9(5) n
Nb O Li 16_554 13_554 88.6(6) n
Li O Ta 10_454 16_554 95.4(7) n
Li O Nb 10_454 16_554 95.4(7) n
Li O Li 10_454 13_554 120.2(7) n
Ta Li Ta 7 7_445 113.8(5) n
Ta Li Ta 7 7_455 113.8(5) n
Ta Li Ta 7_445 7_455 113.8(5) n
Ta Li Nb 7_445 7_455 113.8(5) n
Ta Li Nb 7 7 0.0(2) n
Ta Li Nb 7 7_455 113.8(5) n
Ta Li Nb 7_455 7_455 0.0(2) n
Ta Li Nb 7_445 7_445 0.0 n
Ta Li Nb 7 7_445 113.8(5) n
Nb Li Ta 7 7_445 113.8 n
Nb Li Ta 7_445 7_455 113.8 n
Nb Li Ta 7 7_455 113.8 n
Nb Li Nb 7_445 7_455 113.8(5) n
Nb Li Nb 7 7_455 113.8(5) n
Nb Li Nb 7 7_445 113.8(5) n
O Li Ta 8 7_445 83.5(6) n
O Li Ta 9_455 7_455 37.76(14) n
O Li Ta 8 7_455 110.6(10) n
O Li Ta 7_445 7 110.6(10) n
O Li Ta 18_554 7_445 149.79(16) n
O Li Ta 18_554 7 43.2(2) n
O Li Ta 7_445 7_455 83.5(6) n
O Li Ta 9_455 7_445 110.6(10) n
O Li Ta 16_544 7_445 43.2(2) n
O Li Ta 16_544 7 95.72(7) n
O Li Ta 9_455 7 83.5(6) n
O Li Ta 8 7 37.76(14) n
O Li Ta 17_444 7 149.79(16) n
O Li Ta 17_444 7_455 43.2(2) n
O Li Ta 17_444 7_445 95.72(7) n
O Li Ta 18_554 7_455 95.72(7) n
O Li Ta 16_544 7_455 149.79(16) n
O Li Ta 7_445 7_445 37.76(14) n
O Li Nb 17_444 7_445 95.72(7) n
O Li Nb 9_455 7_455 37.76(14) n
O Li Nb 18_554 7_455 95.72(7) n
O Li Nb 18_554 7_445 149.79(16) n
O Li Nb 9_455 7 83.5(6) n
O Li Nb 16_544 7_445 43.2(2) n
O Li Nb 8 7_455 110.6(10) n
O Li Nb 8 7_445 83.5(6) n
O Li Nb 7_445 7 110.6(10) n
O Li Nb 7_445 7_445 37.76(14) n
O Li Nb 17_444 7_455 43.2(2) n
O Li Nb 9_455 7_445 110.6(10) n
O Li Nb 16_544 7_455 149.79(16) n
O Li Nb 17_444 7 149.79(16) n
O Li Nb 7_445 7_455 83.5(6) n
O Li Nb 16_544 7 95.72(7) n
O Li Nb 8 7 37.76(14) n
O Li Nb 18_554 7 43.2(2) n
O Li O 7_445 9_455 72.8(9) n
O Li O 16_544 9_455 150.7(15) n
O Li O 8 7_445 72.8(9) n
O Li O 17_444 18_554 110.8(9) n
O Li O 18_554 7_445 150.7(15) n
O Li O 17_444 16_544 110.8(9) n
O Li O 8 9_455 72.8(9) n
O Li O 17_444 7_445 88.7(4) n
O Li O 18_554 9_455 88.7(4) n
O Li O 18_554 16_544 110.8(9) n
O Li O 16_544 7_445 80.2(4) n
O Li O 17_444 8 150.7(15) n
O Li O 17_444 9_455 80.2(4) n
O Li O 18_554 8 80.2(4) n
O Li O 16_544 8 88.7(4) n
loop_
_geom_bond_atom_site_label_1
_geom_bond_atom_site_label_2
_geom_bond_site_symmetry_2
_geom_bond_distance
_geom_bond_publ_flag
Ta O . 1.885(3) n
Ta O 10_554 2.113(4) n
Ta O 11_444 2.113(4) n
Ta O 3 1.885(3) n
Ta O 2 1.885(3) n
Ta O 12_454 2.113(4) n
Ta Li 13_444 3.070(9) n
Ta Li 10_554 3.342(16) n
Ta Li 4_554 3.08(4) n
Ta Li 13_554 3.070(9) n
Ta Li 10_444 3.342(16) n
Ta Li 13_544 3.070(9) n
O Ta 16_554 2.113(4) n
O Nb 16_554 2.113(4) n
O Li 13_554 2.30(3) n
O Li 10_454 2.038(11) n
Li Ta 7 3.070(9) n
Li Ta 7_445 3.070(9) n
Li Ta 7_455 3.070(9) n
Li Nb 7_445 3.070(9) n
Li Nb 7 3.070(9) n
Li Nb 7_455 3.070(9) n
Li O 16_544 2.038(11) n
Li O 18_554 2.038(11) n
Li O 9_455 2.30(3) n
Li O 17_444 2.038(11) n
Li O 8 2.30(3) n
Li O 7_445 2.30(3) n
