#------------------------------------------------------------------------------
#$Date: 2019-12-26 20:55:13 +0200 (Thu, 26 Dec 2019) $
#$Revision: 246091 $
#$URL: file:///home/coder/svn-repositories/cod/cif/2/31/17/2311711.cif $
#------------------------------------------------------------------------------
#
# This file is available in the Crystallography Open Database (COD),
# http://www.crystallography.net/. The original data for this entry
# were provided by IUCr Journals, http://journals.iucr.org/.
#
# The file may be used within the scientific community so long as
# proper attribution is given to the journal article from which the
# data were obtained.
#
data_2311711
loop_
_publ_author_name
'Huband, S.'
'Keeble, D. S.'
'Zhang, N.'
'Glazer, A. M.'
'Bartasyte, A.'
'Thomas, P. A.'
_publ_section_title
;
 Crystallographic and optical study of
 LiNb<sub>1&#x2005;-&#x2005;x</sub>Ta<sub>x</sub>O<sub>3</sub>.
;
_journal_issue                   'Pt 3'
_journal_name_full
'Acta crystallographica Section B, Structural science, crystal engineering and materials'
_journal_page_first              498
_journal_page_last               506
_journal_paper_doi               10.1107/S2052520617004711
_journal_volume                  73
_journal_year                    2017
_chemical_formula_moiety         'Li O3 Ta'
_chemical_formula_sum            'Li O3 Ta'
_chemical_formula_weight         235.89
_chemical_name_common            'Lithium tantalate'
_chemical_name_systematic        'Lithium tantalate'
_space_group_crystal_system      trigonal
_space_group_IT_number           161
_space_group_name_Hall           'R 3 -2"c'
_space_group_name_H-M_alt        'R 3 c :H'
_atom_sites_solution_primary     other
_atom_sites_solution_secondary   other
_audit_creation_method
;
Olex2 1.2
(compiled 2016.09.09 svn.r3337 for OlexSys, GUI svn.r5227)
Dolomanov, O.V., Bourhis, L.J., Gildea, R.J, Howard, J.A.K. & Puschmann, H.
 (2009), J. Appl. Cryst. 42, 339-341.
Sheldrick, G.M. (2015). Acta Cryst. C71, 3-8.
;
_cell_angle_alpha                90
_cell_angle_beta                 90
_cell_angle_gamma                120
_cell_formula_units_Z            6
_cell_length_a                   5.1480(10)
_cell_length_b                   5.1480(10)
_cell_length_c                   13.767(5)
_cell_measurement_reflns_used    2836
_cell_measurement_temperature    293(2)
_cell_measurement_theta_max      37.2090
_cell_measurement_theta_min      5.4240
_cell_volume                     315.97(14)
_computing_cell_refinement
;
CrysAlisPro, Agilent Technologies,
Version 1.171.37.35 (release 13-08-2014 CrysAlis171 .NET)
(compiled Aug 13 2014,18:06:01)
;
_computing_data_collection
;
CrysAlisPro, Agilent Technologies,
Version 1.171.37.35 (release 13-08-2014 CrysAlis171 .NET)
(compiled Aug 13 2014,18:06:01)
;
_computing_data_reduction
;
CrysAlisPro, Agilent Technologies,
Version 1.171.37.35 (release 13-08-2014 CrysAlis171 .NET)
(compiled Aug 13 2014,18:06:01)
;
_computing_molecular_graphics    'Olex2 (Dolomanov et al., 2009)'
_computing_publication_material  'Olex2 (Dolomanov et al., 2009)'
_computing_structure_refinement  'ShelXL (Sheldrick, 2015)'
_diffrn_ambient_temperature      293(2)
_diffrn_detector_area_resol_mean 10.2833
_diffrn_measured_fraction_theta_full 1.000
_diffrn_measured_fraction_theta_max 1.000
_diffrn_measurement_device       'four-circle diffractometer'
_diffrn_measurement_device_type  'Xcalibur, Ruby, Gemini'
_diffrn_measurement_method       '\w scans'
_diffrn_radiation_monochromator  graphite
_diffrn_radiation_type           MoK\a
_diffrn_radiation_wavelength     0.71073
_diffrn_reflns_av_R_equivalents  0.0598
_diffrn_reflns_limit_h_max       8
_diffrn_reflns_limit_h_min       -8
_diffrn_reflns_limit_k_max       8
_diffrn_reflns_limit_k_min       -8
_diffrn_reflns_limit_l_max       23
_diffrn_reflns_limit_l_min       -23
_diffrn_reflns_number            3971
_diffrn_reflns_theta_full        25.242
_diffrn_reflns_theta_max         37.470
_diffrn_reflns_theta_min         5.449
_exptl_absorpt_coefficient_mu    51.840
_exptl_absorpt_correction_T_max  0.039
_exptl_absorpt_correction_T_min  0.004
_exptl_absorpt_correction_type   analytical
_exptl_absorpt_process_details
;
CrysAlisPro, Agilent Technologies,
Version 1.171.37.35 (release 13-08-2014 CrysAlis171 .NET)
(compiled Aug 13 2014,18:06:01)
Analytical numeric absorption correction using a multifaceted crystal
   model based on expressions derived by R.C. Clark & J.S. Reid.
(Clark, R. C. & Reid, J. S. (1995). Acta Cryst. A51, 887-897)
Empirical absorption correction using spherical harmonics,
 implemented in SCALE3 ABSPACK scaling algorithm.
;
_exptl_crystal_colour            'clear green'
_exptl_crystal_density_diffrn    7.438
_exptl_crystal_description       block
_exptl_crystal_F_000             600
_exptl_crystal_size_max          0.2909
_exptl_crystal_size_mid          0.228
_exptl_crystal_size_min          0.197
_refine_diff_density_max         2.117
_refine_diff_density_min         -1.250
_refine_ls_abs_structure_details
;
 Refined as an inversion twin.
;
_refine_ls_abs_structure_Flack   0.37(13)
_refine_ls_extinction_coef       0.0323(18)
_refine_ls_extinction_expression Fc^*^=kFc[1+0.001xFc^2^\l^3^/sin(2\q)]^-1/4^
_refine_ls_extinction_method     'SHELXL-2014/7 (Sheldrick 2014'
_refine_ls_goodness_of_fit_ref   1.248
_refine_ls_hydrogen_treatment    undef
_refine_ls_matrix_type           full
_refine_ls_number_parameters     18
_refine_ls_number_reflns         374
_refine_ls_number_restraints     1
_refine_ls_restrained_S_all      1.247
_refine_ls_R_factor_all          0.0166
_refine_ls_R_factor_gt           0.0165
_refine_ls_shift/su_max          0.000
_refine_ls_shift/su_mean         0.000
_refine_ls_structure_factor_coef Fsqd
_refine_ls_weighting_details
'w=1/[\s^2^(Fo^2^)+(0.0244P)^2^+0.0565P] where P=(Fo^2^+2Fc^2^)/3'
_refine_ls_weighting_scheme      calc
_refine_ls_wR_factor_gt          0.0437
_refine_ls_wR_factor_ref         0.0440
_reflns_number_gt                369
_reflns_number_total             374
_reflns_threshold_expression     'I > 2\s(I)'
_cod_data_source_file            bp5094sup1.cif
_cod_data_source_block           LNT100
_cod_depositor_comments
;
The following automatic conversions were performed:

data item '_atom_sites_solution_primary' value 'Other' was changed to
'other' in accordance with the
/home/saulius/struct/COD-crude-data/automatic-downloads/DataCite-retrospective/IUCr/depositions/lib/dictionaries/cif_core.dic
dictionary named 'cif_core.dic' version 2.4.2 last updated on
2011-04-26.

data item '_atom_sites_solution_secondary' value 'Other' was changed
to 'other' in accordance with the
/home/saulius/struct/COD-crude-data/automatic-downloads/DataCite-retrospective/IUCr/depositions/lib/dictionaries/cif_core.dic
dictionary named 'cif_core.dic' version 2.4.2 last updated on
2011-04-26.

Automatic conversion script
Id: cif_fix_values 7556 2019-12-06 15:28:31Z antanas 
;
_cod_original_cell_volume        315.97(17)
_cod_original_sg_symbol_H-M      'R 3 c'
_cod_database_code               2311711
_shelx_space_group_comment
;
The symmetry employed for this shelxl refinement is uniquely defined
by the following loop, which should always be used as a source of
symmetry information in preference to the above space-group names.
They are only intended as comments.
;
_shelx_hkl_file
;
   0   0 -21 56.3275 267.349   5
   0   0 -21 303.864 286.314  14
   0   0 -18 360785. 7888.73  14
   0   0 -18 368830. 8696.85   5
   0   0 -15-304.225 403.392   5
   0   0 -15 76.8278 255.397  14
   0   0 -15 160.245 147.436   4
   0   0 -12 663121. 12755.5  14
   0   0 -12 657921. 12160.2   4
   0   0 -12 667048. 13174.1   5
   0   0  -9-308.498 214.822  14
   0   0  -9 132.214 104.532   4
   0   0  -9 135.837 253.452   5
   0   0  -6 461474. 8608.16   7
   0   0  -6 472653. 8617.56   4
   0   0  -6 475125. 8631.47  11
   0   0  -3 18.1721 42.2739  11
   0   0  -3-43.8664 99.8661   5
   0   0  -3 50.2938 53.1820   8
   0   0  -3 35.6138 59.7028   2
   0   0  -3 38.2692 61.0073   4
   0   0  -3 104.174 49.9964   7
   0   0  -3-144.480 80.1391   9
   0   0   3-24.2616 48.1375   7
   0   0   3 88.5515 59.2399   8
   0   0   3 88.4190 85.1552   3
   0   0   6 464930. 8379.28   2
   0   0   6 445618. 8549.38   3
   0   0   9 85.7602 161.171   3
   0   0   9 159.125 178.452  12
   0   0   9 52.5387 77.4800   7
   0   0  12 501938. 9537.49   7
   0   0  12 531673. 10475.4  12
   0   0  12 518617. 10244.1   3
   0   0  15 496.488 273.335  12
   0   0  15 89.2052 211.020   3
   0   0  18 387976. 8608.77   3
   0   0  18 349196. 7898.78  12
   0   0  21 534.598 235.898  12
   0   0  21-127.182 326.443   3
   0   1 -22 202043. 5231.68   5
   0   1 -22 238985. 5496.62  14
   1  -1 -22 208222. 5507.84  14
  -1   0 -22 226390. 5532.96  14
  -1   0 -22 243667. 6236.12   5
   1  -1 -22 219936. 5144.55   5
   1  -1 -19 20.4534 195.208   5
   0   1 -19 39.5531 227.946  14
   1  -1 -19 585.264 331.678  14
   0   1 -19 148.606 239.297   5
  -1   0 -19 245.716 290.714  14
  -1   0 -19 426.524 491.297   5
  -1   0 -16 383948. 8384.54  14
   0   1 -16 387001. 8083.44  14
   1  -1 -16 379624. 8194.28   5
  -1   0 -16 428727. 9051.64   5
   0   1 -16 332190. 8215.83   5
   0   1 -16 430217. 8056.99   4
   1  -1 -16 387305. 8376.21  14
   1  -1 -13 175.183 269.995  14
   1  -1 -13 57.4157 95.8935   4
  -1   0 -13-451.795 308.780  14
  -1   0 -13 164.504 262.892   5
  -1   0 -13 51.2092 46.4810   4
   0   1 -13 147.943 228.118  14
   1  -1 -13 150.553 268.247   5
   0   1 -13-8.38950 138.199   4
   1  -1 -13 2.06177 76.3400   2
   0   1 -13-33.6833 261.470   5
   0   1 -10 628028. 11028.2  11
   1  -1 -10 695940. 12249.1   5
   1  -1 -10 637803. 11928.4  14
   0   1 -10 631433. 11568.9   4
   0   1 -10 607697. 11706.4  14
  -1   0 -10 607121. 11869.6  14
   1  -1 -10 616903. 11460.2   2
  -1   0 -10 666330. 12070.4   5
   0   1 -10 661719. 11988.7   5
   1  -1 -10 574143. 10972.1  13
  -1   0 -10 569106. 10907.5   4
  -1   0  -7-260.152 199.298   5
   0   1  -7-99.0696 129.712   4
   0   1  -7 319.545 164.752   5
   1  -1  -7 66.0487 33.0565  13
   1  -1  -7 18.9974 93.9440   2
   1  -1  -7-117.042 178.630  14
  -1   0  -7 155.290 51.0253   4
   1  -1  -4 620479. 11400.1   2
   0   1  -4 663195. 11689.9   4
  -1   0  -4 697097. 11644.5   5
   1  -1  -4 586093. 11464.2  14
   1  -1  -4 622272. 11596.3   1
  -1   0  -4 645293. 11369.9   3
   0   1  -4 660729. 11538.9   5
   1  -1  -1 94.0637 65.8195   1
   1  -1  -1 0.91768 74.5205   7
  -1   0  -1 137.958 89.6007   1
  -1   0  -1 59.2101 52.3584   3
   0   1  -1 175.942 109.701   4
  -1   0  -1-47.4878 73.2286   2
  -1   0  -1 129.018 133.037   5
   1  -1  -1 107.984 75.5872   2
   1  -1  -1 89.6964 71.7366   3
   1  -1  -1 189.442 114.324  15
  -1   0   2 721801. 12981.4   6
   0   1   2 622760. 12685.6   9
   0   1   2 614240. 12785.2   3
  -1   0   2 851180. 12685.8  10
   0   1   2 636169. 13137.9  12
  -1   0   2 698881. 13072.0   1
   0   1   2 833648. 12997.9   4
  -1   0   2 734809. 12941.7  14
   1  -1   2 714195. 12725.7  14
   1  -1   2 732605. 12870.0   7
  -1   0   5 188.028 110.915  12
  -1   0   5-5.03971 55.4278  13
   1  -1   5 53.2317 87.2931   7
   0   1   5-81.9744 183.726  12
  -1   0   5 77.6345 108.330   1
   0   1   5 48.8935 107.652  11
   0   1   5 99.0215 107.188   3
   0   1   8 570088. 11144.4   3
   1  -1   8 584449. 10931.2   7
   0   1   8 598115. 11418.2   9
   0   1   8 624916. 11713.6  12
  -1   0   8 590756. 11454.6   3
   1  -1   8 598615. 10866.1   8
   0   1   8 678515. 11493.8  11
   1  -1   8 573764. 11363.3  12
   1  -1   8 650856. 11613.2   9
  -1   0   8 569618. 11323.5  12
  -1   0   8 561291. 10872.0   7
   1  -1  11 62.2554 106.944   7
   1  -1  11 99.9509 112.181   8
  -1   0  11 376.469 127.513   7
   1  -1  11 300.219 208.729   9
   0   1  11-202.095 185.176   3
  -1   0  11 16.3643 180.012  12
   0   1  11 145.398 256.288  12
  -1   0  11 407.921 263.747   3
   0   1  11 815.498 260.133   9
   1  -1  11 31.9352 179.645  12
   1  -1  11 373.285 205.625   3
  -1   0  14 446605. 9788.34   3
  -1   0  14 456339. 8560.61   7
  -1   0  14 467248. 9492.08  12
   0   1  14 472040. 9658.06  12
   1  -1  14 461057. 9723.36   9
   1  -1  14 426761. 9485.64  12
   0   1  14 450380. 9450.63   3
   1  -1  14 459719. 9602.43   3
   1  -1  17 59.3523 227.966   9
   0   1  17-174.111 291.471   3
  -1   0  17 163.885 186.234  12
  -1   0  17 359.139 290.443   3
   1  -1  17 148.286 234.797  12
   0   1  17 94.6113 206.175  12
   1  -1  17 20.7474 241.444   3
   0   1  20 302303. 7166.49   3
   1  -1  20 244898. 6329.92  12
  -1   0  20 246885. 5876.21  12
   0   1  20 254137. 6133.80  12
  -1   0  20 316873. 7682.55   3
   1  -1  20 303324. 6779.88   3
   1  -1  23 95.5008 170.182  12
   0   1  23-64.6268 272.350   3
   0   1  23-30.5305 179.224  12
   1  -1  23 63.9624 181.515   3
   0  -1 -23 544.940 305.880  14
   1   0 -23 157.195 274.290  14
   1   0 -23 160.368 201.959   5
   1   0 -20 270493. 6102.34   5
   1   0 -20 266392. 6419.41  14
  -1   1 -20 285133. 7487.87   5
   0  -1 -20 279799. 6580.61  14
   0  -1 -20 273832. 6515.41   5
  -1   1 -20 284013. 6362.86  14
  -1   1 -17 252.638 275.308  14
   1   0 -17-223.867 189.181   5
   1   0 -17 219.749 194.008   4
   0  -1 -17-1.65114 227.923   5
   0  -1 -17 290.139 324.464  14
   1   0 -17 494.187 298.384  14
  -1   1 -17 291.245 381.172   5
   1   0 -14 439318. 9416.12   5
   0  -1 -14 458367. 9830.86  14
  -1   1 -14 516884. 9654.25  14
   0  -1 -14 523947. 9978.61   5
   1   0 -14 431164. 9588.40  14
   1   0 -14 475641. 9171.91   4
  -1   1 -14 497207. 10155.8   5
  -1   1 -14 474866. 9026.82   4
   1   0 -11-198.625 220.940   5
   0  -1 -11 52.8731 51.6750   4
   0  -1 -11 130.255 262.603   5
   1   0 -11 615.524 315.817  14
  -1   1 -11 387.309 325.872   5
  -1   1 -11 111.076 123.336   4
  -1   1 -11 829.745 312.187  14
   0  -1 -11 292.843 320.253  14
   0  -1 -11 90.7281 117.427   2
   1   0 -11 19.0145 109.162   2
   1   0 -11 336.299 199.606   4
   0  -1  -8 531695. 9852.96   4
  -1   1  -8 614835. 10477.9   4
   0  -1  -8 569147. 9936.76   7
  -1   1  -8 655914. 10913.5   5
   0  -1  -8 567782. 10088.3   2
   1   0  -8 536083. 10195.7   2
   0  -1  -8 747303. 11163.0   5
   1   0  -8 693992. 11177.7   5
   0  -1  -8 569092. 10608.5  14
   1   0  -8 505805. 10505.3  14
   0  -1  -8 522076. 9874.49   4
   0  -1  -5 155.644 55.8964   2
  -1   1  -5 381.619 196.610   5
   0  -1  -5 95.6100 93.3664  14
   0  -1  -5-70.9459 122.917   5
   1   0  -5 92.1202 132.679  14
  -1   1  -5 86.9314 125.689   4
   1   0  -5 66.4606 87.4404   2
   1   0  -5-16.2741 97.9631  10
   1   0  -5 81.7240 60.2379  13
   1   0  -5 322.801 76.3048  12
   0  -1  -5 125.485 53.3695   4
   0  -1  -2 794220. 12435.4   4
   1   0  -2 626736. 12464.8  14
  -1   1  -2 886107. 12947.5   4
   1   0  -2 715256. 12599.2   2
   0  -1  -2 622068. 12258.8   1
   0  -1  -2 802649. 12471.9   9
  -1   1  -2 713465. 12713.6   5
   0  -1   1 87.9585 65.9583   8
   1   0   1 232.625 98.4722   2
   0  -1   1 467.897 165.650  14
   0  -1   1 9.48630 140.817   6
   0  -1   1 0.55057 92.1241   5
   0  -1   1 328.390 104.625  13
   1   0   1 444.583 138.800  12
   0  -1   1 60.2805 68.7362   1
  -1   1   1 107.436 78.1876   1
  -1   1   1-6.96482 85.7640   3
   0  -1   4 657168. 11860.8   7
  -1   1   4 509753. 11644.8   1
   1   0   4 805257. 11890.0   4
   1   0   4 634731. 11693.5   3
  -1   1   4 732123. 12328.5  12
   0  -1   4 639906. 11822.4  13
  -1   1   4 563100. 11508.8   7
   0  -1   4 687406. 11905.9   9
  -1   1   4 683184. 11723.2  14
  -1   1   4 625986. 11821.6   3
   1   0   4 716668. 12186.1  12
   1   0   7-6.90737 35.2579   4
   1   0   7 82.3890 92.5143   8
  -1   1   7-53.8031 132.868  12
  -1   1   7 232.718 143.280   3
   0  -1   7 7.32178 108.830  12
   0  -1   7 155.038 140.496   9
   1   0   7 60.5397 130.866  11
   0  -1   7 135.194 111.264   7
   0  -1   7 66.7014 96.6877  13
   1   0   7 144.118 190.283  12
   1   0   7-11.1545 95.1263   3
  -1   1   7-6.55490 303.245  10
   1   0  10 558066. 11352.6  12
   1   0  10 666244. 10898.9   8
   0  -1  10 587333. 11209.8   9
  -1   1  10 557266. 10983.3   3
   1   0  10 532972. 10435.8  11
   0  -1  10 544747. 10658.4   7
   0  -1  10 551585. 10850.9  12
  -1   1  10 557118. 11241.3  12
   1   0  10 658281. 11320.7   9
   1   0  10 532946. 10765.5   3
   1   0  13 96.9423 222.905  12
   0  -1  13 44.1732 108.721   7
   0  -1  13 4.44213 192.593   9
   0  -1  13-89.6737 248.709   3
  -1   1  13 97.9924 196.581  12
  -1   1  13-189.648 254.740   3
   1   0  13-113.028 166.703   9
   1   0  13-186.400 180.363   3
   0  -1  13 122.751 183.746  12
   1   0  16 335853. 8358.98  12
  -1   1  16 388533. 8603.47   3
   0  -1  16 345937. 8036.02  12
   0  -1  16 391007. 8938.72   3
   0  -1  16 422369. 7393.70   7
   1   0  16 413276. 8453.99   3
  -1   1  16 352172. 8001.93  12
   1   0  16 407528. 8500.65   9
  -1   1  19 390.794 293.753   3
  -1   1  19-63.1522 177.294  12
   0  -1  19-150.046 203.032  12
   1   0  19-191.565 246.464   3
   1   0  19-68.8223 189.504  12
   0  -1  19 10.2670 286.194   3
   1   0  22 214186. 5626.89  12
   1   0  22 236452. 6017.54   3
   0  -1  22 275840. 6656.88   3
  -1   1  22 255773. 6807.18   3
  -1   1  22 199759. 5156.40  12
   0   2 -20 228812. 5583.83   5
   0   2 -20 272147. 6011.11  14
   2  -2 -20 219470. 6113.93  14
   2  -2 -20 262768. 5529.75   5
  -2   0 -20 251953. 6219.87  14
  -2   0 -20 254623. 5620.70   1
  -2   0 -20 250931. 6278.75   5
   0   2 -17 18.9406 240.696   5
  -2   0 -17 63.2484 286.067  14
   2  -2 -17 57.1996 149.438   5
   0   2 -17-84.3036 222.512   4
   2  -2 -17 39.1573 323.596  14
  -2   0 -17 537.035 475.705   5
   0   2 -17-19.4406 233.019  14
  -2   0 -17 194.106 194.169   1
   2  -2 -14 546245. 8842.89   2
  -2   0 -14 405558. 8458.27   1
   0   2 -14 399192. 8745.42   5
   0   2 -14 432590. 8818.68  14
   0   2 -14 464568. 9040.49   4
   2  -2 -14 390263. 8895.46  14
  -2   0 -14 415458. 9104.45  14
  -2   0 -14 486854. 9546.91   5
   2  -2 -14 384624. 8262.62   5
   0   2 -11 259.547 292.198   5
   2  -2 -11 108.222 157.679   2
  -2   0 -11 132.779 253.238   5
   0   2 -11 65.9568 164.846   4
  -2   0 -11 461.458 286.831  14
   0   2 -11 625.446 297.877  14
   2  -2 -11 259.867 272.873  14
  -2   0 -11 101.388 164.270   1
   2  -2  -8 555663. 11302.4   2
   0   2  -8 574440. 11749.1  14
  -2   0  -8 668898. 11777.2   1
   2  -2  -8 592104. 11428.5  14
  -2   0  -8 688852. 11886.0   5
   0   2  -8 633867. 11783.6   4
   0   2  -8 674727. 11774.5   5
  -2   0  -8 564924. 11525.7  14
   2  -2  -5-8.88754 98.9451   2
  -2   0  -5 92.8108 46.9548   2
   0   2  -5 99.9894 138.276   4
   0   2  -5 405.903 201.767   5
   2  -2  -5 400.936 108.542  14
  -2   0  -5 116.951 137.064   1
  -2   0  -5-46.3579 195.891   5
   0   2  -2 504332. 10037.1   4
   0   2  -2 558676. 9872.86  10
  -2   0  -2 640667. 9746.28  15
  -2   0  -2 420282. 9496.65   3
  -2   0  -2 473617. 9855.55   1
   2  -2  -2 515049. 9905.96   2
  -2   0  -2 572493. 9962.17   5
  -2   0   1 102.951 128.854   6
   0   2   1 172.300 154.085  10
   0   2   1 38.6025 145.716  12
   0   2   1 74.1800 78.4418   1
   2  -2   1 108.660 124.551   2
   2  -2   1 105.455 55.5386  14
   0   2   1 278.549 184.676  15
   2  -2   1 50.3251 135.267   7
  -2   0   1-22.6328 164.721   1
   0   2   1 165.450 135.860   4
  -2   0   4 639916. 12377.1   1
   0   2   4 707935. 12518.6  15
   0   2   4 771316. 12553.1   4
   0   2   4 596293. 12569.5  12
   0   2   4 591473. 12466.0  10
   0   2   4 680594. 12404.0   3
  -2   0   4 662066. 11896.4  10
   2  -2   4 724923. 12320.7   7
   0   2   7 3.85469 143.502  11
   0   2   7 53.4101 132.033   3
   0   2   7 56.0760 176.542  12
   0   2   7 124.278 195.711  15
  -2   0   7 345.797 151.282  13
  -2   0   7 565.429 135.372  12
  -2   0   7 155.213 186.780   1
   0   2   7 254.618 222.367  10
   2  -2   7 12.1106 202.934   9
   2  -2   7 52.6121 108.158   7
   2  -2  10 518688. 9625.94   7
  -2   0  10 489374. 9503.99  13
   2  -2  10 508520. 10475.1  12
   2  -2  10 553235. 10651.8   9
  -2   0  10 573791. 9785.50  12
   0   2  10 494315. 10012.3   3
  -2   0  10 495200. 9951.95   3
   0   2  10 542589. 10413.0  12
  -2   0  10 489002. 10054.5   1
   0   2  10 505178. 10006.4  11
  -2   0  13 75.9701 122.176   7
   2  -2  13-2.35033 213.048   9
  -2   0  13 72.5246 131.148  12
   0   2  13 64.1138 218.051  12
   2  -2  13-81.8108 224.326  12
  -2   0  13 88.9636 183.215   3
   2  -2  13 179.866 188.937   3
   2  -2  13 426.532 128.008   8
   2  -2  13-34.0416 106.563   7
   0   2  13 252.446 237.415   3
  -2   0  16 364878. 7232.12  12
   2  -2  16 401368. 7733.38   3
   0   2  16 327049. 7634.77  12
   0   2  16 393707. 8279.78   3
   2  -2  16 349889. 8180.94   9
  -2   0  16 338382. 7658.13   3
   2  -2  16 350743. 8110.11  12
  -2   0  19 183.306 184.435   3
   0   2  19-70.6302 314.702   3
   2  -2  19 69.3007 212.821  12
   2  -2  19-86.1724 184.128   3
   2  -2  19 102.210 250.398   9
   0   2  19 92.3362 193.000  12
   0   2  22 233868. 6216.72   3
  -2   0  22 225427. 5774.45   3
   0   2  22 212171. 5337.87  12
   2  -2  22 207068. 5879.30  12
   1   1 -21 2931.27 403.578   5
  -1   2 -21 2166.69 479.313   5
   1   1 -21 2927.51 509.974  14
  -2   1 -21 3665.40 760.168   5
  -1  -1 -21 2267.35 451.113   5
  -2   1 -21 3754.93 559.994  14
  -1  -1 -21 3010.76 565.624  14
  -1   2 -21 2863.76 459.027  14
   1  -2 -21 2512.99 391.859   5
   1  -2 -21 2635.57 526.315  14
   2  -1 -21 2680.84 547.863  14
   2  -1 -21 3032.39 416.635   5
   1  -2 -18 308520. 6971.16   5
   2  -1 -18 273014. 7177.41  14
  -1  -1 -18 300840. 7027.93   5
   1   1 -18 301230. 6672.14   5
   1   1 -18 324871. 7360.89  14
  -2   1 -18 336740. 7278.68  14
  -2   1 -18 345637. 8185.39   5
  -1  -1 -18 293581. 7370.94  14
  -1   2 -18 304954. 7778.33   5
  -1  -1 -18 343286. 6963.01   1
   2  -1 -18 372872. 7035.00   5
  -1   2 -18 346262. 7106.21  14
   1   1 -18 372642. 7365.37   4
   1  -2 -18 311901. 7416.59  14
   2  -1 -15 5774.60 442.371   4
  -1   2 -15 6164.92 565.587  14
   1  -2 -15 6004.98 593.271   5
  -1   2 -15 6899.24 584.955   4
  -2   1 -15 7367.09 844.461   5
   1   1 -15 7197.47 642.086   4
   2  -1 -15 6945.60 584.182   5
  -2   1 -15 5800.97 629.909  14
  -1   2 -15 6528.29 795.319   5
   1   1 -15 6329.25 522.437   5
  -1  -1 -15 6095.15 604.886   5
   2  -1 -15 6305.27 665.776  14
  -1  -1 -15 6857.23 780.796  14
   1  -2 -15 5895.07 684.863  14
   2  -1 -15 7817.88 457.769   2
   1   1 -15 5659.36 648.332  14
  -1  -1 -12 416986. 9086.33  14
   1  -2 -12 444807. 8572.94   2
   1   1 -12 478367. 9193.37   4
   2  -1 -12 470015. 8722.16   5
  -2   1 -12 486644. 8248.33   4
   1   1 -12 414588. 9057.53  14
   1  -2 -12 409167. 8785.69   5
  -1   2 -12 467541. 8957.03   4
  -2   1 -12 453729. 9164.54  14
   2  -1 -12 411588. 8920.78  14
   2  -1 -12 455990. 8524.13   2
  -1  -1 -12 489185. 9160.44   5
  -2   1 -12 480310. 9560.10   5
  -1   2 -12 499566. 9595.34   5
   1  -2 -12 434102. 9278.58  14
  -1   2 -12 470303. 8835.45  14
   1   1 -12 405883. 8604.02   5
  -1  -1  -9 20319.7 973.731  14
  -1   2  -9 22186.5 1004.95   4
  -2   1  -9 21184.7 1124.67   5
  -2   1  -9 17061.5 646.028   4
  -1  -1  -9 24619.2 1115.64   5
   1   1  -9 22798.9 1139.53   4
   2  -1  -9 18891.4 908.932   2
   1   1  -9 19014.0 868.444   5
  -1  -1  -9 18031.2 829.952   1
  -1   2  -9 20477.9 1080.98   5
   2  -1  -9 19561.0 901.625  14
   1   1  -9 19280.8 1016.17  14
  -2   1  -9 22223.0 1044.64  14
  -1   2  -9 19823.9 887.384  14
   1  -2  -9 20402.9 970.478  14
   1  -2  -9 18056.9 717.688   2
   1  -2  -6 616184. 12329.1   2
   1   1  -6 712475. 12942.3   4
   2  -1  -6 639753. 12599.2   2
   1   1  -6 751466. 12575.7   5
  -1  -1  -6 853058. 12926.0   5
   1  -2  -6 639253. 12192.4  13
  -2   1  -6 718521. 12977.1   5
  -2   1  -6 653150. 12577.8  14
  -1   2  -6 690665. 12853.6   4
   1   1  -6 639285. 12128.9   8
  -1   2  -6 701125. 12861.0   5
   2  -1  -6 664669. 12450.3  14
  -2   1  -6 651694. 12409.4   4
   1  -2  -6 650711. 12528.9  14
  -1   2  -6 675606. 12720.6  14
  -1  -1  -6 707405. 12109.9   2
   1   1  -6 794274. 12340.3  10
   1   1  -6 632739. 12760.3  14
  -1  -1  -6 829714. 12575.0   1
  -2   1  -3 61195.4 1599.04   5
   2  -1  -3 59402.0 1495.85   2
  -1  -1  -3 58551.5 1351.34   2
  -1   2  -3 61856.9 1775.49   4
   1  -2  -3 56963.3 1338.77  13
  -1   2  -3 60807.2 1655.87  14
   1  -2  -3 56979.7 1585.69   2
  -1  -1  -3 56466.1 1368.62   1
   1   1  -3 60767.5 1671.92   4
   1   1  -3 62419.6 1262.76   5
   2  -1  -3 56481.5 1272.02  14
   2  -1  -3 46449.3 1241.41   6
  -2   1  -3 60479.0 1698.61   1
  -1  -1  -3 67735.3 1469.25   5
   1   1  -3 65421.6 1468.98   8
   1   1  -3 64816.3 1534.53   9
   2  -1  -3 67594.1 1591.99  15
  -1   2  -3 59476.2 1326.24  11
   1  -2  -3 62355.5 1435.45   7
  -2   1  -3 63296.1 1431.63  14
  -1   2   0 541220. 9974.36   6
   2  -1   0 557131. 10014.4   2
   1   1   0 527128. 9906.03  12
  -1  -1   0 610664. 10306.1   6
   1  -2   0 569383. 10140.8   6
  -2   1   0 513166. 10165.4   1
  -1  -1   0 557355. 10104.4  10
  -2   1   0 556203. 9897.04   6
   1  -2   0 616875. 10215.6   7
   1  -2   0 574539. 10056.1  13
  -2   1   0 497596. 9739.95   3
   1  -2   0 589742. 10167.0  14
  -1   2   0 692569. 10779.8   4
  -1  -1   0 529308. 10180.2   1
  -1  -1   0 645388. 10056.9  12
   1   1   0 513875. 10056.6  15
   1  -2   3 55600.9 1507.27  13
  -1  -1   3 62009.6 1658.45  13
   2  -1   3 55359.3 1293.49   2
   1   1   3 64805.5 1411.27   9
  -2   1   3 60457.1 1362.65   3
  -2   1   3 69777.8 1504.37  15
   1  -2   3 58413.4 1573.86   7
  -2   1   3 53231.2 1487.95   1
  -1   2   3 65609.7 1967.77  12
   1   1   3 58297.9 1271.84   4
  -1   2   3 56801.0 1432.50   4
  -1   2   3 62990.1 1325.89   7
  -1  -1   3 61496.0 1702.59   1
  -1   2   3 61839.5 1566.43   3
  -2   1   3 62074.0 1427.53  14
   2  -1   3 54319.1 1123.40   3
   1   1   3 60141.9 1472.26   3
   1  -2   3 69838.1 1727.04   9
   1   1   3 49227.0 1540.32  12
  -2   1   3 57528.8 1451.23  10
  -1  -1   3 52382.7 1515.40   6
   1   1   3 66879.4 1987.98  15
  -1  -1   6 595659. 12245.2   1
  -1  -1   6 661130. 11837.4  12
   1   1   6 699493. 12973.4  12
   2  -1   6 681991. 12824.4  12
  -2   1   6 621842. 12124.8   3
   1  -2   6 725316. 12597.1   9
   1   1   6 739403. 12375.5   8
  -1   2   6 644968. 12301.8   3
  -2   1   6 599132. 12142.8  10
  -2   1   6 621037. 12312.2   1
   2  -1   6 542139. 11696.5   2
   1  -2   6 671055. 12294.1   7
   1   1   6 578648. 12043.3   3
  -2   1   6 570406. 11631.8  13
  -1   2   6 621491. 12519.1  12
   2  -1   6 564692. 11819.4   3
  -1  -1   6 652640. 12167.7  13
   1   1   6 723409. 12214.2   9
   1   1   6 725191. 12643.5  11
   1   1   9 21562.9 926.291   9
  -2   1   9 21109.0 965.712   3
   1   1   9 20409.5 954.750  11
  -2   1   9 23607.1 998.582  12
   1  -2   9 20057.1 967.577  12
   1   1   9 23749.0 965.865   3
  -2   1   9 19091.2 848.205   1
   2  -1   9 17580.7 484.339   2
   1   1   9 20904.6 1247.23  12
  -1  -1   9 18643.8 800.439  13
   2  -1   9 21043.6 1139.69  12
   1   1   9 21470.7 920.539   8
  -1  -1   9 20444.8 867.213   7
  -1  -1   9 20341.6 799.317  12
   1  -2   9 22698.7 1100.80   9
   2  -1   9 19915.2 784.062   3
  -1   2   9 23287.3 1011.05   3
   1  -2   9 20633.8 900.925   7
   2  -1   9 21588.5 1088.02   9
  -1   2   9 20823.1 1094.35  10
  -2   1   9 22174.6 1015.70  10
  -1   2   9 18573.8 957.438  12
   2  -1   9 19606.4 617.933  11
   2  -1  12 451540. 8505.45   8
   2  -1  12 437701. 9307.99  12
  -2   1  12 455735. 9109.62   3
   1  -2  12 431449. 8845.95  12
   1  -2  12 454498. 8497.64   7
   1   1  12 413076. 8368.80  11
  -1   2  12 464679. 9073.33   3
   1   1  12 488229. 8946.03   9
   1  -2  12 456393. 9259.68   9
  -1  -1  12 432483. 8671.60  12
   1   1  12 446602. 9486.13  12
   1   1  12 472676. 8908.21   3
   2  -1  12 490189. 9283.19   9
  -1  -1  12 425389. 8507.44   7
  -2   1  12 431022. 8032.06   7
   2  -1  12 431455. 8662.75   3
  -2   1  12 429318. 8619.78  12
  -1   2  12 425344. 8879.19  12
   1  -2  15 6253.82 625.605  12
  -2   1  15 6880.27 568.027  12
  -1  -1  15 7058.85 613.868  12
   2  -1  15 7226.62 650.777   3
  -2   1  15 7431.48 770.285   3
  -1  -1  15 6734.25 671.266   3
   1   1  15 7858.29 715.898   3
  -1   2  15 6562.92 612.617  12
   1  -2  15 7218.49 765.995   9
   2  -1  15 7569.25 545.646   8
   1   1  15 6822.63 643.318   9
  -1   2  15 7357.45 747.621   3
   2  -1  15 6217.81 673.150   9
   1   1  15 5840.39 711.613  12
  -1  -1  15 7915.19 567.081   7
   1  -2  15 7106.07 473.652   7
   1  -2  15 8013.72 765.864   3
   2  -1  15 6813.04 757.660  12
  -2   1  18 311368. 6686.26  12
   1   1  18 302397. 7306.41  12
   2  -1  18 296202. 7538.09  12
   1   1  18 337712. 7540.18   3
   2  -1  18 336683. 7129.14   3
   1  -2  18 287549. 7080.75  12
  -1  -1  18 312434. 7285.55   3
  -1   2  18 336256. 7739.49   3
  -2   1  18 359333. 8107.72   3
   1  -2  18 305508. 7442.91   9
   1  -2  18 366640. 7529.89   3
  -1   2  18 289002. 6771.96  12
   2  -1  18 323216. 7392.94   9
  -1   2  21 2832.34 431.419  12
   1   1  21 3641.04 637.365   3
   1  -2  21 3135.50 502.131  12
   2  -1  21 3874.83 595.988   9
  -1   2  21 4223.80 760.468   3
   1  -2  21 3722.40 516.614   3
   1   1  21 2985.29 528.279  12
   2  -1  21 2956.86 449.287   3
  -1  -1  21 3173.25 504.674   3
   2  -1  21 2834.79 558.496  12
  -2   1  21 2850.87 600.803   3
   0  -2 -22 237628. 5812.79  14
   2   0 -22 218379. 4858.87   5
   2   0 -22 191273. 5489.83  14
  -2   2 -22 218475. 6435.01   5
   0  -2 -22 198892. 5134.91   5
  -2   2 -22 223955. 5279.95  14
  -2   2 -19 66.3118 414.211   5
   0  -2 -19-349.009 378.007  14
   0  -2 -19-132.416 176.929   5
  -2   2 -19 232.851 268.866  14
   2   0 -19 257.135 286.648  14
   2   0 -19 103.309 163.990   5
  -2   2 -16 401144. 7589.40  14
   2   0 -16 323971. 7129.90   4
   2   0 -16 332799. 7717.95  14
   2   0 -16 348756. 7015.19   5
   0  -2 -16 330274. 7975.47  14
  -2   2 -16 388970. 8591.99   5
   0  -2 -16 349807. 7363.22   5
   0  -2 -13 215.645 236.153  14
   2   0 -13 55.6751 90.4244   2
   2   0 -13 180.864 139.673   5
  -2   2 -13 112.639 115.794   4
  -2   2 -13 487.354 243.576  14
   2   0 -13 349.611 269.057  14
   0  -2 -13-50.9134 141.260   5
  -2   2 -13-186.997 318.153   5
   2   0 -13 142.368 158.585   4
   2   0 -10 495280. 10004.9  14
   2   0 -10 493215. 9524.05   5
  -2   2 -10 552543. 10558.4   5
   0  -2 -10 473114. 9954.27  14
  -2   2 -10 549991. 9872.30  14
   0  -2 -10 485686. 9693.17   5
   0  -2 -10 502302. 9451.57   1
  -2   2 -10 489037. 9539.46   4
   0  -2 -10 519871. 9269.93   2
   2   0 -10 494919. 9441.05   2
   2   0  -7 117.136 175.993  14
   0  -2  -7 28.0463 27.9367   4
   0  -2  -7-131.708 132.535   5
   0  -2  -7 100.013 74.1168   1
  -2   2  -7 98.4064 245.915   5
   0  -2  -7 4.47206 85.2500   2
   2   0  -7 166.330 127.156   2
   0  -2  -7 259.300 161.466  14
  -2   2  -7 256.727 167.263  14
  -2   2  -7 71.5169 129.603   4
  -2   2  -4 846071. 13305.9   4
   2   0  -4 999999. 12821.1  15
   2   0  -4 702140. 12518.4  12
   2   0  -4 719543. 12987.6   2
   0  -2  -4 574296. 12541.1   1
  -2   2  -4 789239. 13199.5   5
   2   0  -4 652664. 12830.1  14
  -2   2  -4 782502. 12936.0  14
  -2   2  -1 176.319 171.254   4
   0  -2  -1 50.9215 27.0858   9
   0  -2  -1 98.4694 164.373   6
  -2   2  -1 36.3188 100.031  14
   2   0  -1 158.116 108.175   2
   0  -2  -1 46.3903 77.2783   1
   0  -2  -1 67.0108 172.211  13
   2   0   2 459074. 9218.42  12
   0  -2   2 504185. 8950.06   9
   2   0   2 472132. 9152.69   2
   0  -2   2 553612. 9558.98  13
  -2   2   2 524825. 9356.38   3
   0  -2   2 479959. 9474.55   6
   0  -2   2 537812. 9553.54   7
  -2   2   2 544698. 9545.66  15
   0  -2   2 459894. 9103.87   5
  -2   2   2 493705. 9238.58   1
   0  -2   5 120.528 134.058   7
   0  -2   5 147.757 70.2699   8
   0  -2   5 40.9113 125.533  13
   2   0   5 227.460 151.876   9
  -2   2   5 253.890 241.715  10
   2   0   5 133.338 66.6062   2
  -2   2   5 178.594 79.2796   7
   0  -2   5 33.6690 91.4135   9
  -2   2   5 146.657 114.404   3
   2   0   5 61.2638 201.788  12
  -2   2   5 22.8777 104.369   1
  -2   2   5 25.0324 121.060  15
   2   0   5 71.5932 89.9309   3
   0  -2   8 582111. 11173.0   9
  -2   2   8 621444. 11550.6  10
  -2   2   8 673055. 11719.4  12
   2   0   8 644787. 11906.7  12
   2   0   8 599522. 11303.9   8
   0  -2   8 540010. 11100.5   7
   2   0   8 664919. 11471.5   9
  -2   2   8 576428. 11220.4   3
   2   0   8 635076. 10658.6   4
   2   0   8 559056. 10931.8   3
   0  -2   8 541658. 10898.4  12
   0  -2   8 569954. 11162.3  13
   2   0  11 47.9549 78.3934  11
   0  -2  11 19.3853 132.292  12
   0  -2  11 278.166 159.794   7
  -2   2  11 389.791 195.314  12
  -2   2  11 176.544 164.143  10
   2   0  11-138.250 148.623   9
   2   0  11 53.1450 233.533  12
   0  -2  11 171.620 192.500   9
  -2   2  11 268.028 208.844   3
   2   0  11 18.9125 126.942   3
   2   0  11-33.2979 118.814   8
   0  -2  14 408999. 8653.44  12
   2   0  14 436476. 8830.71   3
  -2   2  14 437359. 9212.09   3
   0  -2  14 443661. 8737.06   7
   2   0  14 446170. 8074.79  11
   2   0  14 424117. 9639.84  12
   2   0  14 436519. 8952.29   9
   2   0  14 468845. 8671.26   8
  -2   2  14 396335. 8638.51  12
   0  -2  17 289.690 236.630   3
   2   0  17-87.7833 225.153  12
  -2   2  17-24.1260 166.056  12
   0  -2  17 80.1029 165.013  12
   2   0  17 102.706 202.314   3
  -2   2  17 190.962 250.185   3
   2   0  17 133.776 192.724   9
   0  -2  17 124.954 140.265   7
  -2   2  20 265441. 6940.49   3
   2   0  20 240212. 6425.79  12
   0  -2  20 276601. 6198.01   3
   2   0  20 263639. 6104.95   3
   2   0  20 255747. 6132.27   9
  -2   2  20 226346. 5573.01  12
  -3   0 -21 51.3376 260.486  14
  -3   0 -21-162.050 255.101   5
   0   3 -21-13.7940 193.722  14
   3  -3 -21 99.7185 147.831   5
  -3   0 -18 275556. 6693.57   5
  -3   0 -18 263343. 6824.17  14
   0   3 -18 284775. 6051.15   5
   3  -3 -18 285679. 5943.20   5
  -3   0 -18 273926. 6153.05   1
   0   3 -18 264304. 6465.43   4
   0   3 -18 283320. 6356.62  14
   3  -3 -15-67.0765 124.226   5
  -3   0 -15 466.276 369.545  14
   0   3 -15 56.0999 222.642   4
  -3   0 -15 51.3201 177.265   1
  -3   0 -15 53.5296 375.094   5
   0   3 -15 189.328 190.846   5
   3  -3 -15 718.862 299.328   2
   0   3 -15-67.2366 231.564  14
   3  -3 -15 591.251 295.911  14
   0   3 -12 427201. 8776.14   5
  -3   0 -12 527731. 9863.03   5
   3  -3 -12 440657. 8714.40  14
   3  -3 -12 408179. 8838.96   2
   0   3 -12 422891. 9161.46  14
  -3   0 -12 504577. 9232.26   1
  -3   0 -12 419476. 9130.35  14
   0   3 -12 435939. 9359.76   4
   0   3  -9-53.6143 167.387   5
   0   3  -9 726.525 328.721  14
   0   3  -9 44.6758 103.880  11
   3  -3  -9 241.431 178.984   2
  -3   0  -9 77.8459 183.163   1
  -3   0  -9 396.638 286.048   5
   0   3  -9 125.685 197.215   4
  -3   0  -9 86.1995 186.935  14
   3  -3  -9 293.697 164.260  14
  -3   0  -6 445603. 8320.37   5
   0   3  -6 427303. 8419.25   4
   3  -3  -6 379349. 7309.89  14
  -3   0  -6 480313. 8109.14   1
   0   3  -6 410010. 8162.40  14
   3  -3  -6 424661. 8049.02   2
  -3   0  -3 68.9369 59.4996   3
   0   3  -3-28.8462 178.146   4
  -3   0  -3 141.554 160.326   1
   3  -3  -3 56.7616 168.156   2
   0   3  -3-356.904 210.779  14
   0   3  -3-69.1976 124.924  10
  -3   0  -3-125.642 204.212   6
   0   3  -3-26.6414 142.016  11
  -3   0   0 819621. 13646.4   1
   0   3   0 831490. 13562.3   4
   3  -3   0 835961. 13648.7   7
   0   3   0 655110. 13533.3  15
   0   3   0 668845. 13387.7  11
   3  -3   0 694527. 13385.8   2
   0   3   0 767426. 13359.2  10
  -3   0   0 710688. 13207.0   6
   3  -3   3 33.3353 129.355   2
  -3   0   3 106.971 152.324   1
   0   3   3 203.351 188.271  10
  -3   0   3 14.3165 144.222   6
   0   3   3 25.4372 43.7781   1
   3  -3   3-37.2300 140.658   7
   0   3   3-24.2486 167.033   4
   0   3   3 140.910 205.633  11
   0   3   3 181.614 218.557  15
   3  -3   6 463439. 8114.43   7
  -3   0   6 402459. 7867.81  13
   0   3   6 432012. 8270.81  15
   0   3   6 432353. 8386.31  10
   0   3   6 423515. 8461.33  11
   3  -3   6 411714. 8007.42   9
   0   3   6 391326. 8136.21  12
   3  -3   6 439678. 7858.23   2
   0   3   6 462329. 8246.35   3
   0   3   6 407812. 7776.56   4
  -3   0   6 417448. 8147.02   1
   0   3   9 102.837 146.092   3
   3  -3   9 92.6452 88.3668   2
   0   3   9 73.8644 165.888  11
   0   3   9 278.778 222.452  15
   3  -3   9 5.69500 102.780   7
  -3   0   9 141.264 160.831   3
   3  -3   9 189.912 150.795   9
   0   3   9 52.6758 154.783  10
   0   3   9 399.853 216.583  12
  -3   0   9 53.4824 199.045   1
  -3   0   9 197.271 142.108  13
  -3   0  12 431809. 8885.00   3
   0   3  12 430052. 9242.53  12
   3  -3  12 472035. 9610.48  12
   0   3  12 405461. 9119.18  11
  -3   0  12 581093. 9074.15  13
   3  -3  12 406044. 9084.45   9
   3  -3  12 512428. 8904.16   3
   3  -3  12 505328. 8466.57   2
   3  -3  12 451478. 8831.02   7
   0   3  12 427280. 9099.09   3
  -3   0  12 484050. 9642.39   1
  -3   0  15 216.535 147.006   3
   3  -3  15-57.5891 243.079  12
   3  -3  15-28.1126 163.580   9
   0   3  15 104.322 180.511  12
   0   3  15 131.562 213.296   3
   3  -3  18 318363. 7178.86  12
   0   3  18 281424. 6625.81   3
  -3   0  18 263587. 6142.35   3
   0   3  18 276479. 6451.09  12
   3  -3  18 330078. 6085.69   3
   3  -3  18 273834. 6464.92   9
   0   3  21 136.933 200.123   3
   3  -3  21-51.0462 148.369   9
  -3   0  21 163.005 168.051   3
   3  -3  21 110.824 179.259  12
   0   3  21 69.7546 172.323  12
  -1   3 -22 197236. 4826.03   5
  -3   1 -22 191753. 4609.63   1
  -3   1 -19 1194.96 394.982  14
   2  -3 -19 844.768 416.481  14
  -2  -1 -19 712.731 284.648   5
   2  -3 -19 940.221 256.329   5
  -1   3 -19 499.559 284.470   5
   3  -2 -19 974.380 253.600   5
  -3   1 -19 455.633 221.184   1
   1   2 -19 1120.84 379.474   4
  -3   1 -19 1216.29 545.482   5
  -2  -1 -19 821.755 338.047  14
   1   2 -19 614.052 197.834   5
   1   2 -19 1069.43 340.606  14
  -1   3 -19 1281.60 339.394  14
  -1   3 -16 319793. 7512.65   5
   3  -2 -16 331352. 6757.51   5
   3  -2 -16 374654. 6777.57   2
   2  -3 -16 331400. 7810.71  14
  -1   3 -16 352237. 7173.47  14
   2  -3 -16 307428. 6906.28   5
  -3   1 -16 371014. 8327.60   5
   1   2 -16 320753. 7466.49  14
  -3   1 -16 314649. 6883.86   1
   1   2 -16 358952. 7766.67   4
   1   2 -16 330003. 6764.55   5
   3  -2 -16 335426. 7444.10  14
  -1   3 -16 333811. 7300.29   4
  -3   1 -16 311216. 7405.57  14
  -2  -1 -16 361870. 7366.43   1
  -2  -1 -16 308985. 7079.96   5
  -2  -1 -16 337410. 7831.07  14
  -3   1 -13 1946.17 495.135   5
  -1   3 -13 1869.45 338.632  14
  -1   3 -13 1337.15 397.800   5
  -2  -1 -13 1665.73 352.352   5
  -2  -1 -13 1539.44 303.927   1
  -1   3 -13 1538.24 338.682   4
   2  -3 -13 1470.77 271.379   5
   2  -3 -13 1614.28 398.454  14
  -2  -1 -13 1333.59 352.412  14
   3  -2 -13 2198.58 403.575  14
   1   2 -13 1148.26 373.587  14
  -3   1 -13 2088.10 470.442  14
   2  -3 -13 2133.38 332.866   2
  -3   1 -13 1160.92 240.396   1
   3  -2 -13 1904.47 366.673   2
   1   2 -13 1696.00 271.011   5
   1   2 -13 1639.31 420.745   4
   1   2 -10 529148. 10456.1  14
  -3   1 -10 543490. 10638.9   5
   1   2 -10 528774. 10503.2   4
  -3   1 -10 517254. 10052.0   1
   3  -2 -10 459111. 9905.29   2
  -1   3 -10 496251. 10181.8   4
  -2  -1 -10 577410. 9861.11   1
  -1   3 -10 528459. 10030.4  14
   2  -3 -10 465746. 9631.03   2
  -2  -1 -10 634652. 10492.0   5
   2  -3 -10 518136. 10213.3  14
   3  -2 -10 488011. 9660.93  14
  -1   3 -10 497818. 10095.1   5
  -3   1 -10 482690. 9976.12  14
   1   2 -10 455159. 9508.12   5
  -2  -1 -10 527618. 10212.2  14
  -1   3  -7 4004.85 492.408  14
   2  -3  -7 4226.94 225.162   1
   1   2  -7 3932.33 488.469  14
  -1   3  -7 4640.56 258.954  11
  -3   1  -7 3976.71 497.898   1
   2  -3  -7 4719.80 408.988  14
  -1   3  -7 4225.39 500.224   4
  -3   1  -7 3943.97 390.286  14
   2  -3  -7 3708.17 358.305   2
  -2  -1  -7 4100.26 239.366   2
   3  -2  -7 3873.52 410.572   2
   1   2  -7 3984.89 466.325   4
  -2  -1  -7 3974.99 346.544   1
  -2  -1  -7 4131.45 445.277   5
   3  -2  -7 3551.16 291.584  14
  -1   3  -7 3691.22 370.072   5
  -3   1  -7 3088.19 443.806   5
   1   2  -7 5360.20 453.355   5
   1   2  -4 641318. 11001.6   9
  -2  -1  -4 616511. 11294.0   5
   2  -3  -4 581868. 11038.3  14
  -3   1  -4 647599. 11652.2   1
  -3   1  -4 531741. 11209.9  14
  -1   3  -4 601355. 11762.9   4
   2  -3  -4 557989. 11083.1  13
   2  -3  -4 537114. 11451.5   2
   1   2  -4 636561. 11618.8   4
  -2  -1  -4 635056. 11262.9   1
  -3   1  -4 666847. 11497.4   5
  -1   3  -4 595918. 11782.6  14
  -1   3  -4 677706. 11345.1  11
   2  -3  -4 682937. 11495.8   7
   1   2  -4 553016. 10852.1  10
   2  -3  -4 647934. 11309.7   6
   3  -2  -4 547946. 10907.9   6
   3  -2  -4 596070. 11430.6   2
   2  -3  -1 7664.24 458.138  13
   1   2  -1 10556.5 513.247  10
  -1   3  -1 8588.56 647.783   4
   1   2  -1 8071.17 501.638   4
  -1   3  -1 8979.57 526.792  11
  -2  -1  -1 7680.77 517.823   1
  -2  -1  -1 10427.8 655.156   6
   3  -2  -1 8360.98 494.823   2
   2  -3  -1 8778.02 663.197   2
   1   2  -1 9030.62 541.334   8
   1   2  -1 10942.6 626.060  15
   2  -3  -1 7156.57 446.038   7
   2  -3  -1 8177.49 378.823  14
  -1   3  -1 8756.10 604.218  10
  -3   1  -1 8755.78 593.521   1
  -3   1  -1 8294.21 475.321   6
  -1   3   2 435194. 9444.93   1
  -2  -1   2 548753. 10127.3   1
  -3   1   2 604626. 10392.6   1
  -3   1   2 599754. 9544.44  15
   1   2   2 678793. 10317.4  10
  -1   3   2 575582. 10617.3  10
   2  -3   2 533947. 10104.5   7
  -2  -1   2 574893. 9547.58  10
   1   2   2 618416. 9950.80   4
   3  -2   2 531240. 9940.37   2
   1   2   2 567670. 9566.32   9
  -3   1   2 557030. 9689.84   3
  -3   1   2 570344. 9858.49   6
   1   2   2 553406. 9878.39  12
  -1   3   2 685127. 10686.0   4
   1   2   2 679870. 10562.9  15
   3  -2   2 540396. 9527.98   3
  -2  -1   2 642920. 10459.9   6
   1   2   5 5872.56 447.685  12
  -1   3   5 8691.08 829.454  12
  -2  -1   5 6282.63 486.064  13
   1   2   5 6716.45 519.658   8
  -2  -1   5 6254.77 583.232   1
  -1   3   5 7226.98 684.303  10
  -3   1   5 5133.64 394.558   1
   2  -3   5 4785.71 358.391   9
   3  -2   5 5573.02 379.399   2
  -3   1   5 5890.10 426.788   3
   1   2   5 5605.55 355.940   9
  -1   3   5 7135.90 589.776  15
   1   2   5 6809.91 493.219   3
  -1   3   5 5401.90 434.918   3
   2  -3   5 5699.27 451.300   7
   1   2   5 6951.90 568.608  11
  -3   1   5 5833.42 350.230  10
   1   2   5 6339.53 358.387   4
   1   2   5 5563.17 460.594  15
  -1   3   5 6140.91 509.572  11
  -1   3   5 5636.55 370.703   4
  -1   3   8 519606. 10009.2  15
   3  -2   8 463883. 9351.11   2
  -3   1   8 611817. 9471.82  13
   1   2   8 565369. 10436.3  12
  -2  -1   8 529337. 10301.5   1
  -3   1   8 536275. 10008.3   1
  -1   3   8 521655. 10145.2  11
  -1   3   8 492549. 10141.9  12
  -3   1   8 474113. 9474.34  10
  -1   3   8 498274. 10225.8  10
  -3   1   8 558335. 10021.5   3
   2  -3   8 533759. 9836.11   7
  -1   3   8 490628. 9840.41   3
  -2  -1   8 593887. 10070.2  13
   2  -3   8 566872. 10401.5   9
   1   2   8 595407. 10607.0  11
   3  -2   8 466291. 9743.31   9
   1   2   8 504587. 9745.19   3
   3  -2   8 460420. 9442.78   3
   1   2   8 544904. 9764.08   9
   1   2  11 1512.26 289.349  11
  -3   1  11 1802.52 307.618   3
  -2  -1  11 2022.55 314.628  13
  -1   3  11 1642.13 328.235  12
  -2  -1  11 2336.90 216.621  12
   1   2  11 2567.58 455.681  12
   3  -2  11 1918.86 166.750   2
  -1   3  11 2525.24 394.300  10
  -1   3  11 1573.67 311.116   3
  -2  -1  11 2015.99 343.604   7
   3  -2  11 1804.40 329.006   9
   1   2  11 1748.01 291.657   9
  -3   1  11 2156.10 373.820   1
   2  -3  11 2224.44 297.229   7
   2  -3  11 2381.70 414.434  12
   3  -2  11 2474.05 492.729  12
   3  -2  11 1865.75 251.637   3
   1   2  11 2336.65 339.886   3
  -1   3  14 397248. 8506.83   3
   3  -2  14 420437. 9304.42  12
   3  -2  14 436381. 8010.32   3
   1   2  14 387880. 8132.56   9
   1   2  14 337613. 7778.94  11
  -1   3  14 383506. 8220.08  12
  -2  -1  14 431411. 8269.62   7
   3  -2  14 416105. 8649.24   9
   3  -2  14 435414. 8183.75   8
   1   2  14 427190. 8984.90  12
  -2  -1  14 387494. 8013.57   3
   2  -3  14 428203. 7925.31   7
   1   2  14 391954. 8267.42   3
  -3   1  14 392507. 8321.86   3
   2  -3  14 426672. 9034.24   9
   2  -3  14 402952. 8656.78  12
   3  -2  17 1142.92 253.130   3
  -2  -1  17 759.478 230.326   3
  -1   3  17 1060.31 286.747  12
   1   2  17 996.462 352.155  12
   2  -3  17-3.82230 296.657  12
  -1   3  17 1177.12 365.102   3
   2  -3  17 963.583 375.987   9
   2  -3  17 1173.61 260.404   3
   3  -2  17 671.228 301.710   9
   3  -2  17 516.287 293.876  12
   2  -3  17 889.637 200.403   7
  -3   1  17 802.483 278.789   3
   1   2  17 504.466 211.691   3
  -2  -1  20 226178. 5422.94   3
   1   2  20 229076. 5820.18   3
   3  -2  20 270402. 6895.47  12
   1   2  20 226531. 5734.09  12
   3  -2  20 244105. 5913.31   9
   2  -3  20 257533. 6283.43   9
   2  -3  20 229806. 6083.53  12
  -1   3  20 244233. 6227.57   3
   2  -3  20 260460. 5436.80   3
  -1   3  20 232684. 5525.82  12
  -3   1  20 241468. 5836.26   3
   3  -1 -20 232256. 5999.02  14
  -2   3 -20 244462. 5566.43  14
  -3   2 -20 235661. 5368.02   1
   1  -3 -20 230393. 5572.36   5
  -1  -2 -20 219231. 5402.91   5
   2   1 -20 243220. 5141.77   5
   3  -1 -20 247351. 5253.67   5
  -2   3 -20 224134. 6162.94   5
  -1  -2 -20 270901. 6458.98  14
   2   1 -20 225224. 6021.44  14
   1  -3 -20 237239. 6176.96  14
  -3   2 -20 246658. 5721.16  14
  -3   2 -20 244616. 6664.75   5
  -3   2 -17 832.642 325.830  14
  -2   3 -17 977.750 280.792  14
   3  -1 -17 753.123 348.528  14
  -3   2 -17 1015.67 545.190   5
   1  -3 -17 867.056 311.749   5
   2   1 -17 225.181 158.688   4
   1  -3 -17 551.022 339.036  14
   3  -1 -17 768.988 239.786   5
   2   1 -17 723.972 198.132   5
   2   1 -17 475.718 307.569  14
   3  -1 -17 757.061 181.178   2
  -2   3 -17 623.964 432.961   5
  -2   3 -17 741.751 211.063   4
   3  -1 -17 801.836 178.813   4
  -1  -2 -17 672.950 239.071   5
  -1  -2 -17 649.207 353.020  14
  -3   2 -14 420960. 9304.88   5
  -2   3 -14 413057. 9073.07   5
   2   1 -14 404084. 7932.74   5
  -1  -2 -14 380229. 8153.25   5
   1  -3 -14 393413. 8412.76   5
   3  -1 -14 443869. 8192.00   5
  -3   2 -14 434957. 8715.34  14
   1  -3 -14 386282. 9012.55  14
   3  -1 -14 404633. 7954.77   2
   2   1 -14 391492. 8544.05   4
  -1  -2 -14 483509. 8264.72   1
  -2   3 -14 404879. 8300.97   4
  -1  -2 -14 448828. 9095.40  14
  -2   3 -14 429729. 8368.46  14
   3  -1 -14 387909. 8586.62  14
   2   1 -14 399296. 8855.16  14
   1  -3 -11 1728.16 176.029  13
  -2   3 -11 1519.47 362.827   5
  -1  -2 -11 1859.13 285.378   5
   1  -3 -11 2259.67 413.105  14
   1  -3 -11 1597.89 286.968   5
   1  -3 -11 1712.03 158.908   1
  -3   2 -11 1881.11 332.742  14
  -2   3 -11 1678.46 327.645   4
  -3   2 -11 1670.14 223.503   4
   1  -3 -11 2292.70 273.108   2
  -1  -2 -11 2160.71 254.510   1
   3  -1 -11 1971.34 348.364  14
  -1  -2 -11 3061.19 462.536  14
   2   1 -11 2167.54 235.785   5
  -3   2 -11 2120.14 460.344   5
   2   1 -11 1562.02 293.223   4
   3  -1 -11 1815.90 284.293   2
   2   1 -11 1776.67 406.636  14
  -2   3 -11 2389.70 348.625  14
  -1  -2  -8 581027. 9522.37   1
   2   1  -8 468495. 9235.41   8
   2   1  -8 461678. 9613.48   2
   2   1  -8 516658. 9459.28   5
   3  -1  -8 574066. 10258.7   2
  -3   2  -8 505559. 9690.59   4
  -3   2  -8 587652. 10189.2   1
  -3   2  -8 495772. 9977.06  14
  -2   3  -8 532329. 9918.93   5
   2   1  -8 441120. 9773.50   4
  -2   3  -8 566273. 10276.6   4
  -1  -2  -8 507940. 9265.36   2
  -1  -2  -8 526634. 9727.93   5
  -2   3  -8 562070. 9883.22  14
   1  -3  -8 531380. 10068.9  14
   1  -3  -8 472533. 9211.64   7
   1  -3  -8 593747. 9773.06  13
   2   1  -8 490458. 9968.17  14
   1  -3  -8 555889. 9763.67   2
  -3   2  -8 504608. 10023.2   5
   3  -1  -8 595509. 9976.55  14
   1  -3  -5 5603.06 401.747  13
   2   1  -5 5309.82 390.630  14
  -1  -2  -5 5316.78 351.840   5
   2   1  -5 5513.53 265.332   5
   3  -1  -5 5587.04 483.683   2
  -2   3  -5 5632.38 500.632   4
   1  -3  -5 6828.30 545.350   2
  -3   2  -5 6104.42 633.354   1
  -2   3  -5 5778.15 487.152  14
   2   1  -5 4501.10 368.152   2
   3  -1  -5 6071.67 335.388  14
   1  -3  -5 6076.99 393.654   7
  -1  -2  -5 5061.89 307.780   1
  -3   2  -5 5927.89 441.345  14
   3  -1  -2 537211. 10208.9   2
   1  -3  -2 566973. 10164.9  13
   2   1  -2 585434. 10308.9   2
  -3   2  -2 518372. 9798.23  14
   2   1  -2 461130. 9532.14  12
  -3   2  -2 523498. 10288.4   1
   1  -3  -2 589321. 10197.3   7
  -1  -2  -2 440178. 9834.43   1
  -1  -2  -2 661635. 10748.7   6
  -1  -2  -2 616842. 9782.07   5
   2   1  -2 619469. 9793.36  15
  -2   3  -2 519257. 10439.6  14
   1  -3  -2 575317. 10287.9   6
  -2   3  -2 672618. 10593.6   4
  -1  -2   1 8269.75 719.788  13
   1  -3   1 7733.03 544.026   6
  -3   2   1 8926.45 466.150  15
  -3   2   1 6246.80 249.647   6
  -2   3   1 7277.57 353.870   1
  -1  -2   1 8802.46 612.838   6
  -3   2   1 7984.03 387.304   3
   3  -1   1 9471.55 506.076   2
   1  -3   1 8930.90 553.152   7
  -1  -2   1 9047.07 647.545   1
   2   1   1 7482.93 293.039   5
   2   1   1 11273.0 477.097  15
  -2   3   1 8886.61 630.867   4
   2   1   1 7822.27 375.406  12
  -3   2   1 7725.92 511.754   1
  -3   2   1 7234.56 229.171  14
   1  -3   1 7828.54 494.727  13
  -3   2   1 6557.80 244.405  14
  -3   2   4 553112. 10858.2  15
  -1  -2   4 648134. 10578.0  12
  -1  -2   4 624225. 11371.2  13
  -2   3   4 551301. 10913.1   3
  -1  -2   4 613951. 11339.4   1
   1  -3   4 575194. 11062.7  13
  -3   2   4 560216. 10812.3   3
   3  -1   4 541465. 10726.0   2
  -2   3   4 539874. 10472.1   1
  -2   3   4 620483. 11546.1  15
   2   1   4 546679. 10899.9  12
   1  -3   4 726680. 11296.3   9
  -3   2   4 582594. 10934.6   1
  -1  -2   4 543843. 11000.8   6
   2   1   4 645446. 11038.4   9
   1  -3   4 617255. 11231.3   7
  -3   2   4 558835. 10928.8  10
  -3   2   4 520326. 10362.6  14
   3  -1   7 4944.50 300.327   3
  -3   2   7 3921.55 389.990   3
   1  -3   7 4298.70 442.611  13
  -3   2   7 3806.04 375.554   1
  -1  -2   7 3799.79 227.342  12
  -3   2   7 3698.86 369.710  10
   1  -3   7 3550.90 361.162   9
   2   1   7 3636.88 174.540   4
   3  -1   7 4018.47 427.432   9
   2   1   7 4441.60 394.242   9
  -2   3   7 3397.75 370.665   3
   2   1   7 3561.70 403.867   8
  -1  -2   7 4194.90 465.651   7
  -1  -2   7 4955.97 478.218  13
   2   1   7 4276.31 382.647   3
   1  -3   7 4065.66 448.889   7
   3  -1   7 4133.76 564.918  12
  -2   3   7 4056.04 422.301  15
   2   1   7 3204.18 177.022   4
   2   1   7 3835.72 455.981  12
   3  -1   7 4190.69 292.566   2
   3  -1  10 478497. 9047.89   3
  -1  -2  10 493518. 9505.01  13
   2   1  10 491555. 9343.32   9
  -2   3  10 478410. 9609.24   3
  -1  -2  10 472067. 8894.75  12
   3  -1  10 508154. 10465.5  12
   2   1  10 551640. 9824.27  11
   2   1  10 519025. 10555.9  12
  -3   2  10 500946. 9603.31   3
  -3   2  10 418762. 9026.20  10
  -2   3  10 502701. 9821.73  10
  -2   3  10 454809. 9520.32  12
   3  -1  10 516865. 9946.67   9
   1  -3  10 473810. 9636.61   9
   2   1  10 496879. 9452.86   8
   1  -3  10 482495. 9534.87   7
   2   1  10 478856. 9223.21   3
  -1  -2  10 459930. 9469.79   7
  -2   3  10 440331. 9549.81  15
  -3   2  10 482689. 9393.32   1
   1  -3  13 1807.77 326.013  12
   3  -1  13 1893.45 307.993   3
  -3   2  13 2067.67 406.655   3
   3  -1  13 1454.20 332.797   9
  -2   3  13 1660.66 328.797  12
   2   1  13 1647.55 234.814  11
   2   1  13 1739.98 322.051   3
   3  -1  13 1860.50 469.518  12
   2   1  13 1799.57 487.793  12
   2   1  13 1370.49 276.220   9
   1  -3  13 1456.13 368.162   9
  -2   3  13 1909.75 342.813  10
   3  -1  13 1360.05 289.603   8
  -3   2  13 1876.92 294.680  10
   2   1  13 1402.06 278.650   8
  -1  -2  13 1890.43 330.249   7
   1  -3  13 1703.69 317.711   7
  -2   3  13 1727.36 420.384   3
  -2   3  16 322449. 7249.66  12
   3  -1  16 339987. 8441.34  12
   1  -3  16 323732. 7344.18  12
  -2   3  16 368660. 8132.70   3
  -1  -2  16 323879. 7115.92   3
   3  -1  16 321487. 7531.77   9
   2   1  16 320718. 7270.57   9
   1  -3  16 337351. 7879.60   9
   3  -1  16 373121. 7186.69   3
   1  -3  16 355565. 7006.68   7
  -1  -2  16 364695. 7368.07   7
   2   1  16 328812. 7343.66   3
   2   1  16 325767. 8076.70  12
  -3   2  16 356310. 8074.50   3
   3  -1  16 370266. 7158.59   8
   2   1  19 819.847 273.855   9
  -1  -2  19 1257.25 282.919   3
   1  -3  19 1187.79 289.559   3
   3  -1  19 737.954 361.955  12
  -3   2  19 917.637 340.608   3
   2   1  19 1003.48 336.804  12
  -2   3  19 640.256 325.500   3
  -2   3  19 814.666 256.182  12
   2   1  19 950.525 304.271   3
   3  -1  19 593.822 278.450   9
  -2   3  22 191732. 4662.21  12
   0  -3 -21-91.5662 253.273  14
  -3   3 -21 13.9931 198.955  14
  -3   3 -21-30.3064 297.082   5
   0  -3 -21-15.0709 186.762   5
   3   0 -21-160.974 279.324  14
  -3   3 -18 260911. 6657.89   5
   3   0 -18 283269. 5682.03   5
   0  -3 -18 310855. 7129.13  14
   3   0 -18 263847. 5662.40   4
   3   0 -18 294267. 6802.20  14
  -3   3 -18 283949. 6157.09  14
   0  -3 -18 250011. 5962.86   5
  -3   3 -15 322.914 240.287  14
   3   0 -15 219.491 332.244  14
  -3   3 -15 231.267 310.841   5
   0  -3 -15 276.665 199.042   5
  -3   3 -15-0.74156 91.0832   4
   3   0 -15 219.142 124.810   2
   3   0 -15 163.532 153.097   4
   0  -3 -15 92.3709 288.761  14
   3   0 -15 157.977 151.002   5
   0  -3 -12 443082. 9030.11   5
   3   0 -12 452984. 8794.40   2
  -3   3 -12 465384. 8813.22   4
  -3   3 -12 477706. 9160.49  14
  -3   3 -12 447938. 9421.51   5
   0  -3 -12 478567. 9534.16  14
   3   0 -12 468943. 8766.85   5
   3   0 -12 495073. 9561.33  14
   0  -3  -9 167.366 123.758   5
   3   0  -9 40.8632 75.6449   5
  -3   3  -9 114.364 177.831  14
   3   0  -9 53.0282 151.705  14
  -3   3  -9-95.9843 172.406   5
  -3   3  -9-15.8102 98.0075   4
   3   0  -9 120.269 114.231   2
   0  -3  -9 122.972 54.2404   1
   0  -3  -9 31.4336 78.4371   2
   0  -3  -9 46.4203 63.8549   7
   0  -3  -9 156.034 151.071  14
   0  -3  -6 403698. 8080.25  13
   3   0  -6 446077. 7960.50   2
  -3   3  -6 468884. 7945.03  14
   0  -3  -6 439161. 7741.59   7
   3   0  -6 434400. 7850.88  14
  -3   3  -6 488906. 8246.36   4
  -3   3  -3 547.317 164.383  14
   0  -3  -3-27.3567 262.760  13
   3   0  -3 78.6627 45.6632  12
  -3   3  -3 317.156 253.253   1
   0  -3  -3 153.322 68.1104   9
   0  -3  -3 20.3649 48.0733   1
   3   0  -3 76.4347 134.925   2
   0  -3  -3 63.5629 100.194   7
   0  -3  -3-114.376 227.397   6
  -3   3  -3-40.3962 173.271   4
   0  -3   0 765192. 13454.1  13
  -3   3   0 766600. 13236.1  15
   3   0   0 700474. 12711.9   2
   0  -3   0 788354. 13298.0   7
   3   0   0 666433. 12468.8  12
  -3   3   0 606969. 12767.3   1
   0  -3   0 745914. 13308.3   6
   0  -3   3 149.189 182.656  13
   0  -3   3-24.4902 208.722   6
   3   0   3 45.9954 107.632  12
  -3   3   3 19.5696 164.748  15
  -3   3   3 51.3708 175.577  10
  -3   3   3 189.254 136.479   1
   3   0   3 122.100 107.380   2
   0  -3   3 170.117 189.648   7
  -3   3   3 88.6765 181.336   3
  -3   3   6 407394. 8432.65  10
   3   0   6 418757. 7765.18   2
   3   0   6 389428. 8170.34  12
   0  -3   6 444727. 8447.08  13
  -3   3   6 463562. 8121.28   1
  -3   3   6 391407. 8103.40   3
   3   0   6 460669. 8725.78   9
   0  -3   6 395574. 7759.30   9
   0  -3   6 417890. 8413.18   7
  -3   3   6 441486. 8296.02  15
   0  -3   9 152.395 225.672  13
   0  -3   9 44.8076 157.223   7
   3   0   9 12.6960 183.716  12
  -3   3   9 188.412 198.793   3
   0  -3   9 151.169 131.552   9
   3   0   9 227.239 162.848   8
  -3   3   9-150.287 155.858  15
  -3   3   9 88.5715 98.3541   1
   3   0   9 192.062 143.766   3
  -3   3   9 113.791 155.593  10
   3   0  12 480422. 10033.9  12
   0  -3  12 402366. 8212.44  12
   3   0  12 417693. 8056.32  11
  -3   3  12 411702. 8370.62  10
  -3   3  12 442706. 9052.61   3
   3   0  12 435966. 8791.85   9
   3   0  12 422451. 8736.03   8
   0  -3  12 414900. 8716.28   7
   3   0  12 451687. 8397.24   3
  -3   3  15 226.993 313.094   3
   3   0  15 395.626 311.356  12
   3   0  15 284.694 164.242   3
   3   0  15 79.5471 167.671   9
   3   0  15 180.452 187.020   8
   0  -3  15 37.9769 171.878   7
   0  -3  18 298835. 6434.61   3
   3   0  18 286136. 7898.31  12
   3   0  18 289821. 6963.49   9
   3   0  21-17.3995 196.251   9
   0  -3  21-29.2947 117.046   3
   3   0  21 251.788 317.654  12
  -3   3  21 185.535 286.787   3
  -4   0 -19-31.3452 322.210  14
   0   4 -19 316.042 244.328  14
  -4   0 -19-217.483 298.799   5
   4  -4 -19-86.3585 160.548   5
   0   4 -19-65.3206 268.779   4
  -4   0 -19-91.0928 155.526   1
  -4   0 -16 245846. 6089.50   5
   4  -4 -16 246235. 5481.60   5
  -4   0 -16 241842. 5707.20   1
   4  -4 -16 266873. 5939.94   2
   0   4 -16 263037. 5882.34  14
   0   4 -16 230906. 6164.14   4
  -4   0 -16 287411. 6769.92  14
  -4   0 -13 321.235 290.529  14
   0   4 -13 105.651 209.892  14
  -4   0 -13 411.642 368.988   5
   0   4 -13 132.584 260.850   4
  -4   0 -13-42.8700 165.370   1
   4  -4 -13-33.1563 231.370   2
  -4   0 -10 444479. 8710.43   1
  -4   0 -10 444935. 9047.39   5
   0   4 -10 420970. 9279.60   4
   0   4 -10 406135. 8799.65  14
   4  -4 -10 413836. 8957.13   2
  -4   0  -7 160.605 196.037  14
  -4   0  -7 66.0916 179.582   5
   0   4  -7 87.5475 145.082  11
   0   4  -7 94.8694 125.191  10
   0   4  -7 40.6758 156.071  14
   0   4  -7 269.853 237.307   4
   4  -4  -7-152.244 195.161   2
   0   4  -4 426518. 8978.52  11
   0   4  -4 487838. 8827.05  10
   0   4  -4 492425. 9359.92   4
  -4   0  -4 450782. 8902.34   1
   4  -4  -4 435067. 9195.77   2
   0   4  -4 407721. 9048.26  15
  -4   0  -4 489518. 9337.91   6
  -4   0  -1 246.659 197.690   6
   0   4  -1 189.940 188.870  10
   4  -4  -1 253.777 236.405   2
   0   4  -1-20.9476 180.501  11
  -4   0  -1-28.4114 144.155   1
   0   4  -1 39.2100 197.841  15
   0   4  -1 55.7619 145.448   4
   0   4   2 536136. 10542.2  11
   0   4   2 519583. 10082.6   4
   0   4   2 508498. 10118.6  10
   4  -4   2 494969. 9965.93   2
   0   4   2 499718. 10782.0  15
  -4   0   2 519256. 9975.07   6
   0   4   5 0.35375 139.592  10
   0   4   5-58.7547 175.455  15
  -4   0   5 248.030 183.404   1
   0   4   5-27.8939 143.966   4
   4  -4   5 39.8197 126.710   7
   0   4   5 98.8616 183.734  12
   4  -4   5 18.4290 95.3760   2
   0   4   5 98.2090 177.458  11
   0   4   8 413577. 8291.67  12
  -4   0   8 398996. 7886.67  13
  -4   0   8 420917. 8252.03   1
   0   4   8 397490. 8509.35  11
   0   4   8 409376. 8389.96  10
   4  -4   8 399608. 8146.11   9
   4  -4   8 434734. 7910.55   2
   0   4   8 422870. 8422.20  15
   0   4   8 440054. 8295.27   3
   4  -4   8 451378. 8279.94   7
  -4   0   8 425282. 7947.36   3
   4  -4  11 123.359 85.4781   2
  -4   0  11 107.901 118.735   3
   0   4  11 96.0475 149.662   3
   0   4  11 336.845 203.954  11
   4  -4  11 83.8216 137.852   9
   0   4  11 152.877 165.287  12
  -4   0  11 84.3826 152.435   1
   4  -4  14 286207. 6271.78   9
   0   4  14 321468. 6691.60  12
   0   4  14 303554. 6480.20   3
  -4   0  14 289898. 6099.59   3
   4  -4  14 322181. 6536.68  12
   0   4  17 39.6407 175.097  12
   4  -4  17-40.3877 179.515  12
   4  -4  17 193.956 143.169   9
   0   4  17 36.7465 192.094   3
  -4   0  17-47.5911 148.699   3
   3  -4 -20 242052. 5267.89   5
  -3  -1 -20 191861. 5189.87   5
  -4   1 -20 216859. 5766.27  14
  -4   1 -20 212403. 5104.15   1
  -3  -1 -20 235566. 5936.93  14
  -4   1 -20 222128. 5833.08   5
   1   3 -20 214299. 5801.11   4
   4  -3 -20 235593. 5025.74   5
  -1   4 -20 237211. 5401.40  14
   1   3 -20 237459. 5576.78  14
   1   3 -17 1435.75 393.552  14
  -1   4 -17 2025.50 334.287   5
  -3  -1 -17 1129.73 279.496   5
  -4   1 -17 1255.19 285.117   1
   3  -4 -17 1468.40 295.393   5
  -4   1 -17 2074.92 459.446  14
  -1   4 -17 1194.41 312.170  14
  -3  -1 -17 1518.40 449.224  14
  -4   1 -17 1426.48 507.981   5
  -1   4 -17 1068.39 308.746   4
   1   3 -17 1903.15 467.332   4
  -3  -1 -17 1966.10 362.725   1
   4  -3 -17 1736.21 307.085   2
   4  -3 -17 1805.51 285.336   5
  -4   1 -14 362943. 8117.77   5
  -4   1 -14 350203. 7429.83   1
   3  -4 -14 397196. 7566.42   2
  -3  -1 -14 381960. 7397.58   1
  -1   4 -14 341150. 7148.04   5
   1   3 -14 338880. 8081.84   4
  -1   4 -14 345228. 7863.93   4
   4  -3 -14 335768. 7683.08   2
  -3  -1 -14 329049. 7466.48   5
  -3  -1 -14 386468. 7968.49  14
  -4   1 -14 351626. 8019.90  14
  -1   4 -14 356216. 7510.05  14
   1   3 -14 339163. 7717.14  14
  -4   1 -11 3052.48 454.552   1
  -3  -1 -11 2903.70 422.246  14
  -4   1 -11 2542.21 492.783   5
   1   3 -11 2792.20 427.897  14
  -3  -1 -11 2609.59 330.937   1
  -3  -1 -11 2639.29 440.623   5
  -4   1 -11 2308.59 414.329  14
  -1   4 -11 3114.88 494.235  14
  -1   4 -11 2670.23 451.914   4
   1   3 -11 2611.56 471.124   4
   4  -3 -11 3224.77 464.741   2
   3  -4 -11 2663.15 405.866   2
   1   3 -11 2910.88 283.027   5
  -4   1  -8 440912. 8754.80   5
  -4   1  -8 396085. 8791.92  14
  -1   4  -8 504352. 8349.05  11
  -4   1  -8 478181. 9144.09   1
  -1   4  -8 421474. 9139.28   4
   4  -3  -8 417184. 8888.85   2
   1   3  -8 441361. 9094.95   4
   3  -4  -8 405196. 8771.74   2
  -3  -1  -8 510619. 9264.43   5
  -1   4  -8 431397. 9121.56  14
   3  -4  -8 419960. 8243.11  14
  -3  -1  -8 476044. 8619.32   1
   1   3  -8 412945. 8672.45  14
  -4   1  -5 5379.17 466.886  14
  -4   1  -5 5024.09 483.127   1
   3  -4  -5 5113.99 222.153  14
  -3  -1  -5 5093.86 466.847   6
   1   3  -5 5314.46 448.966  14
  -1   4  -5 4995.53 559.577   4
   1   3  -5 5424.78 299.439  10
   4  -3  -5 5599.21 529.795   2
   1   3  -5 5132.33 507.017   4
   3  -4  -5 4894.34 520.279   2
  -3  -1  -5 5214.77 425.166   1
  -1   4  -5 6046.02 449.568  11
  -1   4  -5 4774.85 458.846  14
  -3  -1  -5 4716.13 469.972   5
   3  -4  -5 4776.19 263.053   6
   1   3  -2 509302. 9907.50  15
  -1   4  -2 532201. 9983.90  11
  -1   4  -2 541050. 10236.7  10
  -1   4  -2 496213. 10263.6   4
   1   3  -2 480986. 9602.41  10
  -4   1  -2 505607. 10083.3   1
   4  -3  -2 538757. 10138.9   2
   1   3  -2 551131. 10054.7   4
   3  -4  -2 587164. 10710.6   2
   3  -4  -2 502235. 9286.30  14
  -3  -1  -2 537561. 9901.98   1
  -3  -1  -2 618428. 10584.5   6
   3  -4  -2 535028. 9980.89   7
  -1   4  -2 524318. 10806.6  15
  -4   1  -2 530536. 9997.69   6
   1   3   1 9501.69 744.884  15
  -1   4   1 7607.88 579.423  11
  -1   4   1 7974.39 675.140   4
  -1   4   1 7379.61 696.224  15
  -4   1   1 8100.18 336.992   3
  -1   4   1 9380.03 711.400  10
   1   3   1 8193.02 527.142  10
   1   3   1 6508.89 462.598   4
  -4   1   1 7312.01 498.652   6
  -3  -1   1 6771.42 529.907   1
   4  -3   1 8476.71 590.350   2
   3  -4   1 6483.47 480.915   2
  -4   1   1 7035.69 606.463   1
   3  -4   1 7100.91 486.001   7
  -3  -1   1 6976.49 588.992   6
   3  -4   4 475918. 9273.75   7
  -1   4   4 459409. 10082.5  15
   1   3   4 479669. 9176.76  12
   1   3   4 507971. 9173.74   4
   1   3   4 507672. 9691.64  11
  -1   4   4 504697. 9691.10   4
  -3  -1   4 503770. 9448.98   1
  -3  -1   4 469685. 9339.87  13
  -4   1   4 529192. 9030.01  10
  -1   4   4 543476. 10195.6  10
  -4   1   4 485219. 9385.73   1
   4  -3   4 458019. 9328.57   2
  -4   1   4 534353. 9085.03   3
  -1   4   4 471979. 9547.88  11
  -3  -1   4 455220. 9233.03   6
   1   3   4 486440. 9389.94  15
   1   3   4 483764. 9396.54  10
   1   3   7 4693.38 412.640  12
  -3  -1   7 4547.69 444.992   1
   1   3   7 4770.76 539.507  11
  -1   4   7 5441.44 530.097  11
  -4   1   7 4497.49 399.317   1
   1   3   7 5962.13 337.771   4
  -4   1   7 5021.50 294.460  10
  -1   4   7 4502.02 533.321  10
  -1   4   7 5566.09 527.472  15
   1   3   7 4328.63 420.301  15
   4  -3   7 4801.04 431.777   9
   3  -4   7 4642.11 386.467   9
  -1   4   7 4678.60 556.863  12
   4  -3   7 4996.75 380.606   2
  -1   4   7 5072.08 453.696   3
   3  -4   7 5031.18 433.623   7
  -3  -1   7 4345.73 385.443  13
  -4   1   7 4430.50 298.064  13
  -4   1   7 4851.89 387.195   3
  -3  -1  10 449374. 9219.75   1
  -4   1  10 463145. 8790.87   3
  -3  -1  10 467899. 8805.12  13
   1   3  10 414032. 8946.33  12
  -4   1  10 426844. 8849.76   1
   4  -3  10 489400. 8458.49   2
   1   3  10 452812. 9247.64  11
  -1   4  10 447801. 9080.88  15
  -1   4  10 471618. 9361.93  10
   3  -4  10 396120. 8730.55   9
   1   3  10 475921. 8956.86   3
   3  -4  10 476527. 8897.60   7
  -1   4  10 434537. 8942.38   3
   4  -3  10 426445. 8834.88   9
  -1   4  10 435693. 9121.34  12
   4  -3  10 499882. 8444.72   3
  -3  -1  13 2698.79 324.787  13
  -4   1  13 1921.95 294.110   3
   3  -4  13 2036.38 322.237   9
   3  -4  13 2568.42 358.986  12
  -1   4  13 2313.50 385.040  12
   1   3  13 2726.35 422.900  12
   4  -3  13 2378.06 449.410  12
   1   3  13 2196.08 353.081  11
   4  -3  13 2119.57 320.722   9
  -3  -1  13 2724.65 318.388   3
  -4   1  13 2191.31 347.210   1
   3  -4  13 2659.05 331.784   7
   1   3  13 2765.77 383.976   3
  -3  -1  13 2643.59 406.302   7
  -1   4  13 2345.14 382.517   3
   3  -4  16 274785. 6093.76  12
  -4   1  16 279458. 6019.51   3
   1   3  16 281568. 6473.33  12
   4  -3  16 303867. 6848.30  12
   4  -3  16 261634. 5931.99   9
   3  -4  16 246186. 5957.44   9
   3  -4  16 302709. 5912.78   7
  -1   4  16 282781. 6247.97  12
  -1   4  16 273165. 6282.94   3
  -3  -1  16 261672. 5769.90   3
   3  -4  16 328532. 5933.55   3
   1   3  16 268431. 6104.77   3
  -4   1  19 1185.21 278.203   3
  -3  -1  19 1173.50 241.576   3
  -1   4  19 1444.35 327.893  12
   1   3  19 1209.00 328.137  12
   4  -3  19 1277.53 387.870  12
   3  -4  19 797.060 233.577  12
  -1   4  19 1205.45 322.909   3
   4  -3  19 1345.28 287.025   9
   3  -4  19 1119.14 267.189   9
   1   3  19 889.082 263.689   3
  -2   4 -21 1555.63 350.648   5
   4  -2 -21 2124.54 327.208   5
  -4   2 -18 261750. 6534.83   5
   4  -2 -18 282051. 5482.51   2
  -2  -2 -18 277112. 6428.20  14
  -2  -2 -18 229684. 5670.02   5
   4  -2 -18 283784. 5665.69   5
   2  -4 -18 277924. 6131.90   5
  -2   4 -18 281798. 5974.76  14
  -2   4 -18 270954. 5841.58   4
  -2   4 -18 242105. 5887.00   5
  -4   2 -18 249186. 5692.03   1
   2   2 -18 227191. 5859.74   4
   2   2 -18 266402. 6303.81  14
  -4   2 -18 260597. 6176.40  14
  -2  -2 -15 2868.41 457.354  14
   2  -4 -15 2693.44 547.756  14
  -4   2 -15 3362.46 520.090  14
  -2   4 -15 3243.22 409.100  14
   2   2 -15 3048.11 514.649  14
  -2  -2 -15 2814.05 389.763   5
   2   2 -15 2626.33 444.335   4
   4  -2 -15 3007.27 336.988   5
   4  -2 -15 2790.55 349.987   2
   2  -4 -15 2629.15 430.841   5
  -4   2 -15 3101.48 569.903   5
  -4   2 -15 2579.63 372.497   1
  -2   4 -15 2750.16 422.975   4
  -2   4 -15 2850.18 472.754   5
  -2  -2 -12 430159. 7486.84   1
  -2  -2 -12 343249. 7487.34   5
   4  -2 -12 389783. 8070.77   2
  -2   4 -12 373534. 8068.69   4
  -4   2 -12 372393. 7778.69   1
   2  -4 -12 400334. 7576.86   2
   2   2 -12 394202. 7203.25   5
   2   2 -12 316708. 7755.39   4
  -2   4 -12 391002. 7805.48   5
   2   2 -12 366738. 7931.67  14
  -2  -2 -12 356111. 7795.12  14
  -4   2 -12 357481. 7995.27   5
   2  -4 -12 417615. 8583.96  14
  -4   2 -12 349889. 8022.30  14
  -2   4 -12 384731. 7741.09  14
   4  -2 -12 411240. 7552.51  14
  -2  -2  -9 5818.56 503.978  14
  -4   2  -9 4902.78 484.598   5
   2  -4  -9 6454.78 370.412  13
   2   2  -9 6146.40 336.486   5
  -2  -2  -9 5415.34 441.179   5
   4  -2  -9 5819.82 590.438   2
  -4   2  -9 6224.22 621.547   1
  -2   4  -9 5638.08 585.713   4
   2   2  -9 5320.06 540.353   4
   2  -4  -9 6003.95 507.201   2
   2  -4  -9 6119.11 564.354  14
   4  -2  -9 7018.86 369.605  14
  -2  -2  -9 5523.14 389.316   1
   2   2  -9 5903.85 503.797  14
  -4   2  -9 6741.79 622.915  14
  -2   4  -9 5648.05 519.421  14
   2  -4  -6 500728. 9876.61  13
  -2  -2  -6 595069. 10166.4   5
  -4   2  -6 645590. 11121.6   1
   4  -2  -6 502591. 10370.9   2
   2   2  -6 494178. 9981.64  14
  -2   4  -6 543916. 10642.1   4
   2   2  -6 542497. 10551.4   4
   2  -4  -6 632498. 10713.3   2
   2   2  -6 485148. 9802.10   8
   2  -4  -6 521783. 9978.95   7
  -2  -2  -6 582251. 9896.23   1
   2   2  -6 413843. 9368.92   5
   2  -4  -6 478318. 10054.6   6
  -4   2  -6 486946. 10056.0  14
   2  -4  -6 636951. 10224.9  14
  -2   4  -6 536368. 10653.4  14
  -4   2  -3 8992.51 647.704   1
  -2  -2  -3 10485.5 501.321   5
  -2   4  -3 11115.3 755.060   4
  -4   2  -3 10680.5 548.260  14
   2   2  -3 12704.0 496.878  15
   2   2  -3 10330.7 721.702   4
  -2  -2  -3 9934.00 554.011   1
   2   2  -3 11366.6 660.339   8
   2  -4  -3 13572.2 886.193   2
   2  -4  -3 10082.4 619.133   7
   4  -2  -3 11819.9 725.945   2
   2  -4  -3 10755.5 617.687  13
   2  -4  -3 9656.16 608.627   6
  -2  -2  -3 12224.8 839.824   6
  -2   4  -3 12718.0 917.180  14
   2  -4   0 490823. 9791.17  13
   2   2   0 563345. 9428.07  15
  -4   2   0 539213. 9456.15  15
   2   2   0 580307. 9510.01  12
   4  -2   0 493525. 9758.04   2
  -4   2   0 526036. 10104.9   1
  -2   4   0 583822. 10120.3   4
  -2   4   0 483434. 10325.8  10
  -2  -2   0 452955. 9550.27   1
   2   2   0 537757. 9312.98   9
   2   2   0 535607. 9867.31   4
  -2   4   0 551464. 9546.54   1
   2   2   0 521296. 9953.35   8
   2  -4   0 512134. 10041.4   7
  -2   4   0 457278. 10228.2  15
  -4   2   0 466463. 9269.89  14
  -4   2   0 517665. 9374.01   6
  -2  -2   0 564472. 10214.7   6
   2  -4   3 9724.88 664.644  13
  -2  -2   3 11732.0 771.920  13
  -2   4   3 11639.4 869.364  15
   2   2   3 11142.7 529.415  12
  -2  -2   3 12163.9 789.498   1
   2   2   3 11816.9 539.735  15
  -2   4   3 12137.7 754.219   4
  -4   2   3 11269.6 508.861  15
  -4   2   3 11255.2 539.160   3
  -2   4   3 11913.4 944.665  10
   2   2   3 10489.6 548.836   4
   2   2   3 11397.5 484.999   9
  -4   2   3 12210.5 753.138   1
   2   2   3 11614.2 752.896   8
  -2  -2   3 11687.0 723.055   6
   2  -4   3 11806.7 786.727   7
   4  -2   3 11176.4 626.902   2
  -2  -2   6 537054. 10405.2  13
  -2  -2   6 608982. 10908.6   1
  -4   2   6 521161. 9923.90  10
   4  -2   6 473825. 9868.86   2
  -2   4   6 666579. 11887.5  10
  -4   2   6 474540. 9886.75   1
  -2   4   6 574596. 10644.6  15
   2  -4   6 507127. 10015.6   9
   2   2   6 530862. 9852.85   9
   2   2   6 524646. 9586.82   4
   2   2   6 549052. 10422.0   8
  -2   4   6 488290. 10039.5   3
   2  -4   6 542540. 10546.1   7
  -4   2   6 569255. 10155.9   3
   2   2   6 516944. 10051.3  12
  -2  -2   9 7931.87 657.395  13
   2   2   9 6454.67 566.491  12
   4  -2   9 8606.11 977.988  12
  -4   2   9 5535.08 457.290   1
   2   2   9 6931.49 606.281  11
   4  -2   9 6870.22 427.044   2
  -4   2   9 5621.77 387.987  10
  -2   4   9 7362.33 722.271  10
   4  -2   9 5530.68 471.686   9
   2  -4   9 7142.25 613.259   9
  -2   4   9 6966.04 572.136  15
   2   2   9 6008.02 461.826   9
  -2  -2   9 7172.03 713.087   7
   2   2   9 6685.34 578.600   8
   2   2   9 7197.19 525.889   3
   2  -4   9 6622.27 596.950   7
  -2   4   9 6181.32 526.734   3
  -4   2   9 7692.52 639.759   3
  -2  -2   9 6190.25 646.589   1
   4  -2  12 467496. 9964.27  12
  -2  -2  12 441895. 8219.20  13
  -4   2  12 413135. 8153.93   1
   2   2  12 363062. 8244.84  12
   2   2  12 368506. 7983.77  11
  -2   4  12 418311. 8377.22  10
  -2   4  12 346988. 7976.44  12
   4  -2  12 347356. 7750.65   9
   2  -4  12 439431. 8662.32   9
   2   2  12 380719. 7794.90   9
  -2  -2  12 390434. 8287.85   7
   2   2  12 380187. 7746.20   3
   2  -4  12 396926. 7932.32   7
  -4   2  12 380255. 7469.83  10
  -2   4  12 362228. 7963.24   3
  -4   2  12 410972. 8184.38   3
  -2   4  15 2816.68 458.953   3
  -2   4  15 2756.23 426.323  12
   2  -4  15 3007.20 416.680  12
   2   2  15 3065.45 550.397  12
  -4   2  15 3328.37 467.458   3
   2   2  15 2845.73 327.814  11
   4  -2  15 2627.25 372.494   9
   2   2  15 2855.71 409.998   9
   2  -4  15 3501.95 545.917   9
   4  -2  15 3071.01 401.726   8
   2  -4  15 3353.60 394.483   7
   2   2  15 3232.36 414.851   3
  -2  -2  15 4182.15 528.081   7
   4  -2  15 2742.72 633.939  12
  -4   2  18 266492. 6217.70   3
   4  -2  18 302395. 7659.83  12
  -2   4  18 268278. 6109.64  12
   2   2  18 277727. 6829.05  12
  -2  -2  18 247415. 5770.57   3
   2  -4  18 273206. 6219.13  12
   2  -4  18 320982. 6116.82   3
   4  -2  18 248000. 5966.08   9
   2  -4  18 259858. 6360.58   9
   2  -4  18 295101. 5856.82   7
   2   2  18 259411. 5978.17   3
  -2   4  18 263398. 6458.26   3
  -1  -3 -19 1391.67 369.174  14
   1  -4 -19 850.052 370.400  14
  -4   3 -19 2214.95 432.993  14
  -3   4 -19 1079.20 302.479  14
   3   1 -19 1307.16 351.282  14
  -3   4 -19 1264.44 358.708   5
  -4   3 -19 1685.72 447.599   5
  -1  -3 -19 1054.94 291.724   5
   4  -1 -19 1198.62 240.073   5
   1  -4 -19 1663.60 373.604   5
   3   1 -19 1015.11 225.703   4
  -4   3 -19 1187.50 283.526   1
  -4   3 -16 276455. 6472.46   5
  -1  -3 -16 244810. 5852.30   5
   4  -1 -16 299255. 5830.41   5
   1  -4 -16 274241. 6244.85   5
   4  -1 -16 264116. 5681.98   2
  -3   4 -16 299858. 5927.18   4
  -3   4 -16 288420. 6415.72   5
   3   1 -16 279529. 5941.03   4
   4  -1 -16 294147. 5795.36   4
  -4   3 -16 249400. 5911.89   1
   3   1 -16 285457. 6382.13  14
  -1  -3 -16 271618. 6326.73  14
   1  -4 -16 315898. 7063.38  14
  -4   3 -16 289580. 6293.11  14
  -3   4 -16 281032. 6059.15  14
   4  -1 -16 304400. 6208.59  14
  -4   3 -13 2314.23 383.533  14
  -3   4 -13 2240.67 349.410  14
   3   1 -13 2498.26 384.005  14
   3   1 -13 2694.58 260.995   5
   4  -1 -13 2823.64 303.022   5
  -3   4 -13 2168.62 382.291   5
  -4   3 -13 2118.75 420.090   5
   4  -1 -13 2066.63 287.950   2
  -1  -3 -13 1729.39 279.150   5
   1  -4 -13 2053.45 338.109   5
  -3   4 -13 2373.74 322.422   4
   1  -4 -13 2399.93 422.933  14
  -4   3 -13 2030.74 318.340   1
   3   1 -13 2006.58 287.439   4
  -1  -3 -13 2303.06 361.430  14
   4  -1 -13 2255.97 319.660  14
   4  -1 -10 474218. 8768.87  14
   1  -4 -10 474136. 8736.40  13
   3   1 -10 480870. 8506.37   5
  -1  -3 -10 452127. 8826.11   5
   4  -1 -10 476721. 9094.38   2
  -3   4 -10 481913. 9116.96   4
  -4   3 -10 495010. 9282.72   1
  -1  -3 -10 427979. 9026.00  14
   3   1 -10 446240. 8885.23   4
   1  -4 -10 458377. 8713.48   2
   3   1 -10 449251. 8977.68  14
  -4   3 -10 469620. 9132.23  14
   1  -4 -10 449937. 9144.92  14
  -3   4 -10 476776. 8982.56  14
   1  -4  -7 5159.09 460.156  13
   3   1  -7 5353.79 257.914   5
  -1  -3  -7 4218.48 327.145   5
   3   1  -7 3820.78 339.221   2
  -4   3  -7 4700.13 502.848   1
   4  -1  -7 5532.98 537.127   2
  -3   4  -7 4238.13 420.926   4
  -1  -3  -7 4267.93 271.674   1
   1  -4  -7 4192.94 373.618   2
   3   1  -7 5379.69 314.075   8
  -3   4  -7 4670.48 416.257  14
   1  -4  -7 5766.50 403.795   7
   3   1  -7 4741.32 388.752  14
   1  -4  -7 4517.08 432.021   6
  -4   3  -7 5038.61 447.418  14
   3   1  -4 418182. 8769.16   5
  -1  -3  -4 437766. 9028.99   5
   3   1  -4 430349. 9256.85   2
  -4   3  -4 502703. 10275.9   1
  -3   4  -4 519802. 9690.24   4
  -1  -3  -4 500826. 9251.06   1
   1  -4  -4 488826. 9765.34  13
   1  -4  -4 555492. 9742.64   7
   4  -1  -4 494950. 9867.44   2
  -4   3  -4 520752. 9304.51  14
   1  -4  -4 548802. 10289.1   6
  -3   4  -4 503954. 9988.15  14
  -1  -3  -4 448286. 9745.91   6
  -4   3  -1 6825.80 575.781   1
   1  -4  -1 7259.88 584.033  13
  -1  -3  -1 7839.41 743.630  13
   3   1  -1 5931.90 420.530   2
  -1  -3  -1 5831.61 238.592   5
   3   1  -1 7296.51 284.108  12
  -1  -3  -1 5955.91 440.104   1
   4  -1  -1 6871.26 559.278   2
  -3   4  -1 7412.91 589.302   4
  -3   4  -1 6220.05 514.720   1
  -3   4  -1 7815.58 708.213  15
  -1  -3  -1 8212.87 707.910   6
   1  -4  -1 7451.44 570.656   7
   1  -4  -1 6124.29 592.254   6
  -4   3  -1 6765.50 283.952  14
  -4   3  -1 6108.54 250.196   6
   1  -4   2 497352. 10204.2  13
  -3   4   2 501475. 9690.15   1
  -1  -3   2 588041. 11015.7  13
   4  -1   2 490936. 10048.1   2
  -3   4   2 567506. 11316.2  10
   1  -4   2 478882. 9438.05   9
   3   1   2 559494. 10508.5   8
  -4   3   2 479899. 9776.33   3
  -1  -3   2 655856. 10722.9   1
   1  -4   2 520517. 10329.4   7
  -4   3   2 519354. 10090.4   1
  -3   4   2 543295. 10564.0  15
  -4   3   2 527872. 10070.2  15
   3   1   2 543360. 9771.40  12
  -1  -3   2 570926. 10464.2   6
   1  -4   5 5460.97 544.073  13
  -1  -3   5 5727.94 603.714   1
  -1  -3   5 6321.05 666.021  13
   3   1   5 6117.70 465.016  12
   4  -1   5 5145.11 472.899  12
  -3   4   5 5563.62 328.834   1
  -4   3   5 4733.42 447.268  10
  -3   4   5 6657.96 781.088  10
   4  -1   5 5884.72 464.495   2
  -4   3   5 4653.02 389.021   1
   3   1   5 5052.03 478.713   9
   1  -4   5 5732.01 367.793   9
   3   1   5 6411.50 667.129   8
  -3   4   5 5999.00 486.801   3
   1  -4   5 6322.99 603.341   7
  -4   3   5 5350.68 433.151   3
  -1  -3   5 7413.05 765.971   7
  -3   4   5 6331.38 618.155  15
  -4   3   5 5038.41 430.915  15
  -4   3   8 449995. 8534.17  15
   1  -4   8 431240. 8814.28  13
  -1  -3   8 469040. 8978.51  13
  -4   3   8 452355. 8703.99   3
   3   1   8 412798. 8574.60  12
   4  -1   8 372709. 8623.02  12
   4  -1   8 377392. 7815.05   2
  -4   3   8 400413. 8170.17   1
  -4   3   8 420406. 8397.16  10
  -3   4   8 529780. 9651.81  10
  -3   4   8 455260. 8570.19  15
   4  -1   8 421026. 8498.09   9
   3   1   8 451494. 7791.44   4
   3   1   8 447708. 8549.63   9
   1  -4   8 457856. 8413.04   9
   3   1   8 404496. 8766.60   8
  -3   4   8 415069. 8425.24   3
   1  -4   8 422192. 8820.27   7
  -1  -3   8 458906. 9210.94   7
  -3   4  11 2488.81 405.093   3
  -1  -3  11 3060.38 466.413  13
  -4   3  11 3351.83 424.411   1
   3   1  11 2442.64 420.109  12
   3   1  11 2942.39 379.719  11
  -4   3  11 2715.15 316.730  10
   4  -1  11 3192.68 541.903  12
  -3   4  11 3261.37 435.386  15
  -3   4  11 2596.28 407.260  10
   4  -1  11 3027.55 431.022   9
   3   1  11 2749.50 372.557   9
   1  -4  11 2713.32 386.815   9
   4  -1  11 2534.47 439.356   8
   3   1  11 2740.70 418.189   8
   3   1  11 3542.48 371.732   3
  -1  -3  11 3366.76 504.014   7
   1  -4  11 2729.76 431.333   7
  -4   3  11 3396.86 486.587   3
  -1  -3  14 416014. 7944.71  13
  -4   3  14 397271. 8195.95   3
   4  -1  14 403057. 9299.83  12
   1  -4  14 354556. 7326.07  12
   3   1  14 314829. 6710.98  11
  -3   4  14 338094. 7161.56  10
  -4   3  14 330206. 6863.74  10
   4  -1  14 341762. 7513.07   9
   3   1  14 333419. 7288.58   9
   1  -4  14 349792. 7605.91   9
   4  -1  14 324188. 7556.43   8
   3   1  14 334695. 7320.92   8
   3   1  14 377780. 7085.13   3
   1  -4  14 351882. 7546.62   7
  -1  -3  14 359187. 7725.50   7
  -3   4  14 327806. 7553.16   3
   3   1  14 341791. 8146.07  12
  -3   4  17 1346.16 364.669   3
  -4   3  17 2167.16 470.452   3
   1  -4  17 1267.84 295.602   7
   3   1  17 1624.80 534.854  12
   4  -1  17 1464.97 534.536  12
  -1  -3  17 1464.60 369.685   7
   4  -1  17 1363.74 345.087   9
   3   1  17 1188.87 299.772   9
  -4   3  20 232393. 5920.71   3
   3   1  20 240106. 6419.93  12
   4  -1  20 258426. 7272.79  12
   4  -1  20 222774. 5587.27   9
   3   1  20 210300. 5434.09   9
  -1  -3  20 220333. 5001.76   3
   1  -4  20 238337. 5042.93   3
  -3   4  20 223460. 5945.94   3
   0  -4 -20 207072. 5277.47  14
   0  -4 -17 143.663 222.189  14
  -4   4 -17-9.38664 180.798  14
   0  -4 -17 154.141 158.582   5
   4   0 -17 35.2887 152.130  14
   4   0 -17 89.7307 118.735   4
   0  -4 -14 309815. 6672.64   5
   4   0 -14 316668. 6400.80   2
  -4   4 -14 339772. 6481.25   4
   4   0 -14 319883. 6489.41   4
  -4   4 -14 310269. 6707.65   1
   4   0 -14 332280. 6661.11  14
   0  -4 -14 294377. 6790.38  14
  -4   4 -14 337766. 6774.36  14
  -4   4 -11 126.485 171.932  14
   0  -4 -11 26.5801 91.2907  13
   4   0 -11-1.47590 84.5407   5
   0  -4 -11 54.4938 116.613   5
  -4   4 -11 242.077 141.604   4
   4   0 -11 210.638 129.778   2
   4   0 -11 63.5305 118.890  14
   0  -4 -11 206.593 158.311  14
   0  -4  -8 414535. 8314.82  13
   4   0  -8 434499. 7854.71   5
   4   0  -8 429637. 8230.79   2
  -4   4  -8 441576. 8398.46   4
   0  -4  -8 430410. 8486.66   6
  -4   4  -8 430455. 8473.38   1
   0  -4  -8 435995. 8161.41   2
   0  -4  -8 435727. 7967.99   7
  -4   4  -8 453942. 8239.88  14
  -4   4  -5 116.536 127.562  14
   0  -4  -5 111.345 197.219   6
   0  -4  -5-70.3500 160.666  13
  -4   4  -5 78.9343 147.659   4
   4   0  -5 159.066 148.919   2
   0  -4  -5 166.425 99.5007   7
   0  -4  -2 622389. 11244.4  13
  -4   4  -2 431707. 10120.5   1
   4   0  -2 541110. 9353.38  12
   4   0  -2 504662. 9744.41   2
   0  -4  -2 478091. 9874.40   7
   0  -4  -2 559331. 10757.3   6
  -4   4  -2 561092. 9637.16  14
   0  -4   1 201.605 225.656   6
  -4   4   1-10.4872 128.050   1
   0  -4   1-52.9875 267.828  13
   4   0   1 108.022 84.5136  12
  -4   4   1-98.0065 189.868  15
   4   0   1 97.0330 95.4706   2
   0  -4   1 151.321 191.869   7
   0  -4   4 447725. 9211.59  13
   4   0   4 379833. 8186.44   2
   4   0   4 439117. 8433.71  12
  -4   4   4 397564. 8813.63  10
  -4   4   4 505314. 8632.89   1
  -4   4   4 524553. 8943.05   3
   0  -4   4 444503. 9188.61   7
  -4   4   4 466848. 9104.19  15
   4   0   7 70.1511 136.262  12
  -4   4   7 122.676 149.640  10
   0  -4   7 78.0869 219.936  13
   4   0   7 202.711 185.896   9
   0  -4   7 23.2431 214.118   7
  -4   4   7 5.98211 146.780  15
  -4   4   7 159.839 129.891   1
   0  -4  10 434386. 8858.22  13
  -4   4  10 386340. 8224.30  15
   4   0  10 403380. 8593.50  12
   4   0  10 446083. 8828.29   9
   4   0  10 429022. 9185.70   8
  -4   4  10 396352. 8230.99  10
   0  -4  10 404846. 8744.72   7
  -4   4  10 402331. 8390.32   3
   4   0  13 301.140 286.574  12
   4   0  13 114.709 105.996  11
  -4   4  13 4.59564 123.335  10
   4   0  13 396.555 181.849   9
   4   0  13-49.2466 206.752   8
  -4   4  13-132.794 228.219   3
   0  -4  13-54.5612 217.927   7
   4   0  16 290803. 7625.27  12
  -4   4  16 259073. 5607.43  10
   4   0  16 253594. 6188.28   9
   4   0  16 258216. 6099.27   8
   0  -4  16 282223. 6506.11   7
  -4   4  16 267075. 6552.52   3
  -4   4  19-97.7272 294.450   3
   0  -4  19 288.702 174.194   3
   4   0  19 92.8838 243.929  12
   4   0  19 10.0592 156.579   9
  -5   0 -17 353.821 202.708   1
  -5   0 -17 5.59662 197.775   5
   5  -5 -17-114.493 188.682   5
   0   5 -17 142.681 182.404  14
  -5   0 -17-71.5631 242.340  14
   0   5 -14 257621. 5617.82  14
   5  -5 -14 277016. 6423.79   2
  -5   0 -14 227976. 5391.36   5
   0   5 -14 224547. 6072.54   4
  -5   0 -14 283998. 6359.03  14
  -5   0 -14 233056. 5534.44   1
  -5   0 -11 80.2134 148.698   1
   0   5 -11 188.667 182.186  14
   5  -5 -11 93.2703 217.919   2
   0   5 -11 297.039 296.364   4
  -5   0 -11 54.6875 239.795  14
  -5   0  -8 389390. 8219.36   6
   0   5  -8 391392. 8581.95   4
   5  -5  -8 387363. 8762.77   2
  -5   0  -8 422358. 8459.64  14
  -5   0  -8 412578. 8203.15   1
  -5   0  -5 262.451 220.730   6
   0   5  -5 106.765 165.526  11
   0   5  -5 204.581 166.170  10
   0   5  -5 18.0282 125.610  15
   0   5  -5-104.230 160.741   4
  -5   0  -5 4.29403 139.281   1
   5  -5  -5 220.829 280.404   2
   0   5  -2 325540. 6824.96  11
   0   5  -2 308791. 6630.35   4
   0   5  -2 333187. 6435.94  10
   5  -5  -2 336681. 7214.48   2
  -5   0  -2 332826. 6830.45   6
  -5   0   1 87.6492 171.480   6
  -5   0   1-45.7893 130.386   1
   0   5   1 139.292 193.405  11
   0   5   1 15.7432 138.788  10
   0   5   1 84.9710 134.516   4
   0   5   1-86.5983 225.010  15
   5  -5   1 178.259 164.206   2
   0   5   4 459189. 9631.25  11
   0   5   4 527338. 9426.10   4
  -5   0   4 504111. 9450.72   1
   0   5   4 455186. 9436.46  10
   0   5   4 533065. 10124.7  15
   5  -5   4 455567. 9156.21   2
  -5   0   4 451360. 9095.34   6
  -5   0   4 521816. 8804.12   3
  -5   0   7 129.864 99.7056   3
  -5   0   7 1.47345 99.1639  13
  -5   0   7 89.5135 167.215   1
   0   5   7 144.734 173.368  11
   0   5   7 91.6909 148.534  10
   0   5   7 151.213 174.149  15
   5  -5   7 12.4109 95.8523   2
   0   5  10 298348. 6307.45  12
  -5   0  10 289342. 6161.54   1
   0   5  10 289316. 6468.03  11
   5  -5  10 272336. 6075.28   9
   0   5  10 294321. 6391.71  15
  -5   0  10 290063. 5809.80   3
   0   5  13 160.502 158.579  12
   5  -5  13 360.714 224.186  12
   0   5  13 188.270 163.600  11
   5  -5  13 201.154 118.738   9
  -5   0  13 76.3652 107.470   3
  -5   0  13 16.8164 147.941   1
  -5   0  16 197143. 4615.18   3
   0   5  16 247376. 5409.06  12
   5  -5  16 244492. 5175.33  12
   5  -5  16 214465. 4872.75   9
   0   5  16 231199. 5101.27   3
  -5   1 -18 215830. 5201.01   5
  -5   1 -18 198619. 4844.91   1
   4  -5 -18 227623. 5027.35   5
   5  -4 -18 224973. 4814.97   5
  -1   5 -18 179448. 5165.74   4
   1   4 -18 199954. 5702.70   4
  -4  -1 -18 184604. 4864.83   5
  -4  -1 -18 225002. 5488.13  14
  -5   1 -18 223342. 5875.38  14
  -1   5 -18 224937. 5000.72  14
   1   4 -18 223557. 5111.75  14
  -4  -1 -15 799.353 280.702  14
  -1   5 -15 1370.12 315.665  14
   1   4 -15 869.799 298.874  14
  -4  -1 -15 862.817 249.906   1
  -5   1 -15 788.443 324.281   5
  -4  -1 -15 503.856 252.102   5
  -5   1 -15 488.683 359.952  14
  -5   1 -15 777.153 261.883   1
  -1   5 -15 802.635 305.754   4
   1   4 -15 895.105 380.697   4
   5  -4 -15 914.531 316.497   2
   4  -5 -15 739.022 247.888   2
  -5   1 -12 312005. 6501.53   5
  -4  -1 -12 266429. 6238.77   5
  -5   1 -12 285850. 6484.17   1
   5  -4 -12 281445. 6813.09   2
  -1   5 -12 272823. 6801.18   4
   4  -5 -12 338658. 6922.35   2
   1   4 -12 291333. 6926.35   4
  -5   1 -12 286188. 6817.65  14
   1   4 -12 301988. 6405.21  14
  -4  -1 -12 295268. 6175.14   1
  -4  -1 -12 296937. 6513.53  14
  -1   5 -12 304236. 6394.93  14
  -1   5  -9 1558.62 330.654  14
   1   4  -9 1465.62 287.248  14
  -5   1  -9 1297.42 327.241  14
  -4  -1  -9 1653.99 364.465   5
  -5   1  -9 1333.07 306.482   1
  -4  -1  -9 1229.29 269.945  14
  -1   5  -9 2256.08 353.849  10
  -1   5  -9 1302.31 344.035   4
   1   4  -9 1449.47 366.986   4
  -4  -1  -9 1744.58 280.309   1
   5  -4  -9 1525.39 386.313   2
   4  -5  -9 1584.55 370.771   2
  -1   5  -6 364146. 8424.75  14
  -5   1  -6 401842. 8500.46   6
  -1   5  -6 475846. 8701.21  10
  -1   5  -6 394297. 8811.06   4
   5  -4  -6 434694. 8954.94   2
   1   4  -6 406304. 8636.23   4
   4  -5  -6 416380. 8954.19   2
  -5   1  -6 416364. 8614.39  14
  -4  -1  -6 432966. 8257.48   1
   1   4  -6 407055. 8129.32  15
  -1   5  -6 455478. 8299.40  11
  -5   1  -6 441869. 8622.41   1
  -4  -1  -6 419325. 8543.65   6
  -4  -1  -3 2946.87 475.998   6
  -5   1  -3 2763.11 419.171   6
   1   4  -3 2783.61 385.356  11
  -1   5  -3 2760.32 392.808  10
   5  -4  -3 2292.45 408.146   2
   1   4  -3 2818.01 281.928  10
  -1   5  -3 2323.06 395.969   4
  -4  -1  -3 2287.35 306.204   1
   1   4  -3 1949.34 338.643   4
   1   4  -3 2248.40 284.504  15
  -5   1  -3 2332.72 352.750   1
  -1   5  -3 2501.26 342.354  11
   4  -5  -3 2084.56 445.248   2
   1   4   0 426161. 8484.41  11
  -1   5   0 391005. 8302.04  11
  -1   5   0 432914. 8599.19   4
  -1   5   0 422247. 8677.72  10
   1   4   0 408044. 8215.97   4
   1   4   0 431598. 8029.08  10
   5  -4   0 439654. 8716.26   2
  -4  -1   0 393867. 8085.16   1
   1   4   0 390085. 8179.74  15
   4  -5   0 383821. 8178.66   2
  -5   1   0 448265. 8718.13   1
   4  -5   0 406690. 8143.59   7
  -1   5   0 393647. 9105.44  15
  -5   1   0 454076. 8295.04   6
  -4  -1   0 455687. 8651.39   6
   1   4   3 2982.02 370.652  15
   1   4   3 2745.89 405.961  11
  -1   5   3 2702.46 388.020  11
  -1   5   3 2612.97 363.710   4
  -4  -1   3 2860.94 365.417   1
  -1   5   3 3230.40 464.953  10
   1   4   3 2526.93 299.871   4
   1   4   3 2588.48 321.018  10
   5  -4   3 2861.96 383.282   2
  -5   1   3 2492.82 371.430   1
   4  -5   3 1903.03 268.671   2
   4  -5   3 3360.53 353.533   7
  -5   1   3 2601.77 214.481   3
  -5   1   3 2657.30 282.729   6
  -4  -1   3 2849.29 366.927   6
  -1   5   3 3998.22 610.490  15
  -4  -1   6 408289. 8475.16  13
   1   4   6 426956. 8523.37  12
   1   4   6 433080. 8655.19  15
  -4  -1   6 457255. 8754.45   1
   1   4   6 442671. 9106.20  11
  -1   5   6 458950. 8553.32   4
  -1   5   6 392847. 8847.21  11
   1   4   6 528530. 8680.29   4
  -5   1   6 448261. 8692.70   1
  -1   5   6 424636. 9097.15  10
   5  -4   6 445123. 8506.86   2
   4  -5   6 391104. 8478.83   9
   4  -5   6 422017. 8429.54   2
   4  -5   6 457316. 8692.50   7
  -1   5   6 467221. 9329.17  15
  -5   1   6 474888. 8283.30   3
  -4  -1   9 1715.72 251.657  13
  -4  -1   9 2220.89 343.197   1
   1   4   9 1849.36 289.888  12
  -5   1   9 2757.44 342.169   1
   1   4   9 1670.54 343.006  11
  -1   5   9 1888.15 355.288  11
  -1   5   9 2305.65 391.940  10
   5  -4   9 2135.60 246.756   2
   4  -5   9 2046.13 285.678   9
   5  -4   9 2029.96 318.093   9
   4  -5   9 1880.32 247.880   2
   4  -5   9 1945.05 307.715   7
  -1   5   9 2293.38 377.511  15
  -5   1   9 1937.29 242.937   3
  -4  -1  12 284161. 6352.63   1
  -5   1  12 284079. 6206.14   1
   1   4  12 302949. 6401.45  12
   5  -4  12 307795. 6469.86  12
   1   4  12 283507. 6431.76  11
  -1   5  12 314676. 6680.56  10
  -5   1  12 298040. 6038.75   3
   5  -4  12 299841. 6296.71   9
   4  -5  12 278953. 6123.16   9
   4  -5  12 342395. 5999.08   2
   4  -5  12 337121. 6371.50   7
  -1   5  12 307956. 6415.11   3
  -4  -1  12 272251. 5928.12   3
  -5   1  15 955.742 221.362   3
  -4  -1  15 1188.27 229.313   3
  -1   5  15 1332.05 331.955  12
   1   4  15 1374.65 316.675  12
   5  -4  15 1135.73 302.458  12
   4  -5  15 1507.43 296.062  12
   1   4  15 1599.80 322.500  11
   5  -4  15 1093.83 247.083   9
   4  -5  15 941.816 220.463   9
   4  -5  15 1210.99 276.134   7
   1   4  15 1174.02 281.485   3
  -1   5  15 1660.14 343.825   3
  -1   5  18 232440. 5180.00  12
   1   4  18 233097. 5306.34  12
   5  -4  18 234402. 5192.75  12
   4  -5  18 212379. 4809.66  12
  -5   1  18 202290. 4647.66   3
   5  -4  18 211767. 4746.84   9
   4  -5  18 188247. 4624.02   9
   1   4  18 205928. 4865.91   3
  -1   5  18 225659. 5141.17   3
  -4  -1  18 194601. 4523.11   3
  -3  -2 -19 58.0427 177.565   5
   5  -3 -19 190.211 145.838   5
   2   3 -19 305.021 151.828   4
  -5   2 -16 278555. 6058.95   5
  -3  -2 -16 232192. 5411.61   5
   3  -5 -16 252909. 5713.93   5
   5  -3 -16 241045. 5234.84   5
  -5   2 -16 263020. 5623.18   1
   5  -3 -16 238425. 5497.09   2
  -2   5 -16 271310. 5663.50  14
  -5   2 -16 250273. 6093.83  14
  -2   5 -16 232214. 5755.75   4
   2   3 -16 218098. 5564.45   4
  -3  -2 -16 258414. 5831.18  14
   2   3 -16 268221. 5790.06  14
  -5   2 -13 940.975 400.876  14
  -2   5 -13 550.025 249.786  14
   2   3 -13 400.393 231.619  14
  -5   2 -13 341.505 247.242   5
  -3  -2 -13 208.598 184.904   5
  -3  -2 -13 278.738 220.024  14
  -2   5 -13 404.943 246.494   4
   2   3 -13 423.430 216.970   4
   5  -3 -13 400.024 272.828   2
  -5   2 -13 156.062 162.730   1
   3  -5 -13 420.033 191.877   2
  -3  -2 -13 567.590 193.368   1
  -3  -2 -10 311900. 6655.93   5
  -5   2 -10 333830. 7250.61  14
  -5   2 -10 343254. 7262.76   1
   5  -3 -10 297196. 7165.33   2
  -2   5 -10 335325. 7376.65   4
   3  -5 -10 341295. 6957.31   2
  -3  -2 -10 349955. 6555.93   1
   2   3 -10 317828. 7132.86   4
  -3  -2 -10 320860. 6873.02  14
  -2   5 -10 342588. 7000.97  14
   2   3 -10 337057. 6842.39  14
  -5   2  -7 414.612 196.810  14
  -3  -2  -7 608.727 234.973   6
  -2   5  -7 955.404 255.363  14
   5  -3  -7 410.956 241.833   2
  -3  -2  -7 839.232 280.782   5
  -5   2  -7 413.491 245.620   1
  -3  -2  -7 393.877 147.697   1
  -2   5  -7 689.659 277.241   4
   2   3  -7 469.751 230.983   4
   3  -5  -7 678.510 282.596   2
  -2   5  -4 517875. 10614.7  10
  -2   5  -4 485037. 10171.2   4
   5  -3  -4 504295. 10293.6   2
   2   3  -4 519661. 10226.9   4
  -3  -2  -4 558734. 9766.10   1
   3  -5  -4 458963. 9687.30   7
   2   3  -4 512355. 9439.34  15
  -5   2  -4 483342. 9784.44  14
  -5   2  -4 464937. 10138.1   1
  -3  -2  -4 504195. 10225.2   6
  -5   2  -4 548066. 10136.0   6
  -2   5  -4 536539. 11023.4  14
  -3  -2  -1 556.196 281.129   6
  -5   2  -1 782.627 189.659   6
   3  -5  -1 601.477 179.455   7
   3  -5  -1 639.068 218.681   2
  -3  -2  -1 626.649 173.815   1
  -2   5  -1 943.629 346.430  15
  -2   5  -1 525.438 263.195  10
  -2   5  -1 996.514 261.369   4
   2   3  -1 690.084 138.519  15
   2   3  -1 635.618 204.834   4
  -5   2  -1 907.416 324.273   1
  -5   2  -1 583.744 159.078  14
  -5   2  -1 631.682 132.467  15
   5  -3  -1 825.460 299.025   2
  -3  -2   2 375821. 7767.63  13
   2   3   2 423817. 7490.53  12
  -2   5   2 379486. 7803.90   4
  -3  -2   2 386854. 7666.22   1
   2   3   2 374057. 7260.87  15
  -2   5   2 366633. 8433.58  10
   5  -3   2 387620. 7937.82   2
   2   3   2 381249. 7564.09   4
  -5   2   2 439201. 8270.44   1
   2   3   2 397693. 7967.07   8
   3  -5   2 371750. 7742.55   7
  -2   5   2 352354. 8458.33  15
  -5   2   2 399462. 7239.81   6
  -3  -2   2 406510. 8003.90   6
  -5   2   5 719.919 192.496   3
  -3  -2   5 810.492 238.095  13
  -5   2   5 659.290 190.584   1
   2   3   5 621.651 161.427  12
   2   3   5 591.333 244.490  11
  -2   5   5 762.071 334.189  15
  -3  -2   5 620.669 212.602   6
  -5   2   5 915.586 184.791  10
  -2   5   5 491.716 317.363  10
  -2   5   5 570.586 200.626   4
   3  -5   5 408.299 142.736   9
   2   3   5 499.059 139.016   4
   3  -5   5 454.630 198.789   7
   2   3   5 519.607 130.131  15
   5  -3   5 615.583 201.515   2
  -3  -2   5 603.702 217.515   1
  -3  -2   8 415877. 8622.59  13
  -3  -2   8 431346. 8895.04   1
   2   3   8 428619. 8551.76  12
   2   3   8 420249. 8972.00  11
  -5   2   8 409650. 8475.95   1
   5  -3   8 436044. 8498.56   2
  -5   2   8 461680. 8266.38  10
  -2   5   8 477938. 9673.05  10
   5  -3   8 429064. 8704.84   9
   3  -5   8 418259. 8443.07   9
   2   3   8 468714. 8383.02   9
  -5   2   8 485806. 8622.98   3
  -2   5   8 423587. 8635.71   3
   3  -5   8 429556. 8752.60   7
  -2   5   8 459520. 9054.28  15
  -5   2  11 215.202 153.103   3
  -3  -2  11 1161.18 241.208  13
   2   3  11 212.361 168.534  12
   5  -3  11 1105.39 390.722  12
   2   3  11 317.192 189.744  11
  -2   5  11 340.999 265.669  10
   5  -3  11 597.097 205.155   9
   3  -5  11 235.697 132.247   9
  -3  -2  11 286.503 187.782   7
   3  -5  11 219.107 180.240   7
  -5   2  11 203.250 130.838   1
  -2   5  11 316.368 193.142  15
  -2   5  11 503.081 247.881   3
   2   3  14 267344. 6372.72  12
   5  -3  14 334453. 7211.43  12
   3  -5  14 279912. 6053.12  12
   2   3  14 277951. 6255.31  11
  -5   2  14 272673. 6193.24   1
  -2   5  14 341387. 6891.18  10
   5  -3  14 289603. 6244.66   9
   3  -5  14 278368. 6162.01   9
   2   3  14 312694. 6290.53   3
   3  -5  14 327572. 6401.33   7
  -2   5  14 293939. 6485.16   3
  -3  -2  14 307097. 6587.81   7
  -5   2  14 305056. 6282.70   3
  -5   2  17 229.487 161.072   3
  -3  -2  17 166.811 162.689   3
   2   3  17 117.921 214.721  12
   5  -3  17-53.2267 335.853  12
   3  -5  17 63.8478 136.664  12
   2   3  17 64.8401 90.2628  11
   3  -5  17 81.3515 126.446   7
   5  -3  17 61.4043 137.915   9
   3  -5  17 163.202 171.712   9
   2   3  17 262.067 178.832   3
  -2   5  17 324.493 252.048   3
  -2  -3 -17 215.930 218.524  14
  -5   3 -17 260.710 276.804  14
  -3   5 -17 214.010 214.020  14
   3   2 -17 43.3927 162.643  14
  -2  -3 -17 175.023 200.957   5
   5  -2 -17 113.500 132.014   5
   2  -5 -17 172.805 194.386   5
  -5   3 -17 188.497 177.113   1
  -3   5 -17 488.638 187.846   4
   3   2 -17 33.9207 134.082   4
   5  -2 -17 213.043 144.412   2
  -2  -3 -14 265548. 5855.49   5
   2  -5 -14 262952. 6349.54   5
   5  -2 -14 299707. 5926.21   5
   5  -2 -14 292340. 6097.18   2
  -5   3 -14 284647. 6138.08   1
  -3   5 -14 290039. 6227.03   4
   3   2 -14 298692. 6247.03  14
   3   2 -14 280457. 5993.92   4
  -2  -3 -14 287671. 6343.56  14
  -5   3 -14 297294. 6449.15  14
  -3   5 -14 292684. 6125.63  14
   2  -5 -11 494.442 252.955  14
  -5   3 -11 221.489 218.508  14
  -3   5 -11 49.8739 176.729  14
   2  -5 -11 515.577 188.788   6
  -5   3 -11 245.513 204.197   1
   2  -5 -11 137.174 117.606   2
  -2  -3 -11 365.935 140.462   5
   3   2 -11 366.330 196.720  14
  -3   5 -11 303.811 202.217   4
  -2  -3 -11 150.186 135.717  14
   3   2 -11 321.759 165.942   4
   5  -2 -11 244.139 189.855   2
   2  -5  -8 479322. 8713.75  13
  -2  -3  -8 400969. 8252.71   5
  -5   3  -8 470215. 9241.84   1
   2  -5  -8 465097. 8874.53   6
   5  -2  -8 437943. 9279.08   2
  -3   5  -8 449165. 8876.00   4
   3   2  -8 413629. 8583.24   4
   2  -5  -8 410763. 8640.29   2
  -2  -3  -8 493697. 8317.61   1
   2  -5  -8 446272. 8598.82  14
  -5   3  -8 412946. 8751.20  14
  -3   5  -8 458251. 8829.61  14
  -2  -3  -8 436648. 8827.23   6
  -5   3  -5 1015.17 217.223  14
   2  -5  -5 328.247 250.471   6
  -2  -3  -5 687.259 219.007   6
  -3   5  -5 1046.57 336.621  14
   2  -5  -5 467.224 198.262   2
   2  -5  -5 492.313 204.046  13
  -2  -3  -5 646.725 142.726   1
  -2  -3  -5 547.317 145.187   5
  -3   5  -5 546.375 198.375   4
  -5   3  -5 292.350 240.461   1
   3   2  -5 1239.84 239.301   4
   3   2  -5 462.604 133.092   8
   5  -2  -5 604.248 271.983   2
   2  -5  -5 983.251 254.987   7
   2  -5  -2 375384. 7835.73  13
  -2  -3  -2 359814. 7679.41  13
   3   2  -2 354892. 6859.49  15
   5  -2  -2 392692. 8038.06   2
  -3   5  -2 413165. 7829.76   4
  -2  -3  -2 378904. 7352.63   1
  -3   5  -2 377331. 8879.78  10
  -3   5  -2 403098. 8713.67  15
  -3   5  -2 397441. 7432.75   1
   3   2  -2 337785. 7502.51   4
   3   2  -2 341785. 7429.24   8
   2  -5  -2 412617. 8116.51   7
   2  -5  -2 341244. 7792.36   6
  -5   3  -2 403297. 7287.05  14
  -5   3  -2 408612. 8359.36   1
  -2  -3  -2 462698. 8633.15   6
  -5   3  -2 411914. 7213.37   6
  -2  -3   1 754.451 308.767   6
   2  -5   1 647.882 248.736  13
  -2  -3   1 357.570 201.933  13
   3   2   1 770.299 127.877  12
  -5   3   1 861.386 202.014  15
  -3   5   1 1899.52 474.479  10
  -3   5   1 545.167 120.592   1
  -3   5   1 652.486 228.649   4
   3   2   1 737.555 163.150   9
   3   2   1 930.619 251.511   4
   3   2   1 609.036 229.624   8
  -5   3   1 482.298 199.242   1
   5  -2   1 591.037 247.839   2
   2  -5   1 1660.38 361.039   7
  -3   5   1 930.239 289.184  15
  -2  -3   1 475.080 165.366   1
   2  -5   4 469272. 10265.9  13
  -2  -3   4 514635. 10413.5  13
  -2  -3   4 592410. 10735.3   1
   3   2   4 546640. 9758.15  12
   5  -2   4 476467. 10040.7   2
  -5   3   4 518742. 9966.53  10
  -3   5   4 527277. 11436.0  10
   3   2   4 523860. 9853.17   4
   2  -5   4 461960. 9419.16   9
   3   2   4 548434. 9752.60   9
  -5   3   4 558027. 10277.3   1
   3   2   4 528144. 10534.6   8
   2  -5   4 505398. 10527.5   7
  -5   3   4 665214. 10134.6   3
  -3   5   4 497462. 10790.8  15
  -5   3   4 484954. 9651.17  15
  -2  -3   4 510206. 10123.3   6
  -5   3   7 656.767 231.001   3
  -5   3   7 812.657 198.048   1
  -2  -3   7 425.160 237.847  13
   3   2   7 892.061 219.568  12
   5  -2   7 869.770 261.776  12
  -3   5   7 576.174 225.130   3
  -5   3   7 596.794 173.979  10
  -3   5   7 1125.65 473.643  10
   5  -2   7 940.490 251.204   9
   2  -5   7 577.530 146.060   9
   3   2   7 641.496 183.296   9
  -2  -3   7 1016.87 341.318   1
   3   2   7 839.736 292.046   8
   5  -2   7 803.745 221.128   2
   2  -5   7 485.649 271.919   7
  -3   5   7 660.850 232.125  15
   2  -5   7 612.591 290.196  13
  -2  -3  10 327195. 7291.82  13
   3   2  10 347129. 7250.68  12
  -5   3  10 316723. 6846.93   1
   5  -2  10 300594. 7539.02  12
   3   2  10 337454. 7394.17  11
  -5   3  10 429331. 7767.76   3
  -5   3  10 334008. 6786.93  10
  -3   5  10 425867. 8452.84  10
   5  -2  10 329955. 7074.49   9
  -2  -3  10 369348. 8005.41   7
   2  -5  10 419545. 7503.56   9
   3   2  10 352005. 7059.50   9
   3   2  10 347553. 7488.97   8
  -3   5  10 331960. 7160.20   3
   2  -5  10 336884. 7543.85   7
  -3   5  10 362088. 7327.20  15
  -5   3  13 409.434 211.720   3
  -2  -3  13 262.089 180.703  13
   3   2  13 45.7397 206.585  12
   5  -2  13 134.748 348.738  12
   2  -5  13 870.626 217.079  12
  -3   5  13 302.044 244.803   3
   3   2  13 332.437 173.224  11
  -3   5  13 437.217 233.826  10
   5  -2  13 499.771 208.833   9
   2  -5  13 755.988 243.375   9
   3   2  13 435.108 186.453   9
   5  -2  13 316.943 206.064   8
  -5   3  13 331.950 152.533   1
   2  -5  13 766.085 287.540   7
  -2  -3  13 232.803 242.159   7
   3   2  16 265740. 6477.70  12
  -3   5  16 271447. 5968.38  10
   5  -2  16 247025. 5762.16   9
   3   2  16 261655. 5986.76   9
   5  -2  16 261088. 5768.18   8
   2  -5  16 266175. 5890.23   7
  -3   5  16 248719. 6070.87   3
  -2  -3  16 289925. 6469.20   7
  -5   3  16 263062. 6067.48   3
  -5   3  19 112.283 188.651   3
   2  -5  19 274.848 192.506   3
   2  -5  19 28.5173 137.687   7
  -1  -4 -18 197948. 4856.85   5
   1  -5 -18 217872. 5214.78   5
  -5   4 -18 214823. 4997.34   1
   4   1 -18 225346. 4817.39   4
   5  -1 -18 213575. 4665.93   4
  -4   5 -18 214687. 5063.63   1
  -1  -4 -18 229402. 5414.55  14
  -5   4 -18 226254. 5162.17  14
  -4   5 -18 228555. 5074.53  14
   4   1 -18 217866. 5014.50  14
  -1  -4 -15 743.371 262.655  14
   1  -5 -15 1134.21 293.278  14
  -5   4 -15 1482.80 339.996  14
  -4   5 -15 989.587 263.433  14
   4   1 -15 1225.70 261.968  14
  -5   4 -15 1107.25 261.464   1
  -1  -4 -15 825.993 233.965   5
   1  -5 -15 1188.00 284.360   5
  -4   5 -15 1134.01 244.573   4
   4   1 -15 1028.22 226.053   4
   5  -1 -15 1100.94 224.911   2
  -1  -4 -12 315560. 6272.68  13
  -1  -4 -12 276918. 5940.15   5
   1  -5 -12 260411. 6204.04   5
   5  -1 -12 306175. 5858.09   5
   5  -1 -12 301548. 6154.83   2
  -4   5 -12 306134. 6283.92   4
  -5   4 -12 290931. 6329.08   1
  -1  -4 -12 284027. 6298.16   6
   4   1 -12 306573. 6108.82   4
  -1  -4 -12 279215. 6352.10  14
   1  -5 -12 290542. 6355.80  14
  -5   4 -12 306369. 6264.35  14
  -4   5 -12 313753. 6234.57  14
   1  -5 -12 329766. 6437.08   6
  -4   5  -9 1567.60 257.094  14
   1  -5  -9 1945.58 339.999   6
  -1  -4  -9 2116.36 346.616   6
   1  -5  -9 1804.57 274.776  13
  -1  -4  -9 2059.96 250.858   5
  -1  -4  -9 1863.27 306.201  13
   1  -5  -9 3086.51 368.981  14
  -5   4  -9 1756.52 334.160   1
  -4   5  -9 1927.08 311.241   4
   1  -5  -9 1872.39 275.759   2
   4   1  -9 1832.70 274.712   4
  -4   5  -9 1296.91 255.195   1
   5  -1  -9 2021.07 309.515   2
  -1  -4  -9 2500.21 269.040   7
  -5   4  -9 1960.44 297.860  14
   1  -5  -6 428467. 8712.81  13
  -1  -4  -6 447006. 8800.75  13
  -1  -4  -6 414951. 8007.02   5
   4   1  -6 437897. 8320.76   2
  -5   4  -6 438670. 8939.77   1
   5  -1  -6 411632. 8551.23   2
  -4   5  -6 418770. 8572.33   4
  -4   5  -6 440782. 8506.91   1
   4   1  -6 441763. 8162.85   8
   1  -5  -6 453172. 8346.34   7
  -5   4  -6 483696. 8239.26  14
   1  -5  -6 379197. 8734.62   6
  -1  -4  -6 433196. 8817.83   6
  -4   5  -6 428809. 8400.18  14
   1  -5  -3 2670.89 499.025   6
  -1  -4  -3 2425.16 444.923   6
   1  -5  -3 2241.73 410.143  13
  -1  -4  -3 2371.31 383.344  13
   4   1  -3 2119.12 260.280   2
  -1  -4  -3 2274.76 225.459   1
   5  -1  -3 2462.93 358.935   2
  -4   5  -3 2645.32 368.317   4
  -4   5  -3 2138.41 320.125   1
  -5   4  -3 2651.79 485.841   1
   1  -5  -3 2567.17 341.364   7
  -4   5  -3 2940.64 326.216  14
  -4   5   0 384800. 8078.93   1
   1  -5   0 421148. 8807.14  13
  -1  -4   0 410223. 9075.90  13
  -1  -4   0 406668. 7987.31   1
   4   1   0 450396. 7684.27  12
   5  -1   0 446677. 7953.61  12
   5  -1   0 442570. 8385.72   2
  -4   5   0 368467. 9182.07  10
  -4   5   0 419004. 8931.07  15
   4   1   0 386600. 8132.60   8
   1  -5   0 444183. 8755.07   7
  -5   4   0 432196. 8485.44  15
  -5   4   0 409383. 8583.76   1
   1  -5   0 350404. 8393.49   6
  -1  -4   0 495324. 9200.75   6
   1  -5   3 2668.03 459.407  13
  -1  -4   3 3342.37 606.948  13
   4   1   3 2704.73 284.563  12
   5  -1   3 2684.32 320.766  12
   5  -1   3 2425.61 309.406   2
  -5   4   3 2296.57 352.867  10
  -4   5   3 1900.60 422.398  10
  -5   4   3 2008.29 319.628   1
   4   1   3 3233.66 475.933   9
   4   1   3 2123.33 338.518   8
  -4   5   3 2231.91 244.343   1
  -4   5   3 3218.72 495.026  15
  -5   4   3 2787.67 397.201  15
  -1  -4   3 2385.35 426.400   7
   1  -5   3 3329.52 502.556   7
  -1  -4   3 3861.41 449.757   6
  -1  -4   6 498824. 9852.34   7
   1  -5   6 397229. 8829.37  13
  -1  -4   6 452391. 9229.53  13
   4   1   6 439352. 8370.74  12
   5  -1   6 424000. 8453.52  12
   5  -1   6 422304. 7965.21   2
  -5   4   6 418514. 8490.79  10
  -4   5   6 370647. 8870.51  10
  -5   4   6 390619. 8030.85   1
   5  -1   6 410686. 8434.02   9
   4   1   6 435427. 8768.60   9
   4   1   6 460394. 9439.95   8
  -4   5   6 426936. 8381.66   3
  -5   4   6 437235. 8337.84   3
   1  -5   6 419733. 9049.58   7
  -4   5   6 465109. 8900.71  15
  -5   4   6 396891. 8246.41  15
  -5   4   9 1513.46 307.915   3
   1  -5   9 1611.68 360.388  13
  -1  -4   9 1573.05 390.830  13
  -5   4   9 1850.06 247.837   1
   4   1   9 1435.57 306.634  12
   5  -1   9 2152.96 383.872  12
  -4   5   9 1703.40 332.790  15
  -1  -4   9 1380.68 399.500   7
  -4   5   9 1186.86 267.164   3
  -5   4   9 1664.91 302.825  10
  -4   5   9 1946.86 402.921  10
   5  -1   9 1534.11 284.010   9
   4   1   9 1513.04 330.249   9
   4   1   9 1237.07 338.859   8
  -5   4   9 1621.78 289.736  15
   1  -5   9 1183.04 353.216   7
  -1  -4  12 351220. 7230.90  13
   4   1  12 296001. 6774.64  12
   5  -1  12 295615. 7061.33  12
   4   1  12 280384. 6202.14  11
  -5   4  12 305100. 6286.10  10
  -4   5  12 303468. 6633.78  10
   5  -1  12 305239. 6645.05   9
   4   1  12 296047. 6612.19   9
   5  -1  12 351808. 7926.08   8
   4   1  12 298827. 6944.15   8
  -4   5  12 276944. 6497.26   3
   1  -5  12 307356. 7095.19   7
  -1  -4  12 306641. 7154.75   7
  -5   4  12 336892. 7010.65   3
  -4   5  12 300079. 6561.97  15
  -5   4  15 797.979 288.599   3
   4   1  15 1230.12 373.802  12
   5  -1  15 726.045 362.528  12
  -4   5  15 890.714 240.565  10
  -5   4  15 813.707 194.712  10
   5  -1  15 941.577 274.745   9
   4   1  15 953.425 260.599   9
   5  -1  15 874.912 284.623   8
   1  -5  15 748.958 335.140   7
  -4   5  15 820.036 270.995   3
  -1  -4  15 847.420 359.277   7
   4   1  18 210653. 5750.00  12
   5  -1  18 215083. 5246.86   9
   4   1  18 199475. 5290.92   9
   1  -5  18 224544. 5307.79   7
  -4   5  18 218652. 5532.96   3
  -5   4  18 217272. 5434.50   3
   0  -5 -16 218294. 5130.97   5
  -5   5 -16 239882. 5312.20   1
   5   0 -16 246790. 5049.03   4
   0  -5 -16 220790. 5464.66  14
  -5   5 -16 249172. 5284.10  14
   0  -5 -16 223207. 5332.58   6
  -5   5 -13 97.9415 144.104  14
   0  -5 -13 281.826 196.102   6
  -5   5 -13 50.2872 148.472   1
   0  -5 -13 311.060 174.459   5
   5   0 -13 50.0068 135.368   2
   5   0 -13-108.314 108.125   4
   0  -5 -13 100.810 184.415  14
   0  -5 -10 317465. 6181.19  13
   0  -5 -10 277821. 5951.64   5
   5   0 -10 294618. 6018.74   2
  -5   5 -10 272154. 6135.24   1
   0  -5 -10 282918. 6352.87  14
  -5   5 -10 313568. 6023.25  14
   0  -5 -10 300048. 6366.44   6
   0  -5  -7 285.966 221.717   6
   0  -5  -7 265.999 206.136  13
   0  -5  -7-9.57015 84.4540   5
  -5   5  -7 157.694 174.987   1
   5   0  -7 52.3890 152.304   2
   0  -5  -7 67.0111 105.930   7
   0  -5  -4 429194. 9218.62  13
  -5   5  -4 464842. 9212.20   1
   5   0  -4 479721. 8789.22   2
   0  -5  -4 462337. 8842.88   7
   0  -5  -4 421958. 9441.99   6
   0  -5  -1-163.464 326.449  13
  -5   5  -1 259.849 191.144   1
  -5   5  -1-69.0166 182.022  15
   5   0  -1 116.943 118.558   2
   0  -5  -1 123.500 158.893   7
   0  -5  -1-57.6009 254.362   6
   0  -5   2 359217. 7716.48  13
   5   0   2 304721. 6134.00   2
   5   0   2 366313. 6235.50  12
  -5   5   2 305105. 6875.52  15
  -5   5   2 274854. 6748.03  10
  -5   5   2 317899. 6469.00   1
   0  -5   2 281035. 6650.16   7
   0  -5   2 286643. 6652.56   6
   0  -5   5 12.8517 253.404  13
  -5   5   5 7.64879 80.7909   1
   5   0   5 100.398 125.689  12
  -5   5   5 292.568 237.725  15
  -5   5   5-119.745 197.435  10
   5   0   5 137.446 164.211   9
   0  -5   5-326.178 279.621   7
   0  -5   8 395755. 8675.91  13
   5   0   8 422747. 8094.35  12
  -5   5   8 359858. 8054.69  10
  -5   5   8 368265. 7854.65  15
   5   0   8 392553. 8403.18   9
   5   0   8 393675. 8797.48   8
  -5   5   8 390618. 7870.13   3
   0  -5   8 388741. 8772.44   7
  -5   5  11-28.2276 190.759   3
   0  -5  11 5.42607 279.129  13
   5   0  11-14.2879 169.124  12
  -5   5  11-28.4593 168.059  10
   5   0  11 13.2044 180.027   9
   5   0  11 20.9337 241.203   8
   0  -5  11 431.486 323.752   7
   5   0  14 258824. 6408.74  12
  -5   5  14 251100. 5664.64  10
   5   0  14 260822. 6242.58   9
   5   0  14 271303. 6616.97   8
  -5   5  14 264008. 6100.18   3
  -5   5  17 155.055 224.231   3
   5   0  17 65.5486 262.460  12
   0  -5  17-145.210 283.448   7
  -5   5  17 48.2077 150.374  10
   5   0  17-83.9254 183.120   9
   5   0  17 265.406 202.368   8
  -6   0 -12 239881. 5570.97  14
   6  -6 -12 268952. 6501.46   2
   0   6 -12 218284. 5639.18   4
   0   6 -12 240071. 5127.51  15
  -6   0 -12 197776. 4971.19   1
  -6   0 -12 215553. 5164.41   6
  -6   0  -9-124.653 193.496   6
   0   6  -9 94.7415 179.550   4
  -6   0  -9 132.985 149.160   1
   0   6  -9 258.271 171.402  15
   6  -6  -9 46.8075 291.175   2
  -6   0  -9-15.6344 219.197  14
   0   6  -6 277762. 5919.17  11
   0   6  -6 257007. 5785.88  15
   0   6  -6 272649. 6216.18   4
   6  -6  -6 285699. 7021.90   2
  -6   0  -6 251976. 5762.18   1
  -6   0  -6 302766. 6180.63  14
  -6   0  -6 262209. 6152.54   6
  -6   0  -3 64.0809 231.639   6
   0   6  -3-57.5361 159.075  11
  -6   0  -3-2.01695 145.326   1
   0   6  -3-58.2286 143.907   4
   0   6  -3 31.0251 141.972  15
   6  -6  -3 463.014 261.821   2
   0   6   0 330161. 7001.16  11
   0   6   0 309206. 6785.79   4
   0   6   0 360013. 6837.13  10
   6  -6   0 333423. 6969.94   2
  -6   0   0 311275. 6675.70   1
   0   6   0 290409. 6859.01  15
  -6   0   0 355071. 6949.24   6
  -6   0   3 121.624 147.865   1
   0   6   3-2.69400 157.832  11
   0   6   3 304.097 168.829  10
   0   6   3 86.1863 147.714   4
   0   6   3-52.8820 151.295  15
   6  -6   3 83.2853 141.392   2
  -6   0   3-23.5994 122.598   6
  -6   0   6 291515. 5697.22  13
  -6   0   6 286663. 5901.70   1
   0   6   6 257254. 6014.81  11
   0   6   6 260903. 5873.63  10
   6  -6   6 288839. 6196.19   9
   6  -6   6 263827. 5634.45   2
   0   6   6 271836. 6010.07  15
   0   6   9 104.317 198.300  11
   6  -6   9 56.6067 168.522   9
   0   6   9 263.789 188.272  15
  -6   0   9-74.9388 125.072   1
   6  -6   9 116.903 117.282   2
  -6   0  12 246739. 5368.92   1
   0   6  12 240316. 5593.01  11
   6  -6  12 254926. 5510.36   9
   6  -5 -16 239881. 6240.97   2
  -5  -1 -13 796.781 294.852  14
  -6   1 -13 735.793 406.661  14
  -5  -1 -13 1296.34 289.586   6
  -1   6 -13 723.784 213.001  14
  -6   1 -13 632.500 242.919   1
  -1   6 -13 770.052 307.170   4
   1   5 -13 684.610 344.535   4
  -5  -1 -13 573.689 201.508   1
   6  -5 -13 756.800 312.788   2
   5  -6 -13 608.873 260.500   2
   6  -5 -10 283629. 6918.22   2
  -1   6 -10 267701. 6596.17   4
   1   5 -10 278523. 6599.91   4
   5  -6 -10 314240. 7083.04   2
  -1   6 -10 272765. 6095.81  14
  -5  -1 -10 268197. 5860.13   1
   1   5 -10 307997. 5933.65  15
  -6   1 -10 268472. 6211.46   1
  -5  -1 -10 263315. 6099.58  14
  -6   1 -10 311102. 6852.06  14
  -5  -1 -10 281839. 6205.55   6
  -6   1 -10 255376. 6018.81   6
  -5  -1  -7 1337.37 324.487   6
  -6   1  -7 1284.85 325.964   6
   1   5  -7 907.123 251.137  11
  -5  -1  -7 696.771 193.458   1
  -1   6  -7 1271.61 348.234   4
   1   5  -7 865.369 341.001   4
  -6   1  -7 1236.79 322.015   1
  -1   6  -7 1062.78 325.674  15
   1   5  -7 1192.07 220.984  15
   6  -5  -7 1708.97 472.401   2
   5  -6  -7 778.490 335.906   2
  -6   1  -7 1523.15 381.275  14
   1   5  -4 341153. 7350.55  11
  -1   6  -4 339117. 7140.92  11
  -1   6  -4 324380. 7397.11   4
  -1   6  -4 380360. 7550.53  10
   1   5  -4 351697. 7466.97   4
   6  -5  -4 358106. 8103.68   2
   5  -6  -4 352416. 7975.90   2
  -5  -1  -4 349077. 7061.82   1
  -6   1  -4 331439. 7332.29   1
   1   5  -4 314832. 6856.63  15
  -1   6  -4 288310. 7428.63  15
  -5  -1  -4 382406. 7793.71   6
  -6   1  -4 387438. 7685.85   6
  -6   1  -1 1304.81 285.310   6
  -5  -1  -1 1061.74 353.477   6
  -5  -1  -1 1142.27 224.793   1
   1   5  -1 1183.99 305.284  11
  -1   6  -1 1133.58 285.924  11
  -6   1  -1 1068.91 290.908   1
  -1   6  -1 1426.10 323.322  10
  -1   6  -1 964.423 255.964   4
   1   5  -1 982.748 237.613   4
   1   5  -1 1042.15 227.337  15
   6  -5  -1 1230.63 360.049   2
  -1   6  -1 1325.68 383.012  15
   5  -6  -1 821.710 247.005   2
   1   5   2 347547. 7339.75  11
  -1   6   2 311707. 7072.86  11
  -1   6   2 347466. 6945.38   4
   1   5   2 330184. 6882.88   4
  -5  -1   2 318320. 6757.03   1
  -1   6   2 355679. 7454.99  10
   6  -5   2 347941. 7125.02   2
  -6   1   2 372146. 7332.11   1
   5  -6   2 319320. 6801.11   2
  -1   6   2 362080. 8452.62  15
   1   5   2 337729. 6824.03  15
  -6   1   2 336361. 6609.47   6
  -5  -1   2 355084. 7070.16   6
   5  -6   5 904.694 197.945   2
  -5  -1   5 1146.08 268.074   1
  -6   1   5 824.504 249.961   1
  -5  -1   5 743.354 202.357  13
   1   5   5 612.697 248.084  11
  -1   6   5 1224.83 315.543  11
  -1   6   5 1116.62 305.884  10
  -1   6   5 1150.99 256.932   4
   1   5   5 1259.41 236.506  15
   5  -6   5 1047.82 251.224   7
  -1   6   5 895.074 290.732  15
   6  -5   5 1070.39 233.067   2
  -5  -1   8 302118. 6082.36  13
  -5  -1   8 317968. 6395.51   1
  -6   1   8 292825. 6217.77   1
   1   5   8 280620. 6493.66  11
   1   5   8 286868. 6139.76  15
  -1   6   8 294063. 6596.56  11
  -1   6   8 299915. 6658.36  10
   6  -5   8 326198. 6088.47   2
   6  -5   8 304827. 6511.64   9
   5  -6   8 279698. 6185.76   9
   5  -6   8 299102. 6047.15   2
   5  -6   8 321457. 6395.23   7
  -1   6   8 311435. 6728.30  15
   5  -6  11 690.459 163.361   2
  -5  -1  11 474.294 144.247   3
   1   5  11 439.190 195.876  12
   1   5  11 711.827 240.546  11
  -1   6  11 862.304 279.958  10
   6  -5  11 610.480 232.572   9
   5  -6  11 477.262 175.208   9
  -5  -1  11 741.389 203.141   1
  -6   1  11 515.224 176.366   1
  -1   6  11 772.452 284.607  15
  -6   1  14 246096. 5126.39   1
   1   5  14 262788. 5412.13  12
   6  -5  14 259270. 5425.15  12
   5  -6  14 216771. 5113.25  12
   1   5  14 232893. 5336.96  11
   6  -5  14 248990. 5242.89   9
   5  -6  14 210074. 4930.19   9
  -5  -1  14 209208. 4741.96   3
  -6   2 -14 246890. 5692.75   1
   6  -4 -14 283801. 6600.28   2
  -2   6 -14 236973. 5918.92   4
   4  -6 -14 262222. 5719.80   2
   2   4 -14 227697. 5591.38   4
  -4  -2 -14 258984. 5884.09  14
  -6   2 -14 247859. 6301.42  14
  -2   6 -14 258313. 5532.41  14
   2   4 -14 270959. 5733.44  14
  -4  -2 -14 247231. 5693.07   6
  -6   2 -11 3017.00 541.192  14
  -2   6 -11 2102.22 324.373  14
  -6   2 -11 2384.11 417.401   1
   2   4 -11 2507.26 412.783   4
  -2   6 -11 2463.05 460.919   4
  -4  -2 -11 2697.39 320.637   1
   6  -4 -11 2571.36 508.399   2
   4  -6 -11 2493.22 403.892   2
  -4  -2 -11 2907.97 423.431   6
  -4  -2 -11 2396.74 375.372  14
   6  -4  -8 298691. 7000.14   2
  -2   6  -8 305380. 6622.85  10
  -2   6  -8 274763. 6555.10   4
   2   4  -8 293891. 6645.94   4
   4  -6  -8 302937. 6709.52   2
  -4  -2  -8 300909. 5942.98   1
  -6   2  -8 298712. 6553.09  14
  -6   2  -8 287816. 6635.56   1
  -4  -2  -8 288952. 6354.05   6
  -2   6  -8 269807. 6250.14  14
  -6   2  -8 297424. 6336.82   6
  -2   6  -5 4079.12 502.646   4
   6  -4  -5 4652.03 624.579   2
  -2   6  -5 4598.56 603.055  10
   2   4  -5 3566.29 472.783   4
   4  -6  -5 4897.01 643.610   2
  -4  -2  -5 4174.80 379.587   1
   2   4  -5 4968.00 358.588  15
  -6   2  -5 4139.99 528.762   1
  -6   2  -5 4104.35 477.022  14
  -4  -2  -5 3850.97 482.316   6
  -6   2  -5 5404.92 587.424   6
  -2   6  -2 388106. 8116.19   4
   6  -4  -2 406163. 8612.56   2
  -2   6  -2 370013. 8558.01  10
   2   4  -2 385864. 8085.23   4
  -4  -2  -2 391360. 7704.97   1
   4  -6  -2 401081. 8146.31   2
   4  -6  -2 365432. 7796.43   7
  -6   2  -2 372793. 8327.16   1
  -2   6  -2 372548. 9248.78  15
   2   4  -2 399271. 7561.88  15
  -6   2  -2 429722. 7973.00  14
  -6   2  -2 433643. 7972.58   6
  -4  -2  -2 459015. 8847.33   6
   2   4   1 4533.65 527.467  11
   2   4   1 5456.44 361.211  15
  -2   6   1 4411.00 458.660   4
  -4  -2   1 4297.05 400.291   1
  -2   6   1 4123.28 578.288  10
   6  -4   1 5884.87 663.800   2
   2   4   1 4361.49 434.659   4
   4  -6   1 4041.71 416.963   2
  -6   2   1 5445.17 641.193   1
  -2   6   1 5206.99 730.082  15
   4  -6   1 5078.98 466.802   7
  -6   2   1 5099.50 352.775   6
  -4  -2   1 4626.10 533.101   6
  -4  -2   4 361846. 7240.92  13
  -4  -2   4 353291. 7137.92   1
   2   4   4 340034. 7498.78  11
  -2   6   4 371249. 7330.94   4
  -2   6   4 372101. 8176.88  10
   6  -4   4 368201. 7466.27   2
   2   4   4 356262. 6974.99   4
  -6   2   4 354563. 7329.78   1
   4  -6   4 371934. 7110.43   9
   4  -6   4 345050. 7055.95   2
   4  -6   4 353474. 7211.08   7
  -2   6   4 333875. 8234.11  15
   2   4   4 328719. 6702.81  15
  -4  -2   4 360079. 7248.86   6
  -4  -2   7 4240.75 428.951  13
   2   4   7 4708.98 425.132  12
  -4  -2   7 4272.33 476.879   1
   2   4   7 3856.93 495.662  11
  -6   2   7 3666.27 396.179   1
   6  -4   7 4039.51 411.483   2
  -2   6   7 3873.23 565.430  10
   6  -4   7 5208.01 570.403   9
   4  -6   7 4488.23 391.420   9
   4  -6   7 3400.66 366.793   2
   4  -6   7 4823.89 485.156   7
  -2   6   7 4703.23 590.095  15
  -4  -2  10 312907. 6364.32  13
  -4  -2  10 313111. 6650.41   1
   2   4  10 318485. 6479.75  12
   6  -4  10 289463. 6422.20  12
  -6   2  10 301182. 6342.18   1
   2   4  10 294869. 6766.36  11
  -2   6  10 320685. 7175.38  10
   6  -4  10 320596. 6684.94   9
   4  -6  10 287073. 6183.01   9
   4  -6  10 319447. 6325.28   2
   4  -6  10 339528. 6666.36   7
  -2   6  10 337538. 6953.55  15
  -6   2  13 2362.40 324.620   1
   2   4  13 3413.47 431.129  12
   6  -4  13 3607.41 477.322  12
   2   4  13 2567.61 398.621  11
  -2   6  13 4022.61 557.014  10
   6  -4  13 3067.21 414.207   9
   4  -6  13 2596.31 317.278   9
   4  -6  13 2603.33 309.100   2
  -2   6  13 2868.83 399.230   3
   4  -6  13 3075.69 397.514   7
  -4  -2  13 2693.82 395.995   7
   2   4  16 231998. 5158.09  12
   6  -4  16 229743. 5254.29  12
   4  -6  16 207357. 4731.18  12
   2   4  16 194424. 4808.33  11
   6  -4  16 217435. 4870.88   9
  -2   6  16 218633. 5083.56   3
   4  -6  16 252964. 5059.95   7
  -4  -2  16 194027. 4543.09   3
  -3  -3 -15 253.638 154.086  14
  -6   3 -15 157.548 219.949  14
  -3  -3 -15-24.6237 163.482   6
  -3   6 -15 220.850 167.530  14
   3  -6 -15-85.1135 210.098   5
   6  -3 -15 281.496 139.265   5
  -3   6 -15 179.910 174.861   4
   3   3 -15 291.597 185.148   4
   6  -3 -15 191.765 190.013   2
  -6   3 -15 186.996 155.461   1
  -6   3 -12 280570. 6247.18   1
  -3   6 -12 278455. 6265.13   4
   3  -6 -12 295245. 6118.00   2
   3   3 -12 275322. 5998.56   4
  -3  -3 -12 285777. 6298.62  14
  -6   3 -12 289523. 6484.36  14
  -3   6 -12 277492. 5984.40  14
  -3  -3 -12 279361. 6234.69   6
  -6   3  -9-109.984 226.672  14
  -3  -3  -9 166.801 167.391   6
  -3   6  -9 594.563 201.527  14
  -6   3  -9 464.325 258.686   1
  -3   6  -9 384.272 216.848   4
   3   3  -9 84.4355 156.495   4
   6  -3  -9 145.584 262.687   2
   3  -6  -9 249.908 180.428   2
   6  -3  -6 302330. 7241.87   2
  -3   6  -6 310721. 6831.97   4
  -3   6  -6 323193. 7621.14  10
  -3  -3  -6 341962. 6344.78   1
   3   3  -6 300868. 6688.56   4
   3  -6  -6 328440. 7065.05   2
  -6   3  -6 354195. 6956.96  14
  -3  -3  -6 323663. 7004.40   6
  -6   3  -6 295464. 7222.10   1
   6  -3  -3 264.300 277.084   2
  -3  -3  -3 491.748 260.709   6
   3  -6  -3 218.021 152.380   2
  -3  -3  -3 322.427 123.942   1
   3  -6  -3 403.506 218.671  13
  -3   6  -3 277.251 106.413   1
  -3   6  -3 143.715 246.995  10
  -3   6  -3 271.500 166.735   4
   3   3  -3 159.196 169.685   4
   3   3  -3 197.606 118.936   8
   3  -6  -3 375.994 167.371   7
  -3   6  -3 325.725 341.244  15
  -6   3  -3 386.186 270.996   1
   3  -6   0 406974. 8838.57  13
  -3  -3   0 435972. 8562.01  13
  -3  -3   0 444387. 8268.30   1
  -3   6   0 448385. 8638.33   4
   6  -3   0 409880. 8921.05   2
  -3   6   0 390425. 9441.99  10
   3   3   0 450360. 8736.73   4
   3   3   0 387352. 8360.08   8
   3  -6   0 420667. 8331.42   2
  -6   3   0 467813. 9241.59   1
   3  -6   0 408822. 8594.92   7
  -3   6   0 403239. 9550.55  15
  -3  -3   3 144.606 173.334  13
   3   3   3 371.521 124.051  12
  -6   3   3 413.866 198.257   1
  -6   3   3 517.853 178.424  10
  -3   6   3 354.170 312.882  10
  -3   6   3 424.177 190.675   4
  -3   6   3 281.139 295.191  15
   3  -6   3 305.387 101.597   9
   3   3   3 407.208 164.761   4
   3   3   3 518.894 254.075   8
   3  -6   3 545.331 248.553   7
   6  -3   3 408.834 224.976   2
  -3  -3   3 301.628 155.681   1
  -3  -3   3 488.400 258.269   6
  -3  -3   6 318198. 6926.04  13
  -3  -3   6 316034. 6916.64   1
   3   3   6 347057. 6573.17  12
   3   3   6 314231. 7190.12  11
   6  -3   6 322066. 6973.46   2
  -6   3   6 359357. 6695.18  10
  -3   6   6 390502. 8652.25  10
  -6   3   6 303118. 6629.91   1
   3   3   6 334655. 7262.00   8
   3  -6   6 323523. 7130.80   7
  -3   6   6 360184. 7740.98  15
  -3  -3   9 407.775 236.566   1
  -3  -3   9 264.763 209.100  13
   3   3   9 376.588 177.428  12
   6  -3   9 598.944 232.372  12
   3   3   9 423.229 219.564  11
  -3   6   9 168.280 258.427  10
   6  -3   9 429.670 207.373   9
   3  -6   9 166.905 194.380   7
  -3   6   9 457.223 240.536  15
  -3  -3   9 771.356 307.070   7
  -6   3   9 256.249 135.742   1
  -3  -3  12 260515. 5978.68  13
  -6   3  12 269461. 5876.52   1
   3   3  12 292713. 6230.18  12
   6  -3  12 267922. 6334.25  12
   3   3  12 275145. 6445.55  11
  -3   6  12 327240. 7119.02  10
   6  -3  12 312420. 6355.83   9
  -3   6  12 275991. 6198.50   3
   3  -6  12 295040. 6338.97   7
  -3  -3  12 283388. 6533.27   7
  -6   3  12 312480. 6120.93   3
  -3   6  12 304362. 6447.13  15
  -6   3  15 71.1644 158.692   3
   3   3  15 106.327 162.297  12
   6  -3  15 73.4245 246.877  12
   3  -6  15-3.65389 127.072  12
   3   3  15 18.0952 115.970  11
  -3   6  15 524.810 281.563  10
   6  -3  15 257.709 173.168   9
   6  -3  15 135.557 154.945   8
   3  -6  15 159.040 163.908   7
  -3  -3  15 94.6439 154.619   7
  -3   6  15 437.640 270.811   3
   2  -6 -16 194202. 5016.04   5
   6  -2 -16 210869. 4640.27   2
  -6   4 -16 195442. 4736.03   1
  -4   6 -16 208040. 4826.68   4
   4   2 -16 212500. 4628.75   4
  -2  -4 -16 230533. 5231.22  14
  -4   6 -16 207098. 4710.59  14
  -2  -4 -16 211291. 5021.92   6
  -2  -4 -13 2591.24 379.284  13
  -6   4 -13 2258.58 360.095   1
   6  -2 -13 2686.84 383.354   2
   2  -6 -13 1726.66 333.632   5
  -4   6 -13 2892.83 417.193   4
   4   2 -13 2934.93 354.666   4
  -4   6 -13 2682.65 359.501  14
  -2  -4 -13 2710.70 415.445   6
  -2  -4 -13 2490.15 426.682  14
  -2  -4 -10 324702. 6782.57  13
  -6   4 -10 311665. 6841.90   1
   6  -2 -10 340101. 6963.78   2
  -4   6 -10 311896. 6673.01   4
   4   2 -10 329415. 6541.69   4
   2  -6 -10 326703. 6660.42   2
  -4   6 -10 298789. 6514.51   1
  -2  -4 -10 317765. 6800.92   6
  -4   6 -10 317628. 6458.31  14
   2  -6  -7 4664.19 494.810  13
  -6   4  -7 3174.64 451.275   1
  -2  -4  -7 4525.80 484.952  13
   6  -2  -7 3533.79 493.419   2
  -4   6  -7 4161.42 450.886   4
   4   2  -7 4189.68 411.383   4
  -4   6  -7 3178.34 352.301   1
   2  -6  -7 3481.79 431.515   2
  -2  -4  -7 3757.93 464.349   6
  -4   6  -7 4200.28 439.404  14
   2  -6  -4 363565. 7669.08  13
  -2  -4  -4 368390. 7392.83  13
   6  -2  -4 370637. 7750.17   2
  -4   6  -4 339692. 7213.24   4
  -4   6  -4 365045. 6985.01   1
   4   2  -4 345149. 6991.29   4
   4   2  -4 345669. 6825.66   8
   2  -6  -4 319786. 6997.18   2
  -4   6  -4 431249. 8963.07  15
   2  -6  -4 357143. 7183.72   7
   2  -6  -4 398062. 8360.13   6
  -2  -4  -4 299729. 7314.57   6
  -6   4  -4 396949. 8507.81   1
  -6   4  -1 4744.15 616.797   1
   2  -6  -1 4867.84 588.214  13
  -2  -4  -1 4195.30 475.505  13
  -2  -4  -1 4435.69 398.498   1
   6  -2  -1 4948.44 590.247   2
  -4   6  -1 5061.47 508.309   4
  -4   6  -1 4482.35 783.204  10
   4   2  -1 4699.54 413.318   4
   4   2  -1 5140.77 430.391   8
   2  -6  -1 5211.72 581.258   7
  -4   6  -1 4342.56 639.025  15
  -6   4  -1 4989.48 474.202  15
  -2  -4  -1 6091.97 735.890   6
   2  -6   2 361291. 8198.90  13
  -2  -4   2 366664. 8118.61  13
  -2  -4   2 386633. 7683.82   1
   6  -2   2 408244. 7654.23  12
   6  -2   2 413346. 8199.00   2
  -4   6   2 389186. 9461.13  10
   4   2   2 366247. 7548.25   4
   4   2   2 344351. 7650.35   8
  -6   4   2 390253. 8008.88   1
   2  -6   2 415966. 8568.70   7
  -4   6   2 369711. 8581.67  15
  -2  -4   2 398226. 8084.30   6
   2  -6   5 3645.92 533.207  13
  -2  -4   5 5168.27 630.670  13
   4   2   5 4766.85 387.641  12
   6  -2   5 4546.49 483.580  12
   6  -2   5 4907.69 521.998   2
  -6   4   5 4334.05 454.922  10
  -4   6   5 4686.65 848.434  10
  -6   4   5 3400.96 371.092   1
   4   2   5 4663.44 429.599   4
   4   2   5 3831.87 503.940   8
   2  -6   5 4003.22 606.602   7
  -2  -4   5 4046.55 555.371   7
  -4   6   5 4296.43 619.063  15
  -2  -4   8 307488. 6873.74  13
   4   2   8 325156. 6505.23  12
   6  -2   8 301818. 6798.02  12
  -6   4   8 296019. 6247.03   1
  -6   4   8 308959. 6475.45  10
  -4   6   8 364920. 8131.42  10
   6  -2   8 320515. 6759.00   9
   4   2   8 320827. 7260.61   8
  -2  -4   8 342310. 7809.68   7
   2  -6   8 309818. 7389.55   7
  -4   6   8 310960. 6872.49  15
  -2  -4  11 2509.74 400.793  13
   4   2  11 2738.98 390.802  12
   6  -2  11 3002.06 471.135  12
   4   2  11 2440.66 398.335  11
  -6   4  11 3044.17 344.166  10
  -4   6  11 2746.87 468.710  10
   6  -2  11 3469.97 445.196   9
   4   2  11 3156.17 491.015   8
  -4   6  11 2737.90 397.354   3
  -6   4  11 3467.29 415.002   3
   2  -6  11 2997.55 503.360   7
  -4   6  11 2824.54 402.469  15
  -2  -4  11 3895.30 650.520   7
  -2  -4  14 239433. 5695.47  13
   4   2  14 280690. 6162.78  12
   6  -2  14 254507. 6406.24  12
   4   2  14 235283. 5472.27  11
  -4   6  14 263209. 5992.14  10
   6  -2  14 262573. 5786.41   9
   6  -2  14 263089. 6091.00   8
  -4   6  14 263349. 5897.87   3
   2  -6  14 270532. 6141.60   7
  -2  -4  14 276419. 6509.05   7
  -6   4  14 262843. 5734.34   3
   1  -6 -14 228465. 5378.60   5
   6  -1 -14 257346. 5266.51   2
  -6   5 -14 230968. 5330.47   1
  -5   6 -14 240193. 5359.64   4
  -5   6 -14 247145. 5388.86   1
   5   1 -14 261866. 5246.63   4
  -1  -5 -14 257487. 5820.33  14
  -1  -5 -14 210955. 5353.40   6
   1  -6 -11 491.580 223.588   6
  -1  -5 -11 338.960 192.188   6
  -5   6 -11 501.407 182.543   1
  -1  -5 -11 769.477 232.810  13
   1  -6 -11 419.571 174.723   5
  -5   6 -11 492.309 202.308   4
   5   1 -11 678.614 201.832   4
   6  -1 -11 860.132 228.271   2
  -1  -5 -11 490.072 198.253  14
   1  -6 -11 619.344 226.923  14
  -6   5 -11 246.328 180.419   1
   1  -6  -8 299341. 6221.98  13
  -1  -5  -8 296861. 6384.94  13
  -6   5  -8 284389. 6380.80   1
   6  -1  -8 309111. 6233.94   2
  -5   6  -8 308814. 6370.28   4
  -5   6  -8 274498. 6076.87   1
   5   1  -8 313518. 6178.56   4
   1  -6  -8 307618. 6352.37   2
   1  -6  -8 285637. 6403.82   6
  -1  -5  -8 283541. 6383.32   6
   1  -6  -5 894.794 314.041   6
  -1  -5  -5 884.752 302.572   6
  -5   6  -5 1279.97 252.642   1
   1  -6  -5 678.403 258.152  13
  -1  -5  -5 994.632 277.400  13
  -6   5  -5 1476.82 352.011   1
   5   1  -5 1055.91 203.610   8
   6  -1  -5 884.856 231.028   2
  -5   6  -5 1597.60 375.670  15
   1  -6  -5 931.390 198.687   7
  -1  -5  -5 957.361 221.514   7
  -5   6  -2 346331. 7085.49   1
   1  -6  -2 343083. 7679.63  13
  -1  -5  -2 311847. 7332.04  13
   6  -1  -2 348533. 6890.85   2
  -5   6  -2 350770. 8451.78  10
   5   1  -2 334504. 6762.07   8
   1  -6  -2 318504. 6957.00   7
  -6   5  -2 378967. 7603.16  15
  -1  -5  -2 334051. 7023.76   7
  -5   6  -2 365042. 8078.93  15
  -6   5  -2 328115. 7616.07   1
   1  -6  -2 307660. 7440.56   6
  -1  -5  -2 387811. 8093.94   6
   1  -6   1 1375.56 443.238  13
  -1  -5   1 1731.23 456.443  13
   1  -6   1 851.387 289.493   7
  -6   5   1 1504.24 340.969  10
  -5   6   1 762.652 270.304  10
  -5   6   1 1405.45 368.350  15
  -6   5   1 1176.76 299.264   1
   5   1   1 1113.86 236.029   8
   6  -1   1 1335.67 245.606   2
  -6   5   1 1348.64 346.490  15
  -1  -5   1 1019.65 279.085   7
  -1  -5   1 1045.58 355.072   6
   1  -6   4 342638. 8177.52  13
  -1  -5   4 431046. 9006.09  13
   6  -1   4 370296. 7069.49   2
   6  -1   4 405645. 7347.85  12
  -6   5   4 336546. 7545.82  10
  -5   6   4 296870. 7852.79  10
   5   1   4 432914. 8324.85   9
  -6   5   4 373227. 7352.34   1
   5   1   4 326685. 7422.39   8
   1  -6   4 368553. 8253.67   7
  -1  -5   4 312710. 7680.19   7
  -5   6   4 351628. 8083.90  15
  -6   5   4 382728. 7627.93  15
   1  -6   7 987.708 385.243  13
  -1  -5   7 2305.30 510.445  13
   5   1   7 1194.92 246.658  12
   6  -1   7 1077.33 246.621  12
  -6   5   7 1160.78 292.605  10
  -5   6   7 1009.99 337.703  10
   6  -1   7 1602.04 318.671   9
   5   1   7 1202.91 299.997   9
   5   1   7 766.663 273.764   8
  -1  -5   7 1241.75 381.727   7
  -5   6   7 1315.79 315.079  15
  -6   5   7 1268.91 270.587  15
   1  -6  10 288915. 7032.39  13
  -1  -5  10 302886. 6911.87  13
   5   1  10 291959. 6274.06  12
   6  -1  10 296090. 6549.93  12
  -6   5  10 275288. 6098.47  10
  -5   6  10 255422. 6299.50  10
   6  -1  10 282823. 6297.39   9
   5   1  10 287027. 6425.76   9
   6  -1  10 292372. 7143.10   8
   5   1  10 309189. 7210.68   8
  -5   6  10 259810. 6034.71   3
  -6   5  10 320294. 6250.78   3
   1  -6  10 284297. 7082.53   7
  -1  -5  10 308457. 7413.53   7
  -5   6  10 259419. 6102.27  15
  -6   5  13 532.878 225.259   3
  -1  -5  13 725.722 270.623  13
   5   1  13 964.996 298.973  12
   6  -1  13 1012.83 329.086  12
   5   1  13 626.017 183.724  11
  -6   5  13 683.112 205.578  10
  -5   6  13 959.907 268.801  10
   6  -1  13 743.379 238.572   9
   5   1  13 448.200 195.746   9
   6  -1  13 1033.95 364.594   8
   5   1  13 760.180 310.026   8
   1  -6  13 732.685 347.462   7
  -1  -5  13 737.580 316.855   7
  -5   6  13 1244.46 320.409   3
   6  -1  16 209667. 5304.30   8
  -1  -5  16 231654. 5891.15   7
  -6   6 -12 219395. 5138.33   1
   0  -6 -12 236260. 5623.65  14
   0  -6 -12 224994. 5292.02   6
   0  -6  -9 161.895 201.223   6
   0  -6  -9 105.285 164.526  13
   6   0  -9 158.269 124.039   2
  -6   6  -9-45.9786 144.468   1
   0  -6  -6 265009. 5927.15  13
  -6   6  -6 246359. 5672.42   1
   6   0  -6 268218. 5475.91   2
  -6   6  -6 287357. 5960.66  15
   0  -6  -6 242299. 5879.20   6
   0  -6  -3 132.960 273.868   6
   0  -6  -3-59.8403 197.349  13
  -6   6  -3 177.376 183.667   1
   6   0  -3 95.4834 147.299   2
  -6   6  -3 190.178 261.928  15
   0  -6  -3 29.7150 114.264   7
   0  -6   0 314316. 7547.76  13
   6   0   0 339472. 6510.68   2
  -6   6   0 323814. 7511.35  10
   0  -6   0 298882. 6799.17   7
  -6   6   0 346010. 7041.44   1
  -6   6   0 342521. 7554.93  15
   0  -6   0 314607. 7193.82   6
   0  -6   3-32.8005 357.592  13
  -6   6   3-78.5080 188.508  10
   6   0   3 246.167 210.708   9
   0  -6   3 192.027 188.104   7
  -6   6   3 158.873 222.258  15
   0  -6   6 295747. 7168.71  13
  -6   6   6 253808. 6207.25  10
   6   0   6 307944. 6485.86   9
   6   0   6 263061. 6132.20   8
   0  -6   6 257771. 6559.68   7
  -6   6   6 287073. 6166.05  15
   0  -6   9 231.279 327.252  13
   6   0   9 89.9800 149.484  12
  -6   6   9-53.4147 140.429  10
   6   0   9 61.7147 169.169   9
   6   0   9-116.909 197.840   8
  -6   6   9 71.5885 163.614   3
   0  -6   9-240.174 304.994   7
  -6   6   9-4.78547 148.247  15
   0  -6  12 271389. 6429.83  13
   6   0  12 229579. 5710.96  12
  -6   6  12 223733. 5397.05  10
   6   0  12 229846. 5751.29   9
   6   0  12 276106. 6904.26   8
  -6   6  12 240930. 5427.65   3
   0  -6  12 256711. 6644.27   7
  -7   0  -7 274.278 235.960   6
  -7   0  -7 90.5225 169.203   1
   0   7  -7 12.8260 162.432   4
   0   7  -7 41.2191 116.989  15
   7  -7  -7-0.99190 320.932   2
  -7   0  -7-90.2175 189.267  14
   0   7  -4 203583. 4946.41   4
   7  -7  -4 229899. 5461.90   2
  -7   0  -4 174504. 4535.62   1
   0   7  -4 182461. 4598.01  15
  -7   0  -4 235313. 4769.57  14
  -7   0  -4 280334. 5848.37   6
  -7   0  -1 80.2015 179.862   6
   0   7  -1 35.7241 113.999  15
  -7   0  -1 213.879 169.854   1
   0   7  -1 74.9516 140.797  11
   0   7  -1-108.782 172.118   4
   7  -7  -1 206.987 178.759   2
   0   7   2 218718. 5124.59  11
  -7   0   2 230099. 4933.08   1
   7  -7   2 228173. 4969.67   2
  -7   0   5 175.286 168.546   1
   0   7   5 160.374 182.612  11
   7  -7   5-108.793 191.870   9
   0   7   5 118.030 120.146  15
   7  -7   5 38.4103 113.495   2
   0   7   8 221207. 5175.09  11
   0   7   8 209465. 4868.54  15
  -7   1 -11 4052.29 662.595  14
   6  -7 -11 3092.87 554.399   2
  -6  -1 -11 2599.69 337.009   1
  -7   1 -11 2248.98 379.780   1
  -1   7 -11 2990.79 405.589  15
   7  -6 -11 2514.22 555.110   2
  -6  -1 -11 3201.48 468.302  14
  -6  -1 -11 3067.21 448.719   6
  -7   1 -11 2781.95 388.922   6
   7  -6  -8 235748. 6253.41   2
  -1   7  -8 208931. 5321.84   4
   1   6  -8 210250. 5349.86   4
  -6  -1  -8 201218. 4790.78   1
  -7   1  -8 210286. 5126.35   1
  -1   7  -8 210078. 5124.06  15
  -6  -1  -8 229947. 5210.58  14
  -6  -1  -8 198635. 5055.34   6
  -7   1  -8 218606. 5170.44   6
  -7   1  -5 4385.06 572.464   6
  -6  -1  -5 3590.42 484.236   6
   1   6  -5 3796.41 476.044  11
  -1   7  -5 3545.19 482.446   4
   1   6  -5 3538.30 483.139   4
  -6  -1  -5 3193.21 375.619   1
  -7   1  -5 3158.27 444.642   1
  -1   7  -5 3649.80 500.467  15
   7  -6  -5 3784.33 684.713   2
   6  -7  -5 3647.04 587.565   2
   1   6  -2 283332. 6216.65  11
  -1   7  -2 264981. 6002.37  11
  -1   7  -2 261525. 5890.81   4
   1   6  -2 265381. 6021.63   4
   7  -6  -2 303850. 6672.13   2
  -6  -1  -2 272156. 5691.13   1
   6  -7  -2 275665. 6088.96   2
  -7   1  -2 287878. 6145.03   1
  -1   7  -2 233731. 6075.85  15
   1   6  -2 256551. 5570.31  15
   1   6   1 4139.71 506.719  11
  -1   7   1 4136.35 500.128  11
  -1   7   1 3490.41 392.402   4
   1   6   1 3882.51 428.340   4
  -6  -1   1 3544.39 391.840   1
  -1   7   1 3743.86 467.253  10
   7  -6   1 4236.76 509.667   2
  -7   1   1 3317.43 428.304   1
   6  -7   1 3880.01 436.750   2
   1   6   1 3998.72 385.704  15
  -1   7   1 3104.87 504.468  15
  -6  -1   1 3591.37 448.013   6
  -6  -1   4 228179. 5133.99  13
  -6  -1   4 240976. 5172.65   1
   1   6   4 238780. 5552.65  11
  -1   7   4 241368. 5574.91  11
  -7   1   4 271342. 5552.28   1
  -1   7   4 233844. 5520.20  10
   7  -6   4 248945. 5314.43   2
   6  -7   4 237178. 5166.25   2
  -1   7   4 277915. 6223.95  15
   1   6   4 222154. 4965.57  15
  -6  -1   7 3473.90 360.010  13
  -6  -1   7 3489.14 409.991   1
  -7   1   7 3091.47 386.957   1
   1   6   7 3928.27 490.399  11
  -1   7   7 3593.37 463.093  10
   7  -6   7 3455.95 382.289   2
   7  -6   7 3918.00 515.886   9
   6  -7   7 3711.61 445.533   9
   6  -7   7 3051.70 349.443   2
  -1   7   7 4361.54 547.224  15
   1   6   7 2751.62 326.981  15
  -6  -1  10 255698. 5442.95   1
  -7   1  10 237882. 5273.16   1
   1   6  10 225715. 5515.78  11
  -1   7  10 252652. 5672.91  10
   7  -6  10 262923. 5672.67   9
   6  -7  10 234623. 5375.05   9
  -1   7  10 269443. 5840.40  15
   7  -5 -12 205905. 5678.43   2
  -2   7 -12 196085. 5037.43   4
   5  -7 -12 211345. 5209.41   2
   2   5 -12 186757. 4771.06   4
  -7   2 -12 198049. 4903.27   1
  -5  -2 -12 211201. 4906.39   6
  -5  -2  -9 228.072 210.474   6
  -5  -2  -9 506.879 157.112   1
  -2   7  -9 115.610 193.407   4
   2   5  -9 374.860 235.297   4
   7  -5  -9 189.983 288.775   2
  -7   2  -9 373.455 229.990   1
  -2   7  -9 694.413 252.438  15
   5  -7  -9 536.562 235.857   2
  -5  -2  -9 394.410 222.607  14
   2   5  -6 269917. 5924.39  11
   7  -5  -6 273177. 6706.19   2
  -2   7  -6 259026. 5863.83   4
   2   5  -6 265556. 6041.99   4
   5  -7  -6 278814. 6283.30   2
  -5  -2  -6 238247. 5192.38   1
  -7   2  -6 247584. 5901.82   1
  -2   7  -6 245888. 6301.63  15
  -5  -2  -6 252124. 5815.53   6
  -5  -2  -3 215.000 251.648   6
  -5  -2  -3 466.104 152.926   1
   2   5  -3 773.861 272.618  11
  -2   7  -3 554.839 245.757  10
  -7   2  -3 947.168 253.667   1
  -2   7  -3 429.693 201.738   4
   2   5  -3 442.255 230.274   4
   7  -5  -3 1021.94 405.785   2
  -2   7  -3 804.234 425.824  15
   5  -7  -3 703.791 270.126   2
   2   5   0 303609. 6886.87  11
  -2   7   0 290070. 6395.53   4
  -5  -2   0 313405. 6299.28   1
   7  -5   0 330371. 7234.91   2
  -2   7   0 315899. 7297.84  10
   2   5   0 295013. 6552.62   4
   5  -7   0 303091. 6509.63   2
  -7   2   0 360259. 7403.29   1
  -2   7   0 294264. 7960.49  15
  -5  -2   0 332288. 6958.64   6
   5  -7   3 768.650 220.577   2
  -5  -2   3 748.253 215.275  13
  -7   2   3 607.445 242.332   1
   2   5   3 417.019 202.864  11
  -2   7   3 496.358 226.541  10
  -2   7   3 469.579 155.199   4
   5  -7   3 790.535 238.256   7
  -2   7   3 1233.56 416.237  15
   7  -5   3 487.688 216.229   2
  -5  -2   3 437.365 179.445   1
  -5  -2   3 827.246 253.849   6
  -5  -2   6 272691. 5835.16  13
  -5  -2   6 271343. 5792.97   1
   2   5   6 265480. 6273.22  11
  -7   2   6 274742. 5852.34   1
   7  -5   6 289020. 5824.64   2
  -2   7   6 262286. 6400.91  10
   5  -7   6 269688. 5631.22   9
   5  -7   6 267418. 5695.92   2
   5  -7   6 275637. 5920.44   7
  -2   7   6 295558. 6721.23  15
   5  -7   9 312.223 155.170   2
  -5  -2   9 681.733 187.476  13
   2   5   9 362.863 193.178  11
  -2   7   9 454.419 242.813  10
   7  -5   9 651.654 256.685   9
  -5  -2   9 407.501 180.310   1
   5  -7   9 674.716 210.323   7
  -2   7   9 633.202 259.517  15
  -7   2   9 586.516 194.738   1
   2   5  12 226071. 5020.58  12
  -7   2  12 205629. 4787.17   1
   7  -5  12 207391. 4941.58  12
   2   5  12 209446. 5155.46  11
  -2   7  12 233051. 5456.45  10
   7  -5  12 247700. 5355.95   9
   5  -7  12 238331. 5147.88   7
  -5  -2  12 225437. 5108.09   7
  -2   7  12 237281. 5432.44  15
  -4  -3 -13 721.887 250.233   6
  -3   7 -13 890.491 201.726  14
  -7   3 -13 548.122 228.479   1
  -3   7 -13 866.755 267.728   4
   3   4 -13 937.643 240.670   4
   7  -4 -13 463.420 274.042   2
  -4  -3 -13 1029.63 304.292  14
   7  -4 -10 276116. 6852.33   2
  -3   7 -10 264016. 6028.15   4
   3   4 -10 250730. 5687.30   4
   4  -7 -10 253664. 6039.80   2
  -4  -3 -10 293451. 6235.97  14
  -7   3 -10 268451. 6153.72   1
  -4  -3 -10 281740. 6080.62   6
  -4  -3  -7 1289.40 312.113   6
  -3   7  -7 1610.99 400.443  10
  -3   7  -7 1298.09 294.472   4
   3   4  -7 1086.41 264.505   4
   7  -4  -7 1533.47 457.946   2
  -3   7  -7 1783.11 456.310  15
  -7   3  -7 1597.80 396.443   1
   4  -7  -7 1035.66 287.503   2
   7  -4  -4 290463. 6793.03   2
  -3   7  -4 253157. 5773.92   4
  -4  -3  -4 299150. 5468.86   1
  -3   7  -4 273072. 6741.88  10
   3   4  -4 255259. 5821.17   4
   4  -7  -4 253445. 5707.82   2
  -7   3  -4 239866. 6173.70   1
  -3   7  -4 322065. 8141.84  15
  -4  -3  -4 250613. 5975.41   6
  -4  -3  -1 1974.39 487.593   6
   4  -7  -1 1421.41 272.013   2
  -4  -3  -1 1933.77 317.233  13
  -4  -3  -1 1876.85 260.690   1
  -3   7  -1 1810.84 473.514  10
  -7   3  -1 1731.83 436.667   1
  -3   7  -1 1533.71 286.353   4
   3   4  -1 1878.36 342.501   4
   4  -7  -1 2038.22 325.995   7
   7  -4  -1 1831.92 466.326   2
  -3   7  -1 2249.81 568.168  15
  -4  -3   2 310095. 6518.82  13
  -4  -3   2 325580. 6378.62   1
   3   4   2 307022. 7052.10  11
  -3   7   2 310066. 6576.22   4
   7  -4   2 297622. 7006.07   2
  -3   7   2 299082. 7657.30  10
   3   4   2 322983. 6549.95   4
  -7   3   2 353411. 7198.32   1
   4  -7   2 311430. 6457.53   2
   4  -7   2 306432. 6588.71   7
  -3   7   2 276849. 7699.01  15
  -4  -3   2 318052. 6810.82   6
   4  -7   5 1483.32 288.527   2
  -4  -3   5 1585.02 309.493  13
  -7   3   5 1608.23 299.070   1
   3   4   5 1932.16 422.119  11
  -3   7   5 1780.45 467.434  10
  -4  -3   5 1139.49 240.124   1
   4  -7   5 1910.56 333.491   7
   7  -4   5 1763.27 354.871   2
  -3   7   5 2106.31 511.573  15
  -4  -3   8 277203. 5973.67  13
  -4  -3   8 261180. 5887.17   1
   3   4   8 301688. 5783.61  12
   7  -4   8 248280. 5650.42  12
   3   4   8 266551. 6341.24  11
  -7   3   8 255070. 5672.41   1
  -3   7   8 288029. 6888.57  10
   7  -4   8 306420. 6387.67   9
   4  -7   8 278722. 5858.74   2
   4  -7   8 284563. 6118.29   7
  -3   7   8 287266. 6498.49  15
   4  -7  11 1637.09 279.657   2
  -4  -3  11 1448.67 268.513  13
   3   4  11 1494.48 279.065  12
   7  -4  11 1501.68 291.529  12
   3   4  11 1211.80 295.607  11
  -3   7  11 1225.73 381.012  10
   7  -4  11 1638.99 355.660   9
   4  -7  11 1759.39 345.563   7
  -7   3  11 953.326 207.431   1
  -3   7  11 1713.12 361.279  15
  -4  -3  11 1697.26 345.391   7
   3   4  14 190530. 4725.28  11
  -4  -3  14 198653. 4734.54   7
   3  -7 -14 161637. 4338.88   5
  -4   7 -14 173764. 4027.86   1
  -3  -4 -11 1390.09 325.446   6
  -3  -4 -11 1596.23 279.766  13
  -7   4 -11 1541.92 324.959   1
  -4   7 -11 957.071 256.065   4
   4   3 -11 1475.04 277.051   4
   7  -3 -11 1315.45 338.566   2
  -4   7 -11 1085.86 247.668   1
   3  -7 -11 1214.93 268.495   2
  -3  -4 -11 1570.04 357.926  14
  -3  -4  -8 246328. 5566.19  13
   7  -3  -8 294928. 6586.27   2
  -4   7  -8 267113. 5810.42   4
  -4   7  -8 269360. 6164.59  10
   4   3  -8 263527. 5551.31   4
   3  -7  -8 251039. 5881.50   2
  -4   7  -8 296332. 6438.37  15
  -3  -4  -8 240186. 5737.73   6
  -7   4  -8 247405. 5976.73   1
  -3  -4  -5 1355.30 306.236   6
   3  -7  -5 1697.77 294.200   2
  -3  -4  -5 1900.10 337.775  13
  -4   7  -5 1878.13 487.007  10
  -4   7  -5 1624.30 301.043   4
   4   3  -5 1348.19 256.179   4
   7  -3  -5 1713.40 439.539   2
  -4   7  -5 1716.42 450.835  15
  -7   4  -5 1941.35 498.748   1
   3  -7  -2 306011. 7081.71  13
  -3  -4  -2 327416. 6643.49  13
  -3  -4  -2 347732. 6278.47   1
   7  -3  -2 313326. 7264.51   2
  -4   7  -2 304336. 6583.76   4
  -4   7  -2 332531. 8375.79  10
   4   3  -2 290952. 6407.56   4
   3  -7  -2 303709. 6411.63   2
   4   3  -2 299317. 6234.17   8
   3  -7  -2 312969. 6491.82   7
  -7   4  -2 333913. 7555.12   1
  -4   7  -2 313983. 8056.01  15
  -3  -4  -2 328363. 7204.41   6
  -3  -4   1 1957.52 415.518   6
  -3  -4   1 1647.46 305.458  13
  -3  -4   1 1883.45 274.527   1
  -7   4   1 1833.33 394.551   1
  -4   7   1 1572.30 515.350  10
   4   3   1 1355.99 268.779   4
   4   3   1 1832.64 282.928   8
   7  -3   1 1356.46 374.793   2
   3  -7   1 2187.59 402.875   7
  -4   7   1 2457.47 564.180  15
  -3  -4   4 280793. 6142.01  13
  -3  -4   4 255976. 5698.43   1
   7  -3   4 288562. 5782.93  12
   7  -3   4 287088. 6336.56   2
  -7   4   4 290924. 5872.95  10
  -4   7   4 291460. 7675.48  10
  -7   4   4 248828. 5767.90   1
   4   3   4 255885. 5860.83   8
   3  -7   4 279558. 6360.18   7
  -4   7   4 275375. 6993.50  15
  -7   4   7 1219.49 231.023   1
  -3  -4   7 1530.78 355.154  13
   7  -3   7 1508.70 288.032  12
   4   3   7 1087.34 304.076  11
  -4   7   7 2596.34 676.415  10
   7  -3   7 1959.14 407.644   9
   4   3   7 1050.74 266.314   8
   3  -7   7 1504.50 361.034   7
  -4   7   7 1725.97 394.404  15
  -3  -4   7 1420.66 326.773   7
  -3  -4  10 258050. 5984.63  13
   4   3  10 293611. 5905.58  12
   7  -3  10 277788. 6107.68  12
  -7   4  10 260534. 5653.77   1
   4   3  10 267215. 6470.61  11
   7  -3  10 283734. 6214.25   9
   3  -7  10 279334. 6362.88   7
  -3  -4  10 287658. 6607.99   7
  -4   7  10 284086. 6333.08  15
  -3  -4  13 981.623 242.294  13
   4   3  13 1363.11 292.033  12
   7  -3  13 603.470 190.708  12
   4   3  13 681.220 231.991  11
  -4   7  13 1251.64 342.523  10
   7  -3  13 1449.63 306.092   9
   3  -7  13 1194.35 309.346   7
  -3  -4  13 1017.04 328.122   7
  -4   7  13 1308.34 306.479  15
  -7   5 -12 199969. 4730.73   1
  -2  -5 -12 197512. 4674.91  13
   7  -2 -12 233518. 4879.87   2
  -5   7 -12 227013. 4937.29   4
  -5   7 -12 168006. 4433.24   1
   5   2 -12 223690. 4640.38   4
  -2  -5 -12 225658. 5177.02  14
  -2  -5 -12 197626. 4754.43   6
  -2  -5  -9 591.445 239.727   6
  -2  -5  -9 490.903 237.091  13
  -7   5  -9 410.881 217.847   1
  -5   7  -9 611.518 224.490   4
   5   2  -9 641.144 201.290   4
   7  -2  -9 862.253 263.112   2
  -5   7  -9 446.451 164.039   1
   2  -7  -9 439.832 177.630   2
  -2  -5  -6 267792. 6025.11  13
   7  -2  -6 290080. 6110.49   2
  -5   7  -6 274943. 5964.31   4
  -5   7  -6 276302. 6568.24  10
   5   2  -6 286784. 5752.63   4
   2  -7  -6 252597. 5832.32   2
  -5   7  -6 284740. 6430.01  15
  -2  -5  -6 274582. 5836.93   7
  -2  -5  -6 243118. 5966.21   6
  -7   5  -6 297163. 6640.00   1
  -2  -5  -3 798.023 309.411   6
   2  -7  -3 678.674 193.197   2
   2  -7  -3 1133.84 322.475  13
  -2  -5  -3 563.232 228.559  13
  -5   7  -3 966.485 412.210  10
   5   2  -3 757.417 193.904   4
   5   2  -3 705.158 183.944   8
   7  -2  -3 748.972 228.381   2
   2  -7  -3 571.756 197.810   7
  -5   7  -3 486.565 319.512  15
  -7   5  -3 823.187 334.173   1
  -2  -5  -3 436.260 200.678   7
   2  -7   0 302707. 7282.10  13
  -2  -5   0 301424. 6731.60  13
   7  -2   0 306506. 6491.57   2
  -5   7   0 350412. 9141.79  10
   5   2   0 306487. 6195.15   4
   5   2   0 294855. 6242.07   8
  -7   5   0 311944. 7046.00   1
   2  -7   0 275574. 6576.27   7
  -2  -5   0 302913. 6668.76   7
  -5   7   0 303689. 7592.51  15
  -2  -5   0 351985. 7314.16   6
   2  -7   3 495.797 308.869  13
  -2  -5   3 785.842 302.381  13
  -7   5   3 660.039 266.044   1
  -7   5   3 815.651 253.773  10
  -5   7   3 463.960 347.276  10
   5   2   3 455.640 203.747   8
   7  -2   3 593.149 203.115   2
   2  -7   3 617.980 296.233   7
  -5   7   3 547.729 321.628  15
  -2  -5   3 708.870 288.658   7
   2  -7   6 263561. 6639.50  13
  -2  -5   6 278478. 6432.95  13
   7  -2   6 288046. 5958.61  12
  -7   5   6 262336. 5817.65  10
  -5   7   6 241061. 6709.07  10
   7  -2   6 274645. 6043.95   9
   5   2   6 239950. 5841.63   8
   2  -7   6 289804. 6963.98   7
  -2  -5   6 258370. 6320.09   7
  -5   7   6 279175. 6451.48  15
  -2  -5   9 443.769 236.942  13
   7  -2   9 230.733 181.792  12
   5   2   9 327.214 198.724  11
  -7   5   9 310.944 172.927  10
  -5   7   9 252.337 203.187  10
   7  -2   9 398.390 222.332   9
   5   2   9 824.060 277.988   8
   2  -7   9 480.133 324.910   7
  -2  -5   9 407.844 337.768   7
  -5   7   9 349.465 199.798  15
  -2  -5  12 211365. 5131.41  13
   7  -2  12 222920. 5470.35  12
   5   2  12 192940. 4978.73  11
  -5   7  12 213564. 5347.22  10
   7  -2  12 235005. 5217.83   9
   7  -2  12 239131. 5559.54   8
   5   2  12 244947. 5866.77   8
   2  -7  12 233043. 5798.37   7
  -2  -5  12 245344. 6051.70   7
  -5   7  12 203733. 5046.36  15
  -7   6 -10 232079. 5262.75   1
   7  -1 -10 266664. 5258.71   2
  -6   7 -10 199393. 4900.92   1
   6   1 -10 266746. 5191.41   4
  -1  -6 -10 228690. 5557.77  14
  -1  -6 -10 215056. 5205.22   6
  -7   6  -7 3224.52 447.586   1
  -1  -6  -7 2803.83 433.365   6
  -1  -6  -7 3006.18 435.333  13
  -6   7  -7 2685.67 350.253   1
   7  -1  -7 3810.10 418.602   2
   6   1  -7 3725.78 409.747   4
   1  -7  -7 3332.19 428.375   2
  -7   6  -7 4002.47 460.062  15
  -6   7  -7 4171.26 502.311  15
   1  -7  -4 205141. 5283.98  13
  -1  -6  -4 242091. 5645.46  13
   7  -1  -4 250151. 5089.00   2
  -6   7  -4 228908. 5653.73  10
   6   1  -4 255240. 5099.38   4
   6   1  -4 245037. 4923.17   8
  -1  -6  -4 228253. 5103.08   7
  -6   7  -4 246724. 5769.91  15
  -7   6  -4 254535. 5500.11  15
  -7   6  -4 230424. 5530.40   1
   1  -7  -4 187475. 5240.01   6
  -1  -6  -4 205486. 5315.62   6
   1  -7  -1 3761.68 571.236  13
  -1  -6  -1 4388.10 604.892  13
   7  -1  -1 4150.07 410.540   2
  -7   6  -1 4739.81 585.321  10
  -6   7  -1 3159.06 594.430  10
   6   1  -1 3916.31 397.422   4
   6   1  -1 4472.57 432.910   8
  -7   6  -1 3721.93 530.299   1
   1  -7  -1 3316.26 425.519   7
  -1  -6  -1 3775.13 460.876   7
  -6   7  -1 4013.61 652.350  15
  -1  -6  -1 4014.66 570.842   6
   1  -7   2 322749. 7655.86  13
  -1  -6   2 282152. 6949.83  13
   7  -1   2 301466. 5846.61   2
  -7   6   2 287945. 6547.54  10
  -6   7   2 248435. 6747.41  10
   6   1   2 317962. 5918.21   4
   6   1   2 274548. 6030.34   8
   1  -7   2 256549. 6252.94   7
  -1  -6   2 260896. 6278.13   7
  -6   7   2 281264. 7029.95  15
   1  -7   5 3949.34 715.362  13
  -1  -6   5 4677.42 764.065  13
  -7   6   5 3969.92 505.758  10
  -6   7   5 3005.65 521.987  10
   7  -1   5 4551.62 521.303   9
   6   1   5 4036.96 464.082   8
   1  -7   5 3535.99 541.578   7
  -6   7   5 3599.63 519.557  15
  -1  -6   5 2941.57 481.739   7
   1  -7   8 223517. 6032.05  13
  -1  -6   8 241209. 5883.90  13
  -7   6   8 205930. 4994.12  10
  -6   7   8 207930. 5381.86  10
   7  -1   8 233055. 5221.16   9
   7  -1   8 214865. 5230.72   8
   6   1   8 210011. 5180.41   8
  -1  -6   8 188858. 5420.55   7
  -6   7   8 199847. 4965.09  15
  -1  -6  11 2651.15 470.909  13
   7  -1  11 3020.07 467.846  12
   6   1  11 2921.99 394.775  11
  -7   6  11 3092.49 372.714  10
  -6   7  11 2646.68 419.814  10
   7  -1  11 3079.09 429.877   9
   7  -1  11 3128.93 493.425   8
   6   1  11 2941.03 492.780   8
  -6   7  11 3109.76 421.657  15
  -7   7  -8 182519. 4472.99   1
  -7   7  -8 215236. 4715.68  15
   0  -7  -5-262.480 225.238   6
   0  -7  -5 6.98456 152.677  13
   7   0  -5 0.92911 112.893   8
  -7   7  -5 78.9413 145.037  15
   0  -7  -2 212999. 5380.68  13
  -7   7  -2 225328. 5377.40  10
   7   0  -2 239275. 4948.64   8
   0  -7  -2 209521. 4961.63   7
  -7   7  -2 233557. 5602.21  15
   0  -7  -2 203237. 5269.41   6
   0  -7   1 126.834 264.738  13
  -7   7   1 567.173 290.611  10
   7   0   1 195.983 179.835   8
   0  -7   1 174.836 174.640   7
  -7   7   1 92.4283 250.279  15
   0  -7   4 246177. 6286.66  13
   7   0   4 237662. 5154.80   8
   0  -7   7 274.589 357.381  13
  -7   7   7-81.6015 167.744  10
   7   0   7-30.6444 137.543   8
   0  -7   7 52.6474 227.174   7
  -7  -1  -3 51.8957 208.497   6
  -1   8  -3 130.271 119.335   4
   1   7  -3 32.5774 130.878   4
  -1   8  -3 220.000 145.200  15
  -1   8   0 180034. 4577.49  15
  -7  -1   0 186796. 4436.11   6
  -7  -1   3 146.709 139.253  13
   8  -7   3 393.431 178.782   2
   2   6  -4 248387. 5610.13  11
  -2   8  -4 230384. 5185.24   4
   8  -6  -4 274021. 6518.22   2
  -6  -2  -4 202548. 4764.20   1
   2   6  -4 230100. 5438.54   4
   6  -8  -4 243358. 5436.10   2
  -8   2  -4 232940. 5503.71   1
  -2   8  -4 210623. 5720.86  15
  -6  -2  -4 242495. 5580.40   6
  -6  -2  -1 165.774 235.290   6
  -6  -2  -1 209.612 117.401   1
  -6  -2  -1 178.625 149.257  13
  -8   2  -1 663.822 260.709   1
  -2   8  -1 306.492 164.290   4
   2   6  -1 391.223 184.613   4
   8  -6  -1 500.930 297.432   2
  -2   8  -1 179.053 218.869  15
   6  -8  -1 390.523 210.272   2
  -6  -2   2 212617. 4618.82  13
  -6  -2   2 206470. 4477.25   1
   2   6   2 204904. 5126.11  11
  -2   8   2 181543. 4455.85   4
   8  -6   2 209199. 4891.10   2
  -2   8   2 181169. 4982.06  10
  -8   2   2 223308. 5008.75   1
   6  -8   2 203634. 4678.81   2
  -2   8   2 259931. 6569.06  15
  -6  -2   2 223256. 4881.32   6
  -8   2   5 400.561 192.220   1
  -6  -2   5 333.889 159.600  13
   2   6   5 311.521 207.839  11
  -2   8   5 531.807 228.722  10
   8  -6   5 438.922 186.917   2
  -6  -2   5 290.541 140.737   1
  -2   8   5 361.493 257.419  15
   6  -8   5 311.618 169.637   2
   3   5  -8 221269. 5102.28   4
  -3   8  -8 227874. 5569.17  15
  -5  -3  -5 33.2277 189.294   6
  -5  -3  -5 262.273 152.945  13
   3   5  -5 253.443 197.217  11
  -3   8  -5 383.816 191.577   4
  -8   3  -5 254.594 242.264   1
   3   5  -5 196.484 168.106   4
   8  -5  -5-44.8116 287.953   2
  -3   8  -5 527.090 370.059  15
   5  -8  -5 251.725 175.080   2
  -5  -3  -2 182964. 4289.69  13
   3   5  -2 195106. 4908.13  11
  -5  -3  -2 183539. 4030.17   1
  -3   8  -2 183277. 4359.62   4
   8  -5  -2 204306. 5422.73   2
  -3   8  -2 186021. 5311.62  10
   3   5  -2 179745. 4586.27   4
   5  -8  -2 192826. 4375.99   2
  -8   3  -2 206224. 5170.30   1
  -3   8  -2 212276. 6480.80  15
  -5  -3  -2 192351. 4755.94   6
   5  -8   1 99.4796 144.595   2
  -5  -3   1 397.941 193.086  13
  -8   3   1 75.3657 205.132   1
   3   5   1 46.2702 198.957  11
  -3   8   1 145.799 215.002  10
  -3   8   1 263.149 177.562   4
   5  -8   1 100.603 131.096   7
   8  -5   1-182.444 239.041   2
  -3   8   1 54.9158 263.002  15
  -5  -3   1 206.405 136.166   1
  -5  -3   1 519.572 265.170   6
  -5  -3   4 278026. 6043.72  13
  -5  -3   4 279204. 5883.83   1
   3   5   4 276338. 6605.44  11
   8  -5   4 289568. 6243.51   2
  -3   8   4 296342. 7119.05  10
  -8   3   4 271805. 6081.35   1
   5  -8   4 311536. 6171.96   2
   5  -8   4 276620. 6130.72   7
  -3   8   4 299430. 7386.38  15
   5  -8   7 71.9984 153.235   2
  -8   3   7 238.739 156.336   1
  -5  -3   7 111.786 165.743  13
   8  -5   7 381.726 184.124  12
   3   5   7-5.93407 162.979  11
  -3   8   7-96.0735 188.298  10
   8  -5   7 368.124 256.255   9
  -5  -3   7 223.787 123.467   1
   5  -8   7 250.039 197.083   7
  -3   8   7 449.432 179.173  15
   4  -8  -9 108.782 165.798   2
  -4   8  -6 237314. 5351.90   4
  -4   8  -6 228732. 5924.99  10
   4   4  -6 233603. 5108.06   4
   4  -8  -6 230481. 5310.00   2
  -8   4  -6 220133. 5708.50   1
  -4  -4  -6 223835. 5392.45   6
  -4  -4  -3 4.50910 230.778   6
   4  -8  -3 125.435 129.792   2
  -4  -4  -3-39.5317 127.446  13
  -4   8  -3 77.9199 250.474  10
  -4   8  -3 436.795 195.659   4
  -8   4  -3 207.692 333.938   1
   4   4  -3 61.7020 109.300   4
   8  -4  -3 213.930 271.585   2
  -4   8  -3-182.674 269.608  15
  -4  -4   0 250922. 5275.05  13
  -4   8   0 232220. 5226.59   4
   8  -4   0 223521. 5851.41   2
  -4   8   0 245553. 6787.96  10
   4   4   0 215084. 5113.64   4
   4  -8   0 223966. 5034.08   2
  -8   4   0 272959. 6243.09   1
   4  -8   0 223498. 5094.18   7
  -4   8   0 228891. 6744.45  15
  -4  -4   0 262233. 5778.92   6
   4  -8   3 88.6054 129.400   2
  -4  -4   3 21.2171 155.730  13
  -8   4   3 71.9218 158.225   1
   8  -4   3 298.282 158.924  12
   4   4   3 188.114 207.497  11
  -4   8   3 152.311 295.529  10
  -4  -4   3 112.336 111.879   1
   8  -4   3 61.9883 190.419   2
   4  -8   3 167.298 205.721   7
  -4   8   3 127.342 253.728  15
  -4  -4   6 279533. 5742.83  13
  -4  -4   6 230884. 5206.98   1
   8  -4   6 223702. 5100.83  12
   4   4   6 242031. 5996.38  11
  -8   4   6 213465. 5140.62   1
  -4   8   6 248481. 6577.85  10
   8  -4   6 261899. 5998.40   9
   4  -8   6 249150. 5317.39   2
   4  -8   6 261752. 5696.33   7
  -4  -4   6 256632. 5564.00   7
  -4   8   6 253065. 6216.74  15
   4  -8   9-9.74294 148.010   2
  -4  -4   9 249.436 174.833  13
   8  -4   9 98.3333 131.260  12
   3  -8  -7 286.134 175.078   2
  -3  -5  -7 347.379 190.129   6
  -3  -5  -7 252.592 155.497  13
  -5   8  -7 48.2122 169.185  10
  -5   8  -7 308.602 174.105   4
   5   3  -7 86.2206 133.030   4
   8  -3  -7-30.6675 218.807   2
  -5   8  -7 379.103 250.617  15
  -8   5  -7 140.609 255.456   1
  -3  -5  -4 295813. 6088.45  13
   8  -3  -4 295940. 6407.05   2
  -5   8  -4 292968. 7186.39  10
   5   3  -4 268999. 5768.56   4
   3  -8  -4 258458. 5846.62   2
  -8   5  -4 304023. 6990.75   1
  -5   8  -4 278480. 6885.43  15
  -3  -5  -4 269188. 6036.72   7
  -3  -5  -4 263041. 6171.64   6
  -3  -5  -1 555.913 282.304   6
   3  -8  -1 210.590 137.716   2
  -3  -5  -1 42.9559 151.471  13
  -5   8  -1 427.735 386.948  10
  -8   5  -1 387.567 290.571   1
   5   3  -1-2.54602 110.502   4
   5   3  -1 25.5337 118.751   8
   8  -3  -1 78.4384 195.505   2
   3  -8  -1 232.492 162.087   7
  -5   8  -1 441.687 400.962  15
  -3  -5  -1 353.133 183.384   7
  -3  -5   2 211363. 4836.08  13
   8  -3   2 185042. 4492.18   2
  -8   5   2 193751. 4568.95  10
  -5   8   2 209422. 6569.38  10
  -8   5   2 180133. 4653.27   1
   5   3   2 181218. 4289.98   8
   3  -8   2 196781. 4400.90   2
   3  -8   2 174430. 4522.59   7
  -3  -5   2 202744. 4734.54   7
  -5   8   2 201462. 5898.73  15
  -3  -5   2 230263. 5090.58   6
  -3  -5   5 225.971 235.218  13
  -5   8   5 414.441 457.040  10
   8  -3   5 322.343 247.353   9
   5   3   5 128.691 143.600   8
   3  -8   5 282.231 258.050   7
  -5   8   5 186.770 231.989  15
  -3  -5   5 367.609 202.345   7
  -3  -5   8 260187. 5888.52  13
   8  -3   8 250949. 5621.39  12
   5   3   8 249111. 6286.02  11
   8  -3   8 268805. 5922.22   9
  -5   8   8 238381. 5884.99  15
  -2  -6  -5 226.141 221.002   6
   2  -8  -5 444.645 164.824   2
  -2  -6  -5 465.257 219.693  13
  -6   8  -5 501.151 287.901  10
   6   2  -5 260.304 154.053   4
   8  -2  -5 481.586 216.188   2
  -8   6  -5 402.128 260.953   1
  -6   8  -5 418.060 250.801  15
   2  -8  -2 166084. 4732.60  13
  -2  -6  -2 224589. 5037.58  13
   8  -2  -2 197383. 4481.52   2
  -6   8  -2 210045. 5819.46  10
   6   2  -2 197442. 4329.64   4
   6   2  -2 206274. 4327.15   8
   2  -8  -2 200519. 4475.33   2
  -8   6  -2 201018. 5152.89   1
  -2  -6  -2 175566. 4561.33   7
  -6   8  -2 204737. 5519.64  15
  -2  -6  -2 194686. 4796.88   6
   2  -8   1 226.809 255.897  13
  -2  -6   1 245.837 244.420  13
  -8   6   1 239.469 180.634  10
  -6   8   1-27.3103 257.203  10
   6   2   1 273.422 122.461   8
   8  -2   1 220.627 139.051   2
   2  -8   1 171.676 136.075   7
  -6   8   1 90.0890 286.706  15
  -2  -6   1 285.528 207.200   7
   2  -8   4 251072. 6487.22  13
  -2  -6   4 234895. 5633.82  13
  -8   6   4 226161. 5338.02  10
  -6   8   4 208447. 6132.17  10
   8  -2   4 232644. 5287.95   9
   6   2   4 238288. 5177.57   8
   2  -8   4 210890. 5464.91   7
  -2  -6   4 242336. 5637.04   7
  -6   8   4 243879. 6102.20  15
   8  -2   7 389.431 201.526   9
  -6   8   7 260.161 150.901  15
   1  -8  -3 74.0423 181.614  13
   8  -1  -3 261.102 145.750   2
   7   1  -3 256.190 129.590   4
  -7   8  -3 178.945 202.595  15
   7   1   0 200660. 4318.24   8
   1  -8   0 177338. 4473.48   7
  -1  -7   0 181462. 4512.98   7
  -7   8   0 201496. 5353.70  15
   0   0   0    0.00    0.00   0
TITL paper_1948_red_abscor in R3c
REM R3c (#161 in standard setting)
CELL 0.71073   5.147901   5.147901  13.767243  90.0000  90.0000 120.0000
ZERR    6.00   0.000174   0.000174   0.000492   0.0000   0.0000   0.0000
LATT -3
SYMM -y, x-y, z
SYMM -x+y,-x, z
SYMM -y,-x, z+1/2
SYMM -x+y, y, z+1/2
SYMM  x, x-y, z+1/2
SFAC Li O Ta
UNIT 6.00 18.00 6.00
TREF
HKLF 4
END
;
_shelx_hkl_checksum              62769
_shelx_res_file
;
    paper_1948_red_abscor.res created by SHELXL-2014/7
TITL paper_1948_red_abscor in R3c
REM R3c (#161 in standard setting)
CELL 0.71073 5.148 5.148 13.767 90 90 120
ZERR 6 0.001 0.001 0.005 0 0 0
LATT -3
SYMM -Y,+X-Y,+Z
SYMM +Y-X,-X,+Z
SYMM -Y,-X,0.5+Z
SYMM +Y-X,+Y,0.5+Z
SYMM +X,+X-Y,0.5+Z
SFAC Li O Ta
UNIT 6 18 6
L.S. 10
PLAN  25
LIST 3
fmap 2
acta
MERG 2
TWIN -1 0 0 0 -1 0 0 0 -1 2
REM <olex2.extras>
REM <HklSrc "%.\\paper_1948_red_abscor.hkl">
REM </olex2.extras>
WGHT    0.024400    0.056500
EXTI    0.032267
BASF   0.36926
FVAR       3.43710
TA    3    0.000000    0.000000    0.001300    10.33333    0.00448    0.00448 =
         0.00404    0.00000    0.00000    0.00224
O     2    0.050174    0.344303    0.070070    11.00000    0.00674    0.00435 =
         0.00709   -0.00179   -0.00243    0.00252
LI    1    0.000000    0.000000    0.282281    10.33333    0.00678    0.00678 =
         0.02686    0.00000    0.00000    0.00339
HKLF 4
REM  paper_1948_red_abscor in R3c
REM R1 =  0.0165 for     369 Fo > 4sig(Fo)  and  0.0166 for all     374 data
REM     18 parameters refined using      1 restraints
END
WGHT      0.0244      0.0565
REM Highest difference peak  2.117,  deepest hole -1.250,  1-sigma level  0.503
Q1    1   0.0732 -0.0626  0.0364  11.00000  0.05    2.12
Q2    1  -0.0680  0.0576 -0.0322  11.00000  0.05    2.09
Q3    1  -0.1488 -0.1398  0.0007  11.00000  0.05    1.85
Q4    1   0.1366  0.1464  0.0006  11.00000  0.05    1.78
Q5    1   0.0563 -0.0593 -0.0730  11.00000  0.05    1.27
Q6    1   0.1141  0.0574  0.0772  11.00000  0.05    1.18
Q7    1  -0.1836  0.1497  0.0060  11.00000  0.05    0.86
Q8    1   0.1186  0.4595  0.1064  11.00000  0.05    0.86
Q9    1   0.1225  0.3361 -0.0028  11.00000  0.05    0.82
Q10   1  -0.0217  0.2297  0.0360  11.00000  0.05    0.81
Q11   1  -0.2630 -0.2347 -0.0333  11.00000  0.05    0.75
Q12   1  -0.0188 -0.2566  0.0354  11.00000  0.05    0.71
Q13   1   0.2591  0.5197  0.0613  11.00000  0.05    0.69
Q14   1   0.0685  0.1429  0.1070  11.00000  0.05    0.64
Q15   1   0.2227  0.3284  0.0958  11.00000  0.05    0.44
Q16   1   0.1613  0.4419  0.0355  11.00000  0.05    0.35
Q17   1  -0.0567  0.2293  0.2686  11.00000  0.05    0.33
Q18   1  -0.1016  0.2685  0.0674  11.00000  0.05    0.33
Q19   1   0.2831  0.4435  0.0352  11.00000  0.05    0.30
Q20   1   0.0537  0.2288  0.1356  11.00000  0.05    0.29
Q21   1   0.0415  0.2790  0.2312  11.00000  0.05    0.29
Q22   1   0.1772  0.2224  0.1337  11.00000  0.05    0.26
Q23   1  -0.0362  0.3991  0.1026  11.00000  0.05    0.26
Q24   1  -0.0203  0.2691  0.0963  11.00000  0.05    0.22
Q25   1   0.0000  0.0000  0.2018  10.33333  0.05    0.21
;
_shelx_res_checksum              59937
loop_
_space_group_symop_operation_xyz
'x, y, z'
'-y, x-y, z'
'-x+y, -x, z'
'-y, -x, z+1/2'
'-x+y, y, z+1/2'
'x, x-y, z+1/2'
'x+2/3, y+1/3, z+1/3'
'-y+2/3, x-y+1/3, z+1/3'
'-x+y+2/3, -x+1/3, z+1/3'
'-y+2/3, -x+1/3, z+5/6'
'-x+y+2/3, y+1/3, z+5/6'
'x+2/3, x-y+1/3, z+5/6'
'x+1/3, y+2/3, z+2/3'
'-y+1/3, x-y+2/3, z+2/3'
'-x+y+1/3, -x+2/3, z+2/3'
'-y+1/3, -x+2/3, z+7/6'
'-x+y+1/3, y+2/3, z+7/6'
'x+1/3, x-y+2/3, z+7/6'
loop_
_atom_site_type_symbol
_atom_site_label
_atom_site_fract_x
_atom_site_fract_y
_atom_site_fract_z
_atom_site_U_iso_or_equiv
_atom_site_adp_type
_atom_site_calc_flag
_atom_site_occupancy
Ta Ta 0.0000 0.0000 0.0013(6) 0.00433(16) Uani d 1
O O 0.0502(3) 0.3443(4) 0.0701(6) 0.0062(3) Uani d 1
Li Li 0.0000 0.0000 0.282(4) 0.013(7) Uani d 1
loop_
_atom_site_aniso_label
_atom_site_aniso_U_11
_atom_site_aniso_U_22
_atom_site_aniso_U_33
_atom_site_aniso_U_12
_atom_site_aniso_U_13
_atom_site_aniso_U_23
Ta 0.00448(18) 0.00448(18) 0.0040(2) 0.00224(9) 0.000 0.000
O 0.0067(8) 0.0044(6) 0.0071(5) 0.0025(8) -0.0024(8) -0.0018(4)
Li 0.007(8) 0.007(8) 0.027(18) 0.003(4) 0.000 0.000
loop_
_atom_type_symbol
_atom_type_description
_atom_type_scat_dispersion_real
_atom_type_scat_dispersion_imag
_atom_type_scat_source
Li Li -0.0003 0.0001 'International Tables Vol C Tables 4.2.6.8 and 6.1.1.4'
O O 0.0106 0.0060 'International Tables Vol C Tables 4.2.6.8 and 6.1.1.4'
Ta Ta -0.7052 6.5227 'International Tables Vol C Tables 4.2.6.8 and 6.1.1.4'
loop_
_exptl_crystal_face_index_h
_exptl_crystal_face_index_k
_exptl_crystal_face_index_l
_exptl_crystal_face_perp_dist
5 1 -10 0.0787
5 -5 11 0.1067
5 -6 10 0.1064
-1 5 13 0.1217
3 4 7 0.1073
-5 5 -11 0.1213
-6 0 9 0.1082
-3 5 -12 0.1191
-1 -5 -11 0.1328
-4 -2 10 0.1196
loop_
_geom_angle_atom_site_label_1
_geom_angle_atom_site_label_2
_geom_angle_atom_site_label_3
_geom_angle_site_symmetry_1
_geom_angle_site_symmetry_3
_geom_angle
_geom_angle_publ_flag
O Ta O 3 2 97.5(3) n
O Ta O 2 11_444 90.42(6) n
O Ta O 3 10_554 90.42(6) n
O Ta O 11_444 10_554 82.1(3) n
O Ta O . 11_444 169.0(4) n
O Ta O 11_444 12_454 82.1(3) n
O Ta O 3 . 97.5(3) n
O Ta O . 10_554 88.88(6) n
O Ta O 3 12_454 169.0(4) n
O Ta O 2 12_454 88.88(6) n
O Ta O 2 . 97.5(3) n
O Ta O . 12_454 90.42(6) n
O Ta O 2 10_554 169.0(4) n
O Ta O 3 11_444 88.88(6) n
O Ta O 10_554 12_454 82.1(3) n
O Ta Li 3 4_554 119.7(2) n
O Ta Li 10_554 10_444 147.6(4) n
O Ta Li 10_554 10_554 72.0(8) n
O Ta Li 2 4_554 119.7(2) n
O Ta Li . 10_554 70.4(3) n
O Ta Li 3 13_554 103.3(5) n
O Ta Li 2 13_444 48.4(9) n
O Ta Li 3 13_544 48.4(9) n
O Ta Li 3 10_554 32.98(18) n
O Ta Li 10_554 13_444 121.5(9) n
O Ta Li 12_454 4_554 49.33(18) n
O Ta Li . 13_544 141.6(5) n
O Ta Li 3 13_444 141.6(5) n
O Ta Li . 13_554 48.4(9) n
O Ta Li 10_554 13_544 76.4(6) n
O Ta Li 11_444 13_554 121.5(9) n
O Ta Li 12_454 13_554 76.4(6) n
O Ta Li . 10_444 118.6(8) n
O Ta Li . 13_444 103.3(5) n
O Ta Li 2 10_554 118.6(8) n
O Ta Li 2 13_554 141.6(5) n
O Ta Li 11_444 10_554 112.3(5) n
O Ta Li 2 13_544 103.3(5) n
O Ta Li 12_454 10_554 147.6(4) n
O Ta Li 12_454 13_444 41.7(7) n
O Ta Li 2 10_444 32.98(18) n
O Ta Li . 4_554 119.7(2) n
O Ta Li 11_444 10_444 72.0(8) n
O Ta Li 3 10_444 70.4(3) n
O Ta Li 12_454 10_444 112.3(5) n
O Ta Li 11_444 4_554 49.33(18) n
O Ta Li 10_554 13_554 41.7(7) n
O Ta Li 11_444 13_444 76.4(6) n
O Ta Li 11_444 13_544 41.7(7) n
O Ta Li 10_554 4_554 49.33(18) n
O Ta Li 12_454 13_544 121.5(9) n
Li Ta Li 13_444 10_554 165.7(18) n
Li Ta Li 13_444 10_444 71.4(2) n
Li Ta Li 13_444 13_544 114.6(7) n
Li Ta Li 4_554 13_444 76.4(10) n
Li Ta Li 13_544 10_554 71.4(2) n
Li Ta Li 4_554 13_544 76.4(10) n
Li Ta Li 13_554 10_554 71.4(2) n
Li Ta Li 13_554 13_544 114.6(7) n
Li Ta Li 4_554 10_554 117.9(8) n
Li Ta Li 13_444 13_554 114.6(7) n
Li Ta Li 4_554 13_554 76.4(10) n
Li Ta Li 13_544 10_444 71.4(2) n
Li Ta Li 4_554 10_444 117.9(8) n
Li Ta Li 10_554 10_444 99.9(10) n
Li Ta Li 13_554 10_444 165.7(18) n
Ta O Ta . 16_554 141.43(13) n
Ta O Li . 10_454 116.5(6) n
Ta O Li . 13_554 93.1(8) n
Ta O Li 16_554 13_554 87.4(9) n
Li O Ta 10_454 16_554 96.1(11) n
Li O Li 10_454 13_554 120.0(11) n
Ta Li Ta 7 16_444 165.7(18) n
Ta Li Ta 7 16_554 71.4(2) n
Ta Li Ta 7_455 16_444 71.4(2) n
Ta Li Ta 4 7_445 76.4(10) n
Ta Li Ta 7_445 7_455 114.6(7) n
Ta Li Ta 4 7_455 76.4(10) n
Ta Li Ta 7_455 16_554 71.4(2) n
Ta Li Ta 7 7_445 114.6(7) n
Ta Li Ta 7_445 16_444 71.4(2) n
Ta Li Ta 16_444 16_554 99.9(10) n
Ta Li Ta 4 7 76.4(10) n
Ta Li Ta 7 7_455 114.6(7) n
Ta Li Ta 7_445 16_554 165.7(18) n
Ta Li Ta 4 16_554 117.9(8) n
Ta Li Ta 4 16_444 117.9(8) n
O Li Ta 16_544 7_445 42.3(3) n
O Li Ta 8 7_455 111.4(16) n
O Li Ta 17_444 7_455 42.3(3) n
O Li Ta 17_444 4 107.9(14) n
O Li Ta 8 4 43.2(9) n
O Li Ta 7_445 7 111.4(16) n
O Li Ta 18_554 7_455 95.48(7) n
O Li Ta 8 7_445 84.4(9) n
O Li Ta 16_544 16_554 126.5(19) n
O Li Ta 9_455 16_444 105.9(2) n
O Li Ta 7_445 16_554 153.6(12) n
O Li Ta 18_554 4 107.9(14) n
O Li Ta 9_455 7 84.4(9) n
O Li Ta 8 16_554 105.9(2) n
O Li Ta 17_444 7_445 95.48(7) n
O Li Ta 9_455 7_445 111.4(16) n
O Li Ta 8 16_444 153.6(12) n
O Li Ta 7_445 7_455 84.4(9) n
O Li Ta 7_445 16_444 81.58(13) n
O Li Ta 9_455 7_455 38.6(2) n
O Li Ta 16_544 7_455 149.5(3) n
O Li Ta 7_445 4 43.2(9) n
O Li Ta 18_554 16_554 30.6(4) n
O Li Ta 9_455 4 43.2(9) n
O Li Ta 18_554 7 42.3(3) n
O Li Ta 17_444 7 149.5(3) n
O Li Ta 16_544 7 95.48(7) n
O Li Ta 17_444 16_444 30.6(4) n
O Li Ta 8 7 38.6(2) n
O Li Ta 18_554 16_444 126.5(19) n
O Li Ta 9_455 16_554 81.58(13) n
O Li Ta 7_445 7_445 38.6(2) n
O Li Ta 17_444 16_554 80.5(9) n
O Li Ta 18_554 7_445 149.5(3) n
O Li Ta 16_544 4 107.9(14) n
O Li Ta 16_544 16_444 80.5(9) n
O Li O 17_444 7_445 88.7(7) n
O Li O 17_444 9_455 79.8(6) n
O Li O 16_544 9_455 150(2) n
O Li O 17_444 18_554 111.0(13) n
O Li O 18_554 9_455 88.7(7) n
O Li O 18_554 8 79.8(6) n
O Li O 8 7_445 72.8(14) n
O Li O 7_445 9_455 72.8(14) n
O Li O 17_444 16_544 111.0(13) n
O Li O 18_554 16_544 111.0(13) n
O Li O 16_544 7_445 79.8(6) n
O Li O 17_444 8 150(2) n
O Li O 16_544 8 88.7(7) n
O Li O 8 9_455 72.8(14) n
O Li O 18_554 7_445 150(2) n
loop_
_geom_bond_atom_site_label_1
_geom_bond_atom_site_label_2
_geom_bond_site_symmetry_2
_geom_bond_distance
_geom_bond_publ_flag
Ta O 3 1.910(4) n
Ta O 11_444 2.068(6) n
Ta O 10_554 2.068(6) n
Ta O . 1.910(4) n
Ta O 2 1.910(4) n
Ta O 12_454 2.068(6) n
Ta Li 13_554 3.058(13) n
Ta Li 4_554 3.02(5) n
Ta Li 13_444 3.058(13) n
Ta Li 10_444 3.36(3) n
Ta Li 13_544 3.058(13) n
Ta Li 10_554 3.36(3) n
O Ta 16_554 2.068(6) n
O Li 10_454 2.045(17) n
O Li 13_554 2.29(4) n
Li Ta 16_554 3.36(3) n
Li Ta 4 3.02(5) n
Li Ta 7 3.058(13) n
Li Ta 7_445 3.058(13) n
Li Ta 16_444 3.36(3) n
Li Ta 7_455 3.058(13) n
Li O 17_444 2.045(17) n
Li O 7_445 2.29(4) n
Li O 9_455 2.29(4) n
Li O 18_554 2.045(17) n
Li O 16_544 2.045(17) n
Li O 8 2.29(4) n
