#------------------------------------------------------------------------------
#$Date: 2019-12-26 21:24:38 +0200 (Thu, 26 Dec 2019) $
#$Revision: 246104 $
#$URL: file:///home/coder/svn-repositories/cod/cif/2/31/17/2311781.cif $
#------------------------------------------------------------------------------
#
# This file is available in the Crystallography Open Database (COD),
# http://www.crystallography.net/. The original data for this entry
# were provided by IUCr Journals, http://journals.iucr.org/.
#
# The file may be used within the scientific community so long as
# proper attribution is given to the journal article from which the
# data were obtained.
#
data_2311781
loop_
_publ_author_name
'Fulle, Kyle'
'Sanjeewa, Liurukara D.'
'McMillen, Colin D.'
'Kolis, Joseph W.'
_publ_section_title
;
 Crystal chemistry and the role of ionic radius in rare earth
 tetrasilicates:
 Ba<sub>2</sub>RE<sub>2</sub>Si<sub>4</sub>O<sub>12</sub>F<sub>2</sub> (RE
 = Er<sup>3+</sup>-Lu<sup>3+</sup>) and
 Ba<sub>2</sub>RE<sub>2</sub>Si<sub>4</sub>O<sub>13</sub> (RE =
 La<sup>3+</sup>-Ho<sup>3+</sup>).
;
_journal_issue                   'Pt 5'
_journal_name_full
'Acta crystallographica Section B, Structural science, crystal engineering and materials'
_journal_page_first              907
_journal_page_last               915
_journal_paper_doi               10.1107/S2052520617009544
_journal_volume                  73
_journal_year                    2017
_chemical_formula_sum            'Ba2 O13 Si4 Tb2'
_chemical_formula_weight         912.88
_space_group_crystal_system      monoclinic
_space_group_IT_number           15
_space_group_name_Hall           '-C 2yc'
_space_group_name_H-M_alt        'C 1 2/c 1'
_audit_creation_method           SHELXL-2014/7
_cell_angle_alpha                90
_cell_angle_beta                 104.1469(15)
_cell_angle_gamma                90
_cell_formula_units_Z            4
_cell_length_a                   12.8568(5)
_cell_length_b                   5.2019(2)
_cell_length_c                   17.5243(7)
_cell_measurement_reflns_used    7901
_cell_measurement_temperature    298(2)
_cell_measurement_theta_max      33.22
_cell_measurement_theta_min      2.46
_cell_volume                     1136.48(8)
_computing_cell_refinement       'Bruker SAINT'
_computing_data_collection       'Bruker APEX3'
_computing_data_reduction        'Bruker SAINT'
_computing_molecular_graphics    'DIAMOND (Bradenburg, 1999)'
_computing_publication_material  'Bruker SHELXTL'
_computing_structure_refinement  'SHELXL-2014 (Sheldrick 2014)'
_computing_structure_solution    'SHELXL-2014 (Sheldrick 2014)'
_diffrn_ambient_temperature      302(2)
_diffrn_measured_fraction_theta_full 0.998
_diffrn_measured_fraction_theta_max 0.997
_diffrn_measurement_device_type  'Bruker Photon 100'
_diffrn_measurement_method       '\f and \w scans'
_diffrn_radiation_type           MoK\a
_diffrn_radiation_wavelength     0.71073
_diffrn_reflns_av_R_equivalents  0.0347
_diffrn_reflns_av_unetI/netI     0.0238
_diffrn_reflns_Laue_measured_fraction_full 0.998
_diffrn_reflns_Laue_measured_fraction_max 0.997
_diffrn_reflns_limit_h_max       16
_diffrn_reflns_limit_h_min       -16
_diffrn_reflns_limit_k_max       6
_diffrn_reflns_limit_k_min       -6
_diffrn_reflns_limit_l_max       22
_diffrn_reflns_limit_l_min       -22
_diffrn_reflns_number            6944
_diffrn_reflns_point_group_measured_fraction_full 0.998
_diffrn_reflns_point_group_measured_fraction_max 0.997
_diffrn_reflns_theta_full        25.242
_diffrn_reflns_theta_max         26.496
_diffrn_reflns_theta_min         2.397
_diffrn_source                   Ius
_exptl_absorpt_coefficient_mu    19.626
_exptl_absorpt_correction_T_max  1.0000
_exptl_absorpt_correction_T_min  0.8387
_exptl_absorpt_correction_type   multi-scan
_exptl_absorpt_process_details   'SADABS, Bruker'
_exptl_crystal_colour            colourless
_exptl_crystal_density_diffrn    5.335
_exptl_crystal_description       block
_exptl_crystal_F_000             1608
_exptl_crystal_size_max          0.162
_exptl_crystal_size_mid          0.158
_exptl_crystal_size_min          0.064
_refine_diff_density_max         1.084
_refine_diff_density_min         -0.936
_refine_diff_density_rms         0.245
_refine_ls_extinction_coef       0.00262(8)
_refine_ls_extinction_expression Fc^*^=kFc[1+0.001xFc^2^\l^3^/sin(2\q)]^-1/4^
_refine_ls_extinction_method     'SHELXL-2014/7 (Sheldrick 2014'
_refine_ls_goodness_of_fit_ref   1.194
_refine_ls_hydrogen_treatment    undef
_refine_ls_matrix_type           full
_refine_ls_number_parameters     97
_refine_ls_number_reflns         1177
_refine_ls_number_restraints     0
_refine_ls_restrained_S_all      1.194
_refine_ls_R_factor_all          0.0200
_refine_ls_R_factor_gt           0.0170
_refine_ls_shift/su_max          0.002
_refine_ls_shift/su_mean         0.000
_refine_ls_structure_factor_coef Fsqd
_refine_ls_weighting_details
'w=1/[\s^2^(Fo^2^)+(0.0119P)^2^+18.0813P] where P=(Fo^2^+2Fc^2^)/3'
_refine_ls_weighting_scheme      calc
_refine_ls_wR_factor_gt          0.0393
_refine_ls_wR_factor_ref         0.0485
_reflns_Friedel_coverage         0.000
_reflns_number_gt                1098
_reflns_number_total             1177
_reflns_threshold_expression     'I > 2\s(I)'
_cod_data_source_file            rm5005sup1.cif
_cod_data_source_block           Tb
_cod_original_sg_symbol_H-M      'C 2/c'
_cod_database_code               2311781
_shelx_shelxl_version_number     2014/7
_shelx_space_group_comment
;
The symmetry employed for this shelxl refinement is uniquely defined
by the following loop, which should always be used as a source of
symmetry information in preference to the above space-group names.
They are only intended as comments.
;
_shelx_estimated_absorpt_t_min   0.143
_shelx_estimated_absorpt_t_max   0.366
_shelx_res_file
;

    KF500.res created by SHELXL-2014/7


TITL KF500 in C2/c
CELL 0.71073  12.85680   5.20190  17.52430  90.0000 104.1469  90.0000
ZERR    4.00   0.00050   0.00020   0.00070   0.0000   0.0015   0.0000
LATT  7
SYMM -X, Y, 0.5-Z
SFAC O SI BA TB
UNIT 52 16 8 8
TEMP 25
SIZE 0.064 0.158 0.162

L.S. 4
BOND
FMAP 2
PLAN 20
ACTA
Omit -3 53
WGHT    0.011900   18.081299
EXTI    0.002619
FVAR       0.04797
TB1   4    0.886153    0.010501    0.415551    11.00000    0.00309    0.00519 =
         0.00301    0.00009    0.00216   -0.00016
BA1   3    0.662481    0.494573    0.333039    11.00000    0.00615    0.00703 =
         0.00599   -0.00101    0.00274   -0.00200
SI1   2    0.880922   -0.466422    0.543032    11.00000    0.00253    0.00470 =
         0.00211   -0.00051    0.00142   -0.00073
SI2   2    1.062286   -0.544718    0.683638    11.00000    0.00459    0.00356 =
         0.00328    0.00024    0.00263   -0.00008
O1    1    0.980794   -0.643960    0.599999    11.00000    0.00479    0.00551 =
         0.00332   -0.00040    0.00084   -0.00090
O2    1    0.793407   -0.456912    0.595908    11.00000    0.00561    0.00988 =
         0.01010   -0.00257    0.00586   -0.00405
O3    1    0.929198   -0.176637    0.537672    11.00000    0.00738    0.00431 =
         0.00517    0.00122    0.00262    0.00006
O4    1    0.843253   -0.599855    0.458804    11.00000    0.00725    0.00840 =
         0.00636   -0.00184    0.00198    0.00196
O5    1    0.500000    0.143237    0.250000    10.50000    0.00795    0.00838 =
         0.00463    0.00000    0.00550    0.00000
O6    1    0.918998    0.242623    0.310990    11.00000    0.01366    0.00457 =
         0.00608    0.00114    0.00300   -0.00296
O7    1    0.835225   -0.271536    0.306900    11.00000    0.00402    0.00720 =
         0.00549   -0.00023    0.00241    0.00125

HKLF 4

REM  KF500 in C2/c
REM R1 =  0.0170 for    1098 Fo > 4sig(Fo)  and  0.0200 for all    1177 data
REM     97 parameters refined using      0 restraints

END

WGHT      0.0118     16.1662

REM Highest difference peak  1.084,  deepest hole -0.936,  1-sigma level  0.245
Q1    1   0.6596  0.6516  0.3328  11.00000  0.05    1.08
Q2    1   0.6561  0.3348  0.3340  11.00000  0.05    1.07
Q3    1   0.8865 -0.1574  0.4121  11.00000  0.05    1.01
Q4    1   0.8934  0.1672  0.4131  11.00000  0.05    1.00
Q5    1   0.6196  0.4950  0.3595  11.00000  0.05    0.85
Q6    1   0.8466 -0.4996  0.5103  11.00000  0.05    0.83
Q7    1   0.6880  0.5022  0.4082  11.00000  0.05    0.82
Q8    1   0.9270  0.0102  0.3885  11.00000  0.05    0.79
Q9    1   0.8898  0.1597  0.3420  11.00000  0.05    0.77
Q10   1   0.5536  0.3960  0.3330  11.00000  0.05    0.77
Q11   1   1.0861 -0.5218  0.7325  11.00000  0.05    0.70
Q12   1   1.0789 -0.4192  0.7108  11.00000  0.05    0.70
Q13   1   0.8420 -0.1701  0.2372  11.00000  0.05    0.68
Q14   1   0.5589  0.6063  0.3299  11.00000  0.05    0.65
Q15   1   0.6726  0.4973  0.3593  11.00000  0.05    0.62
Q16   1   0.7364 -0.4976  0.6290  11.00000  0.05    0.62
Q17   1   0.5276  0.4495  0.2785  11.00000  0.05    0.61
Q18   1   0.8841 -0.1502  0.3464  11.00000  0.05    0.60
Q19   1   0.8364  0.1548  0.2388  11.00000  0.05    0.58
Q20   1   0.8471  0.0928  0.3852  11.00000  0.05    0.58
;
_shelx_res_checksum              24713
_shelx_hkl_file
;
   2   0   0    0.73    0.05
  -2   0   0    0.91    0.21
   2   0   0    0.95    0.06
  -4   0   0  758.36   28.15
  -6   0   0   47.54    2.45
  -6   0   0   46.07    1.82
   6   0   0   48.89    1.81
   8   0   0   74.59    2.59
   8   0   0   65.03    2.57
  -8   0   0   62.30    3.41
   8   0   0   67.03    2.60
  -8   0   0   66.38    2.58
 -10   0   0    1.01    0.20
 -10   0   0    3.05    1.03
  10   0   0    1.21    0.20
  12   0   0    2.23    1.98
  12   0   0    1.45    0.23
  12   0   0    2.14    0.27
 -12   0   0    1.14    0.30
  12   0   0    1.61    0.25
 -14   0   0   83.47    5.41
  14   0   0   82.32    3.25
 -14   0   0   81.78    3.21
  14   0   0   84.95    3.21
  14   0   0   74.88    3.15
 -16   0   0    0.99    0.29
  16   0   0    0.39    0.24
  16   0   0    0.96    0.27
  -1  -1   0  225.57    8.27
   1   1   0  228.31    8.28
  -1   1   0  198.91    8.12
  -3  -1   0  510.86   18.09
   3  -1   0  471.97   17.84
   3  -1   0  463.90   17.59
  -3   1   0  437.81   17.89
   3   1   0  517.79   18.13
  -5  -1   0  133.22    5.07
   5  -1   0  142.88    5.11
  -5  -1   0  135.00    5.76
   5  -1   0  141.72    5.16
   5  -1   0  134.70    5.04
   5  -1   0  128.66    5.61
   5   1   0  144.14    5.05
  -5   1   0  134.55    5.06
  -5   1   0  132.72    5.60
   5   1   0  139.57    5.06
   5   1   0  134.19    5.06
   7  -1   0  175.06    6.48
  -7  -1   0  174.21    6.52
  -7  -1   0  170.30    7.45
  -7   1   0  177.76    6.50
   7   1   0  168.67    6.51
   7   1   0  173.17    6.50
  -7   1   0  181.58    7.26
   7   1   0  183.22    6.51
   9  -1   0    7.68    0.39
  -9  -1   0    7.38    1.45
  -9  -1   0    7.26    0.43
   9  -1   0    7.84    0.46
  -9   1   0    7.67    0.41
  -9   1   0    6.72    1.24
   9   1   0    7.81    0.41
 -11  -1   0   15.92    0.89
  11  -1   0   17.68    0.76
  11  -1   0   16.75    0.85
 -11  -1   0   15.17    2.32
 -11  -1   0   16.13    0.83
  11   1   0   18.11    0.81
  11   1   0   16.61    0.79
 -11   1   0   17.45    0.80
  11   1   0   17.05    0.80
 -13  -1   0   17.51    3.12
  13  -1   0   16.76    0.90
  13  -1   0   18.09    0.84
  13  -1   0   18.20    0.81
  13   1   0   17.39    0.86
 -13   1   0   16.25    0.85
  13   1   0   16.35    0.84
 -15  -1   0  151.81    5.68
  15  -1   0  147.32    5.75
 -15  -1   0  141.16    8.41
  15   1   0  143.76    5.68
  15   1   0  151.71    5.67
  17  -1   0   53.50    2.40
  17   1   0   53.83    2.33
  17   1   0   55.21    2.32
   0   2   0  870.10   30.61
   0   2   0  777.43   30.51
  -2  -2   0   32.04    1.26
   2  -2   0   31.83    1.31
  -2  -2   0   30.49    1.77
  -2   2   0   35.58    1.24
  -2   2   0   32.52    1.61
   2   2   0   32.07    1.30
  -2   2   0   33.08    1.23
   4  -2   0  565.70   21.79
  -4  -2   0  636.06   22.61
  -4   2   0  581.00   22.18
   6  -2   0   24.88    1.00
   6  -2   0   26.35    1.13
  -6  -2   0   25.35    1.06
  -6  -2   0   21.26    1.89
  -6   2   0   25.08    1.03
   6   2   0   26.15    1.05
   6   2   0   27.00    1.02
  -6   2   0   24.44    1.70
  -8  -2   0  102.28    5.19
   8  -2   0  104.80    3.97
   8  -2   0  103.92    3.82
  -8  -2   0  103.46    3.90
  -8  -2   0  101.72    3.88
  -8   2   0   99.03    4.63
   8   2   0  105.61    3.85
  -8   2   0   99.74    3.84
   8   2   0  102.54    3.89
   8   2   0   95.93    4.97
   8   2   0  103.62    3.88
 -10  -2   0    1.33    1.41
  10  -2   0    2.10    0.29
 -10  -2   0    1.80    0.30
  10  -2   0    2.09    0.20
 -10  -2   0    2.70    0.26
 -10   2   0    2.30    0.24
 -10   2   0    2.57    0.90
  10   2   0    1.81    0.23
  10   2   0    1.92    0.27
  12  -2   0    8.05    2.05
  12  -2   0   10.72    0.53
 -12  -2   0   10.49    0.60
  12  -2   0   10.63    0.67
  12   2   0   10.42    0.58
 -12   2   0    9.68    0.57
 -12   2   0    9.78    1.89
  12   2   0   11.05    0.61
 -14  -2   0  113.68    4.47
  14  -2   0  106.94    3.98
 -14  -2   0  109.13    7.06
  14  -2   0  107.99    4.03
  14  -2   0  105.14    4.22
  14   2   0  104.39    4.07
 -14   2   0   92.63    5.39
 -14   2   0   91.94    4.16
  14   2   0  111.22    4.12
  16  -2   0    0.70    0.28
 -16  -2   0    0.83    0.29
  16   2   0    1.20    0.27
  16   2   0    0.47    0.27
  -1  -3   0  241.38    9.14
   1   3   0  229.00    9.16
   1   3   0  280.68   10.01
  -1   3   0  252.45    9.76
  -1   3   0  257.00    9.12
   1   3   0  244.92    9.15
   1   3   0  231.06    9.16
  -1   3   0  250.64    9.10
   3  -3   0  351.90   13.11
  -3   3   0  369.43   13.62
   3   3   0  345.05   13.03
  -3   3   0  353.04   13.00
  -5  -3   0   24.42    1.06
  -5  -3   0   25.67    2.08
   5  -3   0   25.16    1.16
  -5   3   0   24.65    1.02
   5   3   0   27.09    1.02
   5   3   0   26.60    1.07
  -5   3   0   25.74    1.68
   7  -3   0  234.53    8.48
   7  -3   0  225.89    8.29
   7  -3   0  218.09    8.84
  -7  -3   0  219.73    9.77
  -7  -3   0  221.58    8.36
   7   3   0  231.23    8.31
  -7   3   0  215.26    8.31
   7   3   0  223.80    8.37
  -7   3   0  234.08    9.27
   9  -3   0   10.67    0.66
  -9  -3   0   10.29    0.56
   9  -3   0    9.52    1.24
   9  -3   0    9.54    0.46
   9  -3   0    9.78    0.46
  -9  -3   0   11.49    2.25
   9   3   0   10.18    0.50
   9   3   0    9.57    0.54
  -9   3   0   10.84    1.49
  -9   3   0    9.78    0.51
  11  -3   0   15.28    0.65
 -11  -3   0   25.86    3.39
 -11  -3   0   13.86    0.93
  11  -3   0   14.35    0.86
  11   3   0   12.44    2.72
 -11   3   0   16.96    1.81
  11   3   0   15.78    0.91
 -11   3   0   14.79    0.70
  11   3   0   14.28    0.71
  13  -3   0   12.07    0.79
 -13  -3   0   22.15    4.19
  13  -3   0   13.62    2.15
 -13   3   0    8.51    1.93
  13   3   0   11.30    0.64
  13   3   0   10.47    2.67
 -15  -3   0  137.76    5.49
  15  -3   0  136.59    5.38
  15   3   0  131.89    5.24
  15   3   0  133.19    5.18
   0   4   0  635.50   24.51
   0   4   0  706.01   25.55
  -2  -4   0   15.75    0.73
   2   4   0   17.74    1.81
   2   4   0   18.43    0.75
  -2   4   0   16.75    0.71
   2   4   0   15.97    0.73
  -2   4   0   15.70    0.69
  -2   4   0   14.39    1.47
   2   4   0   17.06    0.72
  -2   4   0   14.70    1.69
  -4  -4   0  429.22   16.58
  -4   4   0  480.73   17.38
   4   4   0  440.25   16.59
  -4   4   0  425.78   16.57
  -4   4   0  447.89   16.51
   4   4   0  441.08   16.57
   4   4   0  476.15   18.05
  -4   4   0  469.98   17.32
   6  -4   0    6.17    0.34
   6  -4   0    6.96    0.53
  -6  -4   0    8.32    0.45
   6   4   0    7.64    0.44
   6   4   0    7.12    0.44
  -6   4   0    6.60    0.38
  -6   4   0    4.49    1.33
   6   4   0    9.04    2.00
   6   4   0    7.32    0.38
   8  -4   0   41.00    2.39
   8  -4   0   42.47    1.64
  -8  -4   0   43.47    1.76
   8  -4   0   42.63    1.88
   8   4   0   42.73    1.75
  -8   4   0   39.85    2.73
  -8   4   0   40.76    1.67
   8   4   0   42.08    1.67
  10  -4   0    1.47    0.37
  10   4   0    1.60    0.28
 -10   4   0    0.45    0.92
  12  -4   0    1.37    0.89
 -12  -4   0    0.06    0.19
  12  -4   0   -0.11    0.21
  12   4   0    0.46    0.17
 -12   4   0    2.62    0.89
  12   4   0    0.15    0.21
  14  -4   0   78.98    3.42
  14   4   0   84.69    3.67
  14   4   0   79.25    3.19
  -1  -5   0  197.54    7.36
   1  -5   0  193.34    7.34
  -1   5   0  193.37    8.58
  -1   5   0  202.05    7.32
  -1   5   0  203.89    7.34
   1   5   0  196.19    7.35
  -1   5   0  199.84    7.35
   1   5   0  192.07    7.33
  -3  -5   0  222.83    8.55
   3  -5   0  222.08    8.42
   3   5   0  222.83    8.49
  -3   5   0  231.73    8.41
  -3   5   0  225.73    8.44
  -3   5   0  239.16    8.44
  -3   5   0  218.88    9.51
   3   5   0  238.40   10.19
  -5  -5   0   40.20    1.75
   5   5   0   43.54    1.68
   5   5   0   40.25    3.54
  -5   5   0   42.47    1.66
  -5   5   0   42.72    1.69
  -5   5   0   45.81    2.91
   5   5   0   42.49    1.76
  -5   5   0   41.51    2.74
   7  -5   0   73.58    3.09
  -7  -5   0   73.21    2.96
   7   5   0   75.53    2.97
  -7   5   0   71.95    3.76
  -7   5   0   76.33    4.08
   7   5   0   77.26    2.86
  -7   5   0   73.23    2.86
   9  -5   0    2.02    0.45
  -9  -5   0    1.85    0.38
  -9   5   0    2.18    1.16
  -9   5   0    2.60    0.97
   9   5   0    2.03    0.34
   9   5   0    2.13    0.26
 -11  -5   0    4.98    0.65
  11  -5   0    4.92    0.59
  11   5   0    4.58    0.39
  13   5   0    4.59    0.44
   0  -6   0  314.79   11.75
   0   6   0  311.01   13.28
   0   6   0  322.11   11.74
   2  -6   0    2.21    0.30
  -2  -6   0    2.42    0.48
  -2   6   0    4.74    1.67
  -2   6   0    3.82    1.54
   2   6   0    1.72    1.86
   4  -6   0  181.01    6.88
  -4  -6   0  178.31    6.98
   4   6   0  193.35    9.27
  -4   6   0  176.26    8.31
   4   6   0  190.89    7.00
   4   6   0  188.55    6.88
  -6  -6   0   13.25    0.78
   6  -6   0   12.46    0.62
   6   6   0   15.74    3.89
   6   6   0   12.46    0.75
  -6   6   0   12.66    2.46
   6   6   0   13.11    0.64
  -8  -6   0   42.37    1.90
   8   6   0   43.28    1.89
   8   6   0   33.37    5.58
   8   6   0   43.88    1.74
  -8   6   0   44.66    3.13
 -10  -6   0    3.34    0.61
  10   6   0    3.99    0.40
  -1  -7   0   94.59    3.68
   1  -7   0   91.44    3.68
  -3  -7   0  153.90    5.87
   3  -7   0  150.67    5.77
  -5  -7   0   27.53    1.38
   5   7   0   28.68    1.38
  16   0  -1   -0.19    0.18
 -14   0   1    0.39    1.71
  14   0  -1    0.07    0.15
 -14   0   1   -0.10    0.21
  12   0  -1    0.35    0.15
 -12   0   1    0.02    0.17
  12   0  -1    0.14    0.14
  12   0  -1    0.14    0.12
  10   0  -1    0.09    0.10
  10   0  -1    0.21    0.11
 -10   0   1   -0.14    0.10
  -8   0   1    0.06    0.58
   8   0  -1    0.05    0.07
  -8   0   1    0.07    0.08
   8   0  -1   -0.08    0.07
   8   0  -1    0.09    0.07
   6   0  -1    0.08    0.05
   6   0  -1   -0.30    0.41
  -6   0   1    0.43    0.49
   6   0  -1    0.02    0.06
  -6   0   1    0.02    0.05
  -4   0   1    0.48    0.08
  -4   0   1    0.36    0.28
   2   0  -1    0.13    0.03
  -2   0   1    0.01    0.16
  -2   0   1    0.12    0.03
  -2   0  -1    0.19    0.03
  -2   0  -1    0.03    0.10
   4   0   1    0.05    0.05
  -4   0  -1    0.12    0.22
   4   0   1    0.04    0.03
  -4   0  -1    0.13    0.04
  -6   0  -1    0.03    0.05
   6   0   1    0.05    0.07
  -6   0  -1    0.10    0.33
  -6   0  -1    0.29    0.08
   6   0   1    0.05    0.04
  -8   0  -1    0.12    0.08
  -8   0  -1    0.23    0.53
   8   0   1    0.17    0.10
  10   0   1    0.16    0.11
 -10   0  -1    0.13    0.11
  10   0   1    0.07    0.09
  10   0   1    0.05    0.08
 -10   0  -1    0.91    0.79
  12   0   1    0.08    0.12
  12   0   1    0.03    0.13
  12   0   1   -0.02    0.13
 -12   0  -1    0.06    0.15
  14   0   1    0.25    0.17
  14   0   1    1.12    1.75
 -14   0  -1   -0.70    1.76
  14   0   1    0.19    0.20
  14   0   1    0.03    0.15
  16   0   1    0.08    0.23
 -16   0  -1    0.03    0.27
  16   0   1    0.04    0.19
  17  -1  -1    0.10    0.22
 -17  -1   1    0.26    0.33
  17   1  -1    0.38    0.23
  15  -1  -1   -0.07    0.19
  15  -1  -1    0.26    0.24
  15  -1  -1    0.27    0.18
 -15  -1   1    1.03    2.71
  15   1  -1   -0.10    0.18
  15   1  -1    2.56    2.51
  15   1  -1    0.40    0.19
 -13  -1   1    5.45    0.44
  13  -1  -1    5.88    0.42
  13  -1  -1    5.71    0.42
  13  -1  -1    6.05    0.47
 -13  -1   1    0.83    1.72
 -13   1   1    5.53    0.47
  13   1  -1    5.29    0.41
  13   1  -1    5.88    0.42
  11  -1  -1    2.45    0.25
 -11  -1   1    1.24    1.25
  11  -1  -1    2.08    0.28
 -11  -1   1    1.97    0.32
  11   1  -1    2.46    0.26
  11   1  -1    2.36    0.25
 -11   1   1    2.14    0.29
  11   1  -1    2.12    0.27
  -9  -1   1   -0.01    0.08
  -9  -1   1    0.01    0.09
   9  -1  -1    0.22    0.12
   9  -1  -1    0.12    0.09
   9  -1  -1    0.24    0.11
  -9  -1   1    0.41    0.88
  -9   1   1    0.23    0.11
   9   1  -1    0.20    0.09
   9   1  -1    0.15    0.09
  -9   1   1    0.45    0.70
  -7  -1   1    8.66    0.44
  -7  -1   1    7.28    1.24
   7  -1  -1    8.80    0.41
   7   1  -1    8.42    0.43
   7   1  -1    8.54    0.43
   7   1  -1    9.29    0.42
  -7   1   1    8.43    1.17
  -7   1   1    8.93    0.44
  -5  -1   1    9.15    0.43
   5  -1  -1    8.67    0.41
  -5  -1   1    8.61    0.98
   5  -1  -1   10.35    0.48
   5   1  -1    9.32    0.43
  -5   1   1    8.85    0.43
  -5   1   1    9.28    0.99
   5   1  -1    9.56    0.42
   5   1  -1   10.04    0.41
  -3  -1   1    0.25    0.05
  -3  -1   1    0.08    0.28
   3  -1  -1    0.44    0.10
  -3   1   1    0.24    0.06
  -3   1   1    0.54    0.26
   3   1  -1    0.26    0.05
   1  -1  -1    1.15    0.07
   1  -1  -1    1.16    0.07
  -1  -1   1    1.07    0.07
  -1  -1   1    1.23    0.07
  -1   1   1    1.20    0.26
   1   1  -1    1.24    0.07
  -1   1   1    1.18    0.07
  -1   1   1    1.18    0.07
   1   1  -1    1.09    0.26
  -1  -1  -1    1.53    0.09
   1  -1   1    1.67    0.07
  -1   1  -1    1.53    0.18
  -1   1  -1    1.66    0.08
  -1   1  -1    1.66    0.07
   1   1   1    1.46    0.31
   1   1   1    1.46    0.31
  -1   1  -1    1.77    0.18
   3  -1   1    0.42    0.04
  -3  -1  -1    0.43    0.28
   3  -1   1    0.56    0.10
   3  -1   1    0.40    0.04
   3   1   1    0.66    0.26
  -3   1  -1    0.14    0.17
  -3   1  -1    0.57    0.06
   3   1   1    0.52    0.06
   3   1   1    0.47    0.07
   5  -1   1   34.77    1.30
   5  -1   1   35.86    1.38
  -5  -1  -1   31.69    1.93
  -5  -1  -1   34.34    1.35
   5   1   1   35.85    1.34
   5   1   1   34.10    1.34
   5   1   1   34.40    1.33
  -5   1  -1   31.34    1.66
  -5   1  -1   35.81    1.32
   7  -1   1    6.24    0.30
  -7  -1  -1    4.83    1.04
  -7  -1  -1    6.12    0.34
   7   1   1    6.21    0.33
  -7   1  -1    6.22    0.31
  -7   1  -1    5.68    0.81
   7   1   1    6.29    0.33
   7   1   1    6.45    0.33
   7   1   1    5.24    0.95
  -9  -1  -1   11.06    1.60
  -9  -1  -1    9.95    0.53
   9  -1   1   10.40    0.48
   9   1   1   10.08    0.52
  -9   1  -1    7.06    1.32
   9   1   1   11.81    0.67
   9   1   1   11.31    0.52
 -11  -1  -1    0.92    1.17
  11  -1   1    0.76    0.22
  11  -1   1    0.73    0.17
 -11  -1  -1    1.10    0.26
 -11   1  -1    0.69    0.16
  11   1   1    0.73    0.16
  11   1   1    1.19    0.21
 -11   1  -1    0.49    0.19
  11   1   1    1.21    0.20
  13  -1   1    0.43    0.15
  13  -1   1    0.32    0.16
  13  -1   1    0.58    0.19
 -13  -1  -1   -0.06    1.61
  13   1   1    0.25    0.14
  13   1   1    0.52    0.17
 -13   1  -1    1.13    1.25
 -13   1  -1    0.80    0.22
  15  -1   1    0.43    0.22
  15   1   1    0.93    0.24
  15   1   1    0.62    0.22
  16  -2  -1   12.97    0.87
  16  -2  -1   13.31    0.73
  16   2  -1   14.61    0.84
  16   2  -1   12.59    0.80
  14  -2  -1    9.46    0.70
  14  -2  -1    9.94    0.55
 -14  -2   1    9.52    0.71
 -14  -2   1   10.08    2.84
  14  -2  -1   13.29    2.90
  14  -2  -1    9.16    0.57
  14  -2  -1   10.71    0.60
 -14   2   1    9.36    0.65
  14   2  -1    9.63    0.59
  14   2  -1   10.02    0.63
 -14   2   1   10.36    2.69
 -12  -2   1    2.98    1.76
  12  -2  -1    2.14    0.33
  12  -2  -1    2.09    0.27
  12  -2  -1    2.00    0.28
 -12  -2   1    1.93    0.29
 -12   2   1    2.01    0.33
  12   2  -1    2.45    0.30
  12   2  -1    1.87    0.25
 -10  -2   1    0.08    1.28
  10  -2  -1    2.51    0.27
  10  -2  -1    2.43    0.32
 -10  -2   1    2.51    0.27
  10  -2  -1    2.51    0.24
 -10  -2   1    2.45    0.31
  10   2  -1    2.36    0.24
  10   2  -1    2.40    0.26
  10   2  -1    2.83    0.30
 -10   2   1    2.36    0.28
   8  -2  -1    9.50    0.46
  -8  -2   1    9.92    0.51
   8  -2  -1   10.33    0.58
  -8  -2   1    9.75    0.50
  -8  -2   1    9.23    1.66
   8   2  -1   10.03    0.50
  -8   2   1    5.69    1.35
   8   2  -1    9.41    0.49
  -8   2   1    8.88    0.48
   8   2  -1    8.79    1.88
   8   2  -1    9.66    0.46
   6  -2  -1    2.12    0.26
  -6  -2   1    2.24    0.82
   6  -2  -1    2.31    0.18
  -6   2   1    2.11    0.19
  -6   2   1    2.10    0.72
   6   2  -1    2.43    0.17
   6   2  -1    2.37    0.19
   4  -2  -1    3.18    0.27
  -4  -2   1    3.71    0.84
  -4   2   1    3.34    0.18
  -4   2   1    3.49    0.67
  -4   2   1    3.04    0.18
   4   2  -1    3.19    0.17
  -2  -2   1    9.44    0.86
  -2  -2   1    9.35    0.45
   2  -2  -1    9.20    0.47
   2   2  -1   10.36    0.42
  -2   2   1   10.18    0.80
  -2   2   1    9.83    0.40
  -2   2   1   10.01    0.42
   0   2   1   17.91    0.68
   0   2  -1   14.41    0.69
   0   2  -1   17.04    0.67
   0   2  -1   16.21    1.03
   0   2  -1   17.89    1.06
   0   2   1   17.87    1.15
   0   2   1   18.27    0.68
   2  -2   1   42.12    1.66
   2  -2   1   42.39    1.74
   2   2   1   45.11    1.71
   2   2   1   47.85    2.34
  -2   2  -1   45.72    1.66
  -2   2  -1   45.56    1.67
  -2   2  -1   44.41    1.97
   4  -2   1    0.21    0.11
  -4  -2  -1   -0.62    0.39
   4  -2   1    0.25    0.05
   4   2   1    0.20    0.06
   4   2   1    0.40    0.09
  -4   2  -1    0.23    0.30
  -4   2  -1    0.35    0.08
   6  -2   1   14.63    0.72
  -6  -2  -1   16.67    1.57
   6  -2   1   14.13    1.01
   6  -2   1   14.49    0.60
  -6   2  -1   14.13    1.12
   6   2   1   15.17    0.66
   6   2   1   15.48    0.64
  -6   2  -1   14.84    0.62
   6   2   1   14.66    0.66
   8  -2   1    4.34    0.36
  -8  -2  -1    3.68    1.05
   8  -2   1    5.29    0.95
  -8  -2  -1    4.33    0.30
   8  -2   1    4.66    0.24
   8   2   1    3.58    1.18
  -8   2  -1    4.88    0.27
   8   2   1    4.57    0.31
  -8   2  -1    5.86    0.93
   8   2   1    4.81    0.29
   8   2   1    4.63    0.31
  10  -2   1    4.39    0.39
 -10  -2  -1    6.97    1.91
  10  -2   1    4.46    0.29
  10  -2   1    5.03    1.35
  10  -2   1    4.84    0.27
 -10  -2  -1    4.84    0.35
 -10   2  -1    4.11    1.14
 -10   2  -1    4.65    0.31
  10   2   1    4.56    0.36
  10   2   1    4.83    0.33
  10   2   1    5.15    0.35
 -12  -2  -1    1.54    0.28
  12  -2   1    1.19    0.28
  12  -2   1    0.98    0.19
  12   2   1    1.56    0.26
 -12   2  -1    1.09    0.25
 -12   2  -1    1.03    0.95
  12   2   1    0.99    0.23
 -14  -2  -1    8.17    2.81
  14  -2   1    3.62    0.37
  14  -2   1    3.55    0.44
 -14   2  -1    1.59    1.67
  14   2   1    3.08    0.34
  14   2   1    3.99    0.39
  16  -2   1    0.81    0.29
  16   2   1    0.28    0.26
  16   2   1    0.18    0.21
  15  -3  -1    0.59    0.26
  15   3  -1    0.25    0.20
  13  -3  -1   21.51    1.16
  13  -3  -1   20.41    2.65
  13  -3  -1   22.34    1.04
 -13  -3   1   20.95    1.14
 -13  -3   1   16.12    3.41
  13   3  -1   21.81    1.33
  13   3  -1   21.42    0.99
 -13   3   1   17.73    2.44
  11  -3  -1    0.30    0.21
  11  -3  -1    0.80    0.22
 -11  -3   1   -0.92    1.61
  11   3  -1    0.59    0.16
 -11   3   1    2.67    1.11
  11   3  -1   -0.19    1.51
 -11   3   1    0.26    0.18
  -9  -3   1    4.95    1.54
   9  -3  -1    4.39    0.30
   9  -3  -1    4.83    1.35
   9  -3  -1    4.35    0.43
  -9  -3   1    4.55    0.35
  -9   3   1    4.20    0.33
  -9   3   1    6.83    1.57
   9   3  -1    4.96    0.35
   9   3  -1    2.95    1.29
  -7  -3   1    8.97    1.68
   7  -3  -1    6.26    0.35
   7  -3  -1    6.39    0.49
  -7  -3   1    6.56    0.39
   7  -3  -1    5.60    1.16
   7   3  -1    5.94    0.39
   7   3  -1    6.57    0.34
  -7   3   1    8.53    1.34
   7   3  -1    6.45    0.39
  -7   3   1    6.05    0.36
  -5  -3   1    8.08    0.42
   5  -3  -1    7.27    0.50
  -5  -3   1    7.57    1.35
  -5   3   1    8.08    0.39
  -5   3   1    7.99    1.09
   5   3  -1    8.11    0.42
   5   3  -1    8.18    1.29
   5   3  -1    8.70    0.37
  -5   3   1    7.83    0.37
   3  -3  -1   20.17    0.93
  -3  -3   1   22.00    1.69
   3   3  -1   21.00    0.86
  -3   3   1   21.53    1.45
  -3   3   1   20.12    0.82
  -3   3   1   20.87    0.84
   1   3  -1   13.05    0.56
   1   3  -1   13.17    0.55
   1   3  -1   11.97    1.17
  -1   3   1   13.36    0.54
  -1   3   1   10.96    1.12
  -1   3   1   11.46    1.13
  -1   3   1   12.83    0.55
   1   3   1    0.38    0.09
  -1   3  -1    0.29    0.07
  -1   3  -1    0.06    0.35
   1   3   1    0.18    0.07
   1   3   1    0.14    0.50
   3  -3   1    6.47    0.42
   3   3   1    5.62    1.15
  -3   3  -1    6.73    0.30
  -3   3  -1    6.04    0.77
  -3   3  -1    6.01    0.74
  -3   3  -1    6.78    0.31
   3   3   1    6.76    0.35
  -5  -3  -1   10.12    0.51
   5  -3   1   10.35    0.60
   5  -3   1    9.42    0.89
  -5   3  -1   10.69    1.06
   5   3   1   10.90    0.51
   5   3   1   10.70    0.52
   5   3   1   10.78    0.48
  -5   3  -1   10.02    0.46
   7  -3   1    7.98    0.54
   7  -3   1    7.40    0.87
   7  -3   1    7.62    0.36
  -7  -3  -1    9.20    1.77
  -7  -3  -1    8.24    0.45
   7   3   1    7.50    0.45
   7   3   1    8.53    0.41
   7   3   1    8.84    0.46
  -7   3  -1    7.66    1.25
  -7   3  -1    7.32    0.39
  -9  -3  -1   19.50    0.92
   9  -3   1   20.50    1.03
  -9  -3  -1   21.17    2.63
   9  -3   1   20.16    0.79
  -9   3  -1   19.68    1.48
   9   3   1   20.17    0.92
   9   3   1   19.76    0.87
  -9   3  -1   19.29    0.83
 -11  -3  -1    0.51    0.17
 -11  -3  -1    2.27    1.80
  11  -3   1    0.43    0.23
  11  -3   1    0.34    0.10
  11  -3   1    1.37    0.75
  11   3   1    0.10    0.14
 -11   3  -1    0.02    0.70
 -11   3  -1    0.50    0.15
  11   3   1    0.51    0.16
  11   3   1    1.11    1.53
  13  -3   1    0.11    0.22
  13  -3   1    1.17    1.03
 -13   3  -1    0.37    0.92
  13   3   1    0.07    0.16
  15  -3   1    2.12    0.47
  15   3   1    2.64    0.47
  14  -4  -1    6.31    0.66
 -14  -4   1    7.61    0.70
  14   4  -1    8.03    0.53
  14   4  -1    7.90    0.90
 -12  -4   1   14.86    0.85
  12  -4  -1   14.47    0.93
  12   4  -1   15.46    0.75
  12   4  -1   14.83    0.84
 -12   4   1   15.54    2.44
 -10  -4   1    5.69    2.31
  10  -4  -1    7.24    1.81
  10  -4  -1    6.61    0.40
  10  -4  -1    7.24    0.60
 -10   4   1    7.14    1.95
  10   4  -1    7.09    0.41
 -10   4   1    6.43    0.46
  10   4  -1    6.59    0.48
   8  -4  -1    9.78    1.43
   8  -4  -1    7.34    0.42
   8  -4  -1    7.08    0.57
  -8  -4   1    6.94    0.46
  -8  -4   1    8.77    2.45
  -8   4   1    6.83    0.43
   8   4  -1    6.77    0.39
   8   4  -1    6.65    0.45
  -8   4   1    6.45    1.80
   6  -4  -1    2.03    0.35
  -6  -4   1    2.45    0.26
   6   4  -1    2.60    0.21
   6   4  -1    2.41    0.28
  -6   4   1    2.53    0.23
   6   4  -1    2.10    0.24
  -4  -4   1   10.95    0.54
   4  -4  -1   10.97    0.59
  -4   4   1   10.32    1.32
  -4   4   1   10.57    0.50
  -4   4   1   10.93    0.49
   4   4  -1   10.37    0.53
   4   4  -1   12.12    1.82
   4   4  -1   10.40    0.54
   4   4  -1    9.74    1.73
  -2  -4   1   20.69    0.91
   2   4  -1   23.93    2.88
  -2   4   1   20.96    0.88
   2   4  -1   24.21    1.99
   2   4  -1   21.82    0.93
   2   4  -1   21.87    0.92
   2   4  -1   21.81    0.91
  -2   4   1   21.92    0.90
  -2   4   1   20.74    1.71
   0   4  -1    0.04    0.07
   0   4   1   -0.31    0.63
   0   4  -1    0.11    0.08
   0   4   1    0.07    0.07
   0   4  -1    0.08    0.61
   0   4   1    0.15    0.08
  -2  -4  -1   86.00    3.41
  -2   4  -1   90.81    4.14
   2   4   1   90.81    4.57
   2   4   1   92.79    3.41
   2   4   1   93.75    3.43
  -2   4  -1   83.34    4.12
   2   4   1   93.62    3.42
  -2   4  -1   90.48    3.37
  -2   4  -1   86.28    3.39
   4  -4   1    1.98    0.33
  -4  -4  -1    1.98    0.22
  -4   4  -1    1.91    0.62
  -4   4  -1    2.06    0.16
  -4   4  -1    2.68    0.19
   4   4   1    1.38    1.02
  -4   4  -1    0.64    0.61
   4   4   1    2.45    0.24
   4   4   1    1.93    0.25
   4   4   1    2.29    0.23
   6  -4   1   37.88    1.72
  -6  -4  -1   39.55    1.61
   6  -4   1   39.55    1.52
  -6   4  -1   37.59    1.53
  -6   4  -1   40.90    2.37
   6   4   1   40.05    3.11
   6   4   1   42.98    3.31
  -6   4  -1   36.83    2.07
   6   4   1   39.98    1.62
  -8  -4  -1    4.60    0.37
   8  -4   1    5.10    0.49
  -8   4  -1    3.76    1.09
  -8   4  -1    4.70    0.31
   8   4   1    4.71    0.31
   8   4   1    4.71    0.37
  -8   4  -1    3.68    0.87
   8   4   1    5.27    1.77
  10  -4   1    6.06    0.55
 -10   4  -1    4.99    0.33
  10   4   1    5.60    0.44
  10   4   1    6.54    2.27
  10   4   1    5.81    0.38
 -10   4  -1    5.42    0.82
 -12  -4  -1    0.59    0.24
  12   4   1    0.01    0.20
  12   4   1    0.09    0.17
  12   4   1    1.10    2.80
  14  -4   1    5.62    0.61
  13   5  -1   18.28    0.90
  11  -5  -1    0.11    0.27
  11   5  -1   -5.98    2.92
 -11   5   1    0.86    1.09
  11   5  -1    0.32    0.28
  11   5  -1   -0.02    0.18
  -9  -5   1   43.31    1.93
   9  -5  -1   46.94    2.09
   9   5  -1   45.55    1.93
  -9   5   1   43.20    2.81
   9   5  -1   46.20    1.80
  -9   5   1   44.31    3.39
  -7  -5   1   12.17    0.70
  -7   5   1   12.76    0.65
   7   5  -1   12.39    0.60
   7   5  -1   14.16    3.23
  -7   5   1   13.25    2.21
   7   5  -1   13.91    0.87
  -7   5   1   12.18    1.80
  -5  -5   1    0.21    0.14
  -5   5   1   -0.03    0.11
  -5   5   1    0.05    0.13
   5   5  -1    0.11    0.13
  -5   5   1    0.74    0.94
   5   5  -1    0.23    0.12
   3  -5  -1    2.13    0.22
  -3   5   1    2.24    0.26
  -3   5   1    1.33    0.99
  -3   5   1    2.72    0.24
   1  -5  -1    0.37    0.12
  -1   5   1    0.37    0.14
   1   5  -1   -0.41    1.31
   1   5  -1    0.44    0.14
  -1   5   1    1.48    1.08
  -1   5   1    0.30    0.12
   1   5  -1    0.27    0.13
  -1   5   1    0.17    0.11
   1  -5   1    2.80    0.25
  -1   5  -1    2.92    0.26
   1   5   1    2.66    0.27
  -1   5  -1    3.04    0.24
   1   5   1    2.84    1.35
  -1   5  -1    2.71    0.24
   1   5   1    2.84    0.30
  -1   5  -1    2.63    1.01
  -3  -5  -1    3.52    0.32
   3   5   1    4.39    0.52
  -3   5  -1    2.27    1.00
  -3   5  -1    3.65    0.29
   3   5   1    3.35    1.46
  -3   5  -1    4.28    0.27
   3   5   1    3.73    0.32
  -5  -5  -1   12.39    0.68
   5   5   1   12.89    0.69
  -5   5  -1   13.52    0.59
  -5   5  -1   12.57    1.66
   5   5   1   13.06    0.62
   5   5   1   11.30    2.69
  -5   5  -1   12.78    0.61
  -5   5  -1   15.00    1.88
  -7  -5  -1    0.50    0.19
   7  -5   1    0.86    0.30
   7   5   1   -0.32    1.77
  -7   5  -1    1.33    0.81
  -7   5  -1    2.02    1.08
   7   5   1    0.72    0.16
  -7   5  -1    0.49    0.26
   7   5   1    0.55    0.18
   9  -5   1   29.27    1.48
  -9  -5  -1   27.97    1.47
   9   5   1   30.01    1.24
  -9   5  -1   29.58    1.47
  -9   5  -1   27.94    1.55
   9   5   1   29.41    1.34
  11  -5   1    0.22    0.29
  11   5   1    0.26    0.18
  13   5   1    1.36    0.37
  -8  -6   1    0.69    0.30
   8   6  -1    2.23    0.47
   8   6  -1    1.45    0.39
   8   6  -1    1.90    2.99
  -6  -6   1    0.55    0.23
   6  -6  -1    0.49    0.17
   6   6  -1    0.41    0.17
  -6   6   1    0.35    0.30
  -6   6   1   -1.39    1.43
   6   6  -1    0.36    2.35
  -4  -6   1    4.81    0.44
   4  -6  -1    4.99    0.38
   4   6  -1    4.97    0.43
  -4   6   1    4.60    0.45
  -4   6   1    4.82    0.44
   4   6  -1    4.73    2.10
  -4   6   1    6.89    1.85
   4   6  -1    5.43    0.36
   2  -6  -1   30.27    1.30
  -2  -6   1   29.23    1.33
   2   6  -1   28.39    3.44
  -2   6   1   30.48    3.10
  -2   6   1   29.28    3.18
  -2   6   1   30.99    1.31
   2   6  -1   32.07    1.35
   0  -6  -1    3.31    0.36
   0   6  -1    3.82    0.35
   0   6  -1    1.81    1.66
   0   6   1    3.75    0.35
   0   6  -1    4.56    1.54
   0   6   1    6.50    1.83
  -2  -6  -1   82.77    3.26
   2  -6   1   82.00    3.20
   2   6   1   87.86    3.28
   2   6   1   79.15    5.19
  -2   6  -1   86.10    3.21
  -2   6  -1   79.16    4.78
  -2   6  -1   80.56    4.69
  -2   6  -1   82.10    3.17
  -4  -6  -1    1.79    0.35
   4  -6   1    1.73    0.27
   4   6   1    1.60    2.09
  -4   6  -1    2.31    1.47
   6   6   1   51.92    2.12
   6   6   1   43.22    4.96
  -6   6  -1   49.77    3.35
   6   6   1   49.28    1.98
  -8  -6  -1    0.88    0.29
   8   6   1   -2.12    2.96
  -8   6  -1   -0.27    1.04
  10   6   1    7.30    0.51
  -5  -7   1    0.03    0.30
   3  -7  -1    2.53    0.51
  -3  -7   1    2.81    0.51
   3   7  -1    1.87    0.55
   1  -7  -1    1.51    0.31
  -1  -7   1    1.31    0.31
  -1  -7  -1    0.78    0.28
   1  -7   1    0.60    0.30
  -3  -7  -1    0.33    0.27
  -5  -7  -1   16.93    0.99
   5   7   1   16.34    1.01
   5   7   1   15.67    0.80
  18   0  -2   37.77    1.70
  18   0  -2   34.96    1.88
  16   0  -2    0.11    0.18
  14   0  -2  305.41   11.88
 -14   0   2  334.44   14.16
 -12   0   2   14.69    0.75
  12   0  -2   14.90    0.75
 -12   0   2   15.78    2.46
 -12   0   2   14.63    0.78
  12   0  -2   14.68    0.76
  12   0  -2   15.11    0.74
 -10   0   2  466.69   16.59
  10   0  -2  438.70   16.57
 -10   0   2  481.37   18.10
  10   0  -2  401.40   18.45
  10   0  -2  457.96   16.55
   8   0  -2   25.26    1.03
  -8   0   2   23.24    1.02
   8   0  -2   23.18    1.07
  -8   0   2   24.16    2.02
   8   0  -2   24.86    1.01
   6   0  -2  463.21   18.46
   6   0  -2  489.11   17.63
   6   0  -2  459.63   17.62
  -6   0   2  467.94   17.64
  -6   0   2  526.12   18.64
   4   0  -2  101.52    3.77
  -4   0   2  104.23    3.78
   4   0  -2   90.36    3.80
   4   0  -2  109.57    3.78
   2   0  -2   78.23    2.91
  -2   0   2   85.00    3.41
  -2   0   2   73.09    2.91
  -2   0   2   78.70    2.92
   0   0  -2    0.00    0.01
   0   0  -2    0.01    0.01
  -2   0  -2   11.66    0.46
   2   0   2   11.45    0.65
   2   0   2   12.43    0.46
   2   0   2   12.04    0.46
  -4   0  -2  515.50   19.22
   6   0   2    6.36    0.27
  -6   0  -2    4.50    0.73
  -6   0  -2    5.47    0.28
   6   0   2    4.79    0.29
  -8   0  -2  736.62   26.14
  -8   0  -2  644.09   25.23
  10   0   2    7.12    0.41
 -10   0  -2    6.32    1.45
  10   0   2    4.91    0.33
 -10   0  -2    6.28    0.37
  12   0   2  344.71   12.45
  12   0   2  332.25   12.47
  12   0   2  335.29   12.54
 -12   0  -2  336.55   12.48
  14   0   2   55.79    2.13
  14   0   2   51.72    2.18
 -14   0  -2   49.45    4.07
  14   0   2   48.62    2.08
  16   0   2   94.11    3.88
 -16   0  -2   98.40    3.86
  17   1  -2   57.38    2.56
  17   1  -2   54.86    2.39
  15  -1  -2   72.07    3.03
 -15  -1   2   71.00    6.01
  15  -1  -2   75.01    2.93
 -15   1   2   90.34    8.44
  15   1  -2   71.96    2.95
  15   1  -2   71.20    2.95
  13  -1  -2  112.57    4.24
  13  -1  -2  105.32    4.34
 -13  -1   2  114.27    4.31
  13  -1  -2  115.15    4.28
  13   1  -2  111.65    4.29
  13   1  -2  112.15    4.29
  13   1  -2  113.39    6.20
 -13   1   2  105.75    4.29
  11  -1  -2  556.15   20.55
 -11  -1   2  600.00   22.53
  11  -1  -2  523.54   20.63
 -11  -1   2  560.54   20.62
 -11   1   2  621.49   22.27
 -11   1   2  565.06   20.60
  11   1  -2  505.04   20.58
  11   1  -2  557.71   20.58
  11   1  -2  556.90   20.58
   9  -1  -2  116.98    4.54
   9  -1  -2  119.32    4.47
  -9  -1   2  119.05    4.52
  -9  -1   2  120.58    5.88
  -9  -1   2  112.99    4.49
   9   1  -2  120.25    4.49
  -9   1   2  121.11    4.51
   9   1  -2  119.26    4.48
  -9   1   2  125.37    5.78
   9   1  -2  117.27    4.50
  -7  -1   2  831.34   31.06
  -7   1   2  804.24   31.00
  -5  -1   2   51.98    2.02
   5  -1  -2   53.98    2.07
   5  -1  -2   52.58    2.01
  -5  -1   2   56.26    2.78
   5   1  -2   53.89    1.99
   5   1  -2   55.06    2.02
   5   1  -2   52.83    2.03
  -5   1   2   49.99    2.03
  -5   1   2   47.45    2.77
   3  -1  -2  303.42   12.18
  -3  -1   2  346.25   12.72
  -3   1   2  346.49   12.69
   1  -1  -2   14.90    0.59
  -1  -1   2   15.30    0.59
   1  -1  -2   14.76    0.60
  -1  -1   2   15.42    0.59
   1   1  -2   15.53    0.59
  -1   1   2   16.15    0.91
  -1   1   2   15.88    0.60
  -1   1   2   14.53    0.59
   1   1  -2   14.70    0.59
  -1  -1  -2    6.85    0.61
   1  -1   2    8.03    0.39
  -1   1  -2    7.45    0.40
   1   1   2    7.51    0.62
  -1   1  -2    7.88    0.29
   1   1   2    7.92    0.33
   1   1   2    7.59    0.32
   3  -1   2    9.92    0.45
   3  -1   2   10.08    0.55
  -3   1  -2    9.38    0.46
   3   1   2   11.27    0.43
   3   1   2    9.55    0.43
   3   1   2   10.36    0.84
   3   1   2   10.02    0.43
  -5  -1  -2  200.35    7.74
   5  -1   2  196.37    7.05
  -5   1  -2  186.47    7.26
   5   1   2  187.04    7.01
   5   1   2  185.80    7.00
   5   1   2  189.91    7.01
  -5   1  -2  185.44    6.97
   7  -1   2  320.37   11.59
   7  -1   2  299.90   11.49
  -7  -1  -2  312.70   11.55
  -7  -1  -2  328.45   12.52
  -7   1  -2  302.64   11.51
   7   1   2  318.24   11.55
  -7   1  -2  325.38   12.03
   7   1   2  306.67   11.71
   7   1   2  311.67   11.54
   9  -1   2   84.03    3.16
  -9  -1  -2   75.87    4.15
  -9  -1  -2   82.92    3.12
   9  -1   2   82.75    3.04
  -9   1  -2   81.95    3.06
   9   1   2   85.37    3.10
   9   1   2   81.02    3.11
  -9   1  -2   73.75    4.00
   9   1   2   77.62    4.21
 -11  -1  -2  614.10   21.93
  11  -1   2  502.59   20.27
  11  -1   2  550.44   20.15
  11   1   2  535.82   20.22
 -11   1  -2  556.79   20.18
  11   1   2  546.37   20.25
  11   1   2  549.52   20.21
 -13  -1  -2   15.70    2.88
  13  -1   2   16.64    0.89
  13  -1   2   17.55    0.77
  13  -1   2   17.87    0.82
 -13   1  -2   15.87    0.80
 -13   1  -2   17.12    2.31
  13   1   2   16.01    0.84
  15  -1   2  211.09    8.20
  15  -1   2  215.97    8.22
  15   1   2  222.03    8.23
  15   1   2  210.27    8.14
  17   1   2    2.30    0.57
  16  -2  -2    1.05    0.31
  16   2  -2    0.90    0.29
  16   2  -2    1.25    0.32
 -14  -2   2  319.16   11.70
  14  -2  -2  282.73   13.24
  14  -2  -2  329.57   11.63
 -14  -2   2  324.49   14.64
  14  -2  -2  319.67   11.80
  14  -2  -2  313.38   11.57
  14  -2  -2  322.71   11.58
  14   2  -2  299.97   13.88
  14   2  -2  314.51   11.64
 -14   2   2  308.95   13.31
 -14   2   2  282.71   11.62
  14   2  -2  331.00   11.98
 -12  -2   2    2.82    1.86
  12  -2  -2    0.61    0.21
  12  -2  -2    0.91    0.25
  12  -2  -2    0.90    0.25
  12   2  -2    1.45    0.24
  12   2  -2    0.41    0.15
  10  -2  -2  503.02   19.02
  10  -2  -2  485.95   18.87
 -10  -2   2  573.62   20.94
  10  -2  -2  508.05   18.87
 -10  -2   2  521.07   18.97
 -10  -2   2  532.04   18.95
  10   2  -2  502.62   18.92
 -10   2   2  518.65   18.92
  10   2  -2  490.33   18.93
  10   2  -2  513.46   18.90
  -8  -2   2   18.68    0.90
   8  -2  -2   20.14    0.97
  -8  -2   2   20.91    0.90
  -8  -2   2   21.05    2.12
   8  -2  -2   20.28    0.86
   8   2  -2   20.96    0.85
   8   2  -2   20.23    0.89
   8   2  -2   19.88    0.89
  -8   2   2   22.43    2.00
  -6  -2   2  289.16   10.65
   6  -2  -2  283.01   10.62
   6  -2  -2  298.55   10.73
  -6  -2   2  290.20   11.75
  -6   2   2  283.35   11.55
   6   2  -2  287.68   10.64
   6   2  -2  299.74   10.59
  -6   2   2  277.15   10.64
  -4  -2   2   98.09    3.86
   4  -2  -2  102.22    3.89
  -4   2   2  109.79    4.48
  -4   2   2   97.80    3.80
   4   2  -2  101.92    3.87
  -4   2   2  103.70    3.79
  -2  -2   2   21.29    1.36
  -2  -2   2   20.44    0.84
  -2   2   2   21.66    0.84
   2   2  -2   22.27    0.84
  -2   2   2   22.27    1.34
  -2   2   2   20.19    0.83
   0  -2  -2   27.91    1.66
   0   2  -2   29.01    1.51
   0   2   2   28.01    1.63
   0   2  -2   31.25    1.14
   0   2   2   31.14    1.16
   0   2   2   31.05    1.17
   2  -2   2    0.37    0.04
   2  -2   2    0.74    0.15
   2   2   2    1.09    0.44
   2   2   2    0.56    0.08
  -2   2  -2    0.53    0.05
  -2   2  -2    0.52    0.19
  -2   2  -2    0.36    0.04
  -2   2  -2    1.08    0.30
   4  -2   2  495.61   18.29
   4  -2   2  499.31   18.26
   4   2   2  526.32   18.19
  -4   2  -2  465.69   18.41
  -6  -2  -2    3.20    0.21
  -6  -2  -2    1.59    0.79
   6  -2   2    3.40    0.47
   6  -2   2    3.61    0.28
  -6   2  -2    2.95    0.49
   6   2   2    2.69    0.20
   6   2   2    3.28    0.22
   6   2   2    2.31    0.20
  -8  -2  -2  678.18   23.13
  -8  -2  -2  580.27   21.59
   8  -2   2  557.41   21.66
   8  -2   2  558.52   22.03
   8   2   2  585.02   21.57
  -8   2  -2  597.18   21.95
   8   2   2  557.67   21.59
   8   2   2  590.60   21.59
   8   2   2  596.95   22.83
  10  -2   2   16.58    0.77
  10  -2   2   18.76    1.64
  10  -2   2   19.62    0.73
 -10  -2  -2   16.84    2.38
  10  -2   2   17.93    0.91
  10   2   2   19.37    2.59
 -10   2  -2   17.95    1.45
  10   2   2   17.97    0.82
  10   2   2   18.50    0.84
  10   2   2   17.40    0.84
 -10   2  -2   17.29    0.75
  12  -2   2  291.31   10.60
  12  -2   2  290.81   10.80
 -12  -2  -2  296.66   10.70
  12  -2   2  278.30   10.59
  12  -2   2  258.08   11.55
 -12   2  -2  295.37   10.60
  12   2   2  281.09   10.68
  12   2   2  293.44   10.70
 -12   2  -2  298.09   11.44
  14  -2   2   50.25    2.28
  14   2   2   53.92    2.19
  14   2   2   53.34    2.19
  16  -2   2   67.87    3.01
  16   2   2   72.02    2.84
  16   2   2   65.81    2.81
  15  -3  -2   98.42    3.89
 -15  -3   2   80.27    7.91
  13  -3  -2  144.55    5.06
  13  -3  -2  109.35    6.16
 -13  -3   2  126.41    8.61
  13  -3  -2  126.64    4.84
  13  -3  -2  130.56    5.06
 -13   3   2  115.08    6.34
  13   3  -2  132.66    4.95
 -13   3   2  122.03    4.85
  13   3  -2  131.50    4.86
  11  -3  -2  310.71   11.92
 -11  -3   2  333.26   14.37
  11  -3  -2  312.71   13.73
  11  -3  -2  325.91   11.70
 -11   3   2  316.30   13.08
  11   3  -2  316.01   13.76
 -11   3   2  307.76   11.74
  11   3  -2  317.40   11.72
   9  -3  -2   73.14    3.02
  -9  -3   2   71.32    4.65
   9  -3  -2   76.86    2.86
  -9  -3   2   73.65    2.92
   9   3  -2   73.74    2.92
  -9   3   2   73.32    2.88
   9   3  -2   76.37    2.83
  -7  -3   2  489.48   18.57
   7  -3  -2  493.76   19.36
   7  -3  -2  515.22   18.69
  -7  -3   2  538.20   20.16
  -7   3   2  546.05   19.70
  -7   3   2  456.07   18.58
   7   3  -2  518.46   18.49
   7   3  -2  486.25   18.57
   7   3  -2  506.78   18.56
  -5  -3   2   42.50    1.72
  -5  -3   2   45.34    2.80
   5   3  -2   42.44    2.68
   5   3  -2   42.62    1.72
   5   3  -2   44.50    1.65
  -5   3   2   42.67    1.67
   5   3  -2   45.19    1.72
  -5   3   2   43.17    2.46
  -5   3   2   43.36    1.69
  -3  -3   2  187.90    7.85
  -3   3   2  196.12    7.69
  -3   3   2  187.12    6.91
  -3   3   2  184.70    6.93
   3   3  -2  182.87    6.93
   1   3  -2    5.84    0.88
   1   3  -2    5.69    0.28
  -1   3   2    4.72    0.87
   1   3   2    1.07    0.57
  -1   3  -2   -0.08    0.34
   1   3   2    0.72    0.11
   1   3   2    0.55    0.10
   3  -3   2   38.83    1.63
  -3  -3  -2   38.18    1.56
  -3   3  -2   39.64    1.49
   3   3   2   39.87    2.51
   3   3   2   41.13    1.58
  -3   3  -2   40.16    1.92
  -3   3  -2   41.03    1.51
  -3   3  -2   40.60    1.95
   3   3   2   39.80    1.58
   3   3   2   36.52    3.01
   5  -3   2   97.10    3.73
  -5  -3  -2   93.50    3.63
   5   3   2   94.05    3.64
   5   3   2  102.33    4.91
   5   3   2   97.91    3.60
   5   3   2  100.37    3.64
  -5   3  -2   98.40    3.85
  -5   3  -2   87.82    3.56
  -5   3  -2   93.87    4.01
   7  -3   2  295.40   10.77
  -7  -3  -2  287.49   10.65
  -7   3  -2  280.33   10.55
   7   3   2  309.58   12.31
   7   3   2  294.10   10.65
   7   3   2  282.79   10.65
   7   3   2  282.23   10.62
  -7   3  -2  271.75   11.22
   9  -3   2   95.77    3.73
  -9  -3  -2   93.83    3.60
  -9   3  -2   90.32    3.46
   9   3   2   94.04    3.60
   9   3   2   92.95    3.56
  -9   3  -2   92.59    3.70
 -11  -3  -2  374.51   13.70
  11  -3   2  372.95   13.83
  11  -3   2  384.09   13.91
  11   3   2  352.20   15.49
  11   3   2  354.60   13.64
 -11   3  -2  387.35   13.80
 -11   3  -2  356.77   13.53
 -13  -3  -2   13.94    0.79
  13  -3   2   13.84    0.88
  13  -3   2   11.96    1.18
  13   3   2   14.39    0.74
  15  -3   2  156.31    6.24
  15   3   2  159.52    6.09
  14  -4  -2  194.96    7.44
 -14  -4   2  176.56   11.48
  14   4  -2  189.30    7.29
  14   4  -2  194.46    7.17
 -12  -4   2    0.17    2.81
 -12  -4   2    1.32    0.28
  12  -4  -2    1.52    0.40
  12   4  -2    0.83    2.36
  12   4  -2    1.17    0.33
  10  -4  -2  403.69   14.92
 -10  -4   2  407.22   17.16
  10  -4  -2  421.74   14.65
 -10   4   2  396.53   15.98
  10   4  -2  382.29   14.76
 -10   4   2  390.95   14.68
  10   4  -2  384.46   14.64
   8  -4  -2   15.20    0.90
   8  -4  -2   15.11    1.83
  -8  -4   2   16.96    2.72
  -8  -4   2   15.41    0.79
  -8   4   2   16.38    0.76
  -8   4   2   16.28    3.22
   8   4  -2   15.67    0.78
   8   4  -2   15.56    0.69
  -6  -4   2  217.01    9.73
   6  -4  -2  222.56    8.34
  -6  -4   2  218.69    8.21
  -6   4   2  223.11    8.14
   6   4  -2  221.17    8.22
   6   4  -2  217.90    8.20
   6   4  -2  222.82    8.11
  -6   4   2  217.39    8.16
  -4  -4   2   98.40    3.84
  -4   4   2  100.33    3.79
   4   4  -2  101.87    3.85
  -4   4   2   99.77    4.74
   4   4  -2  105.29    3.77
   4   4  -2  100.44    3.83
  -4   4   2  101.51    3.81
  -2   4   2   52.49    2.03
   2   4  -2   53.00    2.06
   2   4  -2   52.95    2.04
  -2   4   2   53.57    2.05
   2   4  -2   52.51    3.08
   2   4  -2   52.60    2.06
   0   4   2   -0.26    0.68
   0   4   2    0.95    0.15
   0   4   2   -0.16    0.66
   0   4  -2    0.61    0.13
   0   4  -2    1.43    0.71
   0   4   2    0.85    0.15
  -2  -4  -2    0.55    0.14
   2   4   2    0.61    0.16
  -2   4  -2    0.55    0.11
   2   4   2    0.83    0.17
   2   4   2    1.00    0.83
  -2   4  -2    1.01    0.58
  -2   4  -2    0.06    0.50
  -2   4  -2    0.74    0.12
   2   4   2    0.32    0.10
   4  -4   2  248.59    9.15
  -4  -4  -2  232.98    9.05
  -4   4  -2  247.96    9.58
   4   4   2  250.72    9.07
   4   4   2  244.54    9.05
   4   4   2  253.49   10.55
  -4   4  -2  242.88    8.98
   4   4   2  238.15    9.06
  -4   4  -2  235.71    8.95
  -4   4  -2  247.06    9.62
   6  -4   2    0.44    0.22
  -6  -4  -2    1.73    0.22
  -6   4  -2    0.92    0.49
   6   4   2    3.39    1.36
  -6   4  -2    2.59    0.71
   6   4   2    0.67    0.18
   6   4   2    0.89    0.18
  -6   4  -2    1.32    0.17
  -8  -4  -2  370.20   15.05
   8  -4   2  427.93   15.12
   8   4   2  456.54   17.23
   8   4   2  407.53   14.90
   8   4   2  369.42   15.06
  10  -4   2    9.33    0.70
  10   4   2    9.55    0.53
  10   4   2   13.46    3.47
  10   4   2   10.12    0.60
 -12  -4  -2  279.20   10.57
  12   4   2  280.05   10.48
  12   4   2  284.88   10.57
  14  -4   2   28.55    1.60
  14   4   2   29.06    1.32
  13   5  -2   74.05    2.91
  11  -5  -2  218.70    8.47
  11   5  -2  218.62    8.13
  -9  -5   2   48.54    2.15
   9  -5  -2   52.29    2.31
  -9   5   2   52.68    3.86
   9   5  -2   50.21    2.15
   9   5  -2   53.06    2.01
  -7  -5   2  283.11   11.05
   7   5  -2  300.08   14.56
  -7   5   2  307.27   12.40
  -7   5   2  297.43   10.98
   7   5  -2  297.57   10.92
   5  -5  -2   14.08    0.67
  -5  -5   2   13.49    0.73
  -5   5   2   14.59    0.70
  -5   5   2   14.38    0.67
   5   5  -2   16.36    0.76
   5   5  -2   14.54    0.64
  -5   5   2   13.10    1.93
   3  -5  -2   91.67    3.47
  -3   5   2   90.99    3.45
  -3   5   2   89.92    4.69
   3   5  -2   90.47    3.49
  -3   5   2   92.80    3.48
   3   5  -2   91.14    3.51
  -1  -5   2    5.26    0.35
   1  -5  -2    4.93    0.40
   1   5  -2    6.31    0.36
  -1   5   2    5.27    0.37
   1   5  -2    5.74    0.36
   1   5  -2    6.05    1.40
  -1   5   2    5.28    0.35
   1   5  -2    5.18    0.36
   1  -5   2    6.14    0.34
   1   5   2    4.98    0.41
  -1   5  -2    4.17    1.13
  -1   5  -2    4.92    0.33
  -1   5  -2    5.27    0.33
   1   5   2    6.21    0.39
  -1   5  -2    4.70    0.32
   1   5   2    5.67    1.40
  -3  -5  -2   42.22    1.76
  -3   5  -2   38.37    2.68
   3   5   2   48.07    3.56
   3   5   2   42.72    1.77
  -3   5  -2   45.17    1.70
  -5   5  -2   74.40    3.82
  -5   5  -2   73.61    3.68
   5   5   2   79.33    4.95
   5   5   2   75.86    2.93
  -5   5  -2   77.65    2.86
   7  -5   2  187.75    7.13
  -7  -5  -2  181.00    6.99
   7   5   2  184.13    9.11
   7   5   2  185.51    7.00
  -7   5  -2  179.08    7.23
   7   5   2  220.04   12.17
  -7   5  -2  176.29    7.43
   7   5   2  184.24    6.91
  -9  -5  -2   49.70    2.13
   9  -5   2   49.82    2.25
   9   5   2   50.32    2.01
   9   5   2   50.12    2.11
  11  -5   2  248.44    9.21
  11   5   2  235.70    8.92
  11   5   2  232.65    9.08
  -8  -6   2   40.24    1.81
   8   6  -2   41.19    5.47
   6  -6  -2  177.36    6.63
  -6  -6   2  176.09    6.75
   6   6  -2  179.37    9.30
  -4  -6   2   20.36    1.00
   4  -6  -2   19.75    0.93
   4   6  -2   21.48    1.01
  -4   6   2   15.84    2.96
  -4   6   2   20.90    1.02
  -4   6   2   20.33    0.95
   4   6  -2   21.98    3.55
   4   6  -2   20.98    0.93
  -2  -6   2   17.49    0.88
   2   6  -2   20.77    0.91
  -2   6   2   16.79    0.86
  -2   6   2   14.66    2.72
   2   6  -2   19.64    2.94
   0  -6   2    4.91    0.40
   0  -6  -2    5.49    0.43
   0   6  -2    5.29    1.63
   0   6  -2    5.94    1.83
   0   6   2    4.92    1.77
   0   6   2    6.32    0.43
   0   6  -2    4.84    0.39
  -2  -6  -2    7.30    0.51
   2  -6   2    6.43    0.44
  -2   6  -2    6.59    0.50
  -2   6  -2    6.98    0.44
   2   6   2    7.87    0.50
   2   6   2    8.22    2.22
  -2   6  -2    8.20    0.65
  -2   6  -2    5.77    1.61
  -2   6  -2   12.94    2.44
   4  -6   2  111.31    4.22
   4   6   2  104.59    6.66
  -4   6  -2   96.55    5.65
   4   6   2  110.65    4.30
   6   6   2    0.69    0.24
  -6   6  -2   -0.25    1.18
   6   6   2    0.53    0.18
   6   6   2    3.43    2.70
  -8  -6  -2  204.38    7.92
   8   6   2  209.22    7.77
   8   6   2  211.46   11.34
  10  -6   2   25.27    1.37
  10   6   2   22.48    1.08
  -5  -7   2    6.02    0.65
  -3  -7   2   58.61    2.45
   1  -7  -2    1.22    0.30
  -1  -7   2    1.57    0.43
   1  -7   2    0.87    0.28
  -1  -7  -2    1.80    0.44
  -3  -7  -2   22.40    1.16
  -5  -7  -2   50.98    2.24
   5   7   2   51.63    2.08
  18   0  -3    0.09    0.25
  16   0  -3    0.93    0.27
  16   0  -3   -0.07    0.18
 -14   0   3   -1.90    1.89
  14   0  -3    0.13    0.16
  14   0  -3    0.07    0.17
  12   0  -3   -0.05    0.12
 -12   0   3   -0.16    1.29
 -12   0   3    0.08    0.20
  12   0  -3    0.01    0.12
  12   0  -3    0.07    0.15
  10   0  -3   -0.08    0.10
 -10   0   3    0.36    1.01
 -10   0   3    0.11    0.11
 -10   0   3    0.25    0.14
  10   0  -3    0.09    0.11
  10   0  -3    0.05    0.11
  10   0  -3    0.56    1.12
  -8   0   3    0.18    0.09
  -8   0   3    0.19    0.09
   8   0  -3   -0.02    0.07
   8   0  -3    0.04    0.08
  -8   0   3    0.11    0.70
   8   0  -3    0.10    0.09
   6   0  -3   -0.60    0.54
  -6   0   3   -0.56    0.51
  -6   0   3    0.02    0.07
   6   0  -3   -0.01    0.07
   6   0  -3    0.13    0.06
   6   0  -3    0.09    0.06
  -4   0   3    0.76    0.48
   4   0  -3    0.51    0.45
   2   0  -3    0.17    0.05
  -2   0   3    0.00    0.25
   2   0  -3    0.02    0.03
  -2   0   3    0.04    0.03
   0   0  -3    0.03    0.02
   0   0   3    0.05    0.02
   0   0  -3    0.09    0.03
   2   0   3    0.06    0.02
   2   0   3    0.27    0.15
  -2   0  -3    0.04    0.02
   2   0   3    0.11    0.03
   2   0   3    0.04    0.04
   4   0   3    0.02    0.05
  -4   0  -3    0.08    0.03
   4   0   3    0.14    0.03
   6   0   3   -0.04    0.06
   6   0   3    0.16    0.05
  -6   0  -3    0.44    0.38
   8   0   3    0.03    0.08
  -8   0  -3    0.20    0.54
  10   0   3    0.09    0.11
 -10   0  -3    0.00    0.76
  10   0   3    0.11    0.09
 -12   0  -3    0.00    0.11
  12   0   3    0.22    0.14
  12   0   3    0.01    0.12
  12   0   3    0.00    0.13
  14   0   3    0.18    0.21
  14   0   3    0.24    0.17
  14   0   3   -0.04    0.16
  16   0   3    0.28    0.21
  17   1  -3    6.81    0.58
  17   1  -3    6.72    0.62
 -15  -1   3   -2.21    2.61
 -15   1   3    1.53    2.33
 -13  -1   3   -0.02    0.16
  13  -1  -3    0.33    0.19
  13  -1  -3    0.13    0.16
 -13   1   3   -1.75    1.37
  13   1  -3    0.00    0.14
  13   1  -3    0.06    0.14
 -13   1   3   -0.09    0.21
  11  -1  -3    0.52    0.16
  11  -1  -3    0.78    0.20
 -11  -1   3   -1.56    1.20
  11  -1  -3    0.86    0.24
  11   1  -3    0.59    0.15
  11   1  -3   -0.41    1.11
  11   1  -3    0.65    0.19
  11   1  -3    0.87    0.25
 -11   1   3    0.61    0.19
 -11   1   3    1.99    1.23
  -9  -1   3    1.23    0.96
  -9  -1   3    1.66    0.20
  -9  -1   3    1.50    0.22
   9  -1  -3    1.16    0.19
   9  -1  -3    1.62    0.24
  -9   1   3    1.75    1.04
   9   1  -3    1.30    0.18
  -9   1   3    1.52    0.24
   9   1  -3    1.50    0.19
   9   1  -3    1.63    0.21
  -7  -1   3    3.17    0.25
   7  -1  -3    3.29    0.28
   7  -1  -3    2.90    0.23
  -7  -1   3    2.91    0.85
  -7   1   3    3.30    0.95
  -7   1   3    3.21    0.26
   7   1  -3    2.91    0.21
   7   1  -3    3.00    0.23
  -5  -1   3    4.80    0.27
   5  -1  -3    4.69    0.31
   5  -1  -3    4.86    0.27
  -5  -1   3    4.81    0.91
  -5   1   3    4.22    0.27
  -5   1   3    5.06    0.98
   5   1  -3    5.20    0.25
   5   1  -3    4.93    0.27
  -3  -1   3    0.34    0.32
  -3  -1   3    0.51    0.08
   3   1  -3    0.69    0.08
  -3   1   3    0.02    0.33
  -3   1   3    0.40    0.07
  -3   1   3    0.43    0.07
   1  -1  -3    5.55    0.26
  -1  -1   3    5.72    0.25
  -1  -1   3    5.68    0.25
   1   1  -3    4.70    0.53
  -1   1   3    4.63    0.54
  -1   1   3    5.69    0.25
   1   1  -3    5.97    0.25
   1   1  -3    5.90    0.25
  -1   1   3    6.01    0.26
   1  -1   3   10.28    0.57
   1   1   3   10.57    0.43
  -1   1  -3    9.91    0.59
   1   1   3    9.93    0.77
   1   1   3   11.17    0.44
   3  -1   3   50.24    1.89
   3   1   3   47.71    2.38
   3   1   3   47.89    1.87
   3   1   3   51.48    2.38
   3   1   3   50.93    1.88
   5  -1   3   15.06    0.58
   5   1   3   15.35    0.63
   5   1   3   14.27    0.63
   5   1   3   15.67    0.64
  -5   1  -3   14.98    0.58
  -5   1  -3   14.51    0.81
  -7  -1  -3    3.89    0.88
   7  -1   3    4.44    0.22
   7  -1   3    4.81    0.31
  -7   1  -3    4.13    0.66
   7   1   3    4.50    0.28
  -7   1  -3    4.47    0.23
   7   1   3    4.69    0.27
   9  -1   3    1.51    0.22
   9  -1   3    1.44    0.14
   9  -1   3    2.01    0.77
  -9   1  -3    1.86    0.61
   9   1   3    1.57    0.20
  -9   1  -3    1.65    0.16
   9   1   3    1.60    0.19
 -11  -1  -3    0.94    0.20
  11  -1   3    0.81    0.24
  11  -1   3    1.20    0.17
  11   1   3    0.85    0.20
 -11   1  -3    1.14    0.20
  11   1   3    0.79    0.23
  11   1   3    1.29    0.22
  13  -1   3    0.28    0.17
  13  -1   3    0.22    0.15
  13  -1   3    0.14    1.41
  13  -1   3    0.25    0.16
 -13   1  -3    0.79    1.16
  13   1   3    0.33    0.17
  15  -1   3    0.02    0.20
  15  -1   3    0.09    0.20
  15   1   3   -0.08    0.17
  17   1   3   -0.28    0.34
  16  -2  -3   -0.19    0.22
  16  -2  -3    0.65    0.24
  16   2  -3   -0.02    0.19
  16   2  -3   -0.28    0.23
  14  -2  -3    1.31    0.32
  14  -2  -3    0.77    1.98
 -14  -2   3    3.70    2.77
  14  -2  -3    1.52    0.38
  14  -2  -3    1.18    0.28
  14  -2  -3    0.94    0.28
  14   2  -3    1.42    0.28
  14   2  -3    1.01    0.28
 -14   2   3   -0.51    1.74
  14   2  -3    0.72    2.04
  12  -2  -3    8.66    0.61
  12  -2  -3    8.94    0.53
 -12  -2   3    8.99    0.57
 -12  -2   3    9.73    2.35
  12  -2  -3    9.03    0.50
  12  -2  -3    9.47    0.55
  12   2  -3    9.06    0.52
 -12   2   3    9.23    0.61
  12   2  -3    9.98    0.57
 -10  -2   3    5.89    0.45
  10  -2  -3    5.79    0.38
 -10  -2   3    8.91    2.21
 -10  -2   3    5.33    0.39
  10  -2  -3    5.39    0.48
  10  -2  -3    5.69    0.45
  10   2  -3    6.14    0.36
  10   2  -3    6.15    0.40
 -10   2   3    5.62    0.42
  10   2  -3    5.54    0.41
  -8  -2   3    6.56    0.42
   8  -2  -3    6.56    0.44
  -8  -2   3    8.83    1.69
   8  -2  -3    6.58    0.47
  -8  -2   3    7.07    0.41
   8  -2  -3    7.05    0.46
   8   2  -3    7.56    0.41
  -8   2   3    6.46    1.56
  -8   2   3    7.15    0.42
   8   2  -3    7.69    0.42
   8   2  -3    7.44    0.37
  -6  -2   3    0.01    0.07
   6  -2  -3    0.12    0.13
  -6  -2   3   -0.16    0.62
   6   2  -3    0.07    0.07
   6   2  -3    0.07    0.07
  -6   2   3    0.17    0.08
  -6   2   3    0.57    0.64
  -4  -2   3    0.10    0.06
   4  -2  -3    0.15    0.10
  -4   2   3    0.32    0.09
  -4   2   3    0.87    0.46
   4   2  -3    0.12    0.09
   2  -2  -3   48.67    2.51
  -2  -2   3   48.14    1.86
   2   2  -3   50.02    1.86
  -2   2   3   47.92    1.86
  -2   2   3   51.22    2.46
  -2   2   3   49.64    1.87
   0  -2   3    0.32    0.23
   0  -2  -3    0.38    0.07
   0  -2  -3    0.17    0.05
   0  -2  -3    0.16    0.40
   0   2  -3    0.36    0.26
   0   2  -3    0.17    0.04
   0   2   3    0.10    0.04
   0   2   3    0.06    0.04
   0   2   3   -0.13    0.31
   2  -2   3    1.13    0.17
  -2   2  -3    1.46    0.08
   2   2   3    1.22    0.12
   2   2   3    0.95    0.49
  -2   2  -3    1.30    0.27
  -2   2  -3    1.47    0.29
  -2   2  -3    1.50    0.08
   2   2   3    1.27    0.11
   4  -2   3    0.54    0.16
   4   2   3    0.50    0.10
   4   2   3    0.35    0.10
   4   2   3    1.22    0.54
   4   2   3    0.55    0.10
   6  -2   3   12.60    0.62
  -6  -2  -3   12.01    0.56
   6   2   3   12.24    0.56
   6   2   3   12.26    0.55
   6   2   3   11.28    0.55
   8  -2   3    0.12    0.12
  -8  -2  -3    0.26    0.10
   8  -2   3    0.08    0.39
   8   2   3    0.05    0.09
  -8   2  -3   -0.21    0.28
  -8   2  -3    0.05    0.05
   8   2   3    0.05    0.09
   8   2   3    0.14    0.08
  10  -2   3   19.03    0.94
  10  -2   3   19.23    0.74
  10  -2   3   17.22    1.48
 -10   2  -3   18.54    0.77
  10   2   3   18.39    0.86
  10   2   3   19.18    2.30
  10   2   3   17.61    0.85
  10   2   3   19.72    0.87
 -10   2  -3   18.81    1.32
 -12  -2  -3    1.75    0.29
  12  -2   3    2.11    0.20
  12  -2   3    2.57    0.36
  12   2   3    1.71    0.26
  12   2   3    2.16    0.29
  14  -2   3    3.77    0.46
  14   2   3    4.08    0.40
  14   2   3    4.18    0.42
  16  -2   3    0.09    0.34
 -16  -2  -3    0.27    0.29
  16   2   3    0.58    0.28
  16   2   3    0.22    0.20
 -15  -3   3    2.34    3.91
  15  -3  -3    0.08    0.23
  15  -3  -3    0.60    0.22
  15   3  -3    0.42    0.21
  13  -3  -3    0.87    1.65
  13  -3  -3   -0.05    0.18
  13  -3  -3   -0.02    0.18
  13  -3  -3    0.10    0.16
  13  -3  -3    0.06    0.20
  13   3  -3    0.25    0.17
 -13   3   3    0.33    0.29
 -13   3   3   -1.38    1.51
  13   3  -3    0.20    0.17
  11  -3  -3    1.11    0.28
 -11  -3   3    0.90    0.27
  11  -3  -3    0.99    0.29
  11  -3  -3    1.53    0.26
  11   3  -3    1.17    0.22
  11   3  -3    0.51    1.66
 -11   3   3    1.26    0.25
  11   3  -3    1.15    0.35
   9  -3  -3   30.49    1.23
  -9  -3   3   27.86    3.11
  -9  -3   3   29.70    1.28
   9  -3  -3   28.77    1.37
   9   3  -3   29.05    1.27
  -9   3   3   28.42    1.25
   9   3  -3   29.33    1.18
   7  -3  -3    0.66    0.21
  -7  -3   3    0.13    0.92
  -7  -3   3    0.08    0.09
  -7  -3   3    0.41    0.13
   7   3  -3    0.16    0.08
   7   3  -3    0.24    0.10
  -7   3   3    0.18    0.75
   7   3  -3    0.21    0.11
  -7   3   3    0.22    0.11
  -5  -3   3   71.68    3.79
  -5  -3   3   67.95    2.62
  -5  -3   3   69.38    2.62
   5  -3  -3   65.67    2.73
   5   3  -3   68.02    2.62
  -5   3   3   68.36    3.48
   5   3  -3   70.01    2.61
   5   3  -3   69.69    3.67
   5   3  -3   69.36    2.53
  -5   3   3   68.02    2.59
  -5   3   3   60.50    2.60
   3  -3  -3   34.90    1.44
  -3  -3   3   35.53    2.30
   3   3  -3   37.47    1.44
  -3   3   3   37.14    2.19
  -3   3   3   37.75    1.44
   1  -3  -3   27.94    1.16
   1   3  -3   27.71    1.08
  -1   3   3   27.33    1.09
  -1   3   3   27.93    1.10
  -1   3   3   25.24    1.78
   1  -3   3   17.24    0.75
   1   3   3   17.20    0.72
  -1   3  -3   17.79    0.68
   1   3   3   15.88    1.45
  -1   3  -3   15.59    1.16
  -1   3  -3   17.31    0.69
  -1   3  -3   16.90    1.16
   1   3   3   17.65    0.74
  -3  -3  -3    1.59    0.16
   3  -3   3    0.80    0.24
  -3   3  -3    1.55    0.09
   3   3   3    1.06    0.67
  -3   3  -3    2.14    0.51
  -3   3  -3    1.74    0.49
  -3   3  -3    1.34    0.10
   3   3   3    1.36    0.15
   3   3   3    1.15    0.17
  -5  -3  -3    0.51    0.13
   5  -3   3    0.43    0.17
  -5   3  -3    0.26    0.25
   5   3   3    1.04    0.78
   5   3   3    0.49    0.10
   5   3   3    0.52    0.13
  -5   3  -3    0.61    0.19
   7   3   3    1.38    1.10
  -9  -3  -3    2.62    0.28
   9  -3   3    2.42    0.35
   9   3   3    2.25    1.46
   9   3   3    2.41    0.24
   9   3   3    3.11    0.29
 -11  -3  -3    4.88    0.58
  11  -3   3    5.38    0.50
  11   3   3    4.67    0.37
  11   3   3    3.05    2.19
  11   3   3    5.41    1.97
  13  -3   3   19.41    1.09
 -13  -3  -3   17.95    1.06
  13   3   3   20.34    1.00
  13   3   3   19.58    0.95
  13   3   3   19.26    4.06
 -15  -3  -3    1.94    0.48
  15  -3   3    1.90    0.60
  15   3   3    1.75    0.51
 -14  -4   3    0.92    4.19
  14  -4  -3    4.31    0.56
 -14  -4   3    4.72    0.58
  14   4  -3    3.68    0.52
  14   4  -3    4.64    0.43
 -12  -4   3    4.19    2.83
 -12  -4   3    6.01    0.75
  12  -4  -3    4.59    0.37
  12  -4  -3    4.16    0.38
  12  -4  -3    4.95    0.54
  12   4  -3    4.54    0.45
  12   4  -3    2.62    2.62
  12   4  -3    4.40    0.37
 -10  -4   3    0.22    1.93
  10  -4  -3   -0.08    1.23
  10  -4  -3    0.48    0.23
  10  -4  -3    0.44    0.20
  10  -4  -3    0.33    0.15
 -10   4   3    1.22    1.43
  10   4  -3    0.41    0.16
 -10   4   3    0.26    0.21
   8  -4  -3   22.14    0.98
  -8  -4   3   19.83    2.95
   8  -4  -3   20.43    2.16
  -8  -4   3   22.71    1.06
   8  -4  -3   23.26    1.18
   8   4  -3   22.86    1.05
  -8   4   3   23.42    1.02
   8   4  -3   24.04    0.94
  -6  -4   3    4.30    0.33
  -6   4   3    4.16    0.29
   6   4  -3    4.72    0.26
   6   4  -3    4.15    0.34
   6   4  -3    4.12    0.32
  -6   4   3    4.30    0.31
  -4  -4   3    8.14    0.44
   4   4  -3    8.01    0.44
  -4   4   3    7.86    0.42
  -4   4   3    8.94    0.41
   4   4  -3    7.65    0.43
   4   4  -3    7.85    0.37
  -4   4   3    7.45    1.40
   2   4  -3    1.39    0.17
  -2   4   3    1.10    0.16
   2   4  -3    1.50    0.17
  -2   4   3    1.42    0.18
   0  -4  -3    0.45    0.13
   0   4   3    0.27    0.09
   0   4   3    0.62    0.74
   0   4  -3    0.40    0.61
   0   4  -3    0.37    0.09
   0   4  -3    0.38    0.11
   0   4  -3    0.55    0.60
   0   4   3    0.63    0.16
  -2  -4  -3    0.89    0.16
  -2   4  -3    0.97    0.11
   2   4   3    0.88    0.19
   2   4   3    0.63    0.16
  -2   4  -3    1.04    0.50
  -2   4  -3    0.77    0.12
  -2   4  -3    1.68    0.60
   2   4   3    1.61    0.97
   2   4   3    0.77    0.17
  -4  -4  -3    5.11    0.35
   4  -4   3    4.51    0.42
   4   4   3    7.67    1.77
  -4   4  -3    5.27    0.25
  -4   4  -3    5.32    0.93
   4   4   3    5.56    0.39
  -4   4  -3    4.10    0.85
   4   4   3    5.16    0.36
  -4   4  -3    5.37    0.27
   4   4   3    5.41    0.35
   6  -4   3    9.11    0.62
  -6  -4  -3    8.55    0.51
   6   4   3    7.87    2.23
  -6   4  -3    9.84    0.76
   6   4   3    9.32    0.48
   6   4   3   10.17    2.12
   6   4   3    8.95    0.51
   8  -4   3    1.32    0.36
  -8  -4  -3    1.22    0.27
   8   4   3    1.96    1.62
   8   4   3    1.42    0.21
   8   4   3    1.27    0.29
   8   4   3    0.52    1.45
 -10  -4  -3   16.64    0.86
  10  -4   3   17.29    0.98
  10   4   3   15.86    0.79
  10   4   3   15.79    0.84
  10   4   3   15.90    3.64
 -12  -4  -3    0.71    0.23
  12  -4   3    0.99    0.32
  12   4   3    2.37    3.61
  12   4   3    1.23    0.27
  14   4   3    8.52    0.67
  11  -5  -3    1.10    0.30
  11  -5  -3   -0.15    0.26
 -11  -5   3   -0.04    0.23
  11   5  -3    0.00    0.24
  -9  -5   3   24.87    1.22
   9  -5  -3   26.16    1.09
   9  -5  -3   26.20    1.12
  -9   5   3   20.78    3.28
   9   5  -3   25.46    1.37
   9   5  -3   26.76    1.09
   7  -5  -3    0.93    1.36
   7  -5  -3    0.01    0.12
  -7  -5   3    0.37    0.17
   7   5  -3    0.20    0.21
   7   5  -3   -1.12    1.61
  -7   5   3    0.13    0.18
  -7   5   3   -0.62    1.38
   7   5  -3    0.35    0.14
  -5  -5   3   51.62    2.15
   5  -5  -3   53.28    2.09
  -5   5   3   53.50    2.12
   5   5  -3   53.83    2.03
   5   5  -3   53.94    2.16
  -3  -5   3   15.81    0.75
   3  -5  -3   15.82    0.73
   3   5  -3   15.62    0.75
  -3   5   3   15.93    0.72
  -3   5   3   13.64    1.98
  -3   5   3   16.29    0.75
   3   5  -3   15.11    0.74
  -1  -5   3   37.30    1.52
   1  -5  -3   37.09    1.53
   1   5  -3   37.26    2.77
   1   5  -3   39.10    1.52
   1   5  -3   37.70    1.49
  -1   5   3   36.31    1.50
  -1   5   3   36.36    1.52
   1   5  -3   36.68    1.50
   1  -5   3   13.27    0.64
  -1  -5  -3   14.61    0.78
  -1   5  -3   13.19    1.82
   1   5   3   13.90    0.70
  -1   5  -3   14.36    0.62
  -1   5  -3   13.72    0.64
   1   5   3   14.82    2.16
  -3  -5  -3    7.93    0.48
  -3   5  -3    8.02    1.50
   3   5   3    7.56    0.48
  -3   5  -3    7.72    0.41
  -3   5  -3    7.87    0.39
   3   5   3    9.57    2.32
  -3   5  -3    7.68    1.45
   5  -5   3   -0.01    0.20
  -5  -5  -3    0.02    0.15
   5   5   3    0.29    0.14
  -5   5  -3    1.65    0.87
  -5   5  -3    0.22    0.11
   5   5   3   -2.28    1.47
  -7  -5  -3    7.27    0.50
   7  -5   3    6.64    0.59
   7   5   3    5.80    2.25
   7   5   3    5.65    0.46
   7   5   3    6.54    0.41
   7   5   3    5.96    2.23
  -9  -5  -3   13.07    0.78
   9  -5   3   13.16    0.89
   9   5   3   12.40    0.68
   9   5   3   14.75    3.24
   9   5   3   23.48    4.42
   9   5   3   14.18    0.79
  11  -5   3    5.13    0.61
  11   5   3    5.04    0.54
   8  -6  -3   19.54    0.91
  -8  -6   3   20.76    1.08
   6  -6  -3    2.90    0.33
  -6  -6   3    2.44    0.42
   6   6  -3    3.08    2.34
  -4  -6   3    8.76    0.59
   4  -6  -3    8.72    0.54
   4   6  -3    9.30    0.59
   4   6  -3    9.11    2.31
  -4   6   3   11.22    0.75
  -4   6   3    7.55    2.09
   2  -6  -3    6.39    0.46
  -2  -6   3    6.85    0.50
  -2   6   3    4.12    1.70
  -2   6   3    7.27    0.48
   2   6  -3    7.04    1.96
   2   6  -3    6.82    0.47
   0  -6   3    2.61    0.32
   0   6   3    3.08    1.77
   0   6  -3    1.40    1.41
   0   6  -3    2.57    0.34
   0   6  -3    1.59    1.51
   0   6   3    2.14    0.37
  -2  -6  -3    3.83    0.38
   2  -6   3    3.04    0.32
  -2   6  -3    2.20    1.33
  -2   6  -3    1.96    1.45
  -2   6  -3    2.60    0.48
   2   6   3    4.11    2.00
   2   6   3   -0.46    2.67
  -2   6  -3    3.17    0.46
   2   6   3    3.03    0.35
   4   6   3   11.73    0.69
   4   6   3    9.25    2.70
  -4   6  -3   10.09    2.24
  -6  -6  -3   14.50    0.84
   6   6   3   15.75    0.85
   6   6   3   14.76    0.74
  -6   6  -3   14.48    1.79
   6   6   3    6.60    3.00
  -8  -6  -3    2.08    0.48
   8   6   3    1.38    0.30
   8   6   3    5.98    3.43
  -5  -7   3   72.12    3.16
   5  -7  -3   73.98    3.29
   5   7  -3   75.02    3.22
  -5   7   3   89.99    3.47
  -3  -7   3    7.34    0.65
  -1  -7   3   47.03    2.14
   1  -7  -3   48.22    2.03
   1  -7   3    7.16    0.58
  -1  -7  -3    7.18    0.64
  -1   7  -3    7.41    0.57
  -3  -7  -3    5.88    0.58
   3   7   3    4.30    0.59
  -5  -7  -3    1.20    0.34
   5   7   3    1.90    0.33
  18   0  -4   98.13    4.00
  16   0  -4  119.10    4.61
  16   0  -4  117.21    4.67
  14   0  -4  109.95    4.35
  14   0  -4  112.52    4.34
 -14   0   4  112.60    6.95
 -12   0   4   54.20    2.36
  12   0  -4   58.47    2.34
 -12   0   4   59.44    4.31
  12   0  -4   59.02    2.33
  12   0  -4   58.43    2.32
 -10   0   4    3.77    1.37
  10   0  -4    6.22    0.39
  10   0  -4    5.64    0.38
  -8   0   4    3.71    0.30
   8   0  -4    3.24    0.26
   8   0  -4    3.93    0.27
  -8   0   4    1.77    0.98
   8   0  -4    3.42    0.26
   6   0  -4  394.68   15.38
   6   0  -4  442.84   15.40
   6   0  -4  383.61   15.40
  -6   0   4  476.60   16.76
  -6   0   4  403.33   15.41
   4   0  -4   13.78    1.91
  -4   0   4   10.81    0.51
   4   0  -4   11.03    0.49
  -4   0   4   11.51    1.24
  -2   0   4  423.55   15.85
   2   0  -4  406.52   15.84
   2   0   4  245.72    9.08
  -2   0  -4  249.58    9.38
   4   0   4  422.39   15.88
   6   0   4  193.26    7.01
   6   0   4  184.90    6.95
   8   0   4   65.68    2.71
   8   0   4   75.65    2.74
  10   0   4   23.01    1.00
  10   0   4   20.53    0.90
  12   0   4   35.58    1.60
  12   0   4   38.51    1.54
 -12   0  -4   40.03    1.64
  12   0   4   34.77    1.50
  14   0   4    1.70    0.38
  14   0   4    2.27    0.35
  14   0   4    2.64    0.34
 -16   0  -4  146.30    5.97
  16   0   4  157.06    5.93
  17   1  -4  224.14    8.53
  17   1  -4  224.78    8.54
  15  -1  -4    9.17    0.65
  15  -1  -4    8.43    0.60
 -15  -1   4   11.46    3.21
  15   1  -4    8.53    0.60
  15   1  -4    9.49    0.60
  15   1  -4   12.08    2.86
  13  -1  -4   58.65    2.47
 -13  -1   4   63.27    2.45
  13  -1  -4   56.93    2.38
  13   1  -4   60.56    2.43
  13   1  -4   60.67    2.40
 -13   1   4   52.93    4.44
  11  -1  -4   14.27    0.65
  11  -1  -4   11.31    0.68
 -11  -1   4   11.81    0.69
  11  -1  -4   12.37    0.65
 -11  -1   4   13.03    0.68
 -11   1   4   12.13    2.39
  11   1  -4   11.98    0.64
  11   1  -4   11.66    0.65
 -11   1   4   11.87    0.69
  11   1  -4   11.53    0.61
  11   1  -4   10.33    2.51
  -9  -1   4    2.32    1.09
   9  -1  -4    3.62    0.32
   9  -1  -4    5.97    1.51
  -9  -1   4    2.84    0.30
  -9  -1   4    4.02    0.29
   9   1  -4    2.92    0.26
  -9   1   4    3.07    1.16
  -9   1   4    3.41    0.31
   9   1  -4    3.04    0.28
   9   1  -4    3.74    0.26
   7  -1  -4  222.69    8.53
  -7  -1   4  239.73    9.86
   7  -1  -4  198.73    8.54
  -7  -1   4  233.43    8.54
   7  -1  -4  245.19   10.18
   7  -1  -4  241.21    8.57
  -7   1   4  217.11    8.54
  -7   1   4  234.03    9.82
   7   1  -4  237.65    8.48
   7   1  -4  234.88    8.52
   5  -1  -4   70.41    2.65
  -5  -1   4   73.69    3.58
  -5  -1   4   69.22    2.62
   5  -1  -4   61.00    2.73
   5  -1  -4   68.84    2.60
   5  -1  -4   63.11    3.46
   5   1  -4   70.40    2.61
  -5   1   4   69.57    2.63
   5   1  -4   71.81    2.57
  -5   1   4   67.10    3.51
  -3  -1   4  878.01   32.34
   3  -1  -4  855.20   32.37
  -3   1   4  860.77   32.28
   1  -1  -4  220.03    8.55
   1   1  -4  205.13    8.47
  -1   1   4  223.40    8.46
   1   1   4 1000.00   34.19
  -1   1  -4  843.33   33.81
   3  -1   4   17.93    0.73
   3  -1   4   17.10    0.71
   3  -1   4   16.80    0.74
   3   1   4   15.17    1.17
   3   1   4   17.19    0.69
   3   1   4   17.20    0.69
   3   1   4   16.08    1.15
   3   1   4   17.59    0.70
   5  -1   4  466.73   16.79
   5  -1   4  424.90   16.98
   5  -1   4  449.37   16.94
   5   1   4  484.53   17.51
   5   1   4  461.66   17.55
   7  -1   4   11.25    1.04
   7  -1   4   13.49    0.52
   7  -1   4   12.89    0.64
   7   1   4   13.13    0.58
   9  -1   4   42.12    2.57
   9  -1   4   46.68    1.75
   9  -1   4   47.81    1.88
   9   1   4   47.26    1.81
   9   1   4   43.98    1.83
  11  -1   4   23.99    1.13
  11  -1   4   23.78    0.99
  11  -1   4   21.95    2.24
  11   1   4   27.16    1.08
  11   1   4   24.07    1.10
  11   1   4   24.53    1.07
 -13  -1  -4    1.33    0.28
  13  -1   4    0.88    1.47
  13  -1   4    0.57    0.17
  13   1   4    1.02    0.27
  13   1   4    1.82    0.28
  15  -1   4  161.05    6.35
  15   1   4  159.99    6.30
  15   1   4  171.07    6.27
  16  -2  -4   99.76    4.10
  16  -2  -4  101.07    4.09
  16   2  -4   99.85    3.97
  16   2  -4  103.59    4.04
  14  -2  -4  107.28    4.30
  14  -2  -4  115.23    4.35
  14  -2  -4  116.69    4.31
  14  -2  -4  114.38    4.48
 -14  -2   4  114.05    7.72
 -14   2   4  110.58    6.56
  14   2  -4  111.07    4.32
  14   2  -4  107.29    6.71
 -12  -2   4   26.54    1.23
  12  -2  -4   27.50    1.30
  12  -2  -4   28.04    1.18
 -12  -2   4   24.08    3.47
  12  -2  -4   27.91    1.19
  12  -2  -4   26.08    1.20
 -12   2   4   25.62    1.24
  12   2  -4   27.02    1.23
  12   2  -4   28.14    1.17
 -10  -2   4    1.04    1.40
  10  -2  -4    1.75    0.30
 -10  -2   4    1.93    0.25
 -10  -2   4    2.74    0.35
  10   2  -4    1.57    0.23
  10   2  -4    2.06    0.23
  10   2  -4    1.43    0.28
 -10   2   4    3.88    1.33
 -10   2   4    1.86    0.31
  -8  -2   4    4.36    0.32
  -8  -2   4    4.41    0.34
  -8  -2   4    5.46    1.34
   8  -2  -4    5.44    0.41
  -8   2   4    7.25    1.56
   8   2  -4    4.97    0.33
   8   2  -4    5.58    0.34
   8   2  -4    4.78    0.28
  -8   2   4    4.16    0.34
   6  -2  -4  276.95   10.34
   6  -2  -4  275.74   10.26
  -6  -2   4  280.83   10.27
  -6  -2   4  301.21   11.54
  -6   2   4  261.94   11.25
   6   2  -4  271.57   10.25
   4  -2  -4   17.03    0.87
  -4  -2   4   16.97    0.82
  -4  -2   4   18.02    0.80
   4  -2  -4   17.80    0.82
  -4   2   4   18.40    0.75
  -4   2   4   18.10    1.44
  -4   2   4   19.05    0.74
   2  -2  -4  667.25   23.74
  -2   2   4  657.84   23.67
   2   2  -4  555.73   23.80
   0  -2   4  264.28   10.41
   0  -2  -4  277.55   10.45
   0  -2   4  291.31   10.79
   0   2   4  285.10   10.44
   0   2  -4  286.99   10.89
   0   2   4  308.99   11.19
   0   2   4  278.31   10.43
   2  -2   4  461.11   16.28
   2   2   4  460.50   17.08
  -2   2  -4  427.71   16.43
  -2   2  -4  425.16   16.32
   4  -2   4  291.86   11.14
   4   2   4  307.35   11.12
   4   2   4  294.11   11.11
   4   2   4  301.44   11.11
   4   2   4  302.95   11.10
   4   2   4  314.77   12.09
  -6  -2  -4  125.20    4.71
   6  -2   4  127.17    4.78
   6   2   4  126.52    4.72
   6   2   4  120.00    5.75
   6   2   4  128.65    4.71
   8  -2   4   46.87    1.83
   8  -2   4   46.13    1.89
  -8  -2  -4   44.44    1.84
   8  -2   4   43.72    1.86
   8   2   4   43.08    2.93
   8   2   4   47.60    1.83
   8   2   4   46.29    1.82
   8   2   4   43.70    3.06
   8   2   4   47.71    1.83
 -10  -2  -4    1.74    0.23
  10  -2   4    0.23    0.54
  10  -2   4    1.44    0.26
  10   2   4    1.22    1.17
  10   2   4    1.31    0.25
  10   2   4    1.17    0.20
  10   2   4    1.17    0.20
  12  -2   4   37.10    1.67
  12  -2   4   35.48    2.10
 -12  -2  -4   38.90    1.59
  12   2   4   35.28    1.68
  12   2   4   37.40    1.58
  14  -2   4    3.10    0.44
  14   2   4    2.66    0.39
  14   2   4    2.59    0.34
  16  -2   4  114.69    4.75
  16   2   4  112.46    4.58
  16   2   4  121.83    4.59
 -15  -3   4    3.38    3.96
  15  -3  -4    6.53    0.60
  15  -3  -4    5.33    0.48
  15   3  -4    6.22    0.47
  13  -3  -4   40.94    3.93
 -13  -3   4   44.61    1.97
  13  -3  -4   45.82    2.05
  13  -3  -4   45.33    1.85
  13  -3  -4   47.15    1.88
  13  -3  -4   46.70    1.91
 -13   3   4   41.43    3.96
  13   3  -4   47.74    1.87
  13   3  -4   46.31    1.96
 -13   3   4   44.73    1.98
 -11  -3   4    2.43    2.05
  11  -3  -4    2.42    0.33
  11  -3  -4    1.50    0.34
  11  -3  -4    2.46    0.26
  11  -3  -4    2.14    0.28
 -11   3   4    2.10    0.36
  11   3  -4    3.30    1.83
  11   3  -4    1.58    0.30
  -9  -3   4   -0.12    1.30
   9  -3  -4    1.27    0.30
  -9  -3   4    1.19    0.21
   9  -3  -4    1.37    0.26
  -9   3   4    0.66    0.20
   9   3  -4    2.72    1.29
  -7  -3   4  140.63    5.30
   7  -3  -4  139.05    5.41
  -7  -3   4  145.05    6.79
  -7  -3   4  137.14    5.30
   7   3  -4  147.27    5.19
   7   3  -4  139.70    5.30
  -7   3   4  141.65    6.47
  -7   3   4  137.83    5.27
   7   3  -4  137.09    5.28
  -5  -3   4   58.70    2.27
  -5  -3   4   54.64    3.29
  -5  -3   4   57.77    2.27
   5   3  -4   59.75    2.26
   5   3  -4   56.41    2.26
  -5   3   4   60.82    2.23
  -5   3   4   57.98    3.19
  -5   3   4   58.71    2.25
   5   3  -4   56.72    3.31
  -3  -3   4  572.34   22.60
  -3   3   4  627.50   22.23
   3   3  -4  553.06   21.24
  -3   3   4  570.25   21.26
   1  -3  -4  114.97    4.30
   1   3  -4  116.59    4.26
  -1   3   4  114.73    4.29
  -1   3   4  112.69    5.14
  -1   3   4  114.19    4.28
   1  -3   4  790.94   29.02
  -1   3  -4  769.46   29.50
  -1   3  -4  753.16   29.41
   1   3   4  860.49   30.10
   3  -3   4   33.90    1.43
  -3  -3  -4   32.03    1.36
   3   3   4   35.90    1.37
  -3   3  -4   33.48    1.61
  -3   3  -4   36.41    1.59
   3   3   4   34.90    1.38
   3   3   4   33.40    2.36
  -3   3  -4   32.96    1.28
   5  -3   4  333.83   13.05
  -5  -3  -4  330.18   12.88
   5   3   4  357.10   12.88
   5   3   4  348.25   12.89
   5   3   4  362.46   12.90
   5   3   4  377.46   14.32
   5   3   4  340.01   12.93
   7  -3   4    0.76    0.21
  -7  -3  -4    0.62    0.17
   7   3   4    0.13    1.06
   7   3   4    1.02    0.17
   7   3   4    0.75    0.16
   7   3   4    0.94    0.18
   9  -3   4   24.00    1.17
  -9  -3  -4   22.72    1.06
   9   3   4   23.36    1.04
   9   3   4   25.23    2.88
   9   3   4   24.84    1.08
  11  -3   4    5.97    0.53
  11   3   4    4.39    2.15
  11   3   4    6.22    0.42
  11   3   4    3.63    1.86
  13  -3   4    1.01    0.31
  13   3   4    0.87    0.24
 -15  -3  -4  134.43    5.67
 -14  -4   4   39.20    1.93
  14  -4  -4   41.06    1.94
 -14  -4   4   29.89    5.63
  14   4  -4   39.67    1.83
  14   4  -4   41.82    1.69
  14   4  -4   51.03    7.98
  12  -4  -4   20.15    0.91
  12  -4  -4   19.77    0.97
 -12  -4   4   20.87    4.63
  12  -4  -4   20.67    1.15
  12   4  -4   19.95    1.04
  12   4  -4   20.88    0.92
  12   4  -4   20.88    3.91
 -10  -4   4    6.66    0.57
  10  -4  -4    5.45    0.38
  10  -4  -4    7.68    0.45
 -10  -4   4    8.93    2.43
  10  -4  -4    5.33    0.55
 -10   4   4    5.51    0.50
  10   4  -4    6.72    0.39
 -10   4   4    9.19    2.65
  -8  -4   4   -0.10    1.53
  -8  -4   4    0.35    0.15
   8  -4  -4    0.55    0.13
   8  -4  -4    0.51    0.15
   8   4  -4    0.84    0.15
   8   4  -4    0.43    0.15
  -8   4   4    0.50    0.18
  -6  -4   4  171.67    6.49
   6   4  -4  168.26    6.47
  -6   4   4  169.95    6.43
   6   4  -4  178.96    6.36
  -6   4   4  174.89    6.46
   4  -4  -4   25.41    1.03
   4  -4  -4   24.12    1.04
  -4  -4   4   23.56    1.04
  -4   4   4   23.91    1.00
  -4   4   4   24.98    2.05
   4   4  -4   23.48    1.04
  -4   4   4   24.26    1.03
   4   4  -4   24.54    1.03
   4   4  -4   24.62    0.94
   2  -4  -4  292.03   11.01
   2  -4  -4  289.93   12.79
   2   4  -4  301.34   10.98
  -2   4   4  307.15   10.99
   2   4  -4  282.12   12.62
  -2   4   4  313.41   11.02
   0  -4  -4  157.99    5.85
   0   4   4  160.52    5.85
   0   4  -4  156.08    5.79
   0   4   4  165.18    5.83
   0   4  -4  159.53    5.80
   0   4  -4  143.63    6.63
   0   4  -4  151.03    6.56
   0   4   4  154.41    6.97
  -2  -4  -4  189.53    7.09
   2  -4   4  197.34    7.11
  -2   4  -4  196.74    7.01
   2   4   4  192.30    7.10
   2   4   4  182.10    8.35
  -2   4  -4  187.68    7.00
   2   4   4  193.55    7.08
  -2   4  -4  178.61    7.68
  -2   4  -4  191.87    7.61
   4  -4   4  189.58    7.18
  -4  -4  -4  182.11    7.10
   4   4   4  196.71    8.65
   4   4   4  193.54    7.13
   4   4   4  191.40    7.10
  -4   4  -4  180.21    6.98
   4   4   4  197.30    8.67
  -4   4  -4  184.45    7.41
  -4   4  -4  199.87    7.44
   4   4   4  190.11    7.12
   6  -4   4   59.21    2.53
  -6  -4  -4   62.60    2.45
   6   4   4   63.51    2.41
   6   4   4   56.34    4.10
   6   4   4   62.68    2.45
   8  -4   4   30.30    1.44
  -8  -4  -4   30.55    1.33
   8   4   4   29.74    1.27
   8   4   4   30.68    1.33
   8   4   4   25.52    3.36
 -10  -4  -4    9.70    0.63
  10  -4   4   10.56    0.73
  10   4   4    7.89    2.63
  10   4   4    9.26    0.61
  10   4   4    9.62    0.56
  12  -4   4   32.91    1.66
  12   4   4   35.08    1.49
  11  -5  -4    1.81    0.32
  11  -5  -4    1.94    0.43
  11   5  -4    1.70    0.42
  -9  -5   4    4.44    2.68
  -9  -5   4    3.09    0.41
   9  -5  -4    3.00    0.31
  -9   5   4    3.39    0.47
  -9   5   4    0.13    2.07
  -7  -5   4   64.61    2.60
   7  -5  -4   64.02    2.53
   7  -5  -4   62.90    2.50
   7   5  -4   65.13    4.72
   7   5  -4   67.39    2.60
  -7   5   4   58.85    4.24
  -7   5   4   64.07    2.54
   5  -5  -4   85.22    3.28
  -5  -5   4   86.49    3.34
  -5   5   4   86.12    3.30
   5   5  -4   77.04    4.96
   5   5  -4   89.26    3.34
   3  -5  -4  293.86   10.78
  -3  -5   4  291.88   10.79
  -3   5   4  292.13   10.78
  -3   5   4  286.98   10.75
   3   5  -4  297.46   10.81
   3   5  -4  280.92   10.75
   3   5  -4  294.00   10.78
  -1  -5   4   70.35    2.71
   1   5  -4   72.46    2.68
   1   5  -4   69.94    2.70
  -1   5   4   68.17    2.70
   1   5  -4   70.14    2.69
   1   5  -4   66.90    3.96
  -1  -5  -4  444.44   16.45
  -1   5  -4  428.79   17.46
  -1   5  -4  446.37   16.36
  -1   5  -4  440.68   16.37
   1   5   4  441.54   16.46
   1   5   4  477.75   18.11
  -3  -5  -4    2.93    0.30
   3   5   4    2.68    0.30
   3   5   4    1.27    1.48
  -3   5  -4    4.20    0.98
  -3   5  -4    2.23    0.86
  -3   5  -4    2.01    0.27
  -5  -5  -4  271.53   10.19
   5  -5   4  271.95   10.27
   5   5   4  271.74   10.19
   5   5   4  293.21   12.41
  -5   5  -4  272.05   10.49
  -5   5  -4  267.04   10.50
   5   5   4  269.00   10.14
  -7  -5  -4    3.36    0.38
   7  -5   4    3.82    0.49
   7   5   4    1.07    2.12
   7   5   4    3.57    0.37
   7   5   4    2.91    0.29
   7   5   4    2.18    2.02
   9  -5   4   34.69    1.64
  -9  -5  -4   31.94    1.51
   9   5   4   33.73    1.52
   9   5   4   31.98    1.42
   9   5   4   40.80    4.88
  11  -5   4    7.32    0.70
  11   5   4    6.67    0.48
  11   5   4    4.90    0.69
   8  -6  -4    2.65    0.37
  -8  -6   4    1.62    0.46
  -6  -6   4  113.08    4.40
   6   6  -4  111.53    7.63
  -4  -6   4   14.45    0.81
   4  -6  -4   15.61    0.87
   4   6  -4   15.76    0.81
   4   6  -4   12.95    3.31
   2  -6  -4  241.13    8.73
  -2   6   4  221.40   10.41
   2   6  -4  215.30   10.27
   2   6  -4  249.46    8.73
   0  -6  -4   82.76    3.20
   0  -6   4   81.98    3.16
   0   6  -4   81.88    3.11
   0   6  -4   73.67    4.59
   0   6  -4   78.63    4.87
   0   6  -4   81.53    3.13
   0   6   4   84.89    3.21
   0   6   4   79.04    5.21
   2  -6   4  167.99    6.41
  -2  -6  -4  171.10    6.52
   2   6   4  171.27    8.67
   2   6   4  173.58    6.54
  -2   6  -4  181.62    8.56
  -2   6  -4  165.54    7.78
  -4  -6  -4  112.20    4.38
  -4   6  -4  103.25    5.16
   4   6   4  104.77    4.19
   4   6   4  110.63    6.91
  -6  -6  -4   28.92    1.41
   6   6   4   31.44    1.42
   6   6   4   31.11    1.33
   6   6   4   29.41    4.89
   8   6   4   15.71    4.30
   8   6   4   19.07    0.92
  -5  -7   4   33.36    1.59
  -3  -7   4  143.19    5.53
   1  -7  -4   21.03    1.08
  -1  -7  -4  204.86    7.78
  -3  -7  -4    2.03    0.37
   3   7   4    0.57    0.29
  18   0  -5   -0.33    0.23
  18   0  -5    0.32    0.30
  16   0  -5   -0.02    0.20
  16   0  -5   -0.21    0.20
  14   0  -5    0.10    0.17
 -14   0   5   -1.13    2.06
  14   0  -5    0.65    0.21
 -12   0   5   -0.15    1.52
  12   0  -5    0.22    0.13
 -12   0   5    0.04    0.14
  12   0  -5    0.12    0.14
  12   0  -5    0.19    0.18
 -12   0   5    0.25    0.22
  10   0  -5    0.00    0.11
  10   0  -5    0.01    0.11
 -10   0   5    0.19    0.15
 -10   0   5   -1.28    1.06
  10   0  -5    0.12    0.11
   8   0  -5    0.05    0.08
  -8   0   5    0.09    0.11
  -8   0   5    0.66    0.89
   8   0  -5    0.19    0.11
   8   0  -5   -0.09    0.08
   6   0  -5   -0.03    0.07
   6   0  -5    0.03    0.06
  -6   0   5   -0.50    0.63
   6   0  -5    0.07    0.09
  -4   0   5    0.00    0.51
  -4   0   5    0.03    0.05
  -2   0   5    0.01    0.04
  -2   0   5    0.12    0.35
   2   0  -5    0.10    0.05
   0   0  -5    0.18    0.05
   0   0   5    0.04    0.03
   0   0   5    0.07    0.03
  -2   0  -5   -0.09    0.19
   2   0   5    0.07    0.04
   2   0   5    0.06    0.03
  -2   0  -5    0.08    0.03
   2   0   5    0.09    0.03
   4   0   5    0.16    0.05
   4   0   5    0.18    0.28
   4   0   5    0.13    0.06
   6   0   5    0.06    0.08
   6   0   5    0.03    0.04
   6   0   5    0.19    0.42
   8   0   5    0.41    0.11
   8   0   5    0.04    0.08
   8   0   5    0.09    0.66
   8   0   5    0.09    0.07
  10   0   5    0.12    0.12
  10   0   5    0.04    0.09
  12   0   5    0.17    0.14
 -12   0  -5   -0.02    0.12
  12   0   5    0.01    0.12
  12   0   5    0.14    0.15
  14   0   5    0.03    0.15
 -16   0  -5   -0.26    0.37
  16   0   5    0.37    0.28
 -17  -1   5    0.89    0.34
  17  -1  -5    0.98    0.32
  17   1  -5    0.71    0.30
 -15  -1   5   -2.94    2.76
  15  -1  -5    0.98    0.28
 -15  -1   5    0.91    0.30
  15  -1  -5    1.39    0.37
  15   1  -5    1.70    0.31
 -15   1   5    1.38    2.25
  15   1  -5    1.09    0.27
 -13  -1   5    0.62    0.19
  13  -1  -5    0.65    0.23
  13  -1  -5    0.32    0.17
  13  -1  -5    0.16    0.17
  13   1  -5    0.61    0.17
  13   1  -5    0.26    0.15
 -13   1   5   -1.01    1.69
 -11  -1   5   -0.20    1.41
  11  -1  -5    0.17    0.13
  11  -1  -5    0.10    0.15
 -11  -1   5   -0.21    0.18
  11  -1  -5    0.09    0.15
 -11  -1   5    0.00    0.13
  11   1  -5    0.66    1.37
  11   1  -5   -0.05    0.11
 -11   1   5    0.64    1.32
  11   1  -5   -0.04    0.15
  11   1  -5    0.23    0.14
 -11   1   5    0.49    0.20
  -9  -1   5    0.32    1.05
   9  -1  -5    0.15    0.13
   9  -1  -5    0.23    0.11
  -9  -1   5    0.05    0.12
  -9  -1   5    0.25    0.11
  -9   1   5    0.27    0.12
  -9   1   5   -0.43    1.00
   9   1  -5   -0.35    0.89
   9   1  -5    0.09    0.11
   9   1  -5    0.17    0.10
   9   1  -5    0.12    0.09
  -7  -1   5    1.88    0.88
   7  -1  -5    1.12    0.17
  -7  -1   5    1.27    0.19
   7  -1  -5    1.44    0.18
   7  -1  -5    1.32    0.22
   7  -1  -5    1.54    1.00
   7   1  -5    1.30    0.17
   7   1  -5    1.37    0.16
  -7   1   5    1.15    0.82
  -7   1   5    1.28    0.20
  -5  -1   5    6.44    0.35
   5  -1  -5    5.57    0.33
  -5  -1   5    7.27    1.17
   5  -1  -5    5.66    0.35
  -5   1   5    6.28    0.34
   5   1  -5    6.06    0.33
  -5   1   5    6.10    1.12
  -3  -1   5    3.14    0.21
   3  -1  -5    3.32    0.21
  -3  -1   5    4.00    0.83
   3   1  -5    3.42    0.20
  -3   1   5    3.42    0.20
  -3   1   5    3.19    0.19
  -3   1   5    2.40    0.69
  -1  -1   5   20.47    0.83
  -1   1   5   21.36    0.83
  -1   1   5   21.70    1.34
  -1   1   5   21.71    0.83
   1   1  -5   19.38    0.82
   1   1  -5   21.79    1.42
   1  -1   5    2.25    0.17
   1  -1   5    2.15    0.46
   1  -1   5    1.61    0.10
  -1   1  -5    1.74    0.11
   1   1   5    2.68    0.56
  -1   1  -5    1.85    0.10
   1   1   5    2.05    0.13
   1   1   5    2.03    0.13
  -1   1  -5    1.84    0.10
   3  -1   5   21.48    1.05
   3  -1   5   21.79    0.98
   3  -1   5   24.09    0.92
   3   1   5   22.78    1.47
   3   1   5   22.97    0.90
   3   1   5   23.75    0.92
   3   1   5   22.00    0.90
   5  -1   5    1.08    0.26
   5  -1   5    1.28    0.16
   5  -1   5    1.04    0.28
  -5  -1  -5    0.92    0.13
   5  -1   5    1.13    0.08
   5  -1   5    1.11    0.08
   5   1   5    0.84    0.47
   5   1   5    1.19    0.12
   5   1   5    1.06    0.13
   5   1   5    1.31    0.14
   5   1   5    1.05    0.12
   7  -1   5    1.55    0.11
   7  -1   5    1.76    0.49
   7  -1   5    1.39    0.19
  -7  -1  -5    1.30    0.14
   7   1   5    1.30    0.15
   7   1   5    1.38    0.17
   9  -1   5    6.48    0.43
   9  -1   5    4.63    0.98
   9  -1   5    6.40    1.17
   9  -1   5    6.63    0.32
   9   1   5    6.52    0.40
   9   1   5    6.76    0.38
   9   1   5    6.98    0.38
  11  -1   5    0.11    0.95
  11  -1   5    0.79    0.22
  11  -1   5    1.09    0.17
  11   1   5    0.67    0.16
  11   1   5    0.76    0.18
  13  -1   5    0.18    0.19
  13  -1   5   -0.96    1.44
 -13  -1  -5    0.38    0.18
  13  -1   5    0.22    0.15
  13   1   5    0.29    0.16
  13   1   5    0.28    0.17
  15  -1   5    0.59    0.24
  15  -1   5    0.36    0.24
  15   1   5    0.44    0.24
  15   1   5    0.36    0.28
  16  -2  -5    0.40    0.23
  16  -2  -5    0.43    0.28
 -16  -2   5   -8.83    4.14
  16   2  -5    0.51    0.27
  14  -2  -5    2.41    0.39
 -14  -2   5    1.85    2.87
 -14  -2   5    2.99    0.47
  14  -2  -5    1.91    0.37
  14  -2  -5    1.66    0.44
  14  -2  -5    1.99    0.33
  14   2  -5    1.93    0.30
 -14   2   5    4.05    2.04
  12  -2  -5    4.45    0.42
 -12  -2   5    3.92    2.04
  12  -2  -5    4.66    0.37
 -12  -2   5    4.56    0.41
  12  -2  -5    4.74    0.40
  12  -2  -5    5.00    0.45
 -12   2   5    0.72    1.56
  12   2  -5    4.45    0.35
  12   2  -5    4.80    0.40
 -12   2   5    4.58    0.48
  12   2  -5    3.46    1.71
  10  -2  -5    7.76    0.49
  10  -2  -5    9.08    0.50
 -10  -2   5    8.86    2.40
  10  -2  -5    7.78    0.55
  10   2  -5    8.27    0.44
 -10   2   5    8.52    2.08
 -10   2   5    7.91    0.52
  10   2  -5    8.45    0.50
  10   2  -5    8.23    0.52
  -8  -2   5    7.22    0.45
  -8  -2   5    7.22    0.43
  -8  -2   5    7.08    1.75
   8  -2  -5    7.35    0.43
   8  -2  -5    7.41    0.49
   8   2  -5    7.74    0.38
  -8   2   5    9.79    1.75
   8   2  -5    7.67    0.44
  -8   2   5    7.52    0.45
   8   2  -5    6.90    0.42
  -6  -2   5    8.76    1.40
   6  -2  -5    6.84    1.38
  -6  -2   5    9.06    0.47
   6  -2  -5    8.52    0.52
   6  -2  -5    9.68    0.53
  -6  -2   5    8.54    0.46
   6   2  -5    9.05    0.42
  -6   2   5    8.13    1.34
  -6   2   5    8.81    0.46
   6   2  -5    9.21    0.46
   4  -2  -5    1.05    0.80
   4  -2  -5    0.16    0.06
  -4  -2   5   -0.42    0.47
  -4   2   5    0.06    0.06
  -4   2   5    0.17    0.09
   4   2  -5    0.18    0.08
  -4   2   5    0.34    0.50
   2  -2  -5    5.23    0.28
  -2  -2   5    5.42    0.27
  -2  -2   5    3.51    0.70
   2  -2  -5    5.43    0.29
  -2   2   5    5.56    0.29
  -2   2   5    4.93    0.84
   2   2  -5    4.79    0.80
  -2   2   5    5.64    0.28
   2   2  -5    5.88    0.28
   0  -2   5    0.07    0.03
   0  -2   5   -0.29    0.22
   0   2  -5    0.25    0.35
   0   2  -5    0.08    0.03
   0   2   5    0.14    0.06
   0   2   5    0.08    0.05
   0   2   5    0.61    0.42
   2  -2   5    0.92    0.15
  -2   2  -5    0.54    0.24
   2   2   5    0.61    0.10
   2   2   5    0.64    0.10
   2   2   5    0.27    0.42
  -4  -2  -5    6.66    0.44
   4  -2   5    7.13    0.41
   4   2   5    7.96    0.39
   4   2   5    8.47    1.21
   4   2   5    7.76    0.38
   4   2   5    7.83    0.39
  -6  -2  -5    5.38    0.32
   6  -2   5    5.14    0.42
   6   2   5    7.26    1.36
   6   2   5    5.78    0.34
   6   2   5    5.79    0.33
   6   2   5    6.08    0.34
   8  -2   5    5.35    0.39
   8   2   5    5.40    0.34
   8   2   5    4.87    0.34
   8   2   5    5.11    0.34
   8   2   5    5.08    1.62
  10  -2   5    0.12    0.15
  10  -2   5   -0.47    0.28
 -10  -2  -5   -0.09    0.11
  10   2   5    0.06    0.11
  10   2   5    0.12    0.11
  12  -2   5   -0.10    0.17
  12   2   5   -0.03    0.19
  12   2   5    0.09    0.13
  14  -2   5    0.92    0.28
  14   2   5    0.23    0.22
  14   2   5    0.48    0.21
  15  -3  -5    7.13    0.65
 -15  -3   5    7.66    0.68
 -15  -3   5    5.48    4.34
  15  -3  -5    7.77    0.55
  15   3  -5    7.91    0.54
  15   3  -5    3.68    4.07
  15   3  -5    8.04    0.65
  13  -3  -5    5.35    0.52
  13  -3  -5    5.03    0.50
 -13  -3   5    4.88    0.48
  13  -3  -5    4.81    0.40
 -13  -3   5    5.56    3.07
  13  -3  -5    4.26    2.59
  13  -3  -5    4.31    0.45
  13   3  -5    4.44    0.38
 -13   3   5    4.28    1.91
  13   3  -5    4.73    0.44
  11  -3  -5    1.99    0.35
  11  -3  -5    1.83    0.30
  11  -3  -5    1.62    0.34
  11  -3  -5    1.95    0.26
 -11  -3   5    3.19    1.99
  11   3  -5    2.24    0.26
 -11   3   5    2.71    0.39
   9  -3  -5   -0.12    0.14
  -9  -3   5   -1.11    1.39
   9  -3  -5    0.13    0.20
   9  -3  -5    0.19    0.18
  -9  -3   5    0.12    0.11
  -9   3   5    1.61    1.67
   9   3  -5    0.07    0.12
  -9   3   5    0.05    0.15
   9   3  -5    0.16    0.12
  -7  -3   5    8.08    0.47
  -7  -3   5    9.73    1.83
  -7  -3   5    8.02    0.48
   7  -3  -5    7.77    0.49
   7  -3  -5    7.47    0.54
  -7   3   5    7.93    0.45
  -7   3   5    9.23    1.71
   7   3  -5    8.08    0.46
   7   3  -5    8.01    0.45
   7   3  -5    8.43    0.42
   5  -3  -5   -0.15    0.69
  -5  -3   5    1.18    0.91
  -5   3   5    0.56    0.73
  -3  -3   5    5.25    0.30
  -3   3   5    5.64    0.30
  -3   3   5    6.20    1.12
  -3   3   5    5.42    0.31
   3   3  -5    5.48    0.30
   1  -3  -5   28.09    1.16
   1   3  -5   29.42    1.11
  -1   3   5   28.30    1.13
  -1   3   5   28.44    1.15
  -1   3   5   24.86    1.93
   1  -3   5   13.21    0.63
  -1  -3  -5   13.46    0.61
   1   3   5   13.65    0.62
  -1   3  -5   12.89    0.97
  -1   3  -5   13.49    0.54
  -1   3  -5   13.64    0.55
  -1   3  -5   14.02    1.13
   1   3   5   14.13    0.61
   1   3   5   13.76    1.50
  -3  -3  -5   92.41    3.55
   3  -3   5   89.93    3.60
   3   3   5   95.35    3.54
   3   3   5   99.56    4.73
   3   3   5   96.62    3.56
  -3   3  -5   87.04    3.73
  -3   3  -5   96.62    3.63
  -5  -3  -5   23.67    1.02
   5   3   5   24.22    1.02
   5   3   5   24.13    2.24
   5   3   5   23.72    1.02
   5   3   5   24.85    1.04
   5   3   5   23.21    1.03
   7  -3   5   18.48    0.94
  -7  -3  -5   18.43    0.86
   7   3   5   18.99    0.88
   7   3   5   22.24    2.40
   7   3   5   18.28    0.84
   7   3   5   19.17    0.87
  -9  -3  -5    0.16    0.12
   9  -3   5    0.09    0.16
   9   3   5   -2.10    1.33
   9   3   5    0.18    0.12
   9   3   5    0.25    0.12
  11  -3   5    4.07    0.45
  11   3   5    4.37    1.97
  11   3   5    3.77    0.34
  11   3   5    4.94    2.21
  13  -3   5    0.17    0.23
  13   3   5    0.22    0.17
  13   3   5   -0.05    0.20
 -15  -3  -5    3.00    0.63
  15   3   5    1.90    0.36
 -14  -4   5   10.03    4.48
  14  -4  -5    6.39    0.51
  14  -4  -5    7.53    0.68
 -14  -4   5    6.77    0.70
  14   4  -5    5.77    0.68
  14   4  -5    6.84    0.51
  14   4  -5    9.35    4.97
  12  -4  -5   18.86    1.12
 -12  -4   5   20.09    4.83
 -12  -4   5   18.77    1.18
  12  -4  -5   19.30    0.90
 -12   4   5   21.38    1.32
  12   4  -5   18.65    1.00
  12   4  -5   20.66    0.90
  10  -4  -5   21.32    1.18
 -10  -4   5   17.23    3.76
  10  -4  -5   23.42    1.05
 -10  -4   5   21.19    1.07
  10  -4  -5   22.16    0.97
  10  -4  -5   21.55    1.01
 -10   4   5   21.99    1.06
  10   4  -5   21.55    1.06
  10   4  -5   22.49    0.93
  -8  -4   5    1.68    0.27
   8  -4  -5    1.41    0.21
   8  -4  -5    1.26    0.24
  -8  -4   5    1.36    1.59
  -8   4   5    1.14    0.29
   8   4  -5    1.27    0.24
   8   4  -5    1.50    0.21
   6  -4  -5    1.40    0.20
   6  -4  -5    1.69    0.23
  -6  -4   5    1.74    0.24
   6   4  -5    1.83    0.27
  -6   4   5    2.09    0.25
  -6   4   5    1.58    0.22
  -6   4   5    1.78    1.10
   4  -4  -5    4.30    0.29
   4  -4  -5    4.02    1.52
  -4  -4   5    4.14    0.31
   4  -4  -5    4.89    0.33
  -4   4   5    3.50    1.04
   4   4  -5    4.46    0.31
  -4   4   5    4.77    0.32
  -4   4   5    4.45    0.29
   2  -4  -5    0.19    0.09
  -2   4   5    0.07    0.10
   2   4  -5    0.23    0.09
  -2   4   5    0.25    0.10
   2   4  -5    0.63    0.75
   0  -4  -5    2.55    0.22
   0   4  -5    2.47    0.20
   0   4  -5    2.08    0.79
   0   4   5    2.48    0.24
   0   4   5    2.32    0.22
   0   4   5    2.35    0.95
   0   4  -5    1.91    0.62
  -2  -4  -5   13.19    0.64
   2  -4   5   13.66    0.68
   2   4   5   13.01    0.65
  -2   4  -5   12.43    1.30
  -2   4  -5   13.54    0.55
   2   4   5   13.15    0.63
  -2   4  -5   12.18    1.13
   2   4   5   13.75    1.93
  -2   4  -5   13.48    0.54
   4  -4   5    2.16    0.33
  -4  -4  -5    1.60    0.23
  -4   4  -5    2.31    0.67
   4   4   5    1.88    0.23
  -4   4  -5    2.64    0.57
   4   4   5    6.03    1.78
   6  -4   5   21.47    1.09
  -6  -4  -5   21.46    0.99
   6   4   5   23.38    2.75
   6   4   5   22.15    0.99
   6   4   5   20.89    0.95
  -8  -4  -5    4.40    0.38
   8  -4   5    4.92    0.49
   8   4   5    4.69    0.38
   8   4   5    3.11    1.81
   8   4   5    4.18    0.34
  10  -4   5    7.47    0.63
  10   4   5    7.72    0.54
  10   4   5    7.97    0.50
  10   4   5    7.75    2.59
  12  -4   5    6.03    0.62
  12   4   5    5.24    0.44
 -13  -5   5    9.91    0.86
  11  -5  -5    1.84    0.38
 -11  -5   5    0.87    0.28
  11  -5  -5    1.37    0.33
  11   5  -5    2.64    0.44
  -9  -5   5    5.17    0.48
   9  -5  -5    4.54    0.41
   9  -5  -5    5.20    0.39
  -9  -5   5    6.57    2.64
   9   5  -5    5.12    2.36
   7  -5  -5    2.19    0.26
   7  -5  -5    1.77    0.29
  -7  -5   5    2.52    1.88
  -7  -5   5    1.92    0.32
  -7   5   5    1.28    1.61
   7   5  -5    1.65    0.31
   5  -5  -5    7.59    0.46
  -5  -5   5    8.00    0.50
   5  -5  -5    9.09    2.38
  -5   5   5    5.73    1.61
   5   5  -5    8.96    2.19
   5   5  -5    7.93    0.52
  -5   5   5    7.80    0.47
  -3  -5   5    1.59    0.25
   3  -5  -5    2.02    0.24
  -3   5   5    1.66    0.31
   3   5  -5   -0.47    1.15
   3   5  -5    1.56    0.26
  -3   5   5    0.37    1.35
  -3   5   5    1.14    0.25
   3   5  -5    1.63    0.25
  -1  -5   5   40.05    1.63
   1   5  -5   38.27    2.92
   1   5  -5   40.34    1.64
   1   5  -5   41.51    1.61
  -1  -5  -5    5.74    0.40
  -1   5  -5    5.77    0.32
   1   5   5    4.49    1.49
  -1   5  -5    6.40    1.60
  -1   5  -5    5.90    0.34
  -3  -5  -5   54.42    2.28
  -3   5  -5   57.83    2.09
  -3   5  -5   52.48    3.02
   3   5   5   58.21    4.12
   3   5   5   53.49    2.32
  -3   5  -5   56.35    2.11
  -3   5  -5   55.53    2.90
   5  -5   5    0.73    0.26
  -5  -5  -5    0.43    0.17
   5   5   5    0.73    0.21
   5   5   5    1.01    0.25
   5   5   5    0.81    1.91
   5   5   5   -1.05    2.35
   7  -5   5   28.01    1.38
  -7  -5  -5   28.64    1.52
   7   5   5   27.30    1.27
   7   5   5   27.54    4.04
   7   5   5   26.40    1.20
  -9  -5  -5    0.55    0.22
   9   5   5    0.82    0.25
   9   5   5    0.21    2.80
   9   5   5    0.47    0.17
 -11  -5  -5    2.05    0.50
  11  -5   5    2.29    0.51
  11   5   5    2.31    0.33
  11   5   5    2.18    0.46
  -8  -6   5    7.41    0.65
   8  -6  -5    8.73    0.56
   6  -6  -5    3.23    0.38
  -6  -6   5    2.17    0.41
   4  -6  -5    1.62    0.32
  -4  -6   5    1.47    0.34
   4   6  -5    1.95    0.40
   4   6  -5   -1.79    2.06
  -2  -6   5    0.13    0.21
   2  -6  -5    0.18    0.20
  -2   6   5    0.21    1.66
   2   6  -5    0.41    0.18
   2   6  -5   -1.42    1.63
   2   6  -5   -0.35    1.76
   0  -6  -5    1.48    0.32
   0   6  -5    0.85    0.22
   0   6  -5    0.49    2.13
   0   6  -5    0.77    0.23
   0   6  -5    1.99    1.62
   0   6   5    4.72    2.01
   0   6   5    1.40    0.30
   2  -6   5    7.44    0.63
  -2   6  -5    5.11    2.53
   2   6   5    7.09    2.31
   2   6   5    7.64    0.53
   4   6   5    4.38    2.47
   4   6   5    2.38    0.35
  -4   6  -5    3.44    1.30
  -6  -6  -5   19.38    1.04
   6   6   5   20.86    4.92
   6   6   5   19.88    0.95
   6   6   5   19.24    1.02
   8  -6   5    5.08    0.65
   8   6   5    6.34    0.53
  -5  -7   5    6.86    0.69
   5  -7  -5    5.14    0.77
   3  -7  -5    8.53    0.66
  -1  -7   5   44.11    1.89
   1  -7  -5   42.50    1.90
   1   7  -5   44.81    1.87
  -1  -7  -5    4.20    0.56
  -3  -7  -5   60.53    2.56
  18   0  -6   14.06    0.90
  16   0  -6   76.18    3.15
  16   0  -6   77.86    3.12
  14   0  -6  149.94    5.60
  14   0  -6  148.12    5.61
 -14   0   6  134.14    8.15
 -12   0   6  344.69   14.15
  12   0  -6  309.35   11.65
  12   0  -6  304.14   11.65
  12   0  -6  303.63   13.58
  12   0  -6  308.51   11.63
 -10   0   6  577.39   21.05
  10   0  -6  554.81   20.99
 -10   0   6  655.60   23.30
  10   0  -6  570.13   21.01
  10   0  -6  506.23   20.99
   8   0  -6  324.78   12.15
   8   0  -6  332.72   12.15
  -8   0   6  327.33   12.19
  -8   0   6  359.12   13.97
   8   0  -6  305.01   12.16
   6   0  -6  410.19   16.11
   6   0  -6  438.50   16.09
   6   0  -6  427.75   16.10
  -6   0   6  486.06   17.66
  -6   0   6  432.91   16.13
   4   0  -6    7.17    0.39
  -4   0   6   10.70    1.34
  -4   0   6    8.62    0.42
  -2   0   6   61.89    2.37
  -2   0   6   63.26    3.10
   0   0   6    8.97    0.37
   0   0   6    8.15    0.36
   0   0  -6    8.12    0.39
  -2   0  -6   90.26    3.89
   2   0   6   91.52    3.44
   2   0   6   97.73    3.47
   2   0   6   92.50    3.45
   4   0   6   46.61    2.34
   4   0   6   48.98    1.86
   4   0   6   50.12    1.86
   4   0   6   50.78    1.90
   6   0   6  113.44    4.75
   6   0   6  130.74    4.66
   6   0   6  131.79    4.65
   8   0   6  416.59   17.46
   8   0   6  421.81   15.69
   8   0   6  430.22   15.60
   8   0   6  432.48   15.62
  10   0   6  224.21    8.07
  10   0   6  212.53    8.17
  10   0   6  217.28    8.08
  12   0   6  357.85   12.68
  12   0   6  340.73   12.70
  12   0   6  332.30   12.80
  14   0   6   32.53    1.56
 -14   0  -6   30.65    1.54
  14   0   6   32.00    1.48
 -17  -1   6  103.67    4.52
  17  -1  -6  110.71    4.25
  17   1  -6  109.46    4.65
  17   1  -6  105.68    4.28
  15  -1  -6   54.75    2.35
  15  -1  -6   57.41    2.32
 -15  -1   6   45.90    5.84
 -15   1   6   49.38    5.27
  15   1  -6   51.37    5.59
  15   1  -6   55.92    2.33
  15   1  -6   56.96    2.31
 -13  -1   6  362.14   13.49
  13  -1  -6  367.51   13.45
 -13  -1   6  361.14   16.07
  13  -1  -6  369.55   13.50
  13   1  -6  368.03   13.43
  13   1  -6  342.42   13.45
  11  -1  -6   53.19    2.23
 -11  -1   6   50.47    4.13
  11  -1  -6   57.20    2.22
  11  -1  -6   58.84    2.20
 -11  -1   6   54.77    2.23
 -11  -1   6   49.31    2.24
  11   1  -6   54.17    2.17
 -11   1   6   57.48    4.22
 -11   1   6   53.41    2.24
  11   1  -6   53.08    2.21
  11   1  -6   55.65    2.21
   9  -1  -6  445.40   16.36
  -9  -1   6  417.19   16.33
  -9  -1   6  432.22   16.36
   9  -1  -6  453.98   16.32
  -9  -1   6  487.53   18.36
  -9   1   6  447.88   16.36
   9   1  -6  405.54   16.32
  -9   1   6  491.24   18.26
   9   1  -6  413.83   16.31
   9   1  -6  446.18   16.29
   7  -1  -6    3.14    0.28
   7  -1  -6    2.59    0.24
   7  -1  -6    3.28    0.26
  -7  -1   6    2.52    0.26
  -7  -1   6    2.91    1.06
   7   1  -6    3.11    0.23
   7   1  -6    3.38    0.26
  -7   1   6    2.94    1.12
  -7   1   6    2.56    0.26
   5  -1  -6  417.07   15.36
   5  -1  -6  421.57   15.38
   5  -1  -6  421.25   15.38
  -5  -1   6  458.20   16.70
   5   1  -6  374.78   15.40
  -3  -1   6   40.65    1.71
  -3  -1   6   43.27    2.55
   3  -1  -6   42.61    1.73
  -3  -1   6   47.75    1.72
  -3   1   6   46.39    2.49
  -3   1   6   44.03    1.70
   3   1  -6   42.80    1.69
  -1  -1   6   69.47    2.66
  -1   1   6   74.76    3.32
   1   1  -6   66.36    3.34
  -1   1   6   74.67    2.66
   1   1  -6   69.00    2.66
   1  -1   6   22.49    0.83
   1  -1   6   17.39    1.39
  -1  -1  -6   20.91    0.88
   1  -1   6   19.87    0.81
   1   1   6   20.96    0.83
   1   1   6   21.46    0.84
   1   1   6   21.33    1.41
   3  -1   6   24.92    0.94
   3  -1   6   22.93    1.24
   3  -1   6   25.40    1.00
   3  -1   6   25.53    0.94
  -3   1  -6   23.67    0.93
   3   1   6   25.17    0.99
   3   1   6   27.76    1.02
   3   1   6   24.80    0.98
   3   1   6   22.59    1.58
   5  -1   6  536.67   19.55
   5  -1   6  539.13   19.74
   5  -1   6  523.00   19.76
   7  -1   6   72.93    3.25
   7  -1   6   74.26    2.77
   7  -1   6   75.78    2.78
   7  -1   6   74.28    2.89
   7   1   6   74.72    2.87
   7   1   6   76.87    2.85
   7   1   6   69.85    3.67
   7   1   6   76.12    2.83
   9  -1   6  449.51   16.17
   9  -1   6  442.22   16.15
   9  -1   6  478.69   16.85
   9  -1   6  422.17   16.30
   9  -1   6  429.83   16.87
   9   1   6  446.60   16.22
   9   1   6  441.16   16.23
   9   1   6  421.93   16.27
  11  -1   6    0.25    0.16
  11  -1   6    0.98    1.67
  11  -1   6    0.61    0.13
  11   1   6    0.86    0.22
  11   1   6    0.38    0.16
  11   1   6    0.82    1.31
 -13  -1  -6  262.70    9.49
  13  -1   6  243.36    9.59
  13   1   6  263.96    9.49
  13   1   6  246.61    9.55
  15  -1   6   10.31    0.71
  15   1   6    9.34    0.65
  16  -2  -6   56.31    2.52
  16  -2  -6   58.28    2.43
 -16  -2   6   56.90    7.81
  16  -2  -6   58.34    2.38
  16   2  -6   60.51    2.42
  16   2  -6   56.55    2.56
 -14  -2   6   77.86    3.18
 -14  -2   6   82.71    6.79
  14  -2  -6   74.27    3.20
  14  -2  -6   80.55    3.13
  14   2  -6   79.16    3.08
 -14   2   6   73.68    5.68
  14   2  -6   78.63    3.16
  12  -2  -6  223.23    8.20
 -12  -2   6  238.87   11.08
 -12  -2   6  221.43    8.26
  12  -2  -6  218.55    8.19
  12  -2  -6  218.60    8.31
 -12   2   6  215.35    8.25
  12   2  -6  212.88    8.24
  12   2  -6  219.22    8.16
  12   2  -6  205.55   10.23
 -10  -2   6  402.73   15.26
 -10  -2   6  424.14   17.41
  10  -2  -6  392.12   15.21
  10  -2  -6  407.94   15.32
  10  -2  -6  438.13   15.23
  10  -2  -6  378.98   15.24
  10   2  -6  384.67   15.24
  10   2  -6  409.65   15.16
 -10   2   6  472.92   17.32
 -10   2   6  423.93   15.26
  -8  -2   6  254.28    9.74
   8  -2  -6  245.79   11.11
   8  -2  -6  278.00    9.73
  -8  -2   6  277.25   11.45
   8  -2  -6  266.13    9.81
  -8  -2   6  267.99    9.76
   8   2  -6  255.20    9.72
   8   2  -6  246.66    9.72
  -8   2   6  267.76   11.28
  -8   2   6  255.98    9.73
   8   2  -6  267.29    9.64
  -6  -2   6  466.60   17.38
  -6  -2   6  514.77   18.82
  -6  -2   6  484.60   17.39
   6  -2  -6  449.20   17.43
   6   2  -6  452.20   17.38
  -6   2   6  492.66   18.64
  -6   2   6  456.18   17.37
   6   2  -6  470.41   17.37
  -4  -2   6  110.56    5.08
  -4  -2   6  106.63    4.11
   4  -2  -6  111.11    4.12
  -4   2   6  107.93    4.10
  -4   2   6  107.18    5.02
  -4   2   6  110.25    4.09
   4   2  -6  113.22    4.10
   4   2  -6  107.75    4.11
  -2  -2   6   92.98    3.45
   2  -2  -6   91.63    3.49
  -2   2   6   92.25    3.46
   2   2  -6   94.91    3.45
  -2   2   6   96.49    4.31
   2   2  -6   86.04    4.24
   0  -2   6   20.48    1.60
   0  -2  -6   20.52    0.89
   0  -2   6   20.78    0.81
   0  -2   6   19.86    0.87
   0   2  -6   22.33    0.81
   0   2   6   22.05    1.59
   0   2  -6   18.36    1.45
   0   2   6   21.25    0.86
   2  -2   6    9.48    0.44
   2   2   6    8.86    0.43
   2   2   6    8.05    1.10
  -2   2  -6    8.82    0.59
   2   2   6    8.21    0.41
  -4  -2  -6   60.30    2.43
   4  -2   6   65.64    2.47
   4   2   6   63.63    2.45
   4   2   6   64.64    2.44
   4   2   6   61.99    3.37
   4   2   6   65.58    2.46
  -6  -2  -6  148.31    5.90
   6  -2   6  160.02    5.96
   6   2   6  157.05    5.92
   6   2   6  157.75    5.92
   6   2   6  160.44    5.91
   6   2   6  167.23    5.93
   8  -2   6  230.76    8.83
   8   2   6  242.06    8.77
   8   2   6  233.19    8.77
   8   2   6  243.72    8.79
   8   2   6  231.00    8.78
  10  -2   6  170.81    6.72
 -10  -2  -6  181.92    6.65
  10   2   6  180.59    6.65
  10   2   6  175.88    8.19
  10   2   6  175.38    6.67
  12  -2   6  279.67   11.46
 -12  -2  -6  348.80   11.54
  12   2   6  304.56   11.38
  12   2   6  291.24   11.40
  14  -2   6   52.74    2.34
  14   2   6   51.24    2.25
  14   2   6   55.86    2.23
  15  -3  -6   30.38    1.58
 -15  -3   6   27.26    7.29
 -15  -3   6   30.09    1.52
  15  -3  -6   28.65    1.50
  15   3  -6   30.40    1.46
  15   3  -6   30.88    1.34
 -13  -3   6  302.27   11.22
 -13  -3   6  302.07   14.43
  13  -3  -6  299.39   11.03
  13  -3  -6  294.12   11.01
  13  -3  -6  289.78   11.06
  13  -3  -6  299.46   11.22
  13   3  -6  290.33   10.97
 -13   3   6  309.53   13.32
  13   3  -6  284.36   11.10
 -11  -3   6   12.66    0.82
  11  -3  -6   12.43    0.64
  11  -3  -6   13.61    0.71
 -11  -3   6    7.70    2.38
  11  -3  -6   11.74    0.76
  11  -3  -6   11.97    0.68
  11   3  -6   12.13    0.60
  11   3  -6   11.34    0.79
 -11   3   6   12.64    0.73
   9  -3  -6  423.11   15.35
  -9  -3   6  358.52   15.51
  -9  -3   6  415.29   15.24
   9  -3  -6  451.14   15.21
   9  -3  -6  418.48   15.17
  -9  -3   6  434.44   17.34
   9  -3  -6  421.34   15.22
   9   3  -6  415.51   15.09
  -9   3   6  429.19   16.95
  -9   3   6  403.08   15.21
   9   3  -6  376.34   15.21
   9   3  -6  391.75   18.73
  -7  -3   6    7.20    0.43
  -7  -3   6    4.92    1.38
   7   3  -6    6.66    0.42
  -7   3   6    6.93    1.63
  -7   3   6    7.08    0.42
   7   3  -6    6.79    0.42
   5  -3  -6  258.87    9.91
  -5  -3   6  276.80    9.87
  -5  -3   6  263.67    9.87
   5   3  -6  271.34    9.85
   5   3  -6  247.23   12.45
  -5   3   6  288.89   11.13
  -5   3   6  262.86    9.83
  -5   3   6  260.06    9.85
  -3  -3   6   23.38    1.98
   3  -3  -6   27.42    1.24
  -3  -3   6   31.55    1.19
  -3   3   6   30.31    1.18
  -3   3   6   29.44    1.20
  -3   3   6   29.40    2.10
   3   3  -6   30.78    1.18
  -1  -3   6   46.63    2.40
   1  -3  -6   42.10    1.79
   1  -3  -6   45.01    1.79
  -1   3   6   45.76    1.77
  -1   3   6   47.32    1.76
   1   3  -6   46.69    1.72
   1   3  -6   44.29    2.54
  -1   3   6   42.26    2.68
   1  -3   6   86.78    3.37
  -1  -3  -6  102.57    6.19
  -1  -3  -6   86.66    3.38
   1   3   6   90.70    3.38
  -1   3  -6   92.18    4.00
   1   3   6   89.23    3.36
  -1   3  -6   85.15    3.29
   1   3   6   87.42    4.40
  -3  -3  -6   69.95    2.73
   3  -3   6   70.65    2.78
   3   3   6   75.45    2.75
   3   3   6   71.40    2.72
   3   3   6   65.73    3.80
  -5  -3  -6  308.15   11.74
   5  -3   6  319.76   11.81
   5   3   6  316.10   11.75
   5   3   6  314.30   11.73
   5   3   6  316.97   11.76
   5   3   6  330.13   11.76
   5   3   6  320.33   13.17
   7  -3   6   17.99    0.89
  -7  -3  -6   17.41    0.81
   7   3   6   16.93    0.85
   7   3   6   16.67    2.31
   7   3   6   16.79    0.80
   7   3   6   18.33    0.82
   9  -3   6  393.23   14.88
  -9  -3  -6  397.82   14.78
   9   3   6  382.78   14.77
   9   3   6  420.70   16.78
   9   3   6  407.49   14.79
  11   3   6   -0.07    1.99
  11   3   6    1.59    0.26
  11   3   6    4.05    1.91
  11   3   6    1.71    0.29
  13  -3   6  185.97    7.42
  13   3   6  201.36    7.28
  13   3   6  186.25    7.26
  14  -4  -6   64.32    2.64
  14  -4  -6   69.00    2.92
  12  -4  -6  219.57    8.24
 -12  -4   6  228.84   11.66
  12  -4  -6  206.46    8.01
  12   4  -6  203.47    8.07
 -10  -4   6  280.54   10.81
  10  -4  -6  291.78   10.96
 -10  -4   6  298.67   13.52
  10  -4  -6  283.91   10.71
  10  -4  -6  280.24   10.75
  10  -4  -6  311.19   10.77
 -10   4   6  288.07   12.68
  10   4  -6  278.93   10.79
   8  -4  -6  192.93    7.12
  -8  -4   6  189.22    7.19
   8  -4  -6  195.45    7.16
  -8  -4   6  188.15    9.21
  -8   4   6  187.41    7.15
   8   4  -6  189.85    7.18
  -6  -4   6  316.32   11.47
   6  -4  -6  302.52   11.44
   6  -4  -6  297.49   11.41
  -6   4   6  304.40   11.43
   6   4  -6  308.90   11.43
   6   4  -6  297.65   11.51
  -6   4   6  330.35   12.97
  -6   4   6  315.93   11.41
  -4  -4   6   59.96    2.35
   4  -4  -6   59.22    2.35
   4  -4  -6   59.02    2.33
  -4   4   6   59.58    2.34
  -4   4   6   57.96    2.31
  -4   4   6   60.29    3.60
   4   4  -6   61.31    2.32
   2  -4  -6   37.28    1.51
   2   4  -6   32.76    2.47
  -2   4   6   36.50    1.49
   2   4  -6   37.96    1.44
  -2   4   6   35.72    1.46
   0  -4  -6    0.55    0.15
   0   4  -6    0.65    0.55
   0   4   6    0.79    0.19
   0   4  -6    0.50    0.12
   0   4   6    0.75    0.18
   0   4   6    1.24    0.94
   0   4  -6    0.15    0.70
  -2  -4  -6   12.62    0.63
   2  -4   6   13.16    0.65
  -2   4  -6   12.67    1.10
  -2   4  -6   13.00    0.52
  -2   4  -6   12.67    0.51
   2   4   6   11.70    0.62
   2   4   6   12.01    0.63
  -2   4  -6   13.54    1.39
   2   4   6   14.35    1.97
  -4  -4  -6   35.28    1.49
   4  -4   6   36.16    1.56
   4   4   6   30.65    2.94
   4   4   6   37.45    1.51
  -6  -4  -6  141.41    5.39
   6  -4   6  143.50    5.49
   6   4   6  135.59    7.16
   6   4   6  143.09    5.36
   6   4   6  144.20    5.40
   8  -4   6  142.70    5.56
  -8  -4  -6  142.12    5.45
   8   4   6  141.99    7.65
   8   4   6  143.03    5.41
   8   4   6  143.55    5.45
  10  -4   6  101.78    4.05
 -10  -4  -6   98.63    3.91
  10   4   6   99.56    6.75
  10   4   6   98.91    3.88
 -12  -4  -6  229.13    8.53
  12   4   6  220.62    8.47
  11  -5  -6    7.24    0.50
 -11  -5   6    4.82    0.58
  11   5  -6    6.23    0.56
   9  -5  -6  271.02   10.24
  -9  -5   6  273.51   13.03
  -9  -5   6  284.18   10.43
   9  -5  -6  277.34   10.29
   9   5  -6  272.51   10.58
   9   5  -6  275.69   12.93
  -7  -5   6    5.02    2.00
  -7  -5   6    3.43    0.38
   7  -5  -6    2.43    2.11
   7  -5  -6    3.71    0.37
   7  -5  -6    4.29    0.35
  -7   5   6    3.54    1.77
   7   5  -6    4.40    0.40
   5  -5  -6  151.60    5.68
  -5  -5   6  149.02    5.72
  -5   5   6  147.31    7.35
   5   5  -6  153.91    5.72
   3  -5  -6   10.64    0.57
  -3  -5   6   11.25    0.59
   3   5  -6   10.93    0.56
   3   5  -6   16.03    2.58
  -3   5   6   10.17    0.57
   3   5  -6    7.21    2.09
  -1  -5   6   16.25    0.73
   1  -5  -6   16.04    0.76
   1   5  -6   13.21    0.82
   1   5  -6   16.10    2.21
   1   5  -6   15.00    0.69
  -1  -5  -6   18.75    0.89
  -1   5  -6   18.42    0.79
   1   5   6   18.55    2.68
  -1   5  -6   19.21    2.09
  -1   5  -6   19.14    0.79
  -1   5  -6   20.49    1.82
  -3  -5  -6   10.34    0.61
  -3   5  -6   11.01    1.35
   3   5   6    9.35    2.69
   3   5   6   11.10    0.62
  -5  -5  -6  189.53    7.02
   5  -5   6  185.83    7.07
   5   5   6  174.15    9.61
   5   5   6  186.91    7.01
   5   5   6  186.30    6.97
   7  -5   6    7.05    0.62
   7   5   6    5.21    2.28
   7   5   6    7.51    0.47
   7   5   6    6.32    0.51
   9  -5   6  285.43   10.76
  -9  -5  -6  280.64   10.63
   9   5   6  289.36   10.64
   9   5   6  276.37   10.55
  11  -5   6    1.37    0.37
   8  -6  -6   85.95    3.46
  -8  -6   6   90.87    3.58
  -6  -6   6  148.55    5.71
  -4  -6   6   14.82    0.95
   4  -6  -6   17.19    0.89
  -2  -6   6   71.75    2.85
   2  -6  -6   71.48    2.86
   2   6  -6   73.93    7.34
   2   6  -6   72.59    2.83
  -2   6   6   69.86    4.99
   0  -6  -6    9.42    0.60
   0  -6   6    9.34    0.56
   0   6  -6    8.97    2.14
   0   6   6    7.53    2.25
  -2   6  -6   12.67    2.65
   2   6   6    5.62    2.45
   2   6   6    9.19    0.60
  -4  -6  -6   23.73    1.15
   4   6   6   31.24    4.56
  -4   6  -6   22.55    1.89
   4   6   6   22.42    1.07
   4   6   6   22.15    1.12
  -6  -6  -6   95.30    3.78
   6   6   6   87.92    7.09
   6   6   6   97.08    3.78
   6   6   6   93.60    3.68
   8  -6   6   88.40    3.54
  -8  -6  -6   78.51    3.72
   8   6   6   85.22    3.33
  -5  -7   6  103.34    4.07
   5  -7  -6   99.92    3.98
   3  -7  -6    2.16    0.51
   1  -7  -6    2.60    0.51
  -1  -7  -6    3.61    0.57
  -3  -7  -6    2.65    0.60
  18   0  -7    0.19    0.31
 -16   0   7    5.35    5.19
  14   0  -7    0.00    0.18
 -14   0   7   -0.56    2.34
  12   0  -7    2.02    1.53
  12   0  -7    0.04    0.18
  12   0  -7    0.45    0.17
 -12   0   7   -2.50    1.65
  12   0  -7    0.11    0.15
  10   0  -7    0.87    1.19
 -10   0   7    2.09    1.45
  -8   0   7   -0.41    0.95
   8   0  -7    0.22    0.10
  -8   0   7    0.10    0.13
   8   0  -7    0.60    0.14
   8   0  -7    0.25    0.11
   6   0  -7    0.03    0.09
   6   0  -7   -0.05    0.10
  -6   0   7    0.16    0.10
  -6   0   7    0.17    0.82
   4   0  -7    0.25    0.08
  -4   0   7    0.08    0.07
  -4   0   7    0.30    0.64
  -2   0   7    0.24    0.43
  -2   0   7    0.07    0.05
   0   0   7    0.03    0.04
   0   0   7    0.16    0.05
   0   0  -7   -0.29    0.32
  -2   0  -7   -0.23    0.31
   2   0   7    0.06    0.04
   2   0   7    0.09    0.04
   2   0   7   -0.02    0.06
   2   0   7    0.07    0.29
  -2   0  -7    0.04    0.03
   4   0   7    0.07    0.06
   4   0   7    0.11    0.37
   4   0   7    0.04    0.05
   4   0   7    0.11    0.05
   6   0   7    0.10    0.06
   6   0   7   -0.01    0.06
   6   0   7    0.26    0.57
   6   0   7    0.12    0.08
   8   0   7    0.15    0.09
   8   0   7    0.28    0.09
   8   0   7    0.04    0.09
   8   0   7    0.24    0.09
   8   0   7    0.54    0.61
  10   0   7    0.11    0.11
  10   0   7   -0.03    0.12
  10   0   7   -0.03    0.09
  10   0   7   -0.08    0.11
  12   0   7    0.41    1.29
  12   0   7    0.01    0.14
  12   0   7    0.15    0.14
  12   0   7   -0.02    0.16
  12   0   7    0.06    0.18
  14   0   7    0.01    0.16
  14   0   7    0.37    0.19
  17  -1  -7    0.38    0.28
  17  -1  -7    0.25    0.25
  17  -1  -7    0.42    0.28
  17   1  -7    0.10    0.22
  17   1  -7    0.58    0.30
 -15  -1   7    0.01    3.17
  15  -1  -7    0.68    0.24
  15   1  -7   -1.95    2.53
 -15   1   7   -0.14    2.52
  13  -1  -7    1.57    0.32
 -13  -1   7    1.40    0.35
 -13  -1   7    2.94    2.13
  13  -1  -7    1.97    0.32
  13   1  -7    2.04    0.30
  13   1  -7    1.65    0.31
 -13   1   7    1.89    1.91
 -11  -1   7    1.83    1.71
  11  -1  -7    5.26    0.41
 -11  -1   7    4.40    0.52
  11  -1  -7    4.59    0.39
  11  -1  -7    4.43    0.38
 -11  -1   7    4.45    0.40
  11   1  -7    4.03    0.40
 -11   1   7    4.58    0.46
  11   1  -7    3.59    2.38
  11   1  -7    4.40    0.37
 -11   1   7    3.20    1.64
   9  -1  -7    2.29    0.27
  -9  -1   7    1.92    1.28
   9  -1  -7    1.73    0.26
   9  -1  -7    1.92    0.25
  -9  -1   7    1.55    0.25
  -9  -1   7    1.77    0.29
   9   1  -7    1.89    0.26
  -9   1   7    1.54    0.27
   9   1  -7    1.93    0.24
   9   1  -7    2.25    0.25
  -9   1   7    2.89    1.26
  -7  -1   7    3.02    0.29
  -7  -1   7    2.31    1.08
   7  -1  -7    3.42    0.30
   7  -1  -7    2.91    0.27
   7  -1  -7    3.34    0.28
   7   1  -7    3.29    0.27
   7   1  -7    3.45    0.25
  -7   1   7    3.42    0.29
  -7   1   7    2.27    1.10
   5  -1  -7    0.10    0.07
  -5  -1   7    0.04    0.09
  -5  -1   7   -0.10    0.72
  -5   1   7   -0.43    0.61
   5   1  -7    0.09    0.08
  -5   1   7    0.05    0.07
  -3  -1   7   26.32    1.05
  -3  -1   7   21.95    1.84
   3   1  -7   23.99    1.03
  -3   1   7   28.94    1.89
  -3   1   7   25.98    1.02
  -1  -1   7   13.79    0.61
   1  -1  -7   15.77    0.74
  -1   1   7   13.81    1.21
  -1   1   7   14.43    0.60
   1   1  -7   13.84    1.28
   1   1  -7   14.17    0.61
   1  -1   7   19.84    0.78
   1  -1   7   19.47    0.77
   1   1   7   20.34    0.80
  -1   1  -7   17.68    1.14
   1   1   7   19.36    1.46
   1   1   7   19.21    0.79
   3  -1   7    2.54    0.19
   3  -1   7    2.44    0.13
   3  -1   7    2.55    0.13
   3  -1   7    2.08    0.52
   3   1   7    2.47    0.19
   3   1   7    2.13    0.19
  -3   1  -7    2.41    0.40
   3   1   7    2.96    0.77
   5  -1   7    2.41    0.13
   5  -1   7    2.32    0.13
   5  -1   7    2.38    0.53
   5  -1   7    2.20    0.20
   5  -1   7    1.88    0.45
   5   1   7    2.44    0.18
   5   1   7    2.66    0.19
   7  -1   7    1.14    0.47
   7  -1   7    1.71    0.22
   7  -1   7    1.92    0.13
   7  -1   7    2.15    0.14
   7   1   7    2.08    0.19
   7   1   7    1.81    0.20
   7   1   7    1.80    0.19
   9  -1   7    1.45    0.59
   9  -1   7    1.12    0.22
   9  -1   7    1.27    0.15
   9  -1   7    0.99    0.13
   9  -1   7    1.29    0.67
   9   1   7    1.04    0.22
   9   1   7    0.74    0.15
   9   1   7    0.97    0.17
   9   1   7    0.78    0.19
   9   1   7    2.12    0.96
  11  -1   7    1.74    1.05
  11  -1   7    0.21    0.14
  11  -1   7    0.34    0.13
  11   1   7    0.43    0.15
  11   1   7   -0.63    1.48
  11   1   7    0.24    0.21
  11   1   7    0.64    0.16
  11   1   7    0.18    0.16
 -13  -1  -7    0.84    0.22
  13  -1   7    0.73    0.22
  13   1   7    0.70    0.19
  13   1   7    0.65    0.21
  15  -1   7    1.07    0.34
  15   1   7    0.95    0.28
  16  -2  -7    0.06    0.29
  16  -2  -7   -0.19    0.25
 -16  -2   7   -0.37    4.17
  16  -2  -7    0.23    0.24
  16   2  -7    0.00    0.22
  14  -2  -7    0.31    0.21
  14  -2  -7    0.33    0.21
  14  -2  -7    0.30    0.19
  14   2  -7    0.39    0.19
 -14   2   7    1.70    2.28
  14   2  -7    0.26    0.19
 -12  -2   7    0.50    0.20
 -12  -2   7   -0.66    2.31
  12  -2  -7    1.02    0.26
  12  -2  -7    0.78    0.21
  12  -2  -7    1.04    0.31
  12  -2  -7    0.88    0.23
 -12   2   7    0.68    0.41
  12   2  -7   -3.35    1.63
 -12   2   7    1.73    1.82
  12   2  -7    0.94    0.28
  12   2  -7    0.87    0.20
  10  -2  -7    0.07    0.16
 -10  -2   7    0.74    1.51
  10  -2  -7    0.23    0.13
  10  -2  -7    0.02    0.13
 -10  -2   7    0.01    0.13
  10  -2  -7    0.02    0.16
 -10   2   7    1.14    1.31
  10   2  -7    0.17    0.14
 -10   2   7    0.00    0.16
  10   2  -7    0.31    0.14
  -8  -2   7   49.26    3.65
  -8  -2   7   51.17    2.11
   8  -2  -7   53.49    2.09
   8  -2  -7   53.06    2.17
  -8  -2   7   51.85    2.13
   8  -2  -7   51.39    2.13
   8  -2  -7   53.67    2.09
   8   2  -7   50.67    3.81
   8   2  -7   53.69    2.01
  -8   2   7   53.96    3.60
   8   2  -7   52.41    2.10
   8   2  -7   51.53    2.10
  -8   2   7   53.22    2.11
  -6  -2   7   37.37    1.56
  -6  -2   7   40.13    2.83
  -6  -2   7   39.77    1.57
   6   2  -7   32.22    2.67
   6   2  -7   40.50    1.55
  -6   2   7   37.63    2.70
   6   2  -7   37.09    1.55
  -6   2   7   38.60    1.55
  -4  -2   7    4.91    1.16
  -4  -2   7    5.50    0.33
   4  -2  -7    5.25    0.33
  -4  -2   7    5.49    0.35
   4   2  -7    6.02    0.33
  -4   2   7    5.27    0.31
  -4   2   7    6.05    0.33
   4   2  -7    6.93    0.35
  -4   2   7    6.40    1.19
  -2  -2   7    3.66    0.22
   2  -2  -7    3.67    0.25
  -2   2   7    3.65    0.22
  -2   2   7    3.30    0.78
  -2   2   7    3.56    0.24
   2   2  -7    4.01    0.22
   2   2  -7    3.82    0.88
   0  -2   7    9.09    0.39
   0  -2   7    9.13    0.42
   0   2   7   10.92    1.20
   0   2   7    9.81    0.45
   0   2  -7    9.27    0.40
   0   2  -7    8.45    1.12
   0   2   7    9.10    0.43
   2  -2   7    4.89    0.66
   2  -2   7    5.03    0.30
  -2   2  -7    4.63    0.48
   2   2   7    5.37    0.30
   2   2   7    6.03    1.07
   2   2   7    5.08    0.28
  -4  -2  -7    0.59    0.12
   4  -2   7    0.58    0.16
   4   2   7    0.34    0.66
   4   2   7    0.59    0.14
   4   2   7    0.65    0.13
   4   2   7    0.78    0.15
  -6  -2  -7    4.42    0.29
   6  -2   7    4.64    0.34
   6   2   7    5.01    0.32
   6   2   7    4.66    0.30
   6   2   7    4.40    0.32
   6   2   7    5.07    0.31
  -8  -2  -7    7.53    0.49
   8  -2   7    6.79    0.46
   8   2   7    6.99    0.43
   8   2   7    7.04    0.43
   8   2   7    6.76    0.45
   8   2   7    7.49    0.42
  10  -2   7    6.79    0.50
 -10  -2  -7    6.66    0.44
  10   2   7    7.03    0.46
  10   2   7    7.14    0.44
  12  -2   7    0.34    0.21
 -12  -2  -7    0.74    0.21
  12   2   7    0.45    0.17
  12   2   7    0.41    1.82
  12   2   7    0.30    0.17
  14  -2   7   11.68    0.82
  14   2   7   13.30    0.77
  15  -3  -7    6.13    0.59
  15  -3  -7    6.28    0.85
 -15  -3   7    8.33    4.56
  15   3  -7    0.71    3.98
  15   3  -7    6.03    0.60
  15   3  -7    5.40    0.51
  13  -3  -7    0.13    0.22
  13  -3  -7    0.40    0.25
 -13  -3   7   -5.44    2.73
  13  -3  -7   -2.21    2.03
  13   3  -7    0.39    0.20
  13   3  -7    0.44    0.20
 -13   3   7    2.23    2.37
 -11  -3   7    2.64    0.36
  11  -3  -7    4.50    1.81
 -11  -3   7    2.56    2.13
  11  -3  -7    3.09    0.33
  11  -3  -7    2.76    0.43
  11  -3  -7    2.56    0.38
  11   3  -7    2.80    0.33
 -11   3   7    5.62    1.88
  11   3  -7    2.95    0.30
  -9  -3   7    5.64    1.73
   9  -3  -7    6.20    0.40
  -9  -3   7    6.29    0.45
   9  -3  -7    5.83    0.44
   9  -3  -7    6.78    0.47
   9  -3  -7    5.99    0.51
   9   3  -7    5.80    0.35
  -9   3   7    5.34    1.60
  -9   3   7    6.28    0.46
   9   3  -7    5.65    0.42
   7  -3  -7    7.70    1.88
  -7  -3   7    6.98    2.00
   7  -3  -7    8.58    0.47
   7  -3  -7    8.44    0.49
  -7  -3   7    7.77    0.49
  -7  -3   7    8.10    0.50
  -7   3   7    6.60    1.75
   7   3  -7    9.25    0.50
  -7   3   7    8.49    0.49
   7   3  -7    8.86    0.49
   5  -3  -7    0.30    0.17
   5  -3  -7    0.32    0.09
  -5  -3   7    0.08    0.09
  -5  -3   7    0.14    0.10
  -5   3   7   -0.66    0.77
   5   3  -7    0.09    0.09
  -5   3   7    0.28    0.11
   5   3  -7    0.15    0.10
   5   3  -7   -0.02    0.83
  -5   3   7    0.14    0.09
  -3  -3   7    0.65    0.13
   3  -3  -7    0.63    0.14
   3  -3  -7    0.57    0.13
  -3   3   7    0.69    0.74
  -3   3   7    0.53    0.15
   3   3  -7    0.86    0.14
  -1  -3   7    2.64    0.76
   1  -3  -7    2.20    0.21
   1  -3  -7    2.16    0.91
  -1  -3   7    2.15    0.16
   1   3  -7    2.19    0.16
   1   3  -7    2.63    0.78
  -1   3   7    2.05    0.19
  -1   3   7    2.40    0.21
  -1   3   7    1.67    0.79
  -1  -3  -7    7.64    0.41
   1  -3   7    7.71    0.43
  -1   3  -7    6.44    1.16
   1   3   7    6.68    1.41
  -1   3  -7    7.38    0.32
   1   3   7    7.82    0.41
  -3  -3  -7    3.65    0.27
   3  -3   7    4.34    0.34
   3   3   7    3.12    0.28
   3   3   7    2.81    0.97
   3   3   7    3.78    0.27
   5  -3   7    9.28    0.56
  -5  -3  -7    9.94    0.51
   5   3   7    9.69    0.53
   5   3   7    9.39    0.50
   5   3   7    6.90    1.77
   5   3   7    9.41    0.51
   5   3   7    8.83    0.50
  -7  -3  -7   31.79    1.36
   7  -3   7   32.14    1.52
   7   3   7   30.44    2.87
   7   3   7   32.47    1.37
   7   3   7   33.46    1.38
  -9  -3  -7    0.13    0.19
   9   3   7    0.09    0.12
   9   3   7    0.15    0.19
  11  -3   7    4.01    0.47
  11   3   7    4.49    0.39
  11   3   7    4.80    0.42
  11   3   7   13.34    3.18
 -13  -3  -7    0.47    0.28
  13   3   7    0.33    0.23
  13   3   7    0.73    0.34
  14  -4  -7    0.11    0.23
  14  -4  -7    0.64    0.26
  12  -4  -7    3.51    0.44
 -12  -4   7    2.84    0.46
  12  -4  -7    3.82    0.49
  12  -4  -7    3.62    0.40
  12   4  -7    3.97    0.44
  10  -4  -7    4.79    2.41
  10  -4  -7    6.66    0.44
 -10  -4   7    6.11    2.49
  10  -4  -7    6.15    0.48
 -10  -4   7    5.75    0.50
  10  -4  -7    6.30    0.56
  10   4  -7    4.23    2.37
  10   4  -7    5.67    0.46
 -10   4   7    7.71    2.12
  -8  -4   7   37.04    1.60
  -8  -4   7   38.98    3.67
   8  -4  -7   37.35    1.54
   8   4  -7   36.56    1.58
  -8   4   7   35.96    1.56
  -6  -4   7   11.34    0.63
  -6  -4   7   10.88    0.62
   6  -4  -7   11.46    0.62
   6  -4  -7   11.03    0.58
   6   4  -7   11.09    0.61
   6   4  -7   11.83    0.62
  -6   4   7   12.62    2.16
  -6   4   7   11.56    0.61
  -6   4   7   12.45    0.60
   4  -4  -7   62.33    2.47
  -4  -4   7   62.74    2.48
   4  -4  -7   63.25    2.50
  -4   4   7   61.28    2.44
  -4   4   7   63.14    2.47
  -4   4   7   65.88    3.87
   4   4  -7   64.06    2.44
   2  -4  -7   18.23    2.30
   2  -4  -7   21.19    0.95
   2  -4  -7   21.45    0.97
  -2   4   7   20.88    0.93
   2   4  -7   22.89    0.90
  -2   4   7   22.05    0.96
   0  -4  -7   11.42    0.58
   0   4   7   10.25    1.82
   0   4   7   11.14    0.57
   0   4  -7   11.80    0.51
   0   4   7   12.07    0.60
   0   4  -7   11.48    1.59
  -2  -4  -7    2.19    0.24
   2  -4   7    1.81    0.30
  -2   4  -7    2.03    0.79
   2   4   7    2.16    0.27
   2   4   7    1.62    1.15
  -2   4  -7    2.28    0.14
  -2   4  -7    2.20    0.54
   2   4   7    2.80    1.19
  -4  -4  -7   10.73    0.60
   4  -4   7   11.71    0.69
   4   4   7   10.75    2.23
   4   4   7   12.05    0.62
  -6  -4  -7    1.54    0.30
   6  -4   7    1.61    0.37
   6   4   7    1.86    0.24
   6   4   7    2.34    0.35
   6   4   7    1.36    1.53
  -8  -4  -7    0.35    0.17
   8   4   7   -4.14    1.65
   8   4   7    0.35    0.14
   8   4   7    0.20    0.16
  10  -4   7   13.91    0.90
  10   4   7   14.36    0.76
  12   4   7    2.35    0.35
  12   4   7    2.30    0.43
  11  -5  -7    5.34    0.71
 -11  -5   7    4.52    0.58
  11   5  -7    5.91    0.54
  -9  -5   7    1.59    2.99
   9  -5  -7    5.22    0.48
   9  -5  -7    5.18    0.44
   9   5  -7    5.79    0.49
   7  -5  -7   10.07    0.58
  -7  -5   7   10.03    0.64
   7  -5  -7   10.30    0.62
  -7   5   7    9.19    2.15
   7   5  -7    9.95    0.63
  -5  -5   7    2.85    0.35
   5  -5  -7    3.29    0.32
   5   5  -7    3.40    0.34
  -5   5   7    2.78    1.53
   3  -5  -7    4.77    2.21
   3  -5  -7    8.65    0.50
  -3  -5   7    8.38    0.51
   3   5  -7    7.91    0.48
   3   5  -7    7.76    0.46
  -1  -5   7   15.81    0.74
   1  -5  -7   15.39    0.77
   1   5  -7   15.44    0.69
   1   5  -7   15.31    0.70
   1   5  -7   14.98    2.25
  -1  -5  -7   19.11    0.97
  -1   5  -7   21.08    0.90
  -1   5  -7   20.68    0.83
  -1   5  -7   20.94    1.89
   1   5   7   20.37    2.84
  -1   5  -7   16.97    2.21
  -3  -5  -7    3.83    0.38
  -3   5  -7    3.29    0.72
  -3   5  -7    4.16    0.98
   3   5   7    4.31    0.38
   3   5   7    4.55    1.88
   5  -5   7    0.95    0.29
  -5  -5  -7    1.37    0.30
   5   5   7    0.79    0.23
   5   5   7    0.53    0.18
   5   5   7    0.73    1.87
   5   5   7   -0.59    1.88
   7  -5   7   19.78    1.09
  -7  -5  -7   20.30    1.02
   7   5   7   18.76    0.98
   7   5   7   19.24    0.94
   7   5   7   21.11    4.19
  -9  -5  -7    3.09    0.49
   9  -5   7    2.70    0.51
   9   5   7    2.78    0.33
   9   5   7    2.03    0.41
  -8  -6   7   45.58    1.98
   8  -6  -7   42.74    1.85
  -6  -6   7   10.98    0.74
   4  -6  -7   42.16    1.82
   4   6  -7   43.77    1.94
   2  -6  -7   31.98    1.44
  -2  -6   7   33.89    1.47
  -2   6   7   27.72    3.90
   0  -6   7    1.63    0.34
   0   6  -7    0.48    1.80
   0   6   7    0.74    2.07
   2   6   7    0.31    2.39
   2   6   7    4.98    0.46
  -2   6  -7    4.02    1.67
  -4  -6  -7    7.30    0.59
   4   6   7    6.61    3.03
   4   6   7    7.97    0.58
   4   6   7    7.32    0.51
   6   6   7    2.14    3.29
   6   6   7    5.25    0.57
   8  -6   7    3.44    0.60
  -8  -6  -7    2.16    0.63
   3  -7  -7   15.16    0.92
   1  -7  -7    2.53    0.53
  -1  -7  -7   10.85    0.81
  18   0  -8  117.36    4.71
  16   0  -8  189.51    7.40
 -16   0   8  203.56   13.30
  16   0  -8  195.00    7.41
 -14   0   8   21.11    4.30
  14   0  -8   17.41    3.99
  14   0  -8   19.82    1.02
  14   0  -8   22.43    1.12
  12   0  -8   62.96    2.50
 -12   0   8   61.29    4.82
  12   0  -8   61.26    2.50
  12   0  -8   60.19    2.47
 -10   0   8    1.83    0.34
  10   0  -8    1.28    0.26
 -10   0   8    0.58    1.46
  10   0  -8    1.16    1.21
  10   0  -8    1.28    0.28
   8   0  -8    0.83    1.07
  -8   0   8    3.82    1.39
   8   0  -8    2.14    0.25
   8   0  -8    1.74    0.23
   8   0  -8    2.02    0.24
  -8   0   8    2.06    0.28
  -6   0   8  382.90   15.11
  -6   0   8  357.10   13.46
   6   0  -8  355.17   13.43
   4   0  -8  360.32   13.65
   4   0  -8  360.88   13.60
  -4   0   8  388.67   14.93
  -2   0   8  691.42   26.27
   0   0  -8  453.77   17.68
   4   0   8  170.74    6.23
   4   0   8  164.70    6.85
   4   0   8  166.94    6.18
   4   0   8  167.32    6.18
   6   0   8  303.12   12.06
   6   0   8  312.45   11.31
   6   0   8  303.10   11.37
   6   0   8  312.09   11.30
   8   0   8    0.92    0.73
   8   0   8    1.25    0.21
   8   0   8    1.34    0.18
  10   0   8   24.68    2.49
  10   0   8   26.32    1.09
  10   0   8   24.29    1.17
  10   0   8   27.19    1.09
  10   0   8   25.94    1.07
  12   0   8   19.57    0.92
  12   0   8   18.95    1.00
  12   0   8   21.17    2.66
  12   0   8   19.72    0.90
  12   0   8   20.99    0.91
  14   0   8   12.33    0.77
  17  -1  -8   59.47    2.47
  17  -1  -8   57.33    2.54
  17   1  -8   59.35    2.50
  17   1  -8   61.65    2.55
  15  -1  -8  129.20    4.89
  15  -1  -8  129.07    4.93
 -15  -1   8  129.49    8.70
  15  -1  -8  122.49    4.95
 -15   1   8  126.60    8.14
  15   1  -8  124.56    4.88
  13  -1  -8   28.59    1.28
 -13  -1   8   23.41    1.38
  13  -1  -8   29.35    1.30
 -13  -1   8   28.89    4.19
  13   1  -8   18.85    3.69
  13   1  -8   27.54    1.22
  11  -1  -8   20.54    3.44
  11  -1  -8   21.94    1.01
  11  -1  -8   23.28    1.05
 -11  -1   8   19.06    3.30
 -11  -1   8   21.88    1.05
  11  -1  -8   22.56    1.03
  11   1  -8   20.63    1.02
  11   1  -8   19.84    1.03
 -11   1   8   26.67    3.19
 -11   1   8   20.86    1.07
   9  -1  -8   36.47    1.54
  -9  -1   8   31.97    3.19
  -9  -1   8   34.60    1.56
   9  -1  -8   36.80    1.57
   9  -1  -8   38.18    1.54
   9  -1  -8   36.82    1.57
  -9  -1   8   33.78    1.58
  -9   1   8   36.21    1.57
   9   1  -8   35.58    1.54
   9   1  -8   38.80    1.57
   9   1  -8   41.37    1.50
  -9   1   8   38.73    3.34
  -7  -1   8   40.54    3.15
  -7  -1   8   44.52    1.71
  -7  -1   8   37.65    1.68
   7  -1  -8   39.65    1.74
   7  -1  -8   39.21    1.68
   7  -1  -8   40.58    1.67
   7  -1  -8   39.20    1.69
   7   1  -8   42.35    1.67
  -7   1   8   45.07    3.14
   7   1  -8   46.26    1.83
  -7   1   8   41.37    1.69
   7   1  -8   39.04    1.60
  -5  -1   8  257.59    9.67
  -5  -1   8  274.79   11.17
  -5   1   8  254.88    9.65
  -5   1   8  266.78   10.93
   5   1  -8  252.91    9.65
  -3  -1   8   10.34    0.51
  -3  -1   8   11.29    1.45
  -3   1   8   10.23    0.49
   3   1  -8   10.83    0.50
  -3   1   8   10.23    0.48
  -3   1   8   10.66    1.30
  -1  -1   8  655.13   25.40
   1   1  -8  647.24   24.44
   1   1  -8  703.59   25.91
   1  -1   8  236.64    9.55
   1  -1   8  221.93    8.55
   1  -1   8  247.36    8.57
  -1   1  -8  230.75    9.07
   1   1   8  237.54    9.41
   1   1   8  223.54    8.61
   3  -1   8  426.72   15.46
   3  -1   8  415.88   15.94
  -3   1  -8  420.28   15.76
   3   1   8  412.23   16.46
   3   1   8  430.51   15.48
   5  -1   8  146.38    5.94
   5  -1   8  148.77    5.81
  -5  -1  -8  138.23    5.52
   5  -1   8  143.10    5.47
   5  -1   8  149.33    5.47
   5   1   8  152.20    5.53
   5   1   8  156.56    5.58
   5   1   8  155.64    5.54
   5   1   8  148.23    6.54
   7  -1   8   74.52    3.36
   7  -1   8   79.19    2.90
   7  -1   8   78.29    2.90
   7  -1   8   75.49    3.02
   7   1   8   80.79    4.18
   7   1   8   80.23    2.98
   7   1   8   76.07    2.96
   7   1   8   77.43    3.02
   7   1   8   79.24    2.96
   9  -1   8    1.21    0.15
   9  -1   8    1.85    0.72
   9  -1   8    0.05    0.62
   9   1   8    0.21    1.23
   9   1   8    1.71    0.23
  11  -1   8    2.41    0.24
  11  -1   8    1.02    0.27
 -11  -1  -8    1.82    0.26
  11   1   8    1.51    0.31
  11   1   8    2.06    0.36
  11   1   8    1.58    0.25
  11   1   8    1.76    0.27
  11   1   8    3.78    1.71
  13  -1   8   47.34    4.03
  13  -1   8   50.14    2.08
 -13  -1  -8   48.03    2.10
  13   1   8   44.31    2.04
  13   1   8   45.60    2.02
  15  -1   8    2.86    0.43
 -16  -2   8  141.76   10.45
  16  -2  -8  143.71    5.97
  16  -2  -8  145.88    5.95
  16   2  -8  147.75    5.57
  14  -2  -8   11.47    1.10
  14  -2  -8   14.86    0.78
  14  -2  -8   14.80    0.87
 -14   2   8   18.55    4.01
  14   2  -8   14.77    0.84
  14   2  -8   14.34    0.76
  12  -2  -8   41.80    1.74
  12  -2  -8   38.77    1.76
  12  -2  -8   40.20    1.68
  12   2  -8   38.96    1.67
  12   2  -8   34.51    4.48
  10  -2  -8   24.85    1.15
  10  -2  -8   23.86    1.10
  10  -2  -8   25.85    1.13
 -10  -2   8   24.77    3.23
 -10  -2   8   24.41    1.15
  10  -2  -8   24.51    1.18
 -10   2   8   23.98    1.15
 -10   2   8   30.35    3.10
  10   2  -8   24.48    1.13
  10   2  -8   24.50    1.04
   8  -2  -8   54.99    2.04
   8  -2  -8   48.69    2.09
   8  -2  -8   50.99    2.02
  -8  -2   8   48.64    2.05
   8  -2  -8   50.89    2.06
  -8  -2   8   47.32    3.68
  -8  -2   8   48.45    2.04
   8   2  -8   50.23    2.04
  -8   2   8   53.01    3.62
   8   2  -8   48.93    1.92
  -8   2   8   52.06    2.05
   8   2  -8   49.08    2.02
  -6  -2   8  225.48    8.85
   6  -2  -8  248.94    8.84
  -6  -2   8  244.73   10.37
  -6  -2   8  243.35    8.85
   6  -2  -8  232.68    8.85
   6   2  -8  230.09    8.84
  -6   2   8  258.25   10.31
   6   2  -8  221.40   10.23
  -6   2   8  232.04    8.83
   6   2  -8  242.98    8.83
  -4  -2   8  227.00    8.57
   4  -2  -8  225.24    8.59
  -4  -2   8  241.91    9.83
   4  -2  -8  223.19    8.68
  -4   2   8  232.84    8.55
  -4   2   8  249.32    9.83
  -4   2   8  231.68    8.57
   4   2  -8  223.52    8.55
  -2  -2   8  504.06   19.31
  -2   2   8  552.15   20.42
   0  -2   8  234.17    8.73
   0  -2   8  246.44    8.75
   0   2  -8  232.00    8.74
   0   2   8  247.56    9.83
   0   2   8  239.14    8.79
   0   2  -8  227.63    9.57
   0   2   8  239.06    8.78
   2  -2   8  494.02   19.52
   2  -2   8  529.10   19.02
  -2  -2  -8  500.20   21.69
   2   2   8  535.45   19.04
   2   2   8  512.00   19.02
  -2   2  -8  511.07   19.23
   2   2   8  547.60   20.15
   4  -2   8   50.46    1.79
  -4  -2  -8   42.36    1.75
   4   2   8   41.05    2.72
   4   2   8   43.91    1.76
   4   2   8   43.44    1.75
   6  -2   8  286.45   10.95
   6   2   8  306.74   12.96
   6   2   8  297.18   10.92
   6   2   8  291.46   10.92
   6   2   8  299.79   10.91
   6   2   8  292.52   10.94
   8  -2   8    2.49    0.29
  -8  -2  -8    2.27    0.24
   8   2   8    2.38    0.26
   8   2   8    2.42    0.25
   8   2   8    2.98    0.31
   8   2   8    2.68    0.28
  10  -2   8   28.96    1.32
  10   2   8   27.92    1.23
  10   2   8   27.74    1.26
  12  -2   8   50.90    2.27
 -12  -2  -8   54.49    2.31
  12   2   8   54.25    2.18
  12   2   8   51.98    2.21
  14  -2   8   18.96    1.09
 -15  -3   8  153.01    6.04
  15  -3  -8  155.91    5.87
  15  -3  -8  153.26    6.05
  15  -3  -8  150.95    6.04
 -15  -3   8  151.84   11.11
  15   3  -8  156.60    5.98
  15   3  -8  152.62    5.81
  13  -3  -8   15.37    0.87
  13  -3  -8   15.32    0.93
 -13  -3   8   17.15    4.99
  13   3  -8   13.74    4.01
 -13   3   8    9.38    2.57
  13   3  -8   15.99    0.88
  13   3  -8   15.51    0.87
 -11  -3   8   10.46    2.73
  11  -3  -8   14.12    0.84
 -11  -3   8   13.14    0.77
  11  -3  -8   13.30    0.71
  11   3  -8   13.07    0.74
 -11   3   8   11.67    3.02
   9  -3  -8   10.76    0.59
  -9  -3   8   10.07    0.61
  -9  -3   8    9.91    2.72
   9  -3  -8    9.53    0.61
  -9   3   8    9.46    0.62
   9   3  -8   12.56    0.63
  -9   3   8    9.95    2.79
  -7  -3   8   12.26    2.18
  -7  -3   8    8.97    0.54
  -7  -3   8    9.11    0.55
   7  -3  -8    9.83    0.55
   7  -3  -8    9.21    0.52
  -7   3   8    9.19    0.54
   7   3  -8    9.31    0.53
   7   3  -8   10.76    0.55
  -7   3   8   11.77    2.04
   5  -3  -8  248.98    9.54
   5  -3  -8  265.84    9.52
  -5  -3   8  258.26    9.52
  -5  -3   8  259.71    9.54
  -5   3   8  258.40    9.52
   5   3  -8  253.33    9.53
  -5   3   8  259.04   10.90
   5   3  -8  256.54    9.50
  -5   3   8  250.14    9.49
   3  -3  -8    7.85    0.43
   3  -3  -8    7.09    1.54
  -3  -3   8    7.54    0.38
   3  -3  -8    6.10    0.38
  -3   3   8    6.38    0.39
   3   3  -8    6.95    0.36
  -3   3   8    5.56    1.38
  -3   3   8    6.76    0.38
   1  -3  -8  396.21   15.15
  -1  -3   8  432.43   15.86
  -1  -3   8  412.30   15.09
   1  -3  -8  388.84   15.17
  -1   3   8  427.36   15.16
  -1   3   8  421.97   16.40
   1   3  -8  410.00   15.08
  -1   3   8  409.25   15.13
   1   3  -8  408.59   16.26
   1  -3   8  130.91    4.82
  -1  -3  -8  129.24    4.87
   1   3   8  128.10    4.83
   1   3   8  132.18    6.09
  -1   3  -8  116.08    5.47
  -1   3  -8  129.81    4.72
   1   3   8  131.07    4.82
   3  -3   8  343.58   12.84
  -3  -3  -8  332.42   12.82
   3   3   8  347.68   14.17
   3   3   8  358.27   12.81
   3   3   8  354.91   12.83
   5  -3   8  124.00    4.66
  -5  -3  -8  122.87    4.61
   5   3   8  128.97    6.19
   5   3   8  119.61    4.61
   5   3   8  117.83    4.59
   5   3   8  118.24    4.61
  -7  -3  -8   80.46    3.14
   7   3   8   81.50    3.15
   7   3   8   78.08    4.80
   7   3   8   81.43    3.15
   9  -3   8    3.14    0.38
  -9  -3  -8    3.34    0.33
   9   3   8    2.53    0.30
   9   3   8    2.27    1.75
  11  -3   8    0.38    0.24
  11   3   8    0.58    0.19
  11   3   8    0.74    0.21
  11   3   8    1.90    2.05
 -13  -3  -8   33.61    1.59
  13   3   8   35.83    1.58
 -14  -4   8    4.05    0.94
  14  -4  -8    4.48    0.57
  12  -4  -8   49.75    2.04
 -12  -4   8   49.92    6.17
 -12  -4   8   49.29    2.15
  12   4  -8   48.33    2.12
 -10  -4   8   19.20    0.93
  10  -4  -8   14.66    0.87
 -10  -4   8   13.42    3.05
  10  -4  -8   17.09    0.98
 -10   4   8   17.37    3.29
  -8  -4   8   42.21    3.83
   8  -4  -8   37.70    1.58
  -8  -4   8   37.59    1.63
   8  -4  -8   37.15    1.61
  -8   4   8   35.02    3.38
   8   4  -8   37.46    1.61
   6  -4  -8  120.07    4.64
  -6  -4   8  116.54    4.61
  -6   4   8  122.15    6.52
  -6   4   8  120.74    4.59
   6   4  -8  127.23    4.78
  -6   4   8  122.74    4.65
   6   4  -8  118.93    4.59
   4  -4  -8  178.53    6.84
   4  -4  -8  171.99    8.46
  -4  -4   8  182.95    6.82
  -4  -4   8  183.72    6.79
   4  -4  -8  177.66    6.81
   4   4  -8  185.56    6.77
  -4   4   8  180.32    6.78
  -4   4   8  181.88    6.81
  -4   4   8  193.93    8.38
   2  -4  -8  408.43   15.19
   2  -4  -8  403.97   15.17
  -2   4   8  410.10   15.14
  -2   4   8  421.01   15.31
   2   4  -8  412.59   15.10
   0  -4  -8  210.36    7.96
   0   4   8  215.61    9.44
   0   4  -8  216.89    9.07
   0   4   8  217.19    8.01
   0   4  -8  208.80    7.85
   0   4   8  212.80    7.94
   2  -4   8  410.11   14.74
  -2  -4  -8  392.10   14.75
  -2   4  -8  406.87   15.01
   2   4   8  417.62   16.43
  -2   4  -8  371.63   15.25
   4  -4   8   27.08    1.26
  -4  -4  -8   28.05    1.21
   4   4   8   25.89    2.87
   6  -4   8  184.83    7.14
  -6  -4  -8  187.49    7.06
   6   4   8  193.96    9.14
   6   4   8  186.99    7.07
   6   4   8  185.07    7.04
   8  -4   8    0.33    0.23
   8   4   8    0.65    0.19
   8   4   8   -0.95    2.02
  10  -4   8   10.63    0.78
  10   4   8   10.51    0.63
  10   4   8    9.67    0.67
  12   4   8   14.44    0.84
  12   4   8   16.62    1.11
 -13  -5   8   13.60    1.03
 -11  -5   8    7.12    0.66
  11   5  -8    6.87    0.60
   9  -5  -8    5.72    0.47
   7  -5  -8    0.98    0.22
  -7  -5   8    0.49    0.22
   7  -5  -8    0.91    0.23
  -7   5   8    1.17    1.87
   7   5  -8    1.33    0.30
  -5  -5   8  149.76    5.58
   5  -5  -8  144.84    5.55
   5  -5  -8  144.43    5.58
   5   5  -8  146.12    5.56
  -5   5   8  145.52    7.41
  -3  -5   8    2.31    0.32
   3  -5  -8    2.81    0.31
  -3   5   8   -0.64    1.36
   3   5  -8    3.19    0.30
   3   5  -8    1.08    1.47
   1  -5  -8  315.66   11.40
   1   5  -8  310.58   11.29
   1   5  -8  293.75   12.77
   1   5  -8  303.68   11.28
   1  -5   8   41.87    1.80
  -1  -5  -8   46.37    1.88
  -1   5  -8   47.26    1.73
  -1   5  -8   46.54    2.69
  -1   5  -8   43.89    3.17
   1   5   8   41.80    3.80
   3  -5   8  241.41    8.75
  -3  -5  -8  237.45    8.78
   3   5   8  225.93    8.76
   3   5   8  249.55   12.63
   3   5   8  216.56   10.67
  -5  -5  -8   45.41    1.96
   5  -5   8   45.33    1.94
   5   5   8   43.77    1.89
   5   5   8   42.61    1.85
   5   5   8   47.35    4.41
   7  -5   8   42.69    1.97
  -7  -5  -8   46.33    1.91
   7   5   8   42.51    1.88
   7   5   8   47.45    5.25
   7   5   8   42.98    1.84
   9  -5   8    3.33    0.55
  -9  -5  -8    2.59    0.48
   9   5   8    2.89    0.46
  10  -6  -8    2.83    0.58
 -10  -6   8    3.98    0.67
  -8  -6   8   16.34    0.99
   8  -6  -8   15.70    0.87
  -6  -6   8   55.75    2.30
   6  -6  -8   52.58    2.23
   4  -6  -8   83.63    3.38
   4   6  -8   87.64    3.41
   2  -6  -8  191.23    7.06
  -2  -6   8  191.38    7.32
  -2   6   8  171.49    9.17
   0  -6   8   49.21    1.99
   0  -6  -8   50.71    2.09
   0   6  -8   48.84    4.72
   0   6   8   43.90    4.60
  -2   6  -8  256.26   10.84
   2   6   8  260.91    9.82
   2   6   8  267.50   12.49
  -4  -6  -8   13.20    0.82
   4   6   8   12.44    0.78
   4   6   8   14.44    3.38
   4   6   8   13.19    0.73
   1  -7  -8  212.42    8.43
  -1   7   8  232.89    8.65
  16   0  -9    0.15    0.21
  16   0  -9    0.30    0.24
 -16   0   9   -1.36    3.94
  14   0  -9    0.23    0.18
 -14   0   9    1.44    2.52
  14   0  -9   -1.75    2.64
  12   0  -9    0.09    0.14
  12   0  -9    0.32    0.17
 -12   0   9   -0.83    1.90
  12   0  -9   -3.55    1.55
 -10   0   9   -0.48    1.44
  10   0  -9    0.16    0.14
  10   0  -9    0.02    0.14
  10   0  -9    0.04    0.12
 -10   0   9    0.19    0.19
  -8   0   9    0.01    0.12
   8   0  -9   -0.07    0.12
   8   0  -9    0.12    0.12
   8   0  -9   -0.11    0.10
  -8   0   9    0.39    1.14
  -6   0   9    0.03    0.09
  -6   0   9   -0.16    1.02
  -4   0   9   -0.07    0.77
  -4   0   9    0.14    0.09
  -2   0   9    1.03    0.57
   0   0  -9    0.93    0.53
   2   0   9    0.15    0.07
   2   0   9    0.15    0.06
   2   0   9    0.31    0.08
   4   0   9    0.11    0.08
   4   0   9   -0.88    0.45
   4   0   9    0.11    0.06
   6   0   9    0.04    0.10
   6   0   9    0.01    0.09
   6   0   9    0.23    0.58
   6   0   9    0.09    0.07
  -8   0  -9    0.07    0.08
   8   0   9    0.03    0.11
   8   0   9    0.04    0.09
   8   0   9    0.00    0.09
  10   0   9    0.18    0.11
  10   0   9    1.15    1.50
  10   0   9    0.02    0.14
  10   0   9    0.03    0.13
  10   0   9   -0.10    0.12
 -12   0  -9    0.12    0.15
  12   0   9   -0.04    0.15
  12   0   9    0.23    0.19
  14   0   9   -0.09    0.18
  14   0   9   -0.35    0.30
  17  -1  -9    0.64    0.28
  17  -1  -9    0.92    0.33
  17  -1  -9    0.81    0.28
  17   1  -9    0.72    0.32
 -15  -1   9    2.55    3.25
 -15   1   9   -2.84    2.67
  15   1  -9   -3.45    3.30
  13  -1  -9    2.59    0.36
  13  -1  -9    3.00    0.35
 -13  -1   9    3.05    2.48
  13  -1  -9    2.55    0.37
 -13   1   9    1.96    2.13
  13   1  -9    3.02    0.34
  13   1  -9    5.76    2.30
  13   1  -9    2.31    0.35
  11  -1  -9    2.85    0.33
 -11  -1   9    2.25    1.83
  11  -1  -9    2.42    0.29
  11  -1  -9    2.37    0.33
 -11  -1   9    2.10    0.32
  11  -1  -9    2.37    0.37
  11  -1  -9    3.17    1.67
  11   1  -9    2.44    0.45
  11   1  -9    2.47    0.30
  11   1  -9    2.67    0.30
 -11   1   9    4.32    1.81
  -9  -1   9   15.05    2.64
   9  -1  -9   10.54    2.44
   9  -1  -9   14.77    0.76
   9  -1  -9   15.27    0.77
  -9  -1   9   15.35    0.82
   9  -1  -9   15.00    0.78
  -9  -1   9   14.82    0.77
   9  -1  -9   15.44    0.76
  -9   1   9   14.93    0.79
  -9   1   9   15.46    2.57
   9   1  -9   15.16    0.76
   9   1  -9   15.30    0.77
   9   1  -9   15.39    0.70
   7  -1  -9    0.53    0.13
  -7  -1   9    0.80    0.24
   7  -1  -9    0.72    0.20
   7  -1  -9    0.77    0.19
   7  -1  -9    1.38    1.18
  -7  -1   9    1.69    1.19
  -7   1   9    0.92    0.21
   7   1  -9    0.80    0.21
  -7   1   9   -0.22    0.96
  -5  -1   9   -0.57    0.84
  -5  -1   9    0.33    0.12
  -5   1   9   -0.07    0.75
   5   1  -9    0.15    0.10
  -5   1   9    0.19    0.09
  -3  -1   9    6.92    0.40
  -3  -1   9    7.11    1.34
  -3   1   9    7.82    1.26
  -3   1   9    7.62    0.39
  -3   1   9    7.40    0.38
  -1  -1   9    2.07    0.18
  -1  -1   9    2.46    0.16
   1   1  -9    1.86    0.66
  -1   1   9    1.72    0.68
  -1   1   9    2.10    0.17
   1   1  -9    1.92    0.18
  -1   1   9    2.25    0.17
   1  -1   9    0.41    0.51
   1  -1   9    0.90    0.12
   1  -1   9    0.86    0.13
   1   1   9    0.78    0.12
   1   1   9    0.96    0.12
  -1   1  -9    0.74    0.45
   1   1   9    0.51    0.58
   3  -1   9    0.93    0.47
   3  -1   9    0.45    0.11
   3  -1   9    0.52    0.09
   3  -1   9    0.55    0.09
   3   1   9    0.47    0.11
   3   1   9    0.56    0.11
  -3   1  -9    0.10    0.32
   3   1   9    0.34    0.11
   5  -1   9    6.42    0.29
   5  -1   9    5.96    0.37
   5  -1   9    5.87    0.28
   5  -1   9    5.64    0.69
   5   1   9    5.53    1.12
   5   1   9    6.27    0.35
   5   1   9    6.18    0.33
   5   1   9    6.17    0.37
   7  -1   9    0.37    0.11
   7  -1   9    0.19    0.08
   7  -1   9    0.43    0.44
   7  -1   9    0.08    0.10
   7   1   9    0.20    0.10
   7   1   9    0.11    0.08
   7   1   9    0.01    0.09
   7   1   9    0.27    0.11
   9  -1   9    4.62    0.27
   9  -1   9    4.82    0.39
   9  -1   9    5.23    1.19
   9  -1   9    4.68    0.26
   9   1   9    4.40    0.34
   9   1   9    4.62    0.33
   9   1   9    4.62    0.37
   9   1   9    5.44    1.53
   9   1   9    4.31    0.36
  11  -1   9    0.05    0.16
  11   1   9   -1.60    1.37
  11   1   9    0.14    0.15
  11   1   9    0.16    0.14
  11   1   9   -0.04    0.19
  13  -1   9    0.36    0.21
  13   1   9    0.33    0.19
  16  -2  -9    1.91    0.41
 -16  -2   9    5.66    4.77
  16  -2  -9    2.40    0.53
  16  -2  -9    1.70    0.46
  16   2  -9    2.40    0.40
  16   2  -9   -0.66    3.64
  16   2  -9    2.50    0.51
  14  -2  -9    3.46    0.43
  14  -2  -9    2.41    0.62
 -14  -2   9    2.64    0.49
  14  -2  -9    3.61    0.47
  14  -2  -9    3.76    2.62
  14   2  -9    2.98    0.42
  14   2  -9    3.77    0.39
 -14   2   9    4.14    2.63
 -12  -2   9    4.16    0.47
  12  -2  -9    3.70    0.39
  12  -2  -9    4.42    0.44
 -12  -2   9    5.22    2.54
  12  -2  -9    4.10    0.44
  12   2  -9    4.30    0.41
  12   2  -9    4.27    0.37
 -12   2   9    6.18    2.16
  10  -2  -9    0.95    0.28
 -10  -2   9    1.00    0.23
  10  -2  -9    1.25    0.27
 -10  -2   9    2.22    1.71
  10  -2  -9    1.29    0.25
  10  -2  -9    1.15    0.26
 -10   2   9    0.93    0.24
  10   2  -9    1.44    0.24
  10   2  -9    0.69    0.18
 -10   2   9    2.68    1.70
  10   2  -9    1.90    1.52
  -8  -2   9    0.80    1.26
   8  -2  -9    0.56    0.15
  -8  -2   9    0.60    0.20
  -8  -2   9    0.49    0.16
   8  -2  -9    0.85    0.23
   8   2  -9    0.04    0.14
  -8   2   9    0.83    1.16
   8   2  -9    0.41    0.13
  -8   2   9    0.60    0.18
  -6  -2   9    0.24    0.12
   6  -2  -9    0.25    0.11
  -6  -2   9    0.09    0.11
  -6  -2   9    0.57    0.96
   6  -2  -9    0.28    0.11
   6   2  -9    0.26    0.12
  -6   2   9    0.48    0.98
   6   2  -9    0.09    0.10
  -6   2   9    0.11    0.10
   4  -2  -9   25.18    1.07
  -4  -2   9   22.60    2.26
  -4  -2   9   25.12    1.06
   4  -2  -9   24.24    2.62
   4  -2  -9   24.72    1.08
  -4   2   9   24.82    1.04
  -4   2   9   25.16    1.06
  -4   2   9   26.12    2.17
   4   2  -9   25.78    1.05
  -2  -2   9    0.09    0.08
  -2   2   9    0.14    0.07
   2   2  -9    0.31    0.09
  -2   2   9    0.22    0.08
  -2   2   9   -0.53    0.61
   0  -2   9   18.18    1.44
   0  -2   9   22.01    0.84
   0  -2   9   20.41    0.82
   0   2  -9   20.63    0.83
   0   2  -9   17.04    1.61
   0   2   9   21.08    1.81
   0   2   9   20.54    0.86
   0   2   9   21.43    0.89
  -2  -2  -9    3.28    0.24
  -2  -2  -9    3.52    1.02
   2  -2   9    3.57    0.26
   2   2   9    3.63    0.25
  -2   2  -9    3.50    0.18
  -2   2  -9    3.69    0.61
   2   2   9    3.67    0.24
   2   2   9    5.78    1.26
   4  -2   9    6.35    0.39
  -4  -2  -9    5.91    0.35
   4   2   9    5.87    0.35
   4   2   9    7.00    0.39
   4   2   9    7.29    1.46
   4   2   9    6.02    0.37
   6  -2   9    0.06    0.11
   6   2   9    0.03    0.11
   6   2   9    0.18    0.10
   6   2   9   -0.01    0.11
   6   2   9    0.06    0.10
   8  -2   9    4.48    0.38
  -8  -2  -9    4.58    0.34
   8   2   9    4.42    0.39
   8   2   9    4.70    0.36
   8   2   9    5.16    0.35
 -10  -2  -9    0.07    0.21
  10  -2   9    0.08    0.16
  10   2   9    0.23    0.15
  10   2   9    0.08    0.14
  12  -2   9    0.11    0.18
  12   2   9    0.48    0.19
  12   2   9    0.27    0.26
  14   2   9    1.99    0.51
  15  -3  -9    7.63    0.71
  15  -3  -9    8.60    0.70
  15  -3  -9    7.46    0.73
 -15  -3   9    7.40    4.84
 -15  -3   9    7.19    0.75
  15   3  -9    8.56    0.70
 -13  -3   9   13.39    3.73
  13  -3  -9   13.69    0.78
  13  -3  -9   15.37    0.90
  13  -3  -9   12.68    0.82
  13   3  -9   13.95    0.83
 -13   3   9   10.88    2.83
  13   3  -9   10.95    5.27
  11  -3  -9    4.00    0.39
 -11  -3   9    4.49    0.45
 -11  -3   9    3.70    2.28
  11  -3  -9    4.06    0.43
 -11   3   9    4.02    2.15
  11   3  -9    4.72    0.44
   9  -3  -9   12.10    0.68
  -9  -3   9   11.30    0.67
  -9  -3   9   10.73    2.38
   9   3  -9   11.13    0.64
  -9   3   9    9.33    3.06
   7  -3  -9    0.14    0.12
  -7  -3   9    0.34    1.70
   7  -3  -9    0.13    0.13
  -7  -3   9    0.24    0.16
  -7  -3   9    0.14    0.14
   7   3  -9    0.27    0.15
  -7   3   9    0.09    0.14
  -7   3   9   -0.89    1.10
  -5  -3   9    7.04    0.44
   5  -3  -9    9.51    2.22
   5  -3  -9    6.85    0.42
  -5  -3   9    6.72    0.41
   5  -3  -9    6.87    0.44
   5   3  -9    7.01    0.45
  -5   3   9    8.74    1.72
  -5   3   9    7.07    0.43
  -5   3   9    7.01    0.41
   5   3  -9    7.00    0.41
  -3  -3   9    0.29    0.10
   3  -3  -9    0.22    0.10
   3  -3  -9    0.23    0.11
   3  -3  -9   -0.37    1.09
  -3   3   9    0.24    0.10
  -3   3   9    0.18    0.10
   3   3  -9    0.05    0.08
  -3   3   9    0.36    0.84
   1  -3  -9    1.67    0.20
  -1  -3   9    0.72    0.57
   1  -3  -9    1.54    0.19
  -1  -3   9    1.30    0.14
   1   3  -9    1.66    0.91
  -1   3   9    1.42    0.20
   1   3  -9    1.28    0.14
  -1   3   9    2.42    0.96
  -1   3   9    1.57    0.19
  -1  -3  -9    0.19    0.08
   1  -3   9   -0.15    0.57
   1  -3   9    0.63    0.18
  -1   3  -9    0.27    0.06
  -1   3  -9    0.37    0.66
   1   3   9   -0.69    0.86
   1   3   9    0.09    0.09
   1   3   9    0.12    0.09
  -3  -3  -9   22.60    0.99
   3  -3   9   23.36    1.02
   3   3   9   21.49    0.97
   3   3   9   23.14    1.00
   3   3   9   21.21    2.35
   5  -3   9    2.57    0.32
  -5  -3  -9    3.08    0.27
   5   3   9    2.43    1.28
   5   3   9    3.19    0.32
   5   3   9    3.21    0.28
   7  -3   9   11.58    0.70
  -7  -3  -9   12.43    0.65
   7   3   9   12.11    0.66
   7   3   9   12.13    2.50
   7   3   9   13.09    0.66
  -9  -3  -9    4.90    0.41
   9  -3   9    5.65    0.49
   9   3   9    6.21    2.05
   9   3   9   11.19    2.66
   9   3   9    5.49    0.42
   9   3   9    5.74    0.43
  11  -3   9    0.78    0.35
  11   3   9    0.95    0.27
  11   3   9    0.41    0.20
 -13  -3  -9    0.45    0.30
  13   3   9    0.60    0.28
 -14  -4   9    0.06    0.35
  14  -4  -9    0.53    0.32
 -12  -4   9    1.59    3.44
  12   4  -9    1.33    0.39
  12   4  -9    5.75    3.22
  10  -4  -9    4.65    0.47
 -10  -4   9    5.73    2.73
  10  -4  -9    4.53    0.42
 -10  -4   9    5.28    0.49
 -10   4   9    2.75    2.10
  -8  -4   9    2.65    0.36
   8  -4  -9    3.02    0.37
  -8  -4   9    3.02    1.91
   8  -4  -9    3.15    0.33
  -8   4   9    3.71    1.79
   8   4  -9    1.70    1.83
   8   4  -9    2.22    0.32
  -6  -4   9    6.77    0.47
   6  -4  -9    7.29    0.50
   6   4  -9    8.11    0.56
  -6   4   9    5.18    2.52
   4  -4  -9   30.21    3.05
  -4  -4   9   34.29    1.46
   4  -4  -9   33.83    1.45
  -4  -4   9   35.12    1.43
   4  -4  -9   34.39    1.48
  -4   4   9   33.32    1.43
  -4   4   9   37.79    3.07
   4   4  -9   35.81    1.42
   4   4  -9   35.77    1.45
   2  -4  -9    0.17    0.11
   2  -4  -9    0.53    0.16
   2   4  -9    1.91    1.10
   2   4  -9    0.16    0.10
  -2   4   9   -1.23    1.64
   0  -4  -9   41.51    1.71
   0   4   9   42.00    1.76
   0   4  -9   38.77    3.08
   0   4   9   42.76    3.23
   0   4  -9   41.58    1.59
  -2  -4  -9   28.48    1.26
   2  -4   9   28.35    1.25
   2   4   9   28.49    2.85
  -2   4  -9   30.32    1.79
  -2   4  -9   29.40    1.51
   4  -4   9   13.66    0.79
  -4  -4  -9   14.93    0.90
   4   4   9   14.13    2.56
   4   4   9   14.49    0.74
  -6  -4  -9   11.25    0.63
   6  -4   9   10.12    0.71
   6   4   9   10.96    2.95
   6   4   9   10.77    0.63
   6   4   9   11.05    0.62
   8  -4   9    5.30    0.54
   8   4   9    5.45    0.42
   8   4   9    7.62    2.46
  10  -4   9    0.55    0.28
  10   4   9    1.52    0.39
  10   4   9    0.57    0.20
  13  -5  -9   23.12    1.26
 -11  -5   9    3.14    0.58
  11  -5  -9    4.01    0.47
   9  -5  -9   18.93    0.99
  -9  -5   9   20.41    1.15
   7  -5  -9    4.52    0.46
  -7  -5   9    4.60    0.46
   7  -5  -9    5.03    0.48
   7  -5  -9    4.28    2.80
  -7   5   9    3.65    2.11
   7   5  -9    5.44    0.45
  -5  -5   9    2.64    0.36
   5  -5  -9    2.37    0.33
  -5   5   9    1.25    1.69
   5   5  -9    2.16    0.31
  -3  -5   9    0.09    0.17
   3  -5  -9    0.52    0.20
   3  -5  -9    2.27    2.29
   3   5  -9    0.01    0.15
  -3   5   9   -0.96    1.48
   3   5  -9    1.99    1.63
  -1  -5   9    0.97    0.28
   1  -5  -9    1.53    0.29
   1   5  -9    1.20    0.22
   1   5  -9    1.18    0.22
   1   5  -9    0.49    1.37
   1   5  -9    1.51    1.04
  -1  -5  -9    4.05    0.38
   1   5   9    4.05    1.98
  -1   5  -9    3.78    0.98
  -1   5  -9    3.57    0.25
   1   5   9   10.43    3.16
  -1   5  -9    2.98    1.62
  -1   5  -9    4.00    0.25
   3  -5   9   14.29    0.77
  -3  -5  -9   13.36    0.75
   3   5   9   11.68    3.16
   3   5   9   10.39    2.52
   5  -5   9    8.47    0.65
   5   5   9    2.75    2.70
   5   5   9    7.90    0.52
   5   5   9    7.20    2.53
   5   5   9    8.39    0.57
  -7  -5  -9    7.89    0.60
   7  -5   9    7.22    0.66
   7   5   9    8.14    0.57
   7   5   9    6.83    0.50
   9  -5   9    9.91    0.80
   9   5   9   10.04    0.72
   9   5   9    9.59    0.62
   8  -6  -9    2.43    0.48
  -8  -6   9    3.30    0.59
  -6  -6   9    3.19    0.51
   6  -6  -9    2.32    0.45
   4  -6  -9   23.31    1.14
   2  -6  -9    1.39    0.38
  -2  -6   9    2.26    0.42
  -2   6   9    0.25    2.28
   0  -6   9   36.56    1.54
   0   6  -9   35.53    4.03
   0   6   9   36.76    6.92
  -2  -6  -9   21.61    1.12
  -2   6  -9   28.86    2.57
   2   6   9   19.75    4.49
   2   6   9   21.21    1.10
  -4  -6  -9   29.34    1.39
   4   6   9   26.67    1.29
   4   6   9   27.83    1.36
   4   6   9   35.77    5.44
   6  -6   9    8.80    0.75
  16   0 -10   71.40    3.01
  16   0 -10   75.04    3.07
 -16   0  10   80.94    7.46
 -14   0  10  147.02    8.61
  14   0 -10  127.42    7.82
  14   0 -10  128.35    5.10
  14   0 -10  132.46    5.38
 -12   0  10  330.65   14.19
  12   0 -10  293.65   11.33
  12   0 -10  292.40   11.28
  10   0 -10   31.93    1.39
 -10   0  10   32.38    1.48
  10   0 -10   32.42    1.42
  10   0 -10   34.36    1.46
 -10   0  10   30.03    3.61
   8   0 -10  450.40   17.57
  -8   0  10  510.51   19.69
  -8   0  10  464.86   17.58
   8   0 -10  482.10   17.54
   6   0 -10    0.57    0.21
   6   0 -10    0.65    0.18
  -6   0  10    0.21    0.12
  -6   0  10   -0.15    0.95
  -4   0  10  365.75   15.00
  -4   0  10  371.07   13.60
  -2   0  10   13.68    0.62
   2   0 -10   13.55    0.62
  -2   0  10   12.17    1.52
   0   0  10   18.22    0.82
   0   0 -10   20.15    1.59
   0   0  10   18.96    0.82
   0   0  10   21.64    0.84
   2   0  10  140.67    5.32
   2   0  10  147.40    5.36
   2   0  10  142.72    5.33
  -4   0 -10  223.14    8.97
   4   0  10  219.03    9.07
   4   0  10  229.02    8.20
   4   0  10  216.83    8.24
   6   0  10  272.74   10.27
   6   0  10  274.62   10.35
   6   0  10  280.96   10.27
   6   0  10  282.16   10.27
   6   0  10  285.08   11.21
   8   0  10  115.91    4.54
   8   0  10  124.78    4.45
   8   0  10  106.24    5.28
   8   0  10  124.11    4.44
  10   0  10  311.59   12.28
  10   0  10  336.72   12.16
  10   0  10  334.46   12.15
  10   0  10  335.73   12.16
  12   0  10    2.68    0.37
 -12   0 -10    3.01    0.52
  17  -1 -10   16.54    0.99
  17  -1 -10   14.32    0.90
  17  -1 -10   15.23    0.91
  17   1 -10   14.70    0.97
  17   1 -10   14.46    0.91
  15  -1 -10  127.07    5.00
 -15  -1  10  121.47    8.80
  15  -1 -10  129.97    4.95
  15  -1 -10  132.03    5.00
  15   1 -10  125.17    4.91
 -15   1  10  126.76    8.34
  13  -1 -10   93.95    3.64
  13  -1 -10   91.80    3.67
 -13  -1  10  101.28    7.00
  13   1 -10   89.09    3.58
  13   1 -10   91.49    3.67
  11  -1 -10  452.90   16.76
  11  -1 -10  452.58   16.77
  11  -1 -10  450.87   16.73
  11  -1 -10  448.73   16.73
 -11  -1  10  486.01   19.54
  11   1 -10  461.13   16.67
 -11   1  10  468.39   19.17
  11   1 -10  423.69   21.90
  11   1 -10  426.90   16.75
   9  -1 -10  248.38   11.81
   9  -1 -10  264.79    9.80
  -9  -1  10  262.52    9.85
   9  -1 -10  255.22    9.83
  -9  -1  10  268.34   12.06
   9  -1 -10  257.82    9.80
   9   1 -10  267.49    9.80
   9   1 -10  254.74    9.82
  -9   1  10  263.71    9.83
   9   1 -10  262.72    9.71
  -9   1  10  288.68   12.06
   7  -1 -10  458.64   17.75
   7  -1 -10  477.34   17.73
  -7  -1  10  475.15   17.75
  -7  -1  10  501.45   19.76
   7   1 -10  471.72   17.71
  -7   1  10  506.06   19.57
  -5  -1  10  263.52    9.97
  -5  -1  10  282.14   11.63
  -5   1  10  261.24    9.94
   5   1 -10  261.48    9.93
  -5   1  10  276.43   11.41
  -3  -1  10   89.07    3.32
  -3  -1  10   86.59    4.67
  -3   1  10   82.32    4.39
   3   1 -10   86.13    3.30
  -3   1  10   87.60    3.30
  -3   1  10   86.50    3.28
  -1  -1  10   31.30    1.23
  -1  -1  10   31.06    1.17
   1  -1 -10   28.15    1.21
  -1   1  10   27.84    2.10
  -1   1  10   31.34    1.22
   1   1 -10   29.96    1.22
  -1   1  10   29.58    1.20
   1  -1  10    4.97    1.06
  -1  -1 -10    4.44    0.31
   1  -1  10    4.63    0.26
   1   1  10    4.61    0.27
   1   1  10    4.56    1.03
   1   1  10    4.81    0.28
  -1   1 -10    5.18    0.87
  -3  -1 -10   40.01    1.64
   3  -1  10   42.70    1.61
   3  -1  10   43.67    1.67
   3   1  10   41.66    1.64
  -3   1 -10   40.70    2.12
   3   1  10   43.15    1.69
   3   1  10   41.93    1.65
   5  -1  10   81.99    3.08
   5  -1  10   81.58    3.72
   5  -1  10   76.84    3.50
   5  -1  10   81.41    3.17
   5  -1  10   82.68    3.08
   5   1  10   86.61    3.14
   5   1  10   81.93    3.18
   5   1  10   86.23    3.15
   7  -1  10  212.17    8.02
   7  -1  10  203.58    8.37
   7  -1  10  218.21    8.54
   7  -1  10  214.62    7.88
   7  -1  10  211.10    7.88
   7   1  10  217.05    7.96
   7   1  10  212.45    9.07
   7   1  10  228.85    7.97
   7   1  10  208.64    8.02
   7   1  10  216.57    7.95
   9  -1  10  162.35    6.27
   9  -1  10  165.79    6.09
   9  -1  10  165.30    6.08
   9   1  10  163.36    6.16
   9   1  10  160.07    6.25
   9   1  10  169.31    6.18
   9   1  10  166.46    6.17
  11  -1  10  211.47    9.22
  11  -1  10  225.28    8.59
  11   1  10  240.69    8.47
  11   1  10  228.11    8.57
  13  -1  10  119.54    4.78
 -13  -1 -10  123.35    4.70
  13   1  10  119.04    4.75
 -16  -2  10  116.97    9.95
  16  -2 -10  112.04    4.19
 -16  -2  10  102.28    4.29
  16   2 -10  108.64    4.13
  16   2 -10   84.92    8.76
  14  -2 -10  148.41    5.66
  14  -2 -10  146.44    5.75
  14  -2 -10  149.40    5.72
 -14  -2  10  146.90    5.76
  14   2 -10  143.87    5.72
 -14   2  10  152.69    8.82
  14   2 -10  147.54    5.58
  12  -2 -10  330.01   12.66
  12  -2 -10  337.69   12.58
  12  -2 -10  339.13   12.63
 -12  -2  10  329.70   12.66
 -12  -2  10  358.20   15.74
  12   2 -10  338.46   12.47
 -12   2  10  337.27   15.10
 -10  -2  10   56.17    4.84
  10  -2 -10   58.72    2.42
  10  -2 -10   59.86    2.46
  10  -2 -10   61.25    2.42
  10  -2 -10   53.71    4.55
 -10  -2  10   59.72    2.55
  10   2 -10   58.19    2.44
  10   2 -10   60.93    2.29
 -10   2  10   63.99    4.59
  10   2 -10   62.51    4.56
  -8  -2  10  394.27   14.59
   8  -2 -10  377.55   16.50
  -8  -2  10  393.55   14.59
  -8  -2  10  418.00   16.78
   8  -2 -10  399.77   14.56
   8  -2 -10  405.97   14.61
  -8   2  10  393.41   14.56
   8   2 -10  366.49   14.56
  -8   2  10  412.06   16.49
   8   2 -10  377.41   14.54
  -6  -2  10   -0.27    1.13
  -6  -2  10    0.52    0.16
   6  -2 -10    1.25    0.22
   6  -2 -10    0.97    0.20
  -6  -2  10    0.75    0.21
   6   2 -10    0.61    0.16
  -6   2  10    1.55    1.10
  -4  -2  10  234.26    8.53
   4  -2 -10  227.38    8.53
   4  -2 -10  226.47    8.56
  -4   2  10  242.83    9.94
  -4   2  10  226.40    8.63
  -4   2  10  229.91    8.51
   4   2 -10  221.72    8.51
  -2  -2  10    0.74    0.15
   2  -2 -10    0.30    0.09
  -2   2  10    0.32    0.09
  -2   2  10    0.18    0.08
   2   2 -10    0.62    0.87
  -2   2  10    0.98    0.72
   0  -2  10    0.71    0.98
   0  -2  10    0.95    0.16
   0  -2  10    1.03    0.13
   0   2  10    1.03    0.16
   0   2  10    3.02    0.93
  -2  -2 -10   61.88    2.45
   2  -2  10   64.65    2.44
  -2   2 -10   62.31    2.36
   2   2  10   62.36    2.44
   2   2  10   69.44    3.68
  -2   2 -10   61.96    2.80
   2   2  10   62.97    2.45
  -4  -2 -10  136.27    5.19
   4  -2  10  128.04    5.18
   4   2  10  130.78    6.33
   4   2  10  134.65    5.13
   4   2  10  143.77    5.11
   4   2  10  138.90    5.09
  -6  -2 -10  282.79   10.81
   6  -2  10  284.85   10.84
   6   2  10  304.56   10.81
   6   2  10  292.67   10.80
   6   2  10  298.39   10.79
   6   2  10  286.29   10.84
   8  -2  10   73.85    2.98
  -8  -2 -10   74.55    2.94
   8   2  10   74.57    2.97
   8   2  10   76.40    2.92
  10  -2  10  336.13   12.72
  10   2  10  344.25   12.69
  12  -2  10    0.60    0.22
  12   2  10    0.91    0.24
  15  -3 -10  127.99    4.98
  15  -3 -10  121.19    4.84
 -15  -3  10  127.84    5.15
 -15  -3  10  118.72   10.62
  15  -3 -10  120.69    4.87
 -13  -3  10   66.81    3.00
  13  -3 -10   67.29    2.84
 -13  -3  10   72.28    7.16
  13  -3 -10   70.10    2.80
 -13   3  10   70.01    5.87
  13   3 -10   70.45    2.87
 -11  -3  10  395.28   17.12
 -11  -3  10  371.54   14.07
  11  -3 -10  386.44   14.06
  11  -3 -10  379.50   14.00
 -11   3  10  370.27   16.38
  11   3 -10  362.16   14.03
  -9  -3  10  166.57    8.68
  -9  -3  10  168.80    6.45
   9  -3 -10  173.53    6.46
   9   3 -10  166.75    6.43
  -7  -3  10  307.22   11.34
   7  -3 -10  303.87   13.32
  -7  -3  10  303.63   11.36
   7  -3 -10  311.40   11.34
   7  -3 -10  311.27   11.38
   7   3 -10  301.85   11.31
  -7   3  10  293.45   13.01
   5  -3 -10  181.32    6.88
  -5  -3  10  178.89    6.86
   5  -3 -10  181.71    8.58
  -5  -3  10  182.83    6.83
   5  -3 -10  181.79    6.84
  -5   3  10  184.93    6.84
  -5   3  10  182.91    6.82
   5   3 -10  182.68    6.81
  -5   3  10  184.91    8.41
  -3  -3  10   33.14    1.33
   3  -3 -10   32.72    1.37
   3  -3 -10   31.55    1.39
  -3   3  10   33.65    1.38
  -3   3  10   33.75    2.72
   3   3 -10   33.55    1.33
   3   3 -10   31.01    2.76
  -3   3  10   32.77    1.35
  -1  -3  10   50.47    1.79
   1  -3 -10   44.63    1.86
  -1  -3  10   45.67    2.85
   1  -3 -10   45.34    1.88
  -1   3  10   43.88    3.09
   1   3 -10   46.66    1.80
  -1   3  10   48.52    1.87
  -1   3  10   46.10    1.84
   1   3 -10   43.43    3.05
   1  -3  10    6.70    0.42
  -1  -3 -10    6.39    0.40
   1   3  10    6.91    0.41
  -1   3 -10    8.53    1.21
  -1   3 -10    6.82    0.31
   1   3  10    7.08    0.42
   1   3  10    5.93    1.66
   3  -3  10   42.42    1.68
  -3  -3 -10   39.43    1.66
   3   3  10   38.61    1.65
   3   3  10   42.53    1.72
   3   3  10   41.47    3.14
   5  -3  10   53.34    2.16
  -5  -3 -10   53.22    2.12
   5   3  10   49.74    3.63
   5   3  10   53.41    2.14
   7  -3  10  205.04    7.79
   7   3  10  209.05    7.76
   7   3  10  225.59   11.02
   7   3  10  192.06    7.96
   9  -3  10  119.41    4.65
   9   3  10  117.69    4.59
   9   3  10  108.90    7.20
   9   3  10  122.75    4.57
  11  -3  10  200.76    7.71
  11   3  10  192.16    7.65
  11   3  10  208.68    7.60
 -14  -4  10   74.54    3.10
  14  -4 -10   69.43    2.99
  12  -4 -10  189.51    7.23
 -12  -4  10  176.61    7.41
  12   4 -10  183.99    7.04
 -10  -4  10   33.01    4.84
  10  -4 -10   32.84    1.42
 -10  -4  10   32.47    1.48
  10  -4 -10   29.47    1.55
 -10   4  10   26.29    4.08
   8  -4 -10  285.56   10.33
   8  -4 -10  282.17   10.37
  -8  -4  10  262.93   13.20
  -8  -4  10  282.94   10.38
  -8   4  10  276.19   12.39
   8   4 -10  265.44   10.33
  -6  -4  10    1.56    0.36
  -6  -4  10    1.55    0.31
   6  -4 -10    2.08    0.31
  -4  -4  10  202.35    7.62
  -4  -4  10  203.90    7.68
   4  -4 -10  198.22    7.70
   4  -4 -10  205.74   10.36
   4  -4 -10  201.01    7.67
   4   4 -10  209.05    9.52
  -4   4  10  220.74    7.91
   4   4 -10  202.30    7.66
   4   4 -10  203.38    7.61
  -4   4  10  201.86    9.35
  -2  -4  10    3.21    0.32
   2  -4 -10    3.05    0.30
   2  -4 -10    3.24    0.33
   2   4 -10    3.58    0.26
  -2   4  10    2.86    1.55
   2   4 -10    2.50    1.38
   0  -4  10   12.15    0.56
   0  -4 -10   10.38    0.61
   0   4  10    8.69    2.19
   0   4 -10   12.38    0.51
  -2  -4 -10   48.62    1.99
   2  -4  10   47.97    1.97
  -2   4 -10   47.35    2.45
  -2   4 -10   48.91    2.14
   2   4  10   53.35    3.86
   4  -4  10   43.59    1.91
  -4  -4 -10   44.73    1.87
   4   4  10   45.21    1.88
   4   4  10   49.10    3.96
   6  -4  10  178.28    7.07
  -6  -4 -10  186.26    7.01
   6   4  10  184.11    7.00
   6   4  10  183.52    7.00
   6   4  10  196.03    9.30
   8  -4  10   48.85    2.25
   8   4  10   55.67    2.28
   8   4  10   50.57    2.15
  10  -4  10  211.28    8.37
  10   4  10  223.71    8.25
  11  -5 -10  216.43    8.26
  11  -5 -10  217.86    8.20
   9  -5 -10  139.54    5.38
  -9  -5  10  137.98    5.40
  -7  -5  10  174.47    6.50
   7  -5 -10  170.22    6.45
   7  -5 -10  168.52    6.49
   7   5 -10  167.37    6.46
  -7   5  10  167.32    8.85
   5  -5 -10  143.82    5.44
   5  -5 -10  137.03    5.39
  -5  -5  10  145.25    5.41
  -5   5  10  136.28    7.35
  -3  -5  10   35.45    1.45
   3  -5 -10   37.52    1.63
   3  -5 -10   33.43    4.50
  -3   5  10   23.61    3.45
   3   5 -10   30.57    3.57
   3   5 -10   29.64    1.35
  -1  -5  10   11.63    0.69
   1  -5 -10   13.74    0.72
   1   5 -10   12.18    0.59
   1   5 -10   13.95    2.83
   1   5 -10   10.34    1.93
   1   5 -10   12.66    0.59
  -1  -5 -10    1.52    0.31
  -1   5 -10    1.62    0.89
   1   5  10   -1.27    1.72
  -1   5 -10    0.79    1.24
   3  -5  10   65.42    2.52
  -3  -5 -10   62.16    2.59
   3   5  10   54.87    4.93
   5  -5  10   12.86    0.81
  -5  -5 -10   13.61    0.77
   5   5  10   10.95    2.98
   5   5  10   13.17    0.73
   5   5  10   12.97    0.76
  -7  -5 -10  168.51    6.20
   7  -5  10  154.04    6.23
   7   5  10  161.37    6.17
   7   5  10  158.84    6.15
   9  -5  10   69.16    2.95
   9   5  10   68.03    2.81
  -8  -6  10  227.40    8.37
   8  -6 -10  210.34    8.26
   8  -6 -10  204.05    8.65
   8   6 -10  233.88    8.47
   6  -6 -10    4.19    0.51
  -6  -6  10    3.96    0.58
  -4  -6  10   69.27    3.40
   4  -6 -10   85.74    3.16
   2  -6 -10    0.19    0.25
  -2  -6  10    1.18    0.30
   0  -6 -10   -0.27    0.30
   0   6  10   -5.14    2.33
  -2  -6 -10   15.09    0.88
   2   6  10   12.19    3.28
   2   6  10   13.87    0.86
   4   6  10   25.80    5.99
   4   6  10   23.79    1.16
 -16   0  11   -1.60    3.78
  16   0 -11    0.02    0.19
 -14   0  11    2.21    2.72
  14   0 -11    1.95    2.82
  12   0 -11   -1.72    1.89
 -12   0  11    1.93    2.11
  12   0 -11    0.29    0.18
  12   0 -11   -0.06    0.15
  10   0 -11    0.16    0.19
  10   0 -11    0.07    0.14
 -10   0  11    0.54    1.65
  -8   0  11    0.01    0.15
  -8   0  11   -0.33    1.17
   8   0 -11    0.17    0.15
   8   0 -11    0.11    0.12
  -6   0  11   -0.05    1.02
  -6   0  11    0.06    0.12
   6   0 -11    0.07    0.12
  -4   0  11    0.26    0.11
  -4   0  11   -0.26    0.79
   4   0 -11   -0.02    0.08
  -2   0  11    0.36    0.66
   0   0  11    0.04    0.07
   0   0  11    0.08    0.07
   0   0  11    0.05    0.07
   2   0  11   -0.02    0.54
  -2   0 -11    0.90    0.54
   2   0  11    0.07    0.06
   2   0  11   -0.07    0.08
  -4   0 -11   -0.36    0.55
   4   0  11    0.31    0.10
   4   0  11    0.15    0.08
   4   0  11    0.09    0.08
   6   0  11    0.03    0.10
   6   0  11    0.05    0.09
   6   0  11   -0.84    0.67
   6   0  11    0.01    0.09
   8   0  11    0.19    0.13
   8   0  11    0.14    0.12
   8   0  11    0.02    0.11
  10   0  11    0.35    0.18
  10   0  11    0.03    0.15
  10   0  11   -0.20    1.15
  10   0  11   -0.04    0.15
  10   0  11    0.00    0.16
  12   0  11   -0.04    0.16
  14   0  11    0.33    0.23
  17  -1 -11    2.77    0.84
  17  -1 -11    2.45    0.52
  17   1 -11    1.77    0.41
 -15  -1  11    5.48    3.68
  15  -1 -11    1.09    0.25
  15  -1 -11    1.95    0.45
  15  -1 -11    0.82    0.26
  15  -1 -11    0.05    2.95
  15   1 -11    1.69    0.34
 -15   1  11    5.85    3.18
  15   1 -11    1.61    0.41
  13  -1 -11    0.21    0.23
  13  -1 -11    0.04    0.18
 -13  -1  11   -3.77    2.34
  13  -1 -11   -0.02    0.16
  13   1 -11    0.33    0.19
 -13   1  11   -0.92    2.33
  13   1 -11    0.29    0.18
  11  -1 -11   -1.20    1.77
  11  -1 -11    2.37    0.33
  11  -1 -11    2.48    0.33
  11  -1 -11    2.82    0.36
 -11  -1  11    4.60    2.14
  11   1 -11    2.56    0.31
  11   1 -11    2.62    0.33
 -11   1  11    1.85    1.83
  -9  -1  11    0.28    0.21
   9  -1 -11    0.32    0.15
  -9  -1  11    1.25    1.58
   9  -1 -11    0.11    0.13
   9  -1 -11    0.06    0.15
  -9   1  11   -0.02    0.18
  -9   1  11    0.47    1.50
   9   1 -11    0.06    0.13
   7  -1 -11    1.75    0.26
  -7  -1  11    0.03    1.33
   7  -1 -11    2.30    0.30
   7  -1 -11    2.18    0.25
  -7  -1  11    1.88    0.30
   7   1 -11    1.88    0.28
  -7   1  11    1.99    0.29
   7   1 -11    2.10    0.27
  -7   1  11    1.87    1.19
   5  -1 -11    4.68    0.35
  -5  -1  11    3.21    1.28
  -5  -1  11    4.34    0.35
   5  -1 -11    4.53    0.33
   5   1 -11    4.16    0.33
  -5   1  11    4.52    1.24
   5   1 -11    3.86    1.56
  -5   1  11    5.10    0.34
   3  -1 -11    6.46    0.41
  -3  -1  11    7.88    0.43
  -3   1  11    7.28    0.41
  -3   1  11    7.01    0.39
  -3   1  11    5.97    1.42
   3   1 -11    7.27    0.41
  -1  -1  11    0.18    0.09
   1  -1 -11    0.12    0.08
  -1  -1  11    0.23    0.09
  -1   1  11    0.05    0.07
  -1   1  11    0.10    0.08
  -1   1  11    0.00    0.63
  -1  -1 -11    0.75    0.13
   1  -1  11    0.76    0.14
   1  -1  11    0.98    0.15
  -1   1 -11    0.60    0.55
   1   1  11    1.00    0.14
   1   1  11    0.74    0.14
   1   1  11    0.42    0.65
  -3  -1 -11    9.03    1.38
  -3  -1 -11    9.14    0.47
   3  -1  11   10.43    1.26
   3  -1  11    9.23    0.48
   3  -1  11    9.16    0.43
   3   1  11    9.87    0.48
   3   1  11    9.54    0.46
   3   1  11    9.87    0.51
  -3   1 -11    8.38    1.02
   5  -1  11    0.67    0.15
   5  -1  11    0.73    0.13
   5  -1  11    0.61    0.68
   5  -1  11    0.48    0.12
   5  -1  11    0.06    0.42
   5   1  11    0.57    0.17
   5   1  11    0.61    0.17
   5   1  11    0.52    0.13
   7  -1  11    6.43    0.45
   7  -1  11    7.20    0.35
   7  -1  11    6.99    1.00
   7  -1  11    6.66    0.34
   7  -1  11    8.13    1.29
   7   1  11    7.31    1.87
   7   1  11    6.95    0.45
   7   1  11    7.28    0.42
   7   1  11    6.84    0.40
   7   1  11    7.41    0.43
   9  -1  11    0.27    0.11
   9  -1  11   -0.05    0.15
   9  -1  11    0.33    0.11
   9   1  11    0.38    0.18
   9   1  11    0.12    0.12
   9   1  11    0.33    0.16
   9   1  11    0.42    0.19
  11  -1  11    3.33    0.41
  11   1  11    4.13    0.41
  11   1  11    3.82    0.36
  13  -1  11    1.21    0.31
  13   1  11    1.81    0.35
  16  -2 -11    0.21    0.33
 -16  -2  11   -6.24    4.69
  16  -2 -11    0.26    0.27
  16   2 -11    7.33    5.64
  16   2 -11   -0.14    0.24
  16   2 -11    0.61    0.32
  14  -2 -11    0.39    0.24
  14  -2 -11    0.86    0.27
  14  -2 -11    0.77    0.28
 -14   2  11    1.35    2.74
  14   2 -11    0.93    0.24
  12  -2 -11    9.43    0.62
 -12  -2  11    9.92    3.03
 -12   2  11    7.28    2.49
  12   2 -11    9.20    0.63
  12   2 -11    9.41    0.54
  10  -2 -11    1.10    0.31
 -10  -2  11    1.37    0.32
  10  -2 -11    0.73    0.20
 -10  -2  11    5.34    2.11
  10  -2 -11    0.85    0.26
  10   2 -11    0.88    0.21
 -10   2  11    1.06    1.70
  -8  -2  11    1.70    1.54
  -8  -2  11    1.54    0.33
   8  -2 -11    1.52    0.27
   8  -2 -11    1.79    0.30
  -8  -2  11    1.54    0.28
  -8   2  11    1.63    0.32
   8   2 -11    1.86    0.27
  -8   2  11    2.95    1.48
   8   2 -11    1.35    0.30
   6  -2 -11    0.20    0.12
  -6  -2  11    0.10    0.15
   6  -2 -11    0.17    0.13
   6   2 -11    0.05    0.12
  -6   2  11    0.02    0.12
  -6   2  11    0.46    1.08
   6   2 -11    0.47    0.15
   6   2 -11   -0.58    1.40
  -4  -2  11    0.12    0.13
   4  -2 -11    0.10    0.10
   4  -2 -11    0.03    0.10
  -4   2  11    0.14    0.12
  -4   2  11    1.71    0.95
  -4   2  11    0.10    0.10
   4   2 -11   -0.23    1.16
   4   2 -11    0.07    0.11
   4   2 -11    0.15    0.11
   2  -2 -11   14.69    0.72
   2  -2 -11   14.43    0.70
   2   2 -11   14.49    1.99
   2   2 -11   15.35    0.68
  -2   2  11   15.82    0.71
  -2   2  11   12.11    1.73
  -2   2  11   14.92    0.68
   0  -2 -11    0.21    0.09
   0  -2 -11    0.18    0.09
   0  -2  11    0.02    0.08
   0  -2  11    0.37    0.11
   0  -2  11    0.44    0.62
   0   2 -11    0.73    0.68
   0   2  11    0.07    0.10
   0   2 -11    0.11    0.08
   0   2  11    0.32    0.11
   0   2  11   -0.79    0.71
  -2  -2 -11   13.59    0.66
   2  -2  11   14.54    0.64
  -2  -2 -11   13.70    0.65
   2  -2  11   12.53    1.49
   2   2  11   13.19    0.63
   2   2  11   13.80    0.65
  -2   2 -11   13.86    1.11
  -2   2 -11   13.30    0.57
   2   2  11   11.85    1.76
   4  -2  11    0.92    0.26
   4  -2  11    1.18    0.22
   4   2  11    1.53    0.23
   4   2  11    1.11    0.20
   4   2  11    0.98    0.20
  -6  -2 -11    0.68    0.18
   6   2  11    0.88    0.21
   6   2  11    1.02    0.21
   6   2  11    0.82    0.20
   6   2  11    0.76    0.21
   8   2  11    4.44    0.38
   8   2  11    4.19    0.34
 -10  -2 -11    8.26    0.51
  10  -2  11    7.29    0.56
  10   2  11    7.42    0.54
  10   2  11    7.58    0.51
  12   2  11   -0.03    0.18
  12   2  11    0.39    0.23
  15  -3 -11    4.41    0.66
  15  -3 -11    4.02    0.57
 -13  -3  11    9.35    3.67
 -13   3  11    2.39    4.52
 -11  -3  11   17.67    1.00
  11  -3 -11   18.54    0.94
 -11  -3  11   13.43    3.26
  11   3 -11   17.79    0.95
 -11   3  11   20.82    3.77
  11   3 -11   16.77    3.78
   9  -3 -11   23.36    1.08
   9  -3 -11   22.68    1.11
  -9  -3  11   24.13    3.59
  -9  -3  11   21.39    1.10
   9   3 -11   21.69    1.07
   7  -3 -11   22.51    1.02
  -7  -3  11   21.54    1.04
  -7  -3  11   20.92    1.02
   7  -3 -11   21.33    1.04
   7   3 -11   21.59    1.02
   7   3 -11   21.01    0.99
  -7   3  11   19.71    2.69
   5  -3 -11   45.74    1.86
  -5  -3  11   43.06    1.84
  -5  -3  11   43.68    1.80
   5  -3 -11   43.66    1.82
  -5   3  11   44.54    1.80
  -5   3  11   45.97    3.40
   5   3 -11   44.44    1.79
  -5   3  11   44.17    1.82
  -3  -3  11    7.39    0.40
   3  -3 -11    6.57    0.45
   3  -3 -11    6.97    0.43
  -3   3  11    6.94    0.44
   3   3 -11    9.54    2.11
   3   3 -11    7.48    0.40
  -3   3  11    6.53    0.41
  -3   3  11    5.50    1.39
  -1  -3  11    2.76    0.20
   1  -3 -11    2.48    0.25
   1  -3 -11    2.42    0.26
   1   3 -11    3.09    1.17
   1   3 -11    2.42    0.21
  -1   3  11    2.55    1.09
   1   3 -11    1.99    0.27
  -1  -3 -11    2.96    1.36
   1  -3  11    0.44    0.17
  -1  -3 -11    0.68    0.18
   1  -3  11    0.51    0.09
   1   3  11    0.54    0.17
  -1   3 -11    1.04    0.69
  -1   3 -11    0.38    0.11
   1   3  11   -0.06    1.03
  -3  -3 -11    0.79    0.19
   3  -3  11    0.26    0.17
   3   3  11    0.53    1.10
   5  -3  11    2.38    0.33
  -5  -3 -11    2.91    0.29
   5   3  11    6.88    1.71
   5   3  11    2.82    0.29
  -7  -3 -11    3.81    0.35
   7  -3  11    3.77    0.40
   7   3  11    3.82    0.36
   7   3  11    3.66    0.36
   7   3  11    3.43    1.85
   9  -3  11   -0.09    0.20
   9   3  11    0.22    0.16
   9   3  11    0.33    0.18
   9   3  11   -3.23    1.99
 -11  -3 -11   17.44    0.93
  11  -3  11   15.91    0.98
  11   3  11   16.83    0.92
  11   3  11   16.33    1.01
  14  -4 -11    2.63    0.56
  12  -4 -11    2.83    0.47
 -12  -4  11    3.06    0.55
  12  -4 -11    2.90    0.52
  12   4 -11    3.06    0.46
  10  -4 -11    2.40    0.40
  10  -4 -11    2.32    0.44
 -10  -4  11    2.61    2.81
 -10  -4  11    3.44    0.51
 -10   4  11    2.23    2.29
   8  -4 -11    1.49    0.33
  -8  -4  11    3.19    2.13
   8   4 -11    3.62    2.14
   8   4 -11    2.04    0.33
  -8   4  11    3.95    1.94
  -6  -4  11    1.44    0.32
   6  -4 -11    1.56    0.29
   6  -4 -11    1.29    0.31
   6   4 -11    1.53    0.31
   6   4 -11    1.69    0.30
   4  -4 -11    0.58    0.16
  -4  -4  11    0.85    0.25
   4  -4 -11    0.21    0.15
  -4  -4  11    0.38    0.19
   4   4 -11    0.20    0.16
  -4   4  11   -0.18    1.33
   4   4 -11    0.40    0.16
   4   4 -11    2.11    1.87
   2  -4 -11   14.32    0.77
   2  -4 -11   14.12    0.74
   2  -4 -11   14.72    2.68
  -2  -4  11   15.09    0.67
   2   4 -11   15.09    0.67
   2   4 -11   12.71    2.51
  -2   4  11   13.02    2.37
   0  -4 -11    2.16    0.28
   0   4 -11    1.71    0.17
   0   4  11    2.12    1.41
   0   4 -11    0.38    1.15
   2  -4  11    5.29    0.47
  -2  -4 -11    5.67    0.46
  -2   4 -11    5.49    1.01
  -2   4 -11    5.88    0.63
   2   4  11    4.17    1.71
  -4  -4 -11    4.32    0.38
   4  -4  11    3.96    0.47
   4   4  11    6.08    2.01
   4   4  11    4.06    0.37
   6  -4  11    3.57    0.48
   6   4  11    6.60    2.32
   6   4  11    4.39    0.39
   6   4  11    3.92    0.41
   8  -4  11    2.34    0.46
   8   4  11    3.46    0.36
  10  -4  11    0.97    0.35
  10   4  11    0.70    0.29
  11  -5 -11   16.50    1.02
  11  -5 -11   17.16    0.96
  -9  -5  11   10.78    0.79
   9  -5 -11   11.02    0.78
   9  -5 -11   11.68    0.73
   7  -5 -11   32.04    1.47
  -7  -5  11   32.33    1.51
   7  -5 -11   31.22    1.51
  -7   5  11   36.44    4.51
   7   5 -11   34.58    1.58
   5  -5 -11   39.90    1.80
   5  -5 -11   40.61    1.84
  -5  -5  11   45.56    2.05
  -5   5  11   41.77    4.12
   5   5 -11   43.11    1.80
  -3  -5  11    9.07    0.61
   3  -5 -11   13.00    3.74
  -3   5  11    8.04    2.20
   3   5 -11    9.21    0.53
   3   5 -11    8.91    2.70
   1  -5 -11    7.40    0.53
   1   5 -11    7.66    0.42
   1   5 -11   11.84    2.84
  -1  -5 -11    3.66    0.42
  -1   5 -11    4.38    1.27
  -1   5 -11    3.26    0.94
  -3  -5 -11    3.58    0.50
   3  -5  11    3.58    0.47
   3   5  11    3.24    2.31
   5  -5  11    5.86    0.59
  -5  -5 -11    6.21    0.54
   5   5  11    5.57    0.46
   5   5  11    5.77    0.52
   5   5  11    6.75    2.97
   7  -5  11   21.51    1.19
  -7  -5 -11   22.97    1.17
   7   5  11   21.19    1.14
  -8  -6  11    2.74    0.65
   8  -6 -11    1.63    0.36
   8  -6 -11    2.30    0.61
   6  -6 -11    3.31    0.52
  -6  -6  11    4.08    0.62
   4  -6 -11    1.62    0.33
  -4  -6  11    1.50    0.43
   4   6 -11    1.56    0.32
  -2  -6  11   23.60    1.17
   2  -6 -11   24.33    1.22
   0  -6 -11    0.35    0.27
   0   6  11   -3.31    2.66
  -2  -6 -11   10.46    0.78
   2   6  11    9.98    3.37
   4   6  11    5.72    0.48
  16   0 -12   18.73    1.23
  16   0 -12   19.01    1.01
 -16   0  12   31.07    8.90
  14   0 -12  133.25    5.14
  14   0 -12  129.84    5.04
 -14   0  12  126.82    8.40
 -12   0  12    1.62    2.28
  12   0 -12    0.30    0.18
  12   0 -12   -1.16    2.12
 -10   0  12    1.66    1.74
  10   0 -12    5.46    1.94
  10   0 -12    1.49    0.29
   8   0 -12   42.82    1.86
  -8   0  12   48.61    1.89
   8   0 -12   41.73    1.82
  -8   0  12   48.34    3.89
   8   0 -12   41.68    1.83
  -6   0  12   27.57    2.88
   6   0 -12   27.91    1.21
  -6   0  12   26.78    1.22
  -4   0  12  207.07    8.98
   4   0 -12  189.69    7.36
   4   0 -12  196.60    9.04
  -4   0  12  202.71    7.35
   4   0 -12  188.49    7.34
   2   0 -12    2.40    0.22
  -2   0  12    2.67    0.24
   0   0  12  555.81   20.54
   0   0  12  577.79   20.56
   0   0  12  546.92   20.54
  -2   0 -12   42.97    2.99
   2   0  12   50.29    1.93
   2   0  12   49.40    1.89
   2   0  12   48.82    1.88
   4   0  12  317.96   12.08
   4   0  12  332.49   12.02
   4   0  12  319.51   12.01
  -4   0 -12  336.88   13.01
   6   0  12   38.33    1.52
   6   0  12   38.32    1.61
   6   0  12   38.13    1.51
   8   0  12   47.27    1.78
   8   0  12   42.68    1.88
   8   0  12   44.19    1.76
 -10   0 -12   12.54    0.61
  10   0  12   11.21    0.72
  10   0  12   13.05    0.65
  12   0  12    5.17    0.52
  12   0  12    7.33    0.55
  17  -1 -12  110.12    4.34
  17   1 -12  109.25    4.29
  15  -1 -12  117.49    8.47
  15  -1 -12  127.88    5.01
  15  -1 -12  133.71    4.97
  15  -1 -12  125.63    4.98
 -15  -1  12  141.54    9.66
  15   1 -12  124.39    4.89
  15   1 -12  125.25    5.00
 -15   1  12  123.58    8.71
  13  -1 -12   33.37    1.51
 -13  -1  12   19.22    5.80
  13  -1 -12   29.23    1.39
  13  -1 -12   31.11    4.56
  13   1 -12   29.54    1.41
 -13   1  12   28.22    4.38
  13   1 -12   30.08    1.32
 -11  -1  12   33.97    4.27
  11  -1 -12   32.44    1.55
  11  -1 -12   33.21    1.52
 -11   1  12   43.83    4.16
  11   1 -12   35.83    1.55
  -9  -1  12   33.41    3.77
   9  -1 -12   35.32    1.53
   9  -1 -12   33.26    1.52
   9  -1 -12   35.97    1.57
   9   1 -12   34.90    1.54
  -9   1  12   37.81    3.70
  -7  -1  12  190.91    9.23
  -7  -1  12  187.62    7.17
   7  -1 -12  192.31    7.14
   7  -1 -12  188.44    7.15
   7  -1 -12  181.24    7.18
  -7   1  12  189.42    7.15
  -7   1  12  192.63    9.03
   7   1 -12  196.39    7.14
   7   1 -12  190.96    7.18
   5  -1 -12  189.69    7.15
  -5  -1  12  199.16    7.17
   5  -1 -12  185.62    7.18
   5   1 -12  194.80    7.14
  -5   1  12  188.07    7.14
   5   1 -12  184.77    7.17
  -5   1  12  193.40    8.74
   3  -1 -12  564.18   21.79
   3  -1 -12  584.81   21.78
  -3  -1  12  585.36   21.78
   3   1 -12  597.80   21.77
  -3   1  12  589.38   21.77
  -3   1  12  576.74   21.75
  -3   1  12  668.27   23.42
   3   1 -12  582.15   21.77
   1  -1 -12  313.36   12.35
  -1  -1  12  338.83   15.53
   1  -1 -12  339.43   13.87
  -1  -1  12  314.10   12.36
   1  -1 -12  319.20   12.37
  -1  -1  12  338.91   12.31
  -1   1  12  338.36   12.34
  -1   1  12  362.84   13.75
  -1   1  12  337.17   12.36
   1   1 -12  345.22   12.36
   1   1 -12  343.11   13.60
   1  -1  12  300.58   12.54
   1  -1  12  313.69   11.46
   1  -1  12  306.31   11.46
   1   1  12  310.37   11.47
  -1   1 -12  313.17   12.34
   1   1  12  321.66   11.48
   3  -1  12  381.67   14.14
   3  -1  12  378.49   14.08
   3   1  12  397.56   14.13
   3   1  12  382.39   14.11
  -3   1 -12  375.37   14.76
   3   1  12  385.35   14.17
   5  -1  12   79.06    2.96
   5  -1  12   78.12    3.06
   5  -1  12   77.35    3.51
   5  -1  12   78.71    3.86
   5  -1  12   82.16    2.96
   5   1  12   77.85    3.08
   5   1  12   79.57    3.02
   5   1  12   76.64    3.01
   7  -1  12  179.46    7.38
   7  -1  12  190.20    6.81
   7  -1  12  183.30    6.96
   7  -1  12  187.83    6.81
   7   1  12  174.76    8.19
   7   1  12  186.01    6.89
   7   1  12  181.87    6.97
   7   1  12  189.54    6.89
   7   1  12  184.46    6.88
   9  -1  12   12.46    0.73
   9  -1  12   12.65    0.57
   9  -1  12   12.04    0.56
   9  -1  12   12.90    1.90
   9   1  12   12.31    0.64
   9   1  12   11.50    0.66
   9   1  12   13.73    0.74
   9   1  12   11.48    2.41
   9   1  12   15.16    1.00
  11  -1  12    4.54    0.46
  11   1  12    4.80    0.46
  13   1  12   41.19    1.88
  16  -2 -12   15.17    0.98
  16  -2 -12   14.18    0.88
 -16  -2  12   17.07    5.79
  16   2 -12   13.30    0.96
  16   2 -12   12.79    0.78
  14  -2 -12  116.18    8.46
  14  -2 -12  136.13    5.16
  14  -2 -12  137.60    5.23
 -14   2  12  125.48    8.40
  14   2 -12  136.19    5.03
  14   2 -12  125.05    8.38
  14   2 -12  137.51    5.22
 -12  -2  12    5.19    2.93
  12  -2 -12    3.75    2.57
 -12   2  12    5.49    2.57
  12   2 -12    3.88    0.43
 -10  -2  12    2.10    2.06
  10  -2 -12    1.91    0.33
  10  -2 -12    3.11    0.40
 -10   2  12    3.43    1.99
  -8  -2  12   13.98    2.80
   8  -2 -12   18.63    0.96
  -8  -2  12   18.03    1.14
   8  -2 -12   19.44    0.93
   8   2 -12   18.90    0.94
  -8   2  12   23.75    2.95
  -6  -2  12   24.13    2.71
   6  -2 -12   21.60    0.99
   6  -2 -12   20.68    1.01
  -6  -2  12   19.80    1.00
   6   2 -12   21.25    0.97
  -6   2  12   21.17    0.98
   6   2 -12   21.97    1.00
  -6   2  12   18.33    2.52
   4  -2 -12  225.11    8.35
   4  -2 -12  217.71    8.37
  -4  -2  12  227.06    8.34
  -4   2  12  225.11    8.32
   4   2 -12  225.47    8.32
  -4   2  12  221.50    9.87
   4   2 -12  215.88   12.14
  -4   2  12  228.71    8.34
   4   2 -12  222.43    8.36
  -2  -2  12    6.54    0.33
   2  -2 -12    5.51    0.39
   2  -2 -12    6.03    0.39
  -2  -2  12    6.84    0.39
   2   2 -12    6.26    1.80
  -2   2  12    6.95    0.41
  -2   2  12    6.44    0.38
   2   2 -12    6.69    0.38
  -2   2  12    6.38    1.57
   0  -2  12  504.44   21.63
   0  -2 -12  524.05   20.33
   0  -2  12  575.89   20.26
   0  -2  12  536.98   20.26
   0  -2 -12  547.27   20.32
   0   2 -12  565.05   21.29
   0   2  12  565.89   20.30
   0   2  12  623.24   21.89
   0   2 -12  514.33   20.26
   0   2  12  576.38   20.33
   2  -2  12   17.54    0.78
   2  -2  12   17.26    0.70
  -2  -2 -12   17.51    0.81
  -2  -2 -12   17.80    0.80
   2   2  12   17.94    2.07
  -2   2 -12   16.61    1.34
  -2   2 -12   16.51    0.71
   2   2  12   17.40    0.80
   2   2  12   17.75    0.79
   4  -2  12  374.59   13.89
   4  -2  12  370.49   13.60
   4   2  12  358.81   13.63
   4   2  12  362.11   13.57
   4   2  12  373.94   13.59
  -6  -2 -12   17.95    0.86
   6   2  12   17.88    0.91
   6   2  12   20.31    0.88
   8  -2  12   19.26    0.99
   8   2  12   19.57    0.98
   8   2  12   20.84    0.96
  12   2  12    4.36    0.51
  12   2  12    4.60    0.48
  15  -3 -12   86.33    3.48
  15  -3 -12   86.14    3.55
  13  -3 -12   23.57    1.27
 -13  -3  12   21.20    6.24
  13  -3 -12   23.73    1.21
 -13  -3  12   23.23    1.29
  13   3 -12   27.09    1.27
  13   3 -12   26.80    5.29
 -11  -3  12   10.71    3.21
 -11  -3  12   14.14    0.87
  11  -3 -12   13.63    0.86
  11  -3 -12   14.18    0.81
  11   3 -12   14.39    0.83
 -11   3  12   17.26    3.22
  -9  -3  12   18.95    3.55
  -9  -3  12   19.69    1.05
   9  -3 -12   20.72    1.07
   9  -3 -12   21.57    1.03
   9   3 -12   20.67    1.03
   7  -3 -12   85.42    5.83
  -7  -3  12   88.01    3.72
   7  -3 -12  102.62    3.76
   7  -3 -12   96.72    3.78
  -7  -3  12   96.01    3.76
   7   3 -12   93.55    3.71
   7   3 -12   98.01    3.75
  -7   3  12  103.87    5.78
   5  -3 -12  140.14    5.29
  -5  -3  12  136.62    5.21
   5  -3 -12  139.40    5.25
  -5   3  12  131.09    5.20
  -5   3  12  143.33    7.02
   5   3 -12  137.27    5.20
  -3  -3  12  334.22   12.14
   3  -3 -12  337.36   12.21
   3  -3 -12  312.76   12.22
   3   3 -12  328.27   12.13
  -3   3  12  333.21   13.87
   1  -3 -12  297.40   11.52
  -1  -3  12  307.70   11.43
   1  -3 -12  296.06   11.55
  -1  -3  12  338.32   11.44
  -1   3  12  312.89   13.10
   1   3 -12  311.63   12.87
   1   3 -12  311.86   11.43
  -1  -3 -12  264.99    9.80
   1  -3  12  270.32    9.74
  -1  -3 -12  269.34   11.71
   1  -3  12  259.01   10.23
   1  -3  12  267.80    9.64
   1   3  12  282.69   11.53
  -1   3 -12  260.14    9.65
   1   3  12  237.71   10.01
  -1   3 -12  260.41   10.39
   3  -3  12  230.22    8.76
  -3  -3 -12  233.35    8.76
   3   3  12  237.93    8.80
   3   3  12  238.16   10.49
  -5  -3 -12   48.49    2.20
   5  -3  12   47.95    1.98
   5   3  12   47.91    1.99
   5   3  12   44.17    3.77
   7  -3  12  115.17    4.71
  -7  -3 -12  125.81    4.67
   7   3  12  118.89    6.78
   7   3  12  125.34    4.67
   7   3  12  116.31    6.59
   7   3  12  123.59    4.71
   9  -3  12   20.17    1.06
   9   3  12   18.19    1.00
   9   3  12   20.45    0.99
  11   3  12    0.18    0.26
  11   3  12    1.40    0.34
  14  -4 -12   63.92    2.78
  14  -4 -12   65.13    2.71
  12  -4 -12    4.30    0.58
 -12  -4  12    3.88    0.62
  12  -4 -12    4.18    0.54
  12   4 -12    2.95    0.50
  10  -4 -12    0.34    0.26
  10  -4 -12    0.92    0.26
 -10  -4  12   -0.54    2.95
  10   4 -12    0.17    0.21
 -10   4  12    1.22    2.42
  -8  -4  12   21.53    1.13
   8  -4 -12   22.41    1.14
   8  -4 -12   23.69    5.69
   8  -4 -12   22.29    1.09
  -8   4  12   26.47    3.73
  -6  -4  12   15.61    0.87
  -6  -4  12   16.43    0.88
   6  -4 -12   16.06    1.08
   6  -4 -12   17.18    0.94
   6   4 -12   16.75    0.90
   4  -4 -12  178.21    9.51
   4  -4 -12  196.33    7.28
   4  -4 -12  191.37    7.34
  -4  -4  12  192.33    7.27
  -4  -4  12  194.36    7.20
  -4   4  12  203.43    9.22
   4   4 -12  187.56    7.37
   4   4 -12  196.42    7.19
   2  -4 -12    0.90    0.25
  -2  -4  12    1.35    0.22
   2  -4 -12    0.22    1.72
   2   4 -12    1.18    0.22
   2   4 -12    0.87    1.47
  -2   4  12   -0.26    1.40
   0  -4 -12  316.85   13.22
   0  -4 -12  362.98   15.53
   0   4 -12  366.86   14.29
   0   4  12  377.70   15.15
   0   4 -12  357.77   13.04
   0   4 -12  351.82   13.02
  -2  -4 -12   36.48    1.61
   2  -4  12   34.63    1.51
   2   4  12   35.94    3.53
  -4  -4 -12  274.83   10.16
   4  -4  12  261.26   10.16
   4   4  12  264.04   10.16
   4   4  12  289.69   12.44
  -6  -4 -12   14.93    0.81
   6  -4  12   13.72    0.86
   6   4  12   14.86    0.80
   6   4  12   16.67    3.03
   8  -4  12   17.97    1.05
   8   4  12   18.83    0.97
   8   4  12   18.26    1.12
  10  -4  12    0.04    0.32
 -11  -5  12    8.74    1.05
  11  -5 -12    7.58    0.70
  11   5 -12    7.87    0.72
  -9  -5  12   12.26    0.88
   9  -5 -12   12.69    0.88
   9  -5 -12   12.44    0.80
   9   5 -12   14.40    0.97
   7  -5 -12   55.42    2.44
  -7  -5  12   55.82    2.43
   7  -5 -12   54.29    6.38
   7  -5 -12   56.52    2.40
  -7   5  12   48.43    5.10
   7   5 -12   66.72    2.61
   5  -5 -12   45.52    2.01
   5  -5 -12   38.37    5.03
   5   5 -12   47.88    1.96
  -5   5  12   47.86    4.58
  -3  -5  12  182.82    6.91
   3  -5 -12  176.59    9.66
   3  -5 -12  183.68    6.94
   3   5 -12  183.17    9.16
   3   5 -12  180.55    6.81
  -3   5  12  188.68    9.25
   1  -5 -12  146.82    5.46
  -1   5  12  128.51    8.51
   1   5 -12  144.98    7.24
  -1  -5 -12  142.37    5.43
  -1   5 -12  140.99    5.81
  -1   5 -12  138.74    6.06
  -3  -5 -12  180.52    6.87
   3  -5  12  198.99    6.81
   3   5  12  150.59    9.25
  -5  -5 -12   35.01    1.60
   5  -5  12   36.22    1.63
   5   5  12   35.53    1.60
   5   5  12   33.36    1.56
   7  -5  12   70.95    3.05
   7   5  12   74.82    3.01
   8  -6 -12   21.09    1.50
  -6  -6  12   11.98    1.04
   6  -6 -12   12.27    0.84
  -4  -6  12  155.68    6.16
   4  -6 -12  158.61    6.15
   4   6 -12  164.38    6.10
   0   6  12  239.76   12.97
   2   6  12   -0.41    3.71
  16   0 -13   -0.08    0.27
 -14   0  13   -2.18    2.90
  14   0 -13   -0.19    0.20
 -12   0  13    2.43    2.67
  10   0 -13    0.08    0.15
 -10   0  13    0.13    1.93
  10   0 -13    0.14    0.16
  -8   0  13    0.78    1.52
  -6   0  13    0.17    0.15
   6   0 -13   -0.04    0.11
  -6   0  13    0.08    1.24
   6   0 -13    0.03    0.14
   6   0 -13    0.00    0.11
  -4   0  13    0.21    1.09
   4   0 -13    0.10    0.11
   4   0 -13    0.13    0.11
  -2   0  13    0.02    0.10
   0   0 -13    0.21    0.10
   0   0  13    0.06    0.09
   0   0  13    0.14    0.10
   0   0  13    0.07    0.09
   2   0  13    0.16    0.10
   2   0  13   -0.01    0.09
  -2   0 -13    0.34    0.76
   2   0  13    0.12    0.09
   4   0  13    0.26    0.11
   4   0  13    0.11    0.10
   4   0  13    0.09    0.09
   6   0  13    0.40    0.13
   6   0  13    0.06    0.12
   6   0  13    0.13    0.13
   8   0  13    0.11    0.15
   8   0  13    0.09    0.11
   8   0  13    0.01    0.17
   8   0  13    0.30    0.16
  10   0  13    0.09    0.19
  12   0  13   -0.15    0.20
  17  -1 -13    0.60    0.31
  17   1 -13    0.16    0.25
  15  -1 -13    2.11    0.45
 -15  -1  13    4.61    4.02
  15   1 -13    2.81    0.49
 -15   1  13   -1.60    3.35
 -13  -1  13   -3.89    2.66
  13  -1 -13    0.06    0.19
 -13   1  13    0.74    2.65
  13   1 -13    0.21    0.21
  11  -1 -13   -1.55    2.05
  11  -1 -13    0.10    0.15
 -11  -1  13    0.34    2.17
  11  -1 -13    0.01    0.21
 -11   1  13    0.02    1.96
  -9  -1  13    0.24    1.82
   9  -1 -13    0.22    0.16
   9  -1 -13    0.37    0.16
   9   1 -13    2.32    1.78
  -9   1  13    0.30    1.70
   9   1 -13    0.31    0.16
   7  -1 -13    1.27    0.27
   7  -1 -13    1.12    0.25
  -7  -1  13    1.12    0.25
  -7  -1  13   -0.37    1.39
   7   1 -13    1.60    0.30
  -7   1  13    3.56    1.55
   7   1 -13    1.26    0.27
  -7   1  13    1.65    0.41
  -5  -1  13    0.91    0.25
   5  -1 -13    0.62    0.16
   5  -1 -13    0.74    0.21
   5   1 -13    0.40    0.15
   5   1 -13    0.91    0.21
  -5   1  13    0.66    0.17
   5   1 -13    0.26    1.69
   5   1 -13    0.80    0.18
  -5   1  13    1.23    1.13
   3  -1 -13    7.89    0.46
   3  -1 -13    7.34    0.47
  -3  -1  13    8.45    0.40
  -3  -1  13    8.33    0.48
  -3   1  13    7.66    0.46
   3   1 -13    8.37    0.48
   3   1 -13    8.28    0.51
  -3   1  13    8.94    1.72
   3   1 -13    7.58    1.95
   3   1 -13    7.34    0.46
  -1  -1  13    8.71    0.47
  -1  -1  13    8.86    0.43
   1  -1 -13    8.11    0.46
   1  -1 -13    8.16    0.47
  -1   1  13    8.28    0.47
   1   1 -13    9.14    0.48
  -1   1  13    8.14    0.45
   1  -1  13    0.44    0.12
   1  -1  13    0.29    0.12
  -1  -1 -13    0.25    0.10
   1   1  13    0.14    0.11
   1   1  13    0.60    0.17
   1   1  13    0.19    0.10
  -1   1 -13    0.01    0.69
  -3  -1 -13    0.36    0.14
   3  -1  13    0.24    0.10
   3  -1  13    0.04    0.10
   3  -1  13   -0.38    0.94
   3   1  13    0.25    0.12
  -3   1 -13    0.33    0.65
   3   1  13    0.29    0.13
   3   1  13   -0.04    0.10
   5  -1  13    2.65    0.29
   5  -1  13    2.66    0.68
   5  -1  13    2.96    0.23
   5   1  13    2.90    0.29
   5   1  13    3.02    0.28
   5   1  13    3.01    0.30
   7  -1  13    0.85    0.20
   7  -1  13    1.18    0.20
   7   1  13    0.87    0.21
   7   1  13    1.03    0.24
   7   1  13    0.08    1.03
   7   1  13    0.96    0.21
   7   1  13    0.88    0.20
   9  -1  13    1.04    0.95
   9  -1  13    0.32    0.18
   9   1  13    0.40    0.16
   9   1  13    0.43    0.18
  11  -1  13    0.06    0.21
  11   1  13    0.39    0.21
  16  -2 -13    3.52    0.59
  16   2 -13    3.99    0.67
  14  -2 -13    3.81    3.76
  14  -2 -13    1.51    0.37
 -14  -2  13   -1.85    4.33
 -14   2  13   -0.93    3.04
 -12  -2  13    1.79    2.86
  12  -2 -13    5.94    2.76
 -12   2  13    2.08    2.41
  12   2 -13    2.00    0.37
 -10  -2  13   -2.43    1.95
 -10   2  13    1.69    2.02
  -8  -2  13    2.95    1.71
  -8  -2  13    2.22    0.42
   8  -2 -13    2.24    0.33
   8  -2 -13    2.36    0.34
  -8   2  13    3.16    1.70
   6  -2 -13    0.18    0.13
  -6  -2  13    0.40    0.20
   6  -2 -13    0.17    0.15
   6   2 -13    0.49    0.16
   6   2 -13    1.04    0.27
  -6   2  13    1.66    1.33
   4  -2 -13    0.54    0.15
  -4  -2  13    0.60    0.18
   4  -2 -13    0.82    0.22
  -4   2  13    0.32    0.15
   4   2 -13    0.43    0.16
  -4   2  13    0.46    0.16
  -4   2  13    0.92    1.15
  -2  -2  13    2.29    0.21
   2  -2 -13    2.31    0.25
   2  -2 -13    2.39    0.26
  -2  -2  13    2.24    0.25
  -2   2  13    2.40    0.27
  -2   2  13    2.49    0.26
   2   2 -13    1.98    1.20
   2   2 -13    2.27    0.25
  -2   2  13    2.40    1.12
   0  -2  13    8.41    0.42
   0  -2 -13    8.51    0.48
   0  -2 -13    8.12    0.46
   0  -2  13    8.04    0.42
   0   2 -13    7.76    1.47
   0   2  13    8.09    0.47
   0   2 -13    8.11    0.43
   0   2  13    8.02    0.45
   0   2 -13    7.44    0.41
   0   2  13    7.09    1.69
  -2  -2 -13   15.91    0.86
   2  -2  13   16.15    0.67
   2  -2  13   14.71    1.59
   2  -2  13   16.48    0.75
  -2   2 -13   15.47    0.68
   2   2  13   16.30    0.76
   2   2  13   16.38    3.07
  -2   2 -13   15.37    1.39
   2   2  13   16.58    0.80
   2   2  13   16.24    0.77
  -4  -2 -13    1.26    0.21
   4  -2  13    1.02    0.23
   4   2  13    1.85    0.28
   4   2  13    0.95    0.25
   4   2  13    1.15    0.23
  -6  -2 -13    2.12    0.26
   6  -2  13    2.03    0.30
   6   2  13    1.82    0.27
   6   2  13    2.21    0.28
  -8  -2 -13    2.26    0.33
   8  -2  13    2.66    0.35
   8   2  13    3.18    0.34
   8   2  13    4.71    1.88
  10  -2  13    0.22    0.20
  10   2  13    0.28    0.20
  15  -3 -13    7.93    0.81
  15  -3 -13    8.08    0.72
  13  -3 -13    1.26    0.30
  13  -3 -13    1.93    0.51
  13   3 -13    1.52    0.34
  11  -3 -13    6.96    0.62
 -11  -3  13    6.47    2.94
  11  -3 -13    6.64    0.68
 -11  -3  13    6.39    0.60
 -11   3  13    7.52    2.78
   9   3 -13   12.48    0.77
   9   3 -13   16.97    3.47
   7  -3 -13   11.36    0.71
   7  -3 -13   12.21    0.70
  -7   3  13   15.17    2.89
  -5  -3  13    2.52    0.32
   5  -3 -13    1.93    0.31
   5  -3 -13    1.60    1.71
   5  -3 -13    1.96    0.29
   5   3 -13    2.40    0.30
  -5   3  13    0.49    1.42
  -3  -3  13   29.54    1.20
   3  -3 -13   23.21    3.03
   3  -3 -13   27.80    1.25
   3  -3 -13   28.24    1.28
   3   3 -13   25.88    3.06
  -3   3  13   29.20    2.94
   3   3 -13   28.70    1.19
  -1  -3  13   11.33    0.73
   1  -3 -13   17.36    2.68
  -1  -3  13   14.72    0.65
   1  -3 -13   14.28    0.72
   1  -3 -13   13.61    0.73
  -1   3  13   14.86    2.32
   1   3 -13   14.84    0.63
   1  -3  13    1.07    0.66
   1  -3  13    1.17    0.28
  -1  -3 -13    1.34    0.25
  -1   3 -13    1.05    0.15
  -1   3 -13    1.30    0.78
   1   3  13   -0.17    1.26
   3  -3  13   11.83    0.65
  -3  -3 -13   11.98    0.64
   3   3  13   11.67    0.66
   3   3  13   12.19    2.40
   5  -3  13    0.67    0.23
   5   3  13    2.14    1.93
   5   3  13    0.35    0.15
   5   3  13    1.35    1.66
   7  -3  13    7.42    0.57
   7   3  13    7.71    0.54
   7   3  13    7.51    0.52
   7   3  13    4.94    2.21
   7   3  13    5.60    2.68
   9   3  13    4.13    0.42
   9   3  13    4.52    0.46
  11  -3  13    2.23    0.45
 -11  -3 -13    1.66    0.40
  11   3  13    2.45    0.59
  14  -4 -13    5.59    0.94
  14  -4 -13    5.51    0.71
 -14  -4  13    5.70    0.82
  12  -4 -13   18.47    1.12
 -12  -4  13   20.71    1.17
  12  -4 -13   18.26    1.06
  10  -4 -13    1.01    0.26
  10  -4 -13    0.97    0.29
 -10  -4  13    0.80    0.33
  10  -4 -13    6.20    3.12
 -10   4  13    1.69    2.68
  -8  -4  13    0.84    0.26
   8  -4 -13    2.74    2.67
  -8   4  13    1.68    2.16
   8   4 -13    1.45    0.30
   6  -4 -13   -0.90    2.70
   6  -4 -13    0.49    0.20
  -6  -4  13    0.72    0.24
   6   4 -13    0.46    0.21
   4  -4 -13    0.46    0.20
  -4  -4  13    0.13    0.17
   4  -4 -13    0.11    0.16
   4   4 -13    0.42    0.18
  -4   4  13    0.18    1.70
   4   4 -13   -0.48    1.66
   4   4 -13    0.04    0.28
   2  -4 -13   -0.39    2.76
   2  -4 -13    0.03    0.17
  -2  -4  13    0.72    0.22
   2  -4 -13    0.42    0.16
   2   4 -13    0.34    0.15
   2   4 -13    2.04    1.67
   0  -4  13    2.53    1.02
   0   4 -13    1.55    1.16
   0   4  13    3.41    1.66
   2  -4  13    6.66    0.55
   2   4  13    7.52    2.10
  -4  -4 -13   20.94    1.14
   4  -4  13   22.24    1.11
   4   4  13   23.58    1.10
   4   4  13   23.09    3.74
   6  -4  13   19.33    1.06
   6   4  13   19.33    1.00
   6   4  13   20.09    1.02
   8  -4  13    2.66    0.49
   8   4  13    2.56    0.44
   8   4  13    2.50    0.46
 -11  -5  13    2.77    0.73
  11  -5 -13    4.44    0.71
  11  -5 -13    4.97    0.64
  11   5 -13    4.88    0.61
   9  -5 -13    7.10    0.64
   9  -5 -13    6.95    0.72
  -9  -5  13    6.71    0.74
   7  -5 -13    8.65    0.66
   7  -5 -13    7.86    0.70
  -7  -5  13    8.14    0.70
  -7   5  13   14.34    5.17
  -5  -5  13    4.80    0.55
   5  -5 -13    4.75    0.71
  -5   5  13    6.62    2.48
   5   5 -13    4.78    0.48
   3  -5 -13   11.82    0.74
   3   5 -13   17.75    3.92
  -3   5  13   14.60    3.67
   1  -5 -13   11.96    0.74
  -1   5  13   11.71    2.70
  -1  -5 -13   20.27    1.04
  -1   5 -13   17.35    1.63
  -1   5 -13   21.26    1.91
   3   5  13    0.73    2.75
   5  -5  13    7.74    0.69
   5   5  13    7.00    0.61
   7  -5  13    0.72    0.38
  -6  -6  13    2.15    0.51
   6  -6 -13    2.17    0.56
   4  -6 -13    4.25    0.59
   4   6 -13    3.91    0.65
  16   0 -14   10.86    0.78
 -14   0  14  387.74   17.90
  14   0 -14  378.66   14.32
  14   0 -14  383.18   14.28
  12   0 -14   19.43    1.01
  12   0 -14   19.04    1.02
 -10   0  14  640.39   25.14
  10   0 -14  586.14   22.36
  10   0 -14  593.34   22.33
   8   0 -14   86.89    3.34
   8   0 -14   81.57    3.35
  -8   0  14   82.14    5.58
   6   0 -14  396.23   15.08
  -6   0  14  424.00   17.27
   6   0 -14  386.24   15.10
  -6   0  14  397.53   15.08
   6   0 -14  433.94   15.09
  -4   0  14  134.63    6.95
   4   0 -14  136.63    5.25
  -4   0  14  142.37    5.24
   4   0 -14  136.30    5.23
  -2   0  14   12.74    0.63
   2   0 -14   11.76    0.62
   0   0  14   87.37    3.40
   0   0  14   90.72    3.41
   2   0  14    7.17    0.40
   2   0  14    6.66    0.38
  -2   0 -14    3.17    1.15
   2   0  14    6.09    0.40
   4   0  14  123.22    4.66
   4   0  14  130.25    4.67
  -4   0 -14  120.49    5.78
   4   0  14  121.30    4.73
   6   0  14   33.57    1.40
   6   0  14   34.04    1.50
   6   0  14   33.57    1.47
   6   0  14   36.52    1.42
   8   0  14  371.93   12.92
   8   0  14  345.74   13.05
   8   0  14  333.21   14.01
   8   0  14  346.82   12.89
  10   0  14   53.62    2.30
  17  -1 -14   66.77    2.81
 -15  -1  14   43.02    7.09
  15  -1 -14   43.78    1.98
  15  -1 -14   44.16    2.02
  15   1 -14   49.84    6.58
  15   1 -14   43.08    1.99
 -15   1  14   48.57    6.77
  13  -1 -14  176.72    6.86
  13  -1 -14  173.94    6.91
 -13  -1  14  206.42   10.75
 -13   1  14  182.45   10.24
  13   1 -14  171.75    6.89
  11  -1 -14  237.88    9.21
  11  -1 -14  245.98    9.18
 -11  -1  14  247.01   12.21
 -11   1  14  247.84   11.94
  11   1 -14  240.35    9.20
  -9  -1  14  101.19    6.51
   9  -1 -14  110.96    4.22
   9  -1 -14   96.80    4.05
   9   1 -14  101.03    4.04
  -9   1  14  102.75    6.50
   7  -1 -14  349.83   12.93
  -7  -1  14  356.51   12.94
   7  -1 -14  332.49   12.95
   7   1 -14  344.46   12.91
   7   1 -14  354.08   12.90
   7   1 -14  340.81   12.94
  -7   1  14  354.47   15.08
  -5  -1  14   15.75    2.75
   5  -1 -14   13.15    0.70
  -5  -1  14   14.34    0.74
   5  -1 -14   13.07    0.73
   5   1 -14   13.41    0.70
  -5   1  14   12.97    0.70
   5   1 -14   13.54    0.72
  -5   1  14   11.41    2.31
  -3  -1  14  148.69    5.33
  -3  -1  14  150.62    5.43
   3  -1 -14  136.32    5.43
   3  -1 -14  136.76    5.42
  -3   1  14  141.77    5.41
   3   1 -14  140.29    5.43
   3   1 -14  151.16    5.43
  -3   1  14  138.83    6.96
   1  -1 -14   44.61    1.96
  -1  -1  14   51.02    1.91
  -1  -1  14   50.91    1.96
   1   1 -14   42.12    3.10
  -1   1  14   49.63    1.96
  -1   1  14   49.25    1.94
   1   1 -14   51.34    1.96
  -1   1  14   48.12    3.33
   1  -1  14   21.36    2.27
   1  -1  14   24.23    1.03
   1   1  14   25.57    1.04
  -1   1 -14   22.45    2.04
   1   1  14   24.47    1.05
   1   1  14   23.77    1.08
   3  -1  14   53.57    2.21
  -3  -1 -14   54.81    2.20
   3  -1  14   56.63    2.23
   3   1  14   57.51    2.20
   3   1  14   57.44    2.26
   3   1  14   55.62    2.21
   5  -1  14  144.35    5.24
   5  -1  14  140.55    5.58
   5  -1  14  133.34    5.92
   5   1  14  139.60    5.38
   5   1  14  142.30    5.30
   5   1  14  142.35    5.29
  -7  -1 -14  154.17    5.77
   7  -1  14  155.80    6.11
   7  -1  14  154.86    5.68
   7   1  14  160.53    5.77
   7   1  14  153.03    5.87
   7   1  14  141.66    5.74
   7   1  14  152.00    5.78
   9  -1  14   88.03    3.60
   9   1  14   88.82    3.61
   9   1  14   93.02    3.54
  11   1  14  262.70    9.42
  11   1  14  229.79    9.34
  16  -2 -14    7.23    0.70
  16  -2 -14    6.09    0.94
  14  -2 -14  222.34    8.51
  14  -2 -14  238.39    8.96
 -14   2  14  203.80   12.69
  12  -2 -14   34.92    5.35
 -12  -2  14   45.65    5.94
 -12   2  14   39.88    5.12
  12   2 -14   43.13    1.86
  12   2 -14   36.61    7.21
  10  -2 -14  450.11   19.86
  10  -2 -14  464.22   17.00
 -10  -2  14  469.49   19.96
  10  -2 -14  461.36   17.04
 -10   2  14  489.37   19.78
  10   2 -14  416.20   17.04
   8  -2 -14   73.99    2.97
   8  -2 -14   72.46    3.01
   8  -2 -14   65.64    6.14
  -8  -2  14   78.17    5.50
   8   2 -14   75.16    2.97
   6  -2 -14  339.50   12.88
  -6  -2  14  341.31   12.84
   6  -2 -14  356.18   12.86
   6  -2 -14  326.63   15.14
   6   2 -14  355.11   12.87
   6   2 -14  351.08   12.81
  -6   2  14  344.43   14.83
   4  -2 -14  109.53    6.34
   4  -2 -14  108.79    4.05
  -4  -2  14  100.98    4.01
   4  -2 -14  101.05    4.06
  -4   2  14  100.47    5.74
   4   2 -14  100.57    4.03
   4   2 -14  110.95    4.01
  -2  -2  14   82.48    3.03
  -2  -2  14   77.09    3.10
   2  -2 -14   77.66    3.16
   2  -2 -14   80.08    3.15
  -2   2  14   81.37    3.12
  -2   2  14   82.80    4.76
  -2   2  14   81.25    3.18
   2   2 -14   83.01    3.11
   0  -2  14    7.63    0.40
   0  -2 -14    6.56    0.43
   0  -2 -14    6.40    0.44
   0   2 -14    8.25    1.63
   0   2  14    8.34    2.59
   0   2 -14    7.55    0.39
   0   2 -14    7.06    0.40
   2  -2  14    7.16    0.43
  -2  -2 -14    6.67    0.52
   2  -2  14    7.10    0.36
   2   2  14    6.52    0.44
   2   2  14    6.97    0.46
   2   2  14    5.48    1.52
  -2   2 -14    7.63    1.52
   4  -2  14  101.11    3.93
   4  -2  14   95.16    4.48
  -4  -2 -14  103.72    3.92
   4   2  14  107.22    3.99
   6  -2  14   22.01    1.06
  -6  -2 -14   21.79    1.01
   6   2  14   22.67    1.08
  -8  -2 -14  260.38    9.58
   8  -2  14  246.52    9.58
   8   2  14  265.59    9.51
   8   2  14  245.20    9.60
  10  -2  14   35.49    1.65
  10   2  14   34.50    1.63
  15  -3 -14   41.19    1.93
  15  -3 -14   43.66    2.12
  13  -3 -14  154.56    6.07
  13  -3 -14  156.09    6.15
  13   3 -14  160.26    6.12
  11  -3 -14  166.61   10.24
 -11  -3  14  193.36   10.73
  11   3 -14  205.76   12.89
 -11   3  14  176.93    9.97
   9  -3 -14   58.39    2.42
  -9  -3  14   52.81    5.23
   9   3 -14   58.19    2.43
   7  -3 -14  366.70   14.28
   7  -3 -14  332.13   14.11
   7  -3 -14  388.67   16.69
   7   3 -14  388.09   16.67
   7   3 -14  392.79   13.85
  -7   3  14  367.29   16.03
  -5  -3  14   25.62    1.23
   5  -3 -14   28.11    1.28
   5  -3 -14   28.09    1.31
   5   3 -14   27.41    1.22
   5   3 -14   31.02    1.29
  -5   3  14   27.71    3.26
   3  -3 -14   89.34    3.59
  -3  -3  14   93.44    3.49
   3  -3 -14   90.77    3.56
   3   3 -14   93.03    3.48
   3   3 -14   87.34    5.50
   3   3 -14   87.16    3.52
  -3   3  14   96.61    5.50
  -1  -3  14   10.15    0.52
   1  -3 -14    9.42    0.58
  -1  -3  14    9.37    0.48
   1  -3 -14    9.50    0.57
  -1   3  14   12.45    2.41
   1   3 -14    9.26    0.48
   1   3 -14    9.75    2.16
   1  -3  14   11.57    0.63
  -1  -3 -14   12.04    0.66
  -1   3 -14   10.90    1.54
   1   3  14   13.04    2.58
  -3  -3 -14   38.68    1.67
   3  -3  14   38.74    1.66
   3   3  14   40.70    1.72
   3   3  14   42.21    3.77
  -5  -3 -14  151.24    5.41
   5  -3  14  140.12    5.37
   5   3  14  140.73    7.55
   5   3  14  136.81    5.40
   5   3  14  128.09    7.27
   7  -3  14   99.13    3.95
   7   3  14   91.30    6.28
   7   3  14   98.48    3.95
   7   3  14  105.68    3.91
  -9  -3 -14   70.56    2.80
   9  -3  14   66.45    2.86
   9   3  14   67.02    2.85
   9   3  14   69.84    2.79
  12  -4 -14   19.76    1.19
  12  -4 -14   20.47    1.15
 -12  -4  14   20.72    1.20
  10  -4 -14  371.51   13.74
  10  -4 -14  370.88   13.67
  10  -4 -14  378.89   21.11
 -10  -4  14  361.03   13.70
 -10   4  14  347.09   16.60
  -8  -4  14   37.17    5.49
  -8   4  14   39.10    4.55
   8   4 -14   39.68    1.75
   6  -4 -14  183.75    6.98
   6  -4 -14  180.41    7.44
  -6   4  14  170.63   10.19
   6   4 -14  192.23    6.99
   4  -4 -14   75.59    3.09
   4  -4 -14   76.30    3.05
  -4  -4  14   75.17    2.95
   4   4 -14   77.17    3.05
   4   4 -14   73.82    5.46
   2  -4 -14   35.77    1.65
  -2  -4  14   36.64    1.49
   2   4 -14   41.09    3.73
   2   4 -14   37.94    1.50
   0   4 -14    1.74    1.57
  -2  -4 -14    0.53    0.20
   2  -4  14    0.53    0.29
   2   4  14    1.62    2.02
   4  -4  14   67.65    2.73
  -4  -4 -14   66.04    2.72
   4   4  14   71.66    5.52
   4   4  14   64.88    2.73
   6  -4  14   17.64    0.97
   6   4  14   15.63    0.93
   6   4  14   15.40    0.88
   8  -4  14  193.27    7.53
   8   4  14  197.03    7.75
   8   4  14  196.17    7.47
 -11  -5  14  143.25    5.78
  11  -5 -14  145.36    5.85
  11   5 -14  150.31    5.99
   9  -5 -14   63.49    2.99
  -9  -5  14   62.03    2.68
   9  -5 -14   60.33    2.62
  -7  -5  14  203.44    7.51
   7  -5 -14  194.24    7.54
   7  -5 -14  189.60    7.47
   5  -5 -14    9.27    0.91
  -5   5  14    5.62    2.71
   3  -5 -14   67.57    2.71
   3  -5 -14   65.96    2.92
   3   5 -14   65.73    2.71
  -3   5  14   54.65    5.31
   1  -5 -14    3.43    3.65
   1   5 -14    2.05    1.93
  -1   5  14   -3.84    2.41
  -1  -5 -14    0.85    0.36
   1   5  14   -1.66    2.60
  -1   5 -14    1.74    0.74
  -3  -5 -14   21.87    1.17
   3   5  14   20.54    1.07
   3   5  14   12.40    4.48
   5  -5  14   59.04    2.38
  -5  -5 -14   55.58    2.49
   5   5  14   52.09    2.35
  14   0 -15    0.23    0.26
 -14   0  15   -4.56    3.30
  12   0 -15    0.08    0.21
 -10   0  15    3.29    2.13
   8   0 -15    1.75    1.92
  -8   0  15   -0.28    1.75
   8   0 -15    0.04    0.16
   8   0 -15    0.03    0.14
  -6   0  15    0.85    1.32
   6   0 -15   -0.05    0.15
   6   0 -15    0.04    0.13
  -6   0  15   -0.12    0.20
   6   0 -15    0.07    0.19
  -4   0  15    0.54    0.18
  -4   0  15    0.17    1.28
  -2   0  15    0.25    0.14
   0   0  15    0.16    0.13
   0   0  15    0.14    0.11
   2   0  15    0.09    0.12
   2   0  15    0.33    0.14
   2   0  15   -0.19    1.04
   2   0  15    0.36    0.14
  -4   0 -15    0.88    1.07
   4   0  15   -0.08    0.12
   4   0  15    0.23    0.14
   6   0  15    0.24    0.13
   6   0  15   -0.03    0.15
   6   0  15    1.10    0.26
   6   0  15    0.02    0.17
   8   0  15    0.11    0.15
   8   0  15   -0.02    0.16
  -8   0 -15    0.21    0.13
  10   0  15    0.09    0.21
 -15  -1  15    4.01    4.41
 -15   1  15    1.69    5.84
  13  -1 -15    0.77    0.30
  13  -1 -15    1.22    0.29
 -13  -1  15    0.87    3.02
  13   1 -15    0.88    0.27
  13   1 -15   -2.18    2.90
 -13   1  15    0.97    2.91
 -11  -1  15   -3.42    2.41
  11  -1 -15    0.21    0.22
  11  -1 -15   -0.21    0.18
  11   1 -15   -0.14    0.18
 -11   1  15   -2.52    2.26
  -9  -1  15    5.20    2.35
   9  -1 -15    3.74    0.45
   9  -1 -15    4.56    0.45
   9   1 -15    4.17    0.43
  -9   1  15    3.93    2.12
   9   1 -15    5.31    0.46
  -7  -1  15    6.11    0.54
  -7  -1  15    7.21    2.10
   7  -1 -15    6.87    0.50
   7  -1 -15    7.55    2.21
   7  -1 -15    6.73    0.53
  -7   1  15    5.50    1.92
   7   1 -15    6.90    0.50
   5  -1 -15    1.43    0.27
  -5  -1  15    1.03    0.31
   5  -1 -15    1.01    0.27
   5   1 -15    0.76    0.20
  -5   1  15    1.88    1.43
   5   1 -15    1.06    0.26
  -3  -1  15    0.95    0.22
  -3  -1  15    0.86    0.19
   3  -1 -15    0.81    0.22
   3  -1 -15    0.76    0.22
  -3   1  15    0.95    0.25
   3   1 -15    0.90    0.24
   3   1 -15    1.04    0.29
  -1  -1  15    0.94    0.25
  -1  -1  15    0.76    0.18
   1   1 -15    1.05    0.28
  -1   1  15    1.03    0.23
  -1   1  15    0.95    0.24
  -1  -1 -15    0.19    0.19
   1  -1  15    0.23    0.14
   1  -1  15    0.21    0.13
  -1   1 -15   -0.54    0.87
   1   1  15    0.08    0.12
   1   1  15    0.26    0.13
   1   1  15    0.15    0.14
   3  -1  15    0.66    0.17
   3  -1  15    0.63    0.15
   3   1  15    0.83    0.19
   3   1  15    0.87    0.25
   3   1  15    0.76    0.18
   5  -1  15    2.92    0.33
   5   1  15    3.03    0.33
   5   1  15    2.76    0.33
   5   1  15    3.00    0.36
   5   1  15    2.76    1.34
   7  -1  15    1.15    0.29
   7   1  15    1.06    0.28
   7   1  15    1.52    0.26
   7   1  15    2.98    1.76
  -9  -1 -15    0.53    0.26
   9  -1  15    0.97    0.27
   9   1  15    1.33    0.33
  11   1  15    0.20    0.23
  16  -2 -15    1.71    0.40
  14  -2 -15   14.98    0.94
  14  -2 -15   16.41    1.04
  12  -2 -15    1.70    0.42
 -12  -2  15   -2.80    2.95
  12  -2 -15    2.59    3.34
  12   2 -15    2.21    0.42
 -12   2  15    1.38    2.90
  10  -2 -15    3.58    0.47
 -10  -2  15   -0.02    2.41
  10  -2 -15    2.93    0.43
 -10   2  15    1.87    2.23
  10   2 -15    2.47    2.89
   8  -2 -15    5.50    0.56
  -8  -2  15    3.30    2.16
   8  -2 -15   14.49    3.58
   8   2 -15    6.44    0.51
   6  -2 -15    1.56    0.31
  -6  -2  15    0.64    0.25
   6  -2 -15    0.57    0.19
   6   2 -15    0.65    0.29
  -6   2  15    1.85    1.67
   4  -2 -15   19.07    0.96
   4  -2 -15   19.35    0.94
  -4  -2  15   18.44    0.79
  -4  -2  15   19.09    0.94
   4  -2 -15   16.18    3.38
   4   2 -15   20.10    0.94
   4   2 -15   18.09    3.68
   4   2 -15   20.87    0.93
  -4   2  15   20.28    2.81
   4   2 -15   18.91    0.94
   2  -2 -15    1.06    0.24
   2  -2 -15    1.43    0.26
  -2  -2  15    0.94    0.22
  -2  -2  15    0.79    0.20
  -2   2  15    0.08    1.27
   2   2 -15    1.11    0.21
   2   2 -15    0.76    1.36
   2   2 -15    0.99    0.26
   0  -2 -15    0.32    0.14
   0  -2  15    0.47    0.15
   0  -2 -15    0.41    0.16
   0  -2  15    0.81    0.22
   0   2  15    0.40    0.18
   0   2  15    0.35    1.20
   0   2 -15    0.61    0.15
  -2  -2 -15    1.45    0.24
   2  -2  15    1.05    0.24
   2  -2  15    1.25    0.20
   2   2  15    1.40    0.25
  -2   2 -15    1.83    0.85
  -4  -2 -15    2.49    0.29
   4  -2  15    2.49    0.30
   4   2  15    2.41    0.31
  -6  -2 -15    1.16    0.26
   6  -2  15    1.27    0.30
   6   2  15    1.10    0.27
   8  -2  15   11.20    0.72
   8   2  15   11.60    0.73
  10   2  15    0.72    0.27
  15  -3 -15    3.73    0.69
  13  -3 -15    0.24    0.35
  13  -3 -15   -0.15    0.30
 -11   3  15   -1.19    2.88
  -9  -3  15    1.87    2.52
   9  -3 -15    1.14    0.29
   9  -3 -15    1.44    0.30
  -9   3  15    1.82    2.44
   9   3 -15    1.47    0.36
   7  -3 -15    1.88    0.38
   7  -3 -15    2.70    0.41
   7   3 -15    1.52    2.55
  -7   3  15    3.56    2.11
   7   3 -15    2.99    0.39
   5  -3 -15    7.21    0.54
   5  -3 -15    7.19    2.83
   5  -3 -15    6.19    0.53
  -5  -3  15    6.15    0.50
   5   3 -15    6.85    0.49
  -3  -3  15    2.48    0.31
   3   3 -15    1.62    1.72
  -3   3  15    1.62    1.61
   3   3 -15    2.35    0.31
   3   3 -15    2.69    0.31
  -1  -3  15    9.69    0.49
   1  -3 -15    7.81    0.74
  -1  -3  15    9.81    0.73
  -1   3  15    9.49    2.56
   1   3 -15    9.98    0.50
   1   3 -15   11.21    2.39
  -1  -3 -15    6.50    0.47
   1  -3  15    6.12    0.45
   1   3  15    5.63    1.82
  -1   3 -15    6.22    0.34
  -1   3 -15   10.52    1.57
   3  -3  15    0.00    0.19
   3   3  15   -0.24    1.81
   3   3  15    0.24    0.15
   5  -3  15    4.63    0.45
   5   3  15    4.73    2.05
   5   3  15    4.73    2.49
   5   3  15    4.12    0.40
   7  -3  15    8.64    0.64
   7   3  15    8.79    0.62
   7   3  15    8.63    0.60
  -9  -3 -15    0.91    0.50
   9  -3  15    0.47    0.28
   9   3  15    1.62    0.45
  12  -4 -15    2.33    0.61
  10  -4 -15    7.81    0.75
  10  -4 -15    7.07    0.67
   8  -4 -15   29.17    1.56
   8  -4 -15   28.09    1.56
  -8   4  15   28.00    4.74
   8   4 -15   31.21    1.51
  -6   4  15    2.48    2.34
   4  -4 -15   22.22    1.09
   4  -4 -15   21.79    1.12
  -4  -4  15   20.72    0.99
  -4   4  15   14.25    3.55
   4   4 -15   24.54    3.99
   2  -4 -15    8.16    0.57
   2  -4 -15    7.58    0.60
  -2  -4  15    7.56    0.46
   2   4 -15    7.73    0.47
  -2   4  15    5.90    2.26
   2   4 -15    5.17    2.11
   0   4 -15    6.98    1.56
  -2  -4 -15    9.82    0.65
   2   4  15    7.49    2.46
   4  -4  15   11.08    0.73
  -4  -4 -15   11.07    0.72
   4   4  15   10.44    0.67
  -6  -4 -15   -0.16    0.25
   6  -4  15    0.04    0.30
   6   4  15    0.10    0.24
   6   4  15    0.15    0.19
   9  -5 -15   -0.41    0.37
   9  -5 -15    0.73    0.35
   9   5 -15    0.17    0.34
   7  -5 -15    0.22    0.33
   7  -5 -15    0.13    0.28
   5  -5 -15   13.29    0.86
  -5   5  15   11.73    3.34
   3  -5 -15    0.98    0.30
   3  -5 -15    2.20    0.46
  -3   5  15   -0.61    2.66
   1  -5 -15    9.31    0.73
   1   5 -15   14.54    4.24
  -1   5  15   15.79    4.28
   3   5  15    0.25    0.18
   5  -5  15    1.36    0.44
   5   5  15    0.99    0.45
  16   0 -16  100.95    4.13
  14   0 -16   72.99    3.01
  14   0 -16   71.84    3.05
 -14   0  16   73.14    7.65
  12   0 -16   93.52    3.76
 -12   0  16   98.15    7.34
  12   0 -16   90.92    3.76
  10   0 -16    2.22    0.40
 -10   0  16   -1.27    2.30
  -8   0  16   37.69    4.15
   8   0 -16   36.26    1.61
   8   0 -16   35.24    1.64
  -6   0  16  257.63   12.05
   6   0 -16  261.72    9.84
  -6   0  16  254.34    9.79
   6   0 -16  270.79    9.81
  -4   0  16   47.17    1.96
  -2   0  16  523.59   19.14
  -2   0  16  515.34   19.11
   0   0 -16  150.66    5.68
   0   0  16  158.22    5.71
   0   0  16  152.15    5.70
   0   0 -16  143.21    5.71
   2   0  16  295.36   10.47
   2   0  16  285.84   10.45
   2   0  16  259.24   12.19
  -2   0 -16  278.57   10.45
  -2   0 -16  289.11   12.02
   4   0  16  181.80    6.60
   4   0  16  176.24    6.95
  -4   0 -16  179.03    6.58
  -4   0 -16  173.60    7.97
   4   0  16  169.97    6.58
   6   0  16   83.00    2.98
   6   0  16   76.57    3.10
   6   0  16   65.98    4.17
   6   0  16   79.77    3.00
   6   0  16   76.08    2.98
 -15  -1  16    0.54    6.94
  15  -1 -16    0.56    0.30
  13  -1 -16   61.33    2.71
 -13  -1  16   63.39    7.10
  13  -1 -16   63.94    2.66
  13   1 -16   63.88    2.76
 -13   1  16   66.52    6.57
 -11  -1  16    6.47    2.87
  11  -1 -16    6.07    0.60
  11  -1 -16    6.86    0.58
  11   1 -16    6.73    0.57
 -11   1  16   11.49    5.28
  11   1 -16    6.68    3.06
  11   1 -16    7.45    0.59
   9  -1 -16    6.35    0.55
   9  -1 -16    5.43    0.51
   9  -1 -16    9.98    2.95
  -9  -1  16    6.62    2.64
  -9   1  16    4.61    2.32
   9   1 -16    6.07    0.62
   9   1 -16    5.33    0.73
   7  -1 -16   22.75    1.12
  -7  -1  16   24.41    3.47
   7  -1 -16   21.52    1.14
   7   1 -16   23.08    1.10
  -7   1  16   21.35    3.33
   7   1 -16   22.65    1.12
   5  -1 -16   26.20    1.28
  -5  -1  16   29.41    1.28
   5  -1 -16   27.10    1.26
   5   1 -16   27.76    1.25
  -5   1  16   23.46    3.10
   5   1 -16   28.13    1.25
   5   1 -16   26.81    1.27
  -3  -1  16  264.16   10.02
   3  -1 -16  270.88   10.13
  -3  -1  16  281.95   10.13
  -3   1  16  265.04   12.02
   3   1 -16  265.06   10.10
  -3   1  16  264.46   10.12
   3   1 -16  287.89   10.13
   1  -1 -16   20.55    1.01
  -1  -1  16   19.40    2.76
  -1  -1  16   24.09    1.02
  -1   1  16   21.67    0.99
   1   1 -16   23.69    1.03
   1   1 -16   20.64    0.99
  -1   1  16   21.80    1.01
   1  -1  16  482.65   17.56
   1  -1  16  487.46   17.56
  -1  -1 -16  457.77   17.57
   1   1  16  481.04   17.56
  -1   1 -16  477.97   18.80
   1   1  16  484.47   17.57
   1   1  16  466.21   17.61
   3  -1  16    4.09    0.34
   3  -1  16    4.46    0.36
  -3   1 -16    7.16    1.73
   3   1  16    4.38    0.40
   3   1  16    3.91    0.36
   5  -1  16  193.14    9.63
  -5  -1 -16  236.38    8.42
   5  -1  16  227.68    8.49
   5  -1  16  232.33    8.36
   5   1  16  237.16    8.53
   5   1  16  222.16    8.43
   7  -1  16    3.04    0.38
  -7  -1 -16    2.81    0.32
   7   1  16    2.68    0.37
   7   1  16    2.42    0.32
   9  -1  16    5.88    0.58
  -9  -1 -16    6.22    0.59
   9   1  16    5.86    0.54
  14   2 -16   54.96    2.53
  12  -2 -16   47.64    2.28
 -12  -2  16   56.20    6.62
  12  -2 -16   48.02    2.14
  12   2 -16   49.96    6.22
  12   2 -16   49.93    2.17
 -12   2  16   49.46    5.99
 -10  -2  16   -0.88    2.61
  10  -2 -16    2.47    0.43
  10  -2 -16    1.52    0.33
   8  -2 -16   26.64    1.27
  -8  -2  16   25.11    4.08
   8  -2 -16   25.70    1.30
   8   2 -16   25.52    1.25
   8   2 -16   20.77    5.35
   6  -2 -16  258.77    9.61
   6  -2 -16  241.50    9.61
  -6   2  16  254.20   11.81
   6   2 -16  262.39    9.55
  -4  -2  16   41.65    1.74
   4  -2 -16   53.35    2.02
   4  -2 -16   42.62    1.94
  -4  -2  16   42.56    1.89
   4   2 -16   45.62    1.88
  -4   2  16   44.72    3.95
   4   2 -16   48.39    1.92
   2  -2 -16  410.73   15.72
   2  -2 -16  429.44   15.70
  -2  -2  16  418.83   15.56
  -2  -2  16  412.87   15.64
   2   2 -16  403.20   17.35
   2   2 -16  417.15   15.63
   2   2 -16  412.09   15.65
  -2   2  16  471.98   17.86
   2   2 -16  444.25   15.65
   0  -2 -16  166.77    5.96
   0  -2 -16  154.48    5.92
   0  -2  16  157.71    5.85
   0  -2  16  148.76    5.84
   0   2 -16  156.75    5.85
   0   2  16  153.13    7.79
   0   2 -16  154.75    7.16
   2  -2  16  206.68    7.57
  -2  -2 -16  189.75    9.87
  -2  -2 -16  207.94    7.69
   2  -2  16  205.99    7.65
  -2   2 -16  196.57    7.58
   2   2  16  211.78    7.74
  -2   2 -16  210.10    8.54
   4  -2  16  189.98    6.85
  -4  -2 -16  162.93    6.99
   4   2  16  189.79    6.91
   6  -2  16   74.10    3.01
  -6  -2 -16   75.05    2.96
   6   2  16   74.92    3.05
   8  -2  16   38.56    1.80
   8   2  16   42.18    1.75
   8   2  16   40.63    1.84
  13  -3 -16   81.49    3.26
  13  -3 -16   76.62    3.30
  13   3 -16   75.32    3.25
  11  -3 -16    1.47    0.50
 -11   3  16   -3.34    3.07
   9  -3 -16    4.49    0.57
  -9  -3  16    5.83    2.97
   9  -3 -16    5.47    0.56
   9   3 -16    5.07    0.51
  -9   3  16    4.04    2.73
   7  -3 -16   28.86    1.50
   7  -3 -16   33.79    1.50
  -7   3  16   33.52    4.47
   7   3 -16   32.39    1.66
  -5  -3  16   26.49    1.26
   5  -3 -16   29.55    1.36
  -5   3  16   23.73    4.02
   3  -3 -16  208.12    7.66
   3  -3 -16  197.09    7.66
  -3  -3  16  199.96    7.53
   3   3 -16  185.75    9.63
  -3   3  16  206.81    9.87
   3   3 -16  208.11    7.57
   3   3 -16  201.93    7.55
  -1  -3  16   17.62    0.78
   1  -3 -16   16.96    0.89
   1  -3 -16   16.16    0.89
  -1   3  16   12.86    3.00
   1   3 -16   15.63    2.62
   1   3 -16   17.88    0.79
  -1  -3 -16  350.90   12.62
   1  -3  16  325.92   12.54
   1   3  16  339.54   14.72
   3  -3  16    1.11    0.33
   3   3  16    1.05    1.96
  -5  -3 -16  141.11    6.12
   5  -3  16  161.27    5.89
   5   3  16  157.31    5.93
   5   3  16  152.30    8.25
  -7  -3 -16    5.96    0.55
   7  -3  16    5.31    0.54
   7   3  16    5.44    0.51
   7   3  16    6.59    0.54
  12  -4 -16   35.15    1.77
  12  -4 -16   36.67    2.34
  12   4 -16   38.68    2.17
  10  -4 -16    1.10    0.34
  10  -4 -16    1.62    0.44
   8  -4 -16   12.62    0.94
  -8   4  16   13.54    3.42
   6  -4 -16  152.64    5.94
   6  -4 -16  145.88    5.98
  -6   4  16  163.69    9.01
   6   4 -16  156.66    5.91
   4  -4 -16   14.78    0.87
   4  -4 -16   13.18    0.82
  -4  -4  16   13.05    0.74
   4   4 -16   12.12    3.03
   2  -4 -16  317.11   14.82
   2  -4 -16  313.66   11.78
   2   4 -16  295.47   13.49
  -2   4  16  330.55   14.26
   2   4 -16  311.84   11.62
   0  -4 -16   66.75    2.70
   0   4 -16   65.58    3.88
   0   4  16   58.60    6.76
  -2  -4 -16  189.34    7.23
   2   4  16  179.24    7.24
   2   4  16  216.67   13.19
   4  -4  16  120.59    4.60
   4   4  16  114.74    4.62
   6  -4  16   56.70    2.48
   6   4  16   59.41    2.49
   9  -5 -16    2.42    0.65
   7  -5 -16   34.09    1.73
   5  -5 -16    7.18    4.52
   5  -5 -16   17.69    1.11
   5   5 -16   19.37    1.00
  -5   5  16   15.66    3.72
   3  -5 -16  164.09   12.56
   3  -5 -16  165.17    6.51
   3  -5 -16  174.28    6.46
  -3   5  16  151.40    9.34
   3   5 -16  170.42    6.30
   1  -5 -16   10.68    0.82
  -1   5  16   11.66    3.48
  16   0 -17    0.28    0.35
  14   0 -17    0.32    0.28
  14   0 -17    1.43    0.37
 -14   0  17    0.59    3.88
  12   0 -17    0.37    0.28
  12   0 -17   -5.16    3.16
 -12   0  17   -0.83    2.98
  10   0 -17    0.32    0.23
 -10   0  17   -1.55    2.40
   8   0 -17    0.19    0.23
   8   0 -17    0.10    0.33
  -8   0  17   -0.35    2.04
  -6   0  17    2.51    1.81
   4   0 -17   -0.07    0.14
  -4   0  17    0.25    0.21
  -2   0  17    0.00    0.12
  -2   0  17    0.05    0.17
   0   0  17    0.23    0.14
   0   0  17    0.11    0.17
   0   0 -17    0.00    0.12
   2   0  17    0.02    0.17
   2   0  17    0.12    0.14
  -2   0 -17    0.17    0.14
  -2   0 -17    0.03    0.12
  -4   0 -17    0.66    1.37
   4   0  17    0.11    0.18
   4   0  17    0.03    0.15
   4   0  17    0.14    0.19
   6   0  17    0.03    0.18
   6   0  17    0.03    0.16
  -8   0 -17    0.26    0.19
   8   0  17   -0.12    0.20
  13  -1 -17    0.64    0.31
 -13  -1  17   -0.62    3.66
  13   1 -17    6.44    3.69
 -13   1  17   -1.16    3.35
  13   1 -17    0.46    0.27
  13   1 -17    0.61    0.28
  11  -1 -17    1.70    0.42
  11  -1 -17    2.01    0.46
 -11  -1  17    3.10    3.16
  11   1 -17    2.13    0.43
 -11   1  17    8.21    2.89
  11   1 -17    1.49    0.41
  -9  -1  17    3.21    2.46
   9  -1 -17    2.65    0.45
  -9   1  17    1.88    2.42
  -7  -1  17   -0.34    1.90
   7  -1 -17    0.32    0.32
  -7   1  17   -0.94    1.82
   7   1 -17    0.41    0.21
  -5  -1  17    0.44    0.24
   5  -1 -17    0.03    0.16
   5  -1 -17    0.21    0.18
   5   1 -17    0.18    0.16
  -5   1  17    1.05    1.68
   3  -1 -17    2.78    0.34
   3  -1 -17    3.14    0.34
  -3  -1  17    2.81    0.39
  -3  -1  17    2.54    0.28
   3   1 -17    4.15    0.44
   3   1 -17    2.70    0.33
  -3   1  17    4.32    1.71
   1  -1 -17    0.40    0.15
  -1  -1  17    0.31    0.19
  -1  -1  17    0.57    0.15
   1  -1 -17    0.17    0.14
   1   1 -17    2.35    2.28
  -1   1  17    0.19    0.20
   1   1 -17    0.40    0.22
   1   1 -17    0.30    0.14
   1  -1  17    0.57    0.21
  -1  -1 -17    0.79    0.24
   1  -1  17    0.41    0.16
  -1   1 -17    0.29    1.20
   1   1  17    0.33    0.16
   3  -1  17    0.09    0.15
   3  -1  17    0.36    0.18
   3   1  17    0.15    0.15
  -3   1 -17    0.99    1.15
   5  -1  17    0.60    1.08
   5  -1  17   -0.20    0.15
  -5  -1 -17    0.07    0.15
   5   1  17    0.09    0.16
   7  -1  17    0.33    0.21
   7   1  17    0.04    0.19
   7   1  17    0.32    0.30
   9   1  17   -0.16    0.22
  14  -2 -17    1.14    0.39
  12  -2 -17    2.75    0.53
  12  -2 -17    2.64    0.57
 -12   2  17   -2.37    3.32
 -10  -2  17    6.41    2.99
  10  -2 -17    4.25    0.53
  10  -2 -17    3.00    0.53
  10   2 -17    3.95    3.59
  -8  -2  17    5.03    2.49
   8  -2 -17    0.99    0.29
  -8   2  17    1.05    2.25
   8   2 -17    1.71    0.38
   6  -2 -17    2.56    0.40
   6  -2 -17    2.22    0.39
  -6   2  17    1.62    1.96
   6   2 -17    1.52    0.41
   6   2 -17    2.36    0.38
   4  -2 -17    9.50    0.83
  -4  -2  17   11.42    0.69
  -4  -2  17   10.52    0.53
   4   2 -17   11.77    0.67
  -4   2  17    6.20    1.99
   2  -2 -17    0.19    0.18
   2  -2 -17    0.21    0.18
  -2  -2  17    0.26    0.16
  -2  -2  17    0.17    0.20
   2   2 -17    1.14    1.54
  -2   2  17   -0.05    1.62
   2   2 -17    0.48    0.16
   0  -2 -17   10.89    0.64
   0  -2 -17    8.91    2.24
   0  -2  17   10.60    0.58
   0  -2  17    9.96    0.55
   0  -2 -17    8.65    0.74
   0   2  17    7.93    2.07
   0   2 -17    8.24    1.78
   0   2 -17   11.43    0.59
   2  -2  17    1.23    0.23
  -2  -2 -17    1.32    0.29
   2  -2  17    0.93    0.20
  -2   2 -17    1.23    0.29
  -2   2 -17    1.85    1.14
   2   2  17    1.17    2.80
   2   2  17    1.10    0.26
   4  -2  17    2.58    0.34
   4  -2  17    2.17    0.87
   4   2  17    2.39    0.33
   6  -2  17    4.93    0.48
   6   2  17    5.28    0.48
   8  -2  17    1.86    0.39
   8   2  17    1.67    0.43
   8   2  17    1.82    0.38
  13  -3 -17    0.43    0.41
  11  -3 -17    2.31    0.57
 -11   3  17    4.79    3.60
  -9   3  17    2.44    2.94
   7  -3 -17    0.27    0.24
   7  -3 -17   -0.02    0.25
   7   3 -17    0.28    0.23
  -7   3  17   -0.75    2.39
   5  -3 -17    3.02    0.46
   5   3 -17    2.55    0.47
   5   3 -17    2.71    0.39
   3  -3 -17    5.98    0.53
  -3  -3  17    5.87    0.48
   3   3 -17    5.73    2.35
   3   3 -17    6.22    0.47
  -3   3  17    7.97    2.22
  -1  -3  17    0.27    0.18
   1  -3 -17    0.48    0.21
   1  -3 -17    1.02    3.48
   1  -3 -17    0.39    0.22
   1   3 -17   -0.43    1.42
  -1   3  17   -0.90    1.95
   1   3 -17    0.44    0.18
  -1  -3 -17    7.37    3.80
   1  -3  17    6.15    0.48
  -1   3 -17    4.88    1.30
   1   3  17    2.92    2.13
  -3  -3 -17   13.31    0.75
   3  -3  17   13.40    0.73
   3   3  17   11.68    0.74
   5  -3  17    0.58    0.26
   5   3  17    1.08    0.30
   7  -3  17    7.10    0.62
  -7  -3 -17    7.55    0.64
   7   3  17    6.62    0.59
  10  -4 -17    8.03    0.97
   8  -4 -17    4.75    0.62
  -8   4  17    3.70    3.22
   6  -4 -17   11.36    0.86
   6   4 -17   12.88    0.86
  -6   4  17   11.36    3.29
   4  -4 -17    6.70    0.65
   4  -4 -17    7.15    0.63
   2  -4 -17    5.73    0.56
   2  -4 -17    3.88    3.75
   2  -4 -17    6.66    0.72
   2   4 -17    5.41    2.35
  -2   4  17    5.45    2.65
   0  -4  17   29.59    2.88
   0  -4 -17   29.40    1.41
   0  -4 -17   31.34    8.96
   0   4 -17   27.72    2.87
   0   4  17   34.79    4.63
  -2  -4 -17    2.37    0.47
   2   4  17    2.13    0.34
   4  -4  17    6.67    0.65
  -4  -4 -17    7.90    0.78
   4   4  17    6.26    0.53
   5  -5 -17   -0.46    0.40
   3  -5 -17    6.77    0.80
  -3   5  17    7.88    3.78
  14   0 -18   19.58    1.12
 -14   0  18   16.58    5.23
  12   0 -18  164.96    6.43
 -12   0  18  162.92   10.24
  12   0 -18  169.71    6.88
  10   0 -18  195.47    7.52
 -10   0  18  198.30   10.77
  10   0 -18  193.14    7.46
   8   0 -18  166.83    6.52
   8   0 -18  167.06    6.58
  -8   0  18  178.96    9.56
   6   0 -18  306.51   11.71
  -6   0  18  320.39   14.27
   6   0 -18  310.54   11.67
   4   0 -18  101.33    4.01
   4   0 -18  102.43    3.99
   2   0 -18   18.22    0.92
  -2   0  18   19.77    0.91
   0   0  18   26.81    1.20
   0   0  18   25.73    1.18
   2   0  18   79.43    3.07
  -2   0 -18   78.69    3.05
   2   0  18   78.47    3.11
  -2   0 -18   75.45    4.88
   4   0  18    8.38    0.59
   4   0  18    9.90    0.62
  -4   0 -18    7.44    2.07
   4   0  18    9.56    0.61
   6   0  18  113.02    4.17
   6   0  18  105.66    4.32
  13  -1 -18  374.18   13.97
  13  -1 -18  377.07   13.90
  13   1 -18  372.83   13.88
 -13   1  18  353.89   17.57
 -11  -1  18    4.25    3.42
  11  -1 -18    6.04    3.47
  11  -1 -18    0.96    0.31
  11  -1 -18    1.31    0.35
 -11   1  18    0.65    2.88
  11   1 -18    1.00    0.32
  11   1 -18    1.93    0.45
  11   1 -18    1.80    3.36
   9  -1 -18  427.31   17.00
  -9  -1  18  464.60   20.13
  -9   1  18  471.24   20.04
   9   1 -18  464.33   16.96
  -7  -1  18   14.45    3.89
   7  -1 -18   18.65    1.02
   7  -1 -18   17.86    0.98
  -7   1  18   14.98    3.72
   7   1 -18   17.47    0.98
   5  -1 -18  214.51    8.54
  -5  -1  18  220.50    8.34
   5   1 -18  219.68   11.19
   5   1 -18  225.24    8.51
  -5   1  18  241.64   11.02
   5   1 -18  230.90    8.49
   3  -1 -18   44.11    1.88
   3  -1 -18   43.00    1.89
  -3  -1  18   43.39    1.77
  -3  -1  18   45.18    1.88
  -3   1  18   46.54    4.19
  -1  -1  18   58.74    2.24
   1  -1 -18   54.34    2.23
   1  -1 -18   51.32    2.23
  -1  -1  18   54.09    2.17
   1   1 -18   56.18    2.28
  -1   1  18   53.02    2.23
   1   1 -18   51.60    4.43
   1   1 -18   50.11    2.17
   1   1 -18   59.19    2.29
  -1  -1 -18    0.66    0.18
   1  -1  18    1.15    0.26
   1  -1  18    0.68    0.23
  -1   1 -18   -0.17    1.35
  -3  -1 -18    3.08    0.34
   3  -1  18    3.54    0.37
   3  -1  18    3.30    0.41
  -3   1 -18    3.33    1.46
   3   1  18    2.30    0.33
   5  -1  18  173.00    6.37
   5   1  18  158.90    6.84
  -7  -1 -18    0.33    0.21
   7  -1  18    1.50    0.36
   7   1  18    0.07    0.22
  12  -2 -18  198.73    8.01
  12  -2 -18  212.43    7.98
  12   2 -18  214.99    7.98
 -12   2  18  201.04   12.01
  10  -2 -18  161.36    6.43
  10  -2 -18  157.10    6.35
  10   2 -18  163.51    6.36
  10   2 -18  174.54    6.43
  -8  -2  18  131.57   10.70
   8  -2 -18  163.65    6.53
  -8   2  18  167.57    9.39
   8   2 -18  178.73    6.47
   8   2 -18  179.23    6.50
   6  -2 -18  218.99    8.79
  -6   2  18  238.61   11.39
   6   2 -18  238.88    8.80
   4  -2 -18   33.94    1.52
  -4  -2  18   32.88    1.50
   4  -2 -18   32.39    1.54
  -4   2  18   35.64    3.98
  -2  -2  18   31.98    1.34
  -2  -2  18   30.52    1.24
   2  -2 -18   22.45    4.06
   2  -2 -18   29.73    1.36
   2   2 -18   30.18    1.33
   2   2 -18   20.38    3.27
  -2   2  18   30.84    3.68
   0  -2  18    4.03    0.35
   0  -2  18    2.84    0.38
   0  -2 -18    2.39    0.37
   0  -2 -18    3.33    0.39
   0   2 -18    3.26    0.39
   0   2  18    2.84    0.35
   0   2 -18    3.92    1.60
   0   2  18    6.99    2.11
  -2  -2 -18   36.57    1.57
   2  -2  18   35.68    1.52
   2   2  18   35.09    1.58
  -2   2 -18   34.24    2.87
   4  -2  18   15.51    0.82
   4   2  18   14.86    0.85
   6  -2  18  111.10    4.40
   6   2  18  114.31    4.34
   6   2  18  109.46    4.44
   8  -2  18   86.23    3.53
  11  -3 -18    7.44    4.93
  11  -3 -18    1.17    0.40
  11  -3 -18    1.33    0.58
 -11   3  18   -0.80    3.71
   9  -3 -18  321.29   12.34
  -9   3  18  333.25   15.71
   7  -3 -18    9.77    0.80
   7  -3 -18    4.37    3.54
  -7   3  18    2.99    3.18
   7   3 -18   12.40    0.75
   5  -3 -18  173.65    6.75
  -5   3  18  170.61    9.35
   5   3 -18  178.91    6.64
   5   3 -18  172.06    6.64
   3  -3 -18   33.56    1.47
   3  -3 -18   30.28    1.47
  -3  -3  18   29.33    1.35
   3   3 -18   33.81    4.83
  -3   3  18   30.56    4.40
   3   3 -18   30.24    1.35
   1  -3 -18   41.18    2.19
  -1   3  18   45.78    4.59
   1   3 -18   41.17    3.80
   1   3 -18   46.22    1.82
   1  -3  18    0.06    0.24
   1   3  18    0.44    0.19
  -1   3 -18   -0.43    1.22
   3  -3  18    1.44    0.39
   3   3  18    2.38    0.34
   5  -3  18  109.27    4.30
  -5  -3 -18  112.69    4.40
   5   3  18  105.94    4.35
   8  -4 -18  103.03    4.26
  -8   4  18   87.08    7.86
   6  -4 -18  142.54    5.65
   6  -4 -18  126.33   12.13
   6  -4 -18  150.45    5.62
  -6   4  18  136.80    8.96
   4  -4 -18   30.05    1.70
   4  -4 -18   28.52    1.47
   4   4 -18   28.05    1.35
   2  -4 -18   17.22    0.99
  -2   4  18   13.84    3.46
   0   4 -18    4.00    1.70
  -2  -4 -18   29.20    1.55
   2   4  18   25.51    1.32
   4  -4  18   21.59    1.15
   4   4  18   20.36    1.11
   3  -5 -18   13.00    1.12
 -12   0  19    2.23    3.80
 -10   0  19    3.36    3.07
  -8   0  19   -0.19    2.66
   8   0 -19    0.35    0.23
   6   0 -19    0.21    0.25
   6   0 -19   -0.01    0.23
   6   0 -19   -1.60    2.27
   4   0 -19    0.03    0.19
   4   0 -19   -0.14    0.16
  -4   0  19   -1.66    1.86
   2   0 -19    0.03    0.17
  -2   0  19    0.16    0.16
   0   0  19    0.38    0.25
   0   0 -19    0.26    0.16
   0   0  19    0.44    0.17
   2   0  19    0.10    0.37
  -2   0 -19    0.12    0.18
  -2   0 -19    0.35    1.63
   2   0  19    0.12    0.17
   4   0  19    0.24    0.19
   6   0  19    0.02    0.20
  13  -1 -19    0.19    0.39
  13  -1 -19   -0.19    0.51
  13  -1 -19   -3.63    5.57
  13   1 -19    0.28    0.35
 -13   1  19    4.22    4.36
  13   1 -19   -0.15    0.28
  11  -1 -19    2.21    0.53
  11   1 -19    2.91    0.54
 -11   1  19    2.21    3.30
  11   1 -19    2.60    0.50
  -9  -1  19   -0.33    2.84
   9  -1 -19    0.61    0.27
   9  -1 -19    0.59    0.32
   9   1 -19   -0.22    3.17
  -9   1  19    4.09    3.07
   7  -1 -19    3.03    3.36
  -7  -1  19   -2.33    2.31
  -7   1  19   -1.61    2.29
   5  -1 -19    3.79    2.64
  -5  -1  19    2.33    0.30
   5  -1 -19    2.66    0.42
  -5   1  19    3.56    2.28
   5   1 -19    2.64    0.39
   5   1 -19    2.22    0.40
   3  -1 -19    1.98    0.37
  -3  -1  19    1.81    0.28
   3   1 -19    2.20    0.43
  -3   1  19    3.64    2.08
   1  -1 -19    1.45    0.32
  -1  -1  19    1.05    0.29
  -1  -1  19    1.25    0.27
   1   1 -19   -1.94    1.69
   1   1 -19    2.06    0.30
  -1   1  19    1.12    0.27
   1  -1  19    0.86    0.22
   1  -1  19    0.65    0.27
  -1  -1 -19    0.85    0.22
   1   1  19    0.97    0.27
  -1   1 -19    1.32    0.33
  -1   1 -19    3.53    1.71
  -1   1 -19    1.27    0.33
  -3  -1 -19    1.41    0.32
   3  -1  19    0.83    0.22
  -3   1 -19    0.28    0.16
   3   1  19    0.42    0.19
  -3   1 -19   -0.73    1.50
   5   1  19    2.69    0.39
   7  -1  19    6.29    0.58
  14  -2 -19   -0.20    0.37
  14  -2 -19   -0.36    0.44
  12  -2 -19    1.05    0.56
  12  -2 -19    1.30    0.42
 -12   2  19   -0.94    4.10
  10  -2 -19    0.31    0.31
  10  -2 -19    0.19    0.30
   8  -2 -19    0.40    0.28
   8   2 -19    0.51    0.28
  -8   2  19    2.16    2.80
   6  -2 -19    0.33    0.25
   6  -2 -19    0.09    0.24
   6   2 -19    0.10    0.22
   6   2 -19    0.43    0.23
  -6   2  19   -2.58    2.40
   4  -2 -19    1.64    0.40
  -4   2  19    3.66    2.42
   4   2 -19    2.45    0.38
   4   2 -19    2.04    0.38
  -2  -2  19    0.12    0.18
  -2  -2  19   -0.13    0.25
  -2   2  19    2.54    2.30
   2   2 -19   -2.04    1.84
   0  -2  19    1.05    0.23
   0  -2 -19    1.29    0.36
   0   2  19    2.26    2.13
   0   2 -19    0.93    0.27
   0   2  19    1.06    0.28
   0   2 -19    1.28    1.67
   2  -2  19    6.44    0.48
  -2   2 -19    5.10    1.79
  -4  -2 -19    2.58    0.41
   4  -2  19    3.73    0.42
   4   2  19    3.10    0.40
   6  -2  19   -0.09    0.22
   6   2  19   -0.03    0.20
  11  -3 -19   16.36    1.16
   9  -3 -19    0.46    0.36
  -9   3  19    5.30    3.69
   9   3 -19    0.38    0.31
   7  -3 -19   19.14    1.10
   7  -3 -19   18.17    1.13
   5  -3 -19    2.65    0.51
   5  -3 -19    1.37    0.33
   5   3 -19    1.33    0.38
  -5   3  19    4.00    2.80
   5   3 -19    1.65    0.40
   3  -3 -19   10.25    0.77
   3  -3 -19   11.04    3.58
   3  -3 -19   12.31    0.77
  -3   3  19    6.73    3.01
   1  -3 -19    2.91    0.47
   1  -3 -19    2.50    0.45
   1   3 -19   -0.84    1.82
   1  -3  19    5.37    0.50
  -1   3 -19    5.08    1.58
   1   3  19    5.16    0.48
   3  -3  19   10.22    0.68
   3   3  19   10.26    0.69
   5  -3  19    6.07    0.57
  -5  -3 -19    6.42    0.63
   5   3  19    5.41    0.57
   8  -4 -19    4.61    0.76
   8  -4 -19    5.46    0.81
  -8   4  19    1.69    4.22
  -6   4  19    5.02    3.74
   4   4 -19   11.13    1.00
   2  -4 -19    4.61    0.74
   2  -4 -19    4.36    0.71
   0  -4 -19    0.53    0.34
   2   4  19    1.65    0.36
  12   0 -20   26.21    1.38
 -10   0  20    2.16    3.77
  10   0 -20    5.73    0.67
  10   0 -20    6.40    0.65
   8   0 -20   13.41    3.70
  -8   0  20    6.49    3.08
  -6   0  20   75.36    6.04
   6   0 -20   68.97    2.97
   6   0 -20   72.43    2.95
   4   0 -20   80.84    3.12
  -4   0  20   73.13    3.02
   2   0 -20  260.11    9.85
  -2   0  20  255.81    9.76
   2   0 -20  268.70    9.86
   0   0 -20   37.86    1.66
   0   0  20   39.07    1.68
   0   0 -20   40.24    1.66
  -2   0 -20  305.62   11.32
  -2   0 -20  309.77   11.32
   2   0  20  298.48   11.39
   4   0  20   13.99    0.83
  -4   0 -20   13.98    0.75
  11  -1 -20   68.53    3.04
  11   1 -20   70.85    3.07
  11   1 -20   70.40    2.99
   9  -1 -20   41.19    1.95
   9  -1 -20   34.82    7.30
   9  -1 -20   41.14    1.99
   9   1 -20   43.23    1.99
   9   1 -20   45.32    1.94
  -7  -1  20    2.76    3.00
  -7   1  20    1.07    2.80
  -5  -1  20  206.86    7.99
  -5   1  20  225.13   11.13
   5   1 -20  216.55    8.32
   3  -1 -20    2.19    0.40
   3   1 -20    2.67    0.37
  -3   1  20    3.62    2.37
   3   1 -20    1.77    0.36
   1  -1 -20  353.13   12.91
  -1  -1  20  348.06   12.82
   1   1 -20  340.84   14.94
  -1   1  20  346.82   12.90
   1   1 -20  340.26   12.88
  -1  -1 -20   45.31    1.83
   1  -1  20   42.19    1.81
  -1  -1 -20   42.53    1.84
   1   1  20   39.49    1.84
  -1   1 -20   50.33    4.71
   3  -1  20  221.33    8.25
   3   1  20  214.86    8.30
   5  -1  20   88.02    3.55
  10  -2 -20    4.11    5.22
 -10   2  20    2.99    3.86
   8  -2 -20    5.79    0.70
   8  -2 -20   10.47    4.27
   8  -2 -20    6.97    0.70
  -8   2  20    6.60    3.61
   6  -2 -20   26.40    6.25
   6  -2 -20   33.98    1.61
   6  -2 -20   33.59    1.65
  -6   2  20   41.27    5.15
   6   2 -20   32.82    1.53
   6   2 -20   32.49    1.56
   4  -2 -20   50.40    2.27
  -4   2  20   50.53    5.48
   4   2 -20   51.94    2.13
   4   2 -20   49.28    2.13
   2  -2 -20  203.14    7.75
  -2  -2  20  198.99    7.56
  -2   2  20  210.13   11.01
   0  -2  20   63.28    2.61
   0   2 -20   68.31    2.60
   0   2  20   66.62    2.73
  -2  -2 -20  212.58    7.82
   2  -2  20  209.16    7.78
   2   2  20  197.13    7.91
   4  -2  20   14.41    0.83
   6  -2  20   83.14    3.40
  11   3 -20   21.85    1.26
   9  -3 -20   19.40    1.65
   9   3 -20   20.01    1.17
  -9   3  20   19.68    4.88
   5  -3 -20  213.92    8.37
   5  -3 -20  237.35    8.96
   5   3 -20  221.53    8.62
  -5   3  20  190.77   13.09
   1  -3 -20  268.28   10.17
  -1  -3 -20   61.50    2.74
   1   3  20   58.84    2.54
  -3  -3 -20  235.53    8.54
   3  -3  20  207.37    8.10
   3   3  20  202.43    8.35
   8  -4 -20    6.60    0.99
   8  -4 -20    7.27    0.89
   6   4 -20   24.66    1.27
   4   4 -20   30.09    1.40
  12   0 -21    0.18    0.40
  10   0 -21   -0.35    0.31
  10   0 -21    0.17    0.30
   8   0 -21    0.29    0.29
  -4   0  21    0.10    0.18
   4   0 -21    0.03    0.25
  -2   0  21    0.33    0.19
   2   0 -21    0.13    0.21
   2   0 -21    0.15    0.26
   0   0  21    0.10    0.18
   0   0 -21    0.72    0.23
  -2   0 -21    0.16    0.21
   4   0  21    0.74    0.26
   9  -1 -21    0.75    0.37
   9  -1 -21    0.48    0.32
   7  -1 -21    0.19    0.31
   7  -1 -21    0.25    0.28
  -7  -1  21    0.32    0.21
   5  -1 -21    0.95    0.46
  -5  -1  21   -0.02    0.18
   5  -1 -21    0.23    0.26
   5   1 -21    0.26    0.31
  -3  -1  21    0.20    0.18
   3   1 -21    0.54    0.23
   3   1 -21    0.31    0.24
  -1  -1  21    1.27    0.31
   1   1 -21    0.93    0.25
   1   1 -21    1.42    0.34
  -1   1  21    1.25    0.30
   1  -1  21    5.48    0.47
   1   1  21    5.41    0.48
  -1   1 -21    4.58    0.42
   3  -1  21    0.85    0.25
   3   1  21    1.26    0.34
  -3   1 -21    0.93    0.23
  -5  -1 -21    1.08    0.30
   5  -1  21    0.55    0.26
  12  -2 -21    2.79    0.74
   8  -2 -21    5.20    0.71
   8   2 -21    6.98    0.64
   6  -2 -21    7.18    0.69
   6  -2 -21    6.17    0.73
   4  -2 -21    0.35    0.30
   4   2 -21    0.52    0.26
  -2  -2  21    1.03    0.25
   0  -2  21    1.55    0.36
   0   2  21    1.06    0.27
  -2  -2 -21    0.14    0.33
   2  -2  21    0.23    0.24
   4  -2  21    3.72    0.48
  -4  -2 -21    3.26    0.53
   9   3 -21   19.92    1.33
   5  -3 -21    3.23    0.68
   5  -3 -21    4.72    0.67
   3  -3 -21    9.87    0.80
   3   3 -21   10.41    0.72
   1  -3 -21    0.28    0.30
   1   3  21    5.41    0.52
   4  -4 -21    0.85    0.50
  10   0 -22   51.85    2.34
  10   0 -22   47.50    2.42
   4   0 -22  168.42    7.25
   4   0 -22  204.85    7.47
  -4   0  22  172.23    6.85
  -2   0  22   11.25    0.67
   0   0 -22   59.86    2.46
   0   0  22   54.74    2.37
   2   0  22   14.12    0.84
  -2   0 -22   15.35    0.88
   4   0  22    0.91    0.29
  -7  -1  22  185.13    7.14
   7  -1 -22  197.03    7.45
  -5  -1  22   73.62    3.06
   5   1 -22   84.56    3.25
  -3  -1  22   32.53    1.42
   3   1 -22   33.62    1.54
  -3   1  22   32.51    1.49
  -1  -1  22    1.34    0.34
   1  -1 -22    0.99    0.29
   1   1 -22    0.97    0.27
   1  -1  22    2.01    0.38
   3  -1  22   51.52    2.20
  10   2 -22   10.75    0.92
   8  -2 -22  332.81   12.83
   8   2 -22  315.59   12.24
   6  -2 -22    1.86    0.72
   6  -2 -22    1.72    0.40
   2   2 -22    1.64    0.40
  -2   2  22    0.42    0.22
   0  -2 -22   29.08    1.45
   0  -2  22   28.16    1.29
   2  -2  22   23.00    1.13
   5   3 -22   74.62    3.11
   3   3 -22   44.81    1.91
  -6   0  23    0.23    0.21
  -4   0  23   -0.02    0.19
  -2   0  23    0.33    0.20
   0   0  23    0.31    0.22
   2   0  23    0.30    0.23
   9   1 -23   -0.40    0.44
   7  -1 -23    0.02    0.35
   7   1 -23    0.08    0.33
  -5  -1  23    2.94    0.39
  -3  -1  23    0.03    0.21
  -3   1  23    0.23    0.21
  -1  -1  23    1.56    0.38
   1   1 -23    1.93    0.44
  -1   1  23    1.88    0.36
   1  -1  23    0.25    0.25
  -1   1 -23    0.54    0.29
   1   1  23    0.15    0.21
   8   2 -23    0.36    0.60
   2  -2 -23    0.94    0.49
   2  -2 -23    1.02    0.46
   2   2 -23    1.06    0.32
   0  -2  23    0.94    0.29
   0  -2 -23    0.25    0.32
   8   0 -24   64.94    3.33
   6   0 -24    9.83    0.87
  -6   0  24    8.53    0.61
  -4   0  24  157.76    6.28
   4   0 -24  173.18    6.87
  -2   0  24    3.44    0.44
   0   0  24  242.44    9.17
   7   1 -24    7.93    0.83
  -5  -1  24   36.94    1.58
   5  -1 -24   38.05    1.94
  -5   1  24   36.61    1.67
  -3  -1  24   89.56    3.60
   3  -1 -24   99.15    3.79
  -3   1  24   88.49    3.68
  -1  -1  24  138.27    5.20
   1  -1 -24  134.82    5.43
   1   1 -24  137.39    5.22
  -1   1  24  127.76    5.24
  -4   0  25    0.18    0.24
   0   0   0    0.00    0.00
;
_shelx_hkl_checksum              23559
loop_
_space_group_symop_operation_xyz
'x, y, z'
'-x, y, -z+1/2'
'x+1/2, y+1/2, z'
'-x+1/2, y+1/2, -z+1/2'
'-x, -y, -z'
'x, -y, z-1/2'
'-x+1/2, -y+1/2, -z'
'x+1/2, -y+1/2, z-1/2'
loop_
_atom_site_label
_atom_site_type_symbol
_atom_site_fract_x
_atom_site_fract_y
_atom_site_fract_z
_atom_site_U_iso_or_equiv
_atom_site_adp_type
_atom_site_occupancy
_atom_site_site_symmetry_order
_atom_site_calc_flag
_atom_site_refinement_flags_posn
_atom_site_refinement_flags_adp
_atom_site_refinement_flags_occupancy
Tb1 Tb 0.88615(2) 0.01050(4) 0.41555(2) 0.00352(12) Uani 1 1 d . . .
Ba1 Ba 0.66248(2) 0.49457(5) 0.33304(2) 0.00617(12) Uani 1 1 d . . .
Si1 Si 0.88092(11) -0.4664(3) 0.54303(8) 0.0030(3) Uani 1 1 d . . .
Si2 Si 1.06229(11) -0.5447(3) 0.68364(8) 0.0035(3) Uani 1 1 d . . .
O1 O 0.9808(3) -0.6440(6) 0.6000(2) 0.0046(7) Uani 1 1 d . . .
O2 O 0.7934(3) -0.4569(7) 0.5959(2) 0.0078(7) Uani 1 1 d . . .
O3 O 0.9292(3) -0.1766(6) 0.5377(2) 0.0054(7) Uani 1 1 d . . .
O4 O 0.8433(3) -0.5999(7) 0.4588(2) 0.0073(7) Uani 1 1 d . . .
O5 O 0.5000 0.1432(9) 0.2500 0.0063(10) Uani 1 2 d S T P
O6 O 0.9190(3) 0.2426(7) 0.3110(2) 0.0080(7) Uani 1 1 d . . .
O7 O 0.8352(3) -0.2715(7) 0.3069(2) 0.0054(7) Uani 1 1 d . . .
loop_
_atom_site_aniso_label
_atom_site_aniso_U_11
_atom_site_aniso_U_22
_atom_site_aniso_U_33
_atom_site_aniso_U_23
_atom_site_aniso_U_13
_atom_site_aniso_U_12
Tb1 0.00309(15) 0.00519(16) 0.00301(16) 0.00009(8) 0.00216(10) -0.00016(8)
Ba1 0.00615(18) 0.00703(18) 0.00599(19) -0.00101(10) 0.00274(13) -0.00200(10)
Si1 0.0025(6) 0.0047(6) 0.0021(6) -0.0005(5) 0.0014(5) -0.0007(5)
Si2 0.0046(6) 0.0036(6) 0.0033(6) 0.0002(5) 0.0026(5) -0.0001(5)
O1 0.0048(16) 0.0055(16) 0.0033(16) -0.0004(14) 0.0008(13) -0.0009(13)
O2 0.0056(17) 0.0099(17) 0.0101(19) -0.0026(15) 0.0059(15) -0.0040(13)
O3 0.0074(16) 0.0043(16) 0.0052(17) 0.0012(13) 0.0026(13) 0.0001(13)
O4 0.0072(17) 0.0084(17) 0.0064(17) -0.0018(14) 0.0020(14) 0.0020(14)
O5 0.008(2) 0.008(2) 0.005(2) 0.000 0.0055(19) 0.000
O6 0.0137(18) 0.0046(16) 0.0061(17) 0.0011(14) 0.0030(14) -0.0030(13)
O7 0.0040(16) 0.0072(17) 0.0055(16) -0.0002(14) 0.0024(13) 0.0012(13)
loop_
_atom_type_symbol
_atom_type_description
_atom_type_scat_dispersion_real
_atom_type_scat_dispersion_imag
_atom_type_scat_source
O O 0.0106 0.0060 'International Tables Vol C Tables 4.2.6.8 and 6.1.1.4'
Si Si 0.0817 0.0704 'International Tables Vol C Tables 4.2.6.8 and 6.1.1.4'
Ba Ba -0.3244 2.2819 'International Tables Vol C Tables 4.2.6.8 and 6.1.1.4'
Tb Tb -0.1723 4.1537 'International Tables Vol C Tables 4.2.6.8 and 6.1.1.4'
loop_
_geom_angle_atom_site_label_1
_geom_angle_atom_site_label_2
_geom_angle_atom_site_label_3
_geom_angle
_geom_angle_site_symmetry_1
_geom_angle_site_symmetry_3
O4 Tb1 O2 79.41(13) 1_565 7_646
O4 Tb1 O3 95.17(12) 1_565 .
O2 Tb1 O3 92.20(13) 7_646 .
O4 Tb1 O6 84.56(13) 1_565 .
O2 Tb1 O6 111.68(13) 7_646 .
O3 Tb1 O6 155.54(12) . .
O4 Tb1 O7 141.03(12) 1_565 .
O2 Tb1 O7 77.21(12) 7_646 .
O3 Tb1 O7 116.37(12) . .
O6 Tb1 O7 75.81(12) . .
O4 Tb1 O3 82.50(12) 1_565 5_756
O2 Tb1 O3 160.08(12) 7_646 5_756
O3 Tb1 O3 81.12(13) . 5_756
O6 Tb1 O3 74.58(12) . 5_756
O7 Tb1 O3 122.58(12) . 5_756
O4 Tb1 O1 154.07(11) 1_565 5_746
O2 Tb1 O1 124.99(12) 7_646 5_746
O3 Tb1 O1 76.89(11) . 5_746
O6 Tb1 O1 92.70(12) . 5_746
O7 Tb1 O1 61.59(11) . 5_746
O3 Tb1 O1 71.95(11) 5_756 5_746
O4 Tb1 Si2 165.90(9) 1_565 5_746
O2 Tb1 Si2 101.67(10) 7_646 5_746
O3 Tb1 Si2 98.82(9) . 5_746
O6 Tb1 Si2 81.99(9) . 5_746
O7 Tb1 Si2 29.76(8) . 5_746
O3 Tb1 Si2 97.91(8) 5_756 5_746
O1 Tb1 Si2 31.88(7) 5_746 5_746
O4 Tb1 Si1 113.02(9) 1_565 .
O2 Tb1 Si1 77.51(10) 7_646 .
O3 Tb1 Si1 26.18(9) . .
O6 Tb1 Si1 161.84(9) . .
O7 Tb1 Si1 91.76(9) . .
O3 Tb1 Si1 102.24(8) 5_756 .
O1 Tb1 Si1 69.54(8) 5_746 .
Si2 Tb1 Si1 80.76(3) 5_746 .
O4 Tb1 Si2 62.61(9) 1_565 5_756
O2 Tb1 Si2 111.77(10) 7_646 5_756
O3 Tb1 Si2 141.75(9) . 5_756
O6 Tb1 Si2 23.28(9) . 5_756
O7 Tb1 Si2 98.30(9) . 5_756
O3 Tb1 Si2 66.13(8) 5_756 5_756
O1 Tb1 Si2 108.98(8) 5_746 5_756
Si2 Tb1 Si2 104.55(4) 5_746 5_756
Si1 Tb1 Si2 167.56(3) . 5_756
O4 Tb1 Tb1 88.17(8) 1_565 5_756
O2 Tb1 Tb1 131.75(9) 7_646 5_756
O3 Tb1 Tb1 42.39(8) . 5_756
O6 Tb1 Tb1 113.26(9) . 5_756
O7 Tb1 Tb1 130.44(8) . 5_756
O3 Tb1 Tb1 38.73(8) 5_756 5_756
O1 Tb1 Tb1 69.21(7) 5_746 5_756
Si2 Tb1 Tb1 101.01(3) 5_746 5_756
Si1 Tb1 Tb1 64.94(2) . 5_756
Si2 Tb1 Tb1 102.78(2) 5_756 5_756
O4 Tb1 Ba1 47.17(8) 1_565 .
O2 Tb1 Ba1 52.97(9) 7_646 .
O3 Tb1 Ba1 128.27(9) . .
O6 Tb1 Ba1 67.92(9) . .
O7 Tb1 Ba1 93.97(8) . .
O3 Tb1 Ba1 117.85(8) 5_756 .
O1 Tb1 Ba1 152.66(7) 5_746 .
Si2 Tb1 Ba1 122.55(3) 5_746 .
Si1 Tb1 Ba1 127.09(2) . .
Si2 Tb1 Ba1 59.73(2) 5_756 .
Tb1 Tb1 Ba1 135.315(11) 5_756 .
O7 Ba1 O2 65.40(11) 1_565 7_656
O7 Ba1 O6 77.22(10) 1_565 4_655
O2 Ba1 O6 89.73(11) 7_656 4_655
O7 Ba1 O7 83.60(7) 1_565 4_655
O2 Ba1 O7 142.26(11) 7_656 4_655
O6 Ba1 O7 61.57(10) 4_655 4_655
O7 Ba1 O4 69.69(10) 1_565 1_565
O2 Ba1 O4 75.86(11) 7_656 1_565
O6 Ba1 O4 146.90(11) 4_655 1_565
O7 Ba1 O4 114.26(10) 4_655 1_565
O7 Ba1 O5 137.07(7) 1_565 .
O2 Ba1 O5 147.10(10) 7_656 .
O6 Ba1 O5 76.83(10) 4_655 .
O7 Ba1 O5 53.95(7) 4_655 .
O4 Ba1 O5 129.68(10) 1_565 .
O7 Ba1 O3 119.37(10) 1_565 7_656
O2 Ba1 O3 55.92(10) 7_656 7_656
O6 Ba1 O3 114.34(10) 4_655 7_656
O7 Ba1 O3 156.14(9) 4_655 7_656
O4 Ba1 O3 82.18(10) 1_565 7_656
O5 Ba1 O3 102.38(7) . 7_656
O7 Ba1 O1 162.30(10) 1_565 7_646
O2 Ba1 O1 115.89(10) 7_656 7_646
O6 Ba1 O1 119.89(10) 4_655 7_646
O7 Ba1 O1 100.25(9) 4_655 7_646
O4 Ba1 O1 93.17(10) 1_565 7_646
O5 Ba1 O1 51.67(7) . 7_646
O3 Ba1 O1 60.06(9) 7_656 7_646
O7 Ba1 O2 114.06(10) 1_565 7_646
O2 Ba1 O2 128.97(13) 7_656 7_646
O6 Ba1 O2 141.25(10) 4_655 7_646
O7 Ba1 O2 82.24(10) 4_655 7_646
O4 Ba1 O2 59.23(10) 1_565 7_646
O5 Ba1 O2 70.46(10) . 7_646
O3 Ba1 O2 92.87(9) 7_656 7_646
O1 Ba1 O2 50.25(9) 7_646 7_646
O7 Ba1 O6 127.12(9) 1_565 3_455
O2 Ba1 O6 78.09(10) 7_656 3_455
O6 Ba1 O6 65.27(12) 4_655 3_455
O7 Ba1 O6 107.41(9) 4_655 3_455
O4 Ba1 O6 136.90(9) 1_565 3_455
O5 Ba1 O6 69.01(9) . 3_455
O3 Ba1 O6 54.76(9) 7_656 3_455
O1 Ba1 O6 68.49(9) 7_646 3_455
O2 Ba1 O6 118.60(9) 7_646 3_455
O7 Ba1 Si1 93.08(8) 1_565 7_656
O2 Ba1 Si1 27.83(8) 7_656 7_656
O6 Ba1 Si1 99.14(7) 4_655 7_656
O7 Ba1 Si1 160.70(7) 4_655 7_656
O4 Ba1 Si1 81.95(7) 1_565 7_656
O5 Ba1 Si1 124.43(5) . 7_656
O3 Ba1 Si1 28.75(7) 7_656 7_656
O1 Ba1 Si1 88.68(7) 7_646 7_656
O2 Ba1 Si1 116.21(7) 7_646 7_656
O6 Ba1 Si1 59.89(6) 3_455 7_656
O7 Ba1 Si2 110.17(8) 1_565 8_445
O2 Ba1 Si2 158.93(8) 7_656 8_445
O6 Ba1 Si2 69.32(7) 4_655 8_445
O7 Ba1 Si2 26.57(7) 4_655 8_445
O4 Ba1 Si2 123.16(7) 1_565 8_445
O5 Ba1 Si2 27.67(3) . 8_445
O3 Ba1 Si2 130.00(7) 7_656 8_445
O1 Ba1 Si2 74.95(7) 7_646 8_445
O2 Ba1 Si2 72.06(7) 7_646 8_445
O6 Ba1 Si2 90.49(6) 3_455 8_445
Si1 Ba1 Si2 150.02(3) 7_656 8_445
O4 Si1 O2 116.4(2) . .
O4 Si1 O3 112.3(2) . .
O2 Si1 O3 109.21(19) . .
O4 Si1 O1 108.84(18) . .
O2 Si1 O1 102.20(19) . .
O3 Si1 O1 106.95(18) . .
O4 Si1 Tb1 75.89(14) . .
O2 Si1 Tb1 119.18(15) . .
O3 Si1 Tb1 38.03(12) . .
O1 Si1 Tb1 131.35(13) . .
O4 Si1 Ba1 147.33(14) . 7_656
O2 Si1 Ba1 51.02(13) . 7_656
O3 Si1 Ba1 59.92(13) . 7_656
O1 Si1 Ba1 103.61(13) . 7_656
Tb1 Si1 Ba1 85.69(3) . 7_656
O4 Si1 Ba1 99.67(14) . 7_646
O2 Si1 Ba1 56.78(14) . 7_646
O3 Si1 Ba1 147.68(14) . 7_646
O1 Si1 Ba1 55.95(12) . 7_646
Tb1 Si1 Ba1 172.23(5) . 7_646
Ba1 Si1 Ba1 95.20(3) 7_656 7_646
O6 Si2 O7 118.3(2) 5_756 5_746
O6 Si2 O5 111.0(2) 5_756 7_646
O7 Si2 O5 105.70(19) 5_746 7_646
O6 Si2 O1 114.40(19) 5_756 .
O7 Si2 O1 103.36(19) 5_746 .
O5 Si2 O1 102.45(16) 7_646 .
O6 Si2 Tb1 138.17(15) 5_756 5_746
O7 Si2 Tb1 47.08(13) 5_746 5_746
O5 Si2 Tb1 110.80(18) 7_646 5_746
O1 Si2 Tb1 56.35(12) . 5_746
O6 Si2 Tb1 35.21(13) 5_756 5_756
O7 Si2 Tb1 106.25(14) 5_746 5_756
O5 Si2 Tb1 142.96(18) 7_646 5_756
O1 Si2 Tb1 87.88(13) . 5_756
Tb1 Si2 Tb1 104.55(4) 5_746 5_756
O6 Si2 Ba1 126.29(14) 5_756 8_546
O7 Si2 Ba1 51.93(13) 5_746 8_546
O5 Si2 Ba1 54.51(11) 7_646 8_546
O1 Si2 Ba1 119.19(13) . 8_546
Tb1 Si2 Ba1 79.07(3) 5_746 8_546
Tb1 Si2 Ba1 146.82(4) 5_756 8_546
O6 Si2 Ba1 78.30(14) 5_756 5_756
O7 Si2 Ba1 42.15(13) 5_746 5_756
O5 Si2 Ba1 136.97(8) 7_646 5_756
O1 Si2 Ba1 111.60(13) . 5_756
Tb1 Si2 Ba1 70.71(3) 5_746 5_756
Tb1 Si2 Ba1 65.66(2) 5_756 5_756
Ba1 Si2 Ba1 85.46(3) 8_546 5_756
O6 Si2 Ba1 137.67(15) 5_756 7_646
O7 Si2 Ba1 103.83(14) 5_746 7_646
O5 Si2 Ba1 49.40(11) 7_646 7_646
O1 Si2 Ba1 54.41(13) . 7_646
Tb1 Si2 Ba1 74.53(3) 5_746 7_646
Tb1 Si2 Ba1 136.21(4) 5_756 7_646
Ba1 Si2 Ba1 76.88(3) 8_546 7_646
Ba1 Si2 Ba1 143.37(4) 5_756 7_646
Si2 O1 Si1 125.0(2) . .
Si2 O1 Tb1 91.77(14) . 5_746
Si1 O1 Tb1 139.06(18) . 5_746
Si2 O1 Ba1 99.07(15) . 7_646
Si1 O1 Ba1 96.40(14) . 7_646
Tb1 O1 Ba1 94.39(10) 5_746 7_646
Si1 O2 Tb1 140.6(2) . 7_646
Si1 O2 Ba1 101.15(16) . 7_656
Tb1 O2 Ba1 104.04(13) 7_646 7_656
Si1 O2 Ba1 96.84(16) . 7_646
Tb1 O2 Ba1 90.40(11) 7_646 7_646
Ba1 O2 Ba1 128.97(13) 7_656 7_646
Si1 O3 Tb1 115.78(18) . .
Si1 O3 Tb1 130.42(18) . 5_756
Tb1 O3 Tb1 98.88(13) . 5_756
Si1 O3 Ba1 91.33(15) . 7_656
Tb1 O3 Ba1 121.96(13) . 7_656
Tb1 O3 Ba1 99.47(11) 5_756 7_656
Si1 O4 Tb1 130.6(2) . 1_545
Si1 O4 Ba1 130.64(18) . 1_545
Tb1 O4 Ba1 96.60(12) 1_545 1_545
Si2 O5 Si2 143.7(3) 8_445 7_646
Si2 O5 Ba1 97.82(9) 8_445 .
Si2 O5 Ba1 104.95(10) 7_646 .
Si2 O5 Ba1 104.95(10) 8_445 2_655
Si2 O5 Ba1 97.82(9) 7_646 2_655
Ba1 O5 Ba1 101.45(15) . 2_655
Si2 O6 Tb1 121.5(2) 5_756 .
Si2 O6 Ba1 121.80(18) 5_756 4_645
Tb1 O6 Ba1 111.85(13) . 4_645
Si2 O6 Ba1 104.63(17) 5_756 3_545
Tb1 O6 Ba1 93.11(11) . 3_545
Ba1 O6 Ba1 93.45(10) 4_645 3_545
Si2 O7 Tb1 103.16(17) 5_746 .
Si2 O7 Ba1 114.07(17) 5_746 1_545
Tb1 O7 Ba1 102.88(13) . 1_545
Si2 O7 Ba1 101.50(16) 5_746 4_645
Tb1 O7 Ba1 109.60(13) . 4_645
Ba1 O7 Ba1 123.96(12) 1_545 4_645
loop_
_geom_bond_atom_site_label_1
_geom_bond_atom_site_label_2
_geom_bond_distance
_geom_bond_site_symmetry_2
Tb1 O4 2.278(3) 1_565
Tb1 O2 2.285(3) 7_646
Tb1 O3 2.292(3) .
Tb1 O6 2.318(4) .
Tb1 O7 2.366(3) .
Tb1 O3 2.470(3) 5_756
Tb1 O1 2.620(3) 5_746
Tb1 Si2 3.1456(14) 5_746
Tb1 Si1 3.3502(14) .
Tb1 Si2 3.4273(14) 5_756
Tb1 Tb1 3.6203(5) 5_756
Tb1 Ba1 3.8300(4) .
Ba1 O7 2.668(3) 1_565
Ba1 O2 2.704(4) 7_656
Ba1 O6 2.800(3) 4_655
Ba1 O7 2.822(3) 4_655
Ba1 O4 2.828(3) 1_565
Ba1 O5 2.887(3) .
Ba1 O3 2.954(3) 7_656
Ba1 O1 3.025(3) 7_646
Ba1 O2 3.058(4) 7_646
Ba1 O6 3.320(4) 3_455
Ba1 Si1 3.4125(14) 7_656
Ba1 Si2 3.5131(14) 8_445
Si1 O4 1.595(4) .
Si1 O2 1.624(4) .
Si1 O3 1.642(4) .
Si1 O1 1.695(3) .
Si1 Ba1 3.4125(14) 7_656
Si1 Ba1 3.6289(14) 7_646
Si2 O6 1.589(4) 5_756
Si2 O7 1.603(4) 5_746
Si2 O5 1.647(2) 7_646
Si2 O1 1.662(3) .
Si2 Tb1 3.1456(14) 5_746
Si2 Tb1 3.4273(14) 5_756
Si2 Ba1 3.5131(14) 8_546
Si2 Ba1 3.6305(14) 5_756
Si2 Ba1 3.6742(14) 7_646
O1 Tb1 2.620(3) 5_746
O1 Ba1 3.025(3) 7_646
O2 Tb1 2.285(3) 7_646
O2 Ba1 2.704(4) 7_656
O2 Ba1 3.058(4) 7_646
O3 Tb1 2.471(3) 5_756
O3 Ba1 2.954(3) 7_656
O4 Tb1 2.278(3) 1_545
O4 Ba1 2.828(3) 1_545
O5 Si2 1.647(2) 8_445
O5 Si2 1.647(2) 7_646
O5 Ba1 2.887(3) 2_655
O6 Si2 1.589(4) 5_756
O6 Ba1 2.800(3) 4_645
O6 Ba1 3.320(4) 3_545
O7 Si2 1.603(4) 5_746
O7 Ba1 2.668(3) 1_545
O7 Ba1 2.822(3) 4_645
