#------------------------------------------------------------------------------
#$Date: 2019-12-26 20:55:13 +0200 (Thu, 26 Dec 2019) $
#$Revision: 246091 $
#$URL: file:///home/coder/svn-repositories/cod/cif/2/31/17/2311710.cif $
#------------------------------------------------------------------------------
#
# This file is available in the Crystallography Open Database (COD),
# http://www.crystallography.net/. The original data for this entry
# were provided by IUCr Journals, http://journals.iucr.org/.
#
# The file may be used within the scientific community so long as
# proper attribution is given to the journal article from which the
# data were obtained.
#
data_2311710
loop_
_publ_author_name
'Huband, S.'
'Keeble, D. S.'
'Zhang, N.'
'Glazer, A. M.'
'Bartasyte, A.'
'Thomas, P. A.'
_publ_section_title
;
 Crystallographic and optical study of
 LiNb<sub>1&#x2005;-&#x2005;x</sub>Ta<sub>x</sub>O<sub>3</sub>.
;
_journal_issue                   'Pt 3'
_journal_name_full
'Acta crystallographica Section B, Structural science, crystal engineering and materials'
_journal_page_first              498
_journal_page_last               506
_journal_paper_doi               10.1107/S2052520617004711
_journal_volume                  73
_journal_year                    2017
_chemical_formula_moiety         'Li Nb0.08 O3 Ta0.92'
_chemical_formula_sum            'Li Nb0.08 O3 Ta0.92'
_chemical_formula_weight         228.85
_chemical_name_common            'lithium niobate tantalate'
_chemical_name_systematic        'lithium niobate tantalate'
_space_group_crystal_system      trigonal
_space_group_IT_number           161
_space_group_name_Hall           'R 3 -2"c'
_space_group_name_H-M_alt        'R 3 c :H'
_atom_sites_solution_primary     other
_atom_sites_solution_secondary   other
_audit_creation_method
;
Olex2 1.2
(compiled 2016.09.09 svn.r3337 for OlexSys, GUI svn.r5227)
Dolomanov, O.V., Bourhis, L.J., Gildea, R.J, Howard, J.A.K. & Puschmann, H.
 (2009), J. Appl. Cryst. 42, 339-341.
Sheldrick, G.M. (2015). Acta Cryst. C71, 3-8.
;
_cell_angle_alpha                90
_cell_angle_beta                 90
_cell_angle_gamma                120
_cell_formula_units_Z            6
_cell_length_a                   5.1490(10)
_cell_length_b                   5.1490(10)
_cell_length_c                   13.781(5)
_cell_measurement_reflns_used    1673
_cell_measurement_temperature    293(2)
_cell_measurement_theta_max      37.2100
_cell_measurement_theta_min      5.4210
_cell_volume                     316.42(14)
_computing_cell_refinement
;
CrysAlisPro, Agilent Technologies,
Version 1.171.37.35 (release 13-08-2014 CrysAlis171 .NET)
(compiled Aug 13 2014,18:06:01)
;
_computing_data_collection
;
CrysAlisPro, Agilent Technologies,
Version 1.171.37.35 (release 13-08-2014 CrysAlis171 .NET)
(compiled Aug 13 2014,18:06:01)
;
_computing_data_reduction
;
CrysAlisPro, Agilent Technologies,
Version 1.171.37.35 (release 13-08-2014 CrysAlis171 .NET)
(compiled Aug 13 2014,18:06:01)
;
_computing_molecular_graphics    'Olex2 (Dolomanov et al., 2009)'
_computing_publication_material  'Olex2 (Dolomanov et al., 2009)'
_computing_structure_refinement  'ShelXL (Sheldrick, 2015)'
_diffrn_ambient_temperature      293(2)
_diffrn_detector_area_resol_mean 10.2833
_diffrn_measured_fraction_theta_full 1.000
_diffrn_measured_fraction_theta_max 0.995
_diffrn_measurement_device       'four-circle diffractometer'
_diffrn_measurement_device_type  'Xcalibur, Ruby, Gemini'
_diffrn_measurement_method       '\w scans'
_diffrn_radiation_monochromator  graphite
_diffrn_radiation_type           MoK\a
_diffrn_radiation_wavelength     0.71073
_diffrn_reflns_av_R_equivalents  0.0446
_diffrn_reflns_limit_h_max       8
_diffrn_reflns_limit_h_min       -8
_diffrn_reflns_limit_k_max       8
_diffrn_reflns_limit_k_min       -8
_diffrn_reflns_limit_l_max       23
_diffrn_reflns_limit_l_min       -22
_diffrn_reflns_number            2340
_diffrn_reflns_theta_full        25.242
_diffrn_reflns_theta_max         37.465
_diffrn_reflns_theta_min         5.447
_exptl_absorpt_coefficient_mu    48.055
_exptl_absorpt_correction_T_max  0.067
_exptl_absorpt_correction_T_min  0.014
_exptl_absorpt_correction_type   analytical
_exptl_absorpt_process_details
;
CrysAlisPro, Agilent Technologies,
Version 1.171.37.35 (release 13-08-2014 CrysAlis171 .NET)
(compiled Aug 13 2014,18:06:01)
Analytical numeric absorption correction using a multifaceted crystal
   model based on expressions derived by R.C. Clark & J.S. Reid.
(Clark, R. C. & Reid, J. S. (1995). Acta Cryst. A51, 887-897)
Empirical absorption correction using spherical harmonics,
 implemented in SCALE3 ABSPACK scaling algorithm.
;
_exptl_crystal_colour            'clear green'
_exptl_crystal_density_diffrn    7.206
_exptl_crystal_description       block
_exptl_crystal_F_000             585
_exptl_crystal_size_max          0.2183
_exptl_crystal_size_mid          0.1607
_exptl_crystal_size_min          0.1472
_refine_diff_density_max         2.143
_refine_diff_density_min         -1.564
_refine_ls_abs_structure_details
;
 Refined as an inversion twin.
;
_refine_ls_abs_structure_Flack   0.48(13)
_refine_ls_extinction_coef       0.0238(15)
_refine_ls_extinction_expression Fc^*^=kFc[1+0.001xFc^2^\l^3^/sin(2\q)]^-1/4^
_refine_ls_extinction_method     'SHELXL-2014/7 (Sheldrick 2014'
_refine_ls_goodness_of_fit_ref   1.147
_refine_ls_hydrogen_treatment    undef
_refine_ls_matrix_type           full
_refine_ls_number_parameters     18
_refine_ls_number_reflns         371
_refine_ls_number_restraints     1
_refine_ls_restrained_S_all      1.145
_refine_ls_R_factor_all          0.0194
_refine_ls_R_factor_gt           0.0190
_refine_ls_shift/su_max          0.000
_refine_ls_shift/su_mean         0.000
_refine_ls_structure_factor_coef Fsqd
_refine_ls_weighting_details
'w=1/[\s^2^(Fo^2^)+(0.0313P)^2^] where P=(Fo^2^+2Fc^2^)/3'
_refine_ls_weighting_scheme      calc
_refine_ls_wR_factor_gt          0.0473
_refine_ls_wR_factor_ref         0.0481
_reflns_number_gt                358
_reflns_number_total             371
_reflns_threshold_expression     'I > 2\s(I)'
_cod_data_source_file            bp5094sup1.cif
_cod_data_source_block           LNT92
_cod_depositor_comments
;
The following automatic conversions were performed:

data item '_atom_sites_solution_primary' value 'Other' was changed to
'other' in accordance with the
/home/saulius/struct/COD-crude-data/automatic-downloads/DataCite-retrospective/IUCr/depositions/lib/dictionaries/cif_core.dic
dictionary named 'cif_core.dic' version 2.4.2 last updated on
2011-04-26.

data item '_atom_sites_solution_secondary' value 'Other' was changed
to 'other' in accordance with the
/home/saulius/struct/COD-crude-data/automatic-downloads/DataCite-retrospective/IUCr/depositions/lib/dictionaries/cif_core.dic
dictionary named 'cif_core.dic' version 2.4.2 last updated on
2011-04-26.

Automatic conversion script
Id: cif_fix_values 7556 2019-12-06 15:28:31Z antanas 
;
_cod_original_cell_volume        316.41(17)
_cod_original_sg_symbol_H-M      'R 3 c'
_cod_database_code               2311710
_shelx_space_group_comment
;
The symmetry employed for this shelxl refinement is uniquely defined
by the following loop, which should always be used as a source of
symmetry information in preference to the above space-group names.
They are only intended as comments.
;
_shelx_hkl_file
;
   0   0 -21 193.367 282.740   5
   0   0 -18 358912. 8892.69   5
   0   0 -15 187.278 218.236   5
   0   0 -12 591952. 13146.9   5
   0   0 -12 675244. 13168.1   2
   0   0  -9 92.7097 136.549   5
   0   0  -9 122.339 132.803   2
   0   0  -9 26.0109 118.738   6
   0   0  -9 294.299 121.100   7
   0   0  -6 527190. 10988.1   7
   0   0  -6 540561. 11096.6   5
   0   0  -6 518744. 11039.1   2
   0   0  -6 510938. 11013.0   6
   0   0  -3-8.60804 55.8885   2
   0   0  -3-94.3236 73.1752   6
   0   0  -3 121.949 71.2534   5
   0   0   3 95.1249 68.8589   8
   0   0   3 39.8155 47.9569   7
   0   0   6 519838. 10910.8  10
   0   0   6 565712. 11340.8   8
   0   0   9 135.134 45.6242  10
   0   0   9 443.564 177.940   8
   0   0  12 716646. 15385.3   8
   0   0  15 100.230 150.788   8
   0   0  18 414786. 9424.62   8
   0   0  21 0.45456 101.412   8
   1  -1 -22 216839. 5943.02   5
   0   1 -22 231546. 6385.43   5
   1  -1 -19-69.6284 199.267   5
   0   1 -19 124.478 217.220   5
  -1   0 -19 126.746 240.732   5
  -1   0 -16 362243. 9057.66   5
   0   1 -16 379832. 9116.84   5
   1  -1 -16 375615. 9027.84   5
   0   1 -16 392201. 8782.52   2
   1  -1 -16 372288. 8968.85   7
  -1   0 -13 324.132 201.213   6
   0   1 -13-13.7643 125.944   2
   1  -1 -13 231.139 199.833   7
  -1   0 -13-3.19922 136.945   5
   0   1 -13-137.055 132.601   5
   1  -1 -13 59.1778 203.702   5
   0   1 -10 652986. 13261.2   2
  -1   0 -10 606843. 13213.8   5
   1  -1 -10 605951. 13202.8   7
  -1   0 -10 603545. 13064.9   6
   1  -1 -10 624029. 13076.0   2
   0   1 -10 657886. 13317.3   5
   1  -1 -10 608143. 13308.6   5
   1  -1 -10 640919. 13105.6   6
  -1   0  -7 25.6527 103.433   5
   1  -1  -7 77.5349 117.121   5
   0   1  -7 34.0470 30.1944   4
   0   1  -7-9.50763 95.3750   5
  -1   0  -7 114.710 84.5453   6
   1  -1  -7 71.4154 28.2584  10
   1  -1  -7 62.7742 106.863   6
   1  -1  -4 710768. 15453.0   6
   0   1  -4 789645. 15576.9   3
   1  -1  -4 806731. 15449.6   8
  -1   0  -4 718538. 15541.3   5
   1  -1  -4 761500. 15388.0  10
  -1   0  -4 720641. 15625.2  10
   1  -1  -4 681151. 15457.4   2
   0   1  -4 740542. 15823.3   2
   0   1  -4 788520. 15702.6   5
  -1   0  -1-99.0225 80.1519  10
   1  -1  -1 77.9983 50.9302   8
   0   1  -1 81.8753 89.3860   1
   1  -1   2 738159. 16170.4   6
   1  -1   2 745237. 16328.7   3
  -1   0   2 815338. 16236.9   5
  -1   0   2 757869. 16182.9  10
   1  -1   2 737652. 16152.6   2
  -1   0   2 718664. 16347.2   8
   0   1   2 827172. 16162.5   1
   0   1   2 927277. 16487.4   5
   0   1   2 911683. 16253.3   8
  -1   0   5 127.722 101.963   8
  -1   0   5 105.983 60.3662   4
   0   1   5 19.5085 46.9607   1
  -1   0   5 4.39990 29.4440  10
  -1   0   8 668498. 13467.4   8
   1  -1   8 656870. 13608.1   8
   0   1   8 627151. 13040.4   4
   1  -1  11 187.303 147.486   8
  -1   0  11 279.394 140.038   8
   0   1  11 46.3939 64.9470   4
   0   1  11 106.905 158.510   8
  -1   0  14 458386. 10868.3   8
   1  -1  14 485106. 11070.3   8
   1  -1  14 484825. 10724.1   3
   0   1  17 69.9175 133.603   8
  -1   0  17 33.0030 165.746   8
   1  -1  17 380.295 246.508   8
   0   1  17 214.353 165.141   1
   1  -1  20 307689. 7459.98   8
  -1   0  20 305415. 7363.31   8
   0   1  20 317881. 7133.74   8
   1  -1  23 373.163 155.575   8
  -1   1 -20 277652. 7366.88   5
   0  -1 -20 258928. 7043.81   5
   1   0 -20 283393. 7243.44   5
   0  -1 -17 15.9271 177.226   5
  -1   1 -17 208.787 221.380   5
   1   0 -17 83.2810 209.673   5
   1   0 -17 122.468 172.093   2
   0  -1 -14 471741. 11061.2   7
   1   0 -14 485713. 11159.7   5
  -1   1 -14 517751. 10849.6   2
   1   0 -14 492013. 11046.5   2
   0  -1 -14 480689. 10843.1   6
  -1   1 -14 470949. 11085.8   5
   0  -1 -14 487533. 11234.4   5
   1   0 -11 275.732 201.304   5
   0  -1 -11 168.839 130.824   6
   1   0 -11 114.915 124.235   7
  -1   1 -11 102.044 127.559   2
   0  -1 -11 185.286 197.965   7
   0  -1 -11 129.500 179.505   5
   1   0 -11 825.431 202.294   2
  -1   1 -11 10.3811 147.034   5
   0  -1  -8 685110. 14501.9   5
  -1   1  -8 667294. 13929.8   4
   1   0  -8 673339. 14341.4   5
   0  -1  -8 685403. 14068.4  10
   1   0  -8 662241. 14104.7   7
   1   0  -8 611635. 14349.4   2
  -1   1  -8 633670. 14348.6   5
   0  -1  -8 659342. 14159.5   6
  -1   1  -5 95.5225 70.9289   2
   0  -1  -5 52.7092 67.6368  10
  -1   1  -5 161.587 108.194   6
  -1   1  -5 133.330 65.4575   4
   0  -1  -5 168.380 124.181   5
   1   0  -5 14.6132 72.0962   5
   1   0  -5 108.412 137.190   2
   1   0  -5 52.9662 51.1507   4
  -1   1  -5 73.1539 123.355   5
   1   0  -5 122.004 34.6792  10
   1   0  -2 841523. 16772.9   4
   0  -1  -2 749541. 16650.5   1
   1   0  -2 817898. 16831.5   9
  -1   1  -2 807004. 16729.0   1
   0  -1  -2 815740. 16794.4  10
   1   0  -2 771548. 16673.1  10
   1   0  -2 861310. 16743.6   5
  -1   1  -2 873972. 16649.8   2
   0  -1   1 208.198 94.5966  10
  -1   1   1 79.8374 25.9128   2
   1   0   1 0.60696 79.9916   4
   0  -1   1 212.566 67.5176   8
  -1   1   1 386.503 85.5532   1
   0  -1   4 607834. 14471.8  10
   0  -1   4 700138. 14450.0   7
   1   0   4 685343. 14617.2   4
  -1   1   4 702877. 14430.5   8
   1   0   4 809597. 14375.9   1
  -1   1   4 721088. 14524.1   4
   0  -1   4 599376. 14571.9   8
  -1   1   7 113.916 54.5063   4
   0  -1   7 158.222 104.555   8
   1   0   7 180.837 103.043   4
   0  -1   7 76.1692 59.9248  10
  -1   1   7-44.3742 87.3378   8
   0  -1   7 143.367 73.6314   3
   0  -1  10 623300. 11630.2  10
  -1   1  10 560665. 11528.3   4
   1   0  10 582371. 11674.4   4
   0  -1  10 668925. 11776.8   3
   0  -1  10 678793. 12154.0   8
  -1   1  10 533983. 11979.6   8
  -1   1  13-71.1105 122.124   8
   0  -1  13 146.653 112.910   8
   0  -1  13 43.1040 65.8639   3
   1   0  13 25.8788 189.176   8
   1   0  16 432456. 9850.49   8
   0  -1  16 425396. 9336.79   8
  -1   1  19 127.958 122.120   8
   1   0  19 71.7869 149.126   8
   0  -1  22 233336. 5778.99   8
   1   0  22 232277. 5665.20   8
   2  -2 -20 254378. 6473.19   5
   2  -2 -20 231073. 6275.57   7
   0   2 -20 266577. 6933.71   5
  -2   0 -20 233285. 6750.45   5
   0   2 -20 250721. 6193.80   2
   2  -2 -17-88.8901 195.563   7
   0   2 -17 148.041 197.338   2
   2  -2 -17 120.334 167.264   5
   0   2 -17-172.126 193.764   5
  -2   0 -17 125.238 207.290   6
  -2   0 -17 38.5844 186.465   5
   2  -2 -14 450973. 10170.5   5
   0   2 -14 435008. 10041.7   2
   2  -2 -14 446513. 10243.8   7
   0   2 -14 450533. 10353.0   5
  -2   0 -14 461531. 10139.9   6
   0   2 -11 29.5177 133.704   2
   0   2 -11 102.910 164.334   5
   0   2 -11 64.0680 45.8843   4
  -2   0 -11-9.76038 158.146   5
  -2   0 -11-106.486 135.817   6
   2  -2 -11 304.766 207.040   5
   2  -2  -8 694440. 14056.8  10
  -2   0  -8 631392. 14408.2   5
   0   2  -8 678073. 14830.6   2
   2  -2  -8 636086. 14249.6   6
   0   2  -8 740795. 14233.0   4
   0   2  -8 679298. 14618.1   5
  -2   0  -5-24.5707 66.1561   5
   2  -2  -5 36.6182 55.3287   6
  -2   0  -5 200.980 135.227  10
   2  -2  -5 15.8589 38.1184   8
   0   2  -5 202.630 150.834   5
  -2   0  -2 613289. 12545.8  10
   2  -2  -2 581062. 12173.5   8
   2  -2  -2 581999. 12473.5   9
   2  -2   1 150.120 134.188   3
  -2   0   1-199.402 179.809   8
  -2   0   1 112.136 89.9413  10
  -2   0   1 163.311 52.8605   5
   0   2   1 165.011 128.766   1
   2  -2   1 80.6762 49.1047   6
  -2   0   4 762134. 16411.3  10
   2  -2   4 781443. 16729.1   3
   2  -2   7-190.370 141.197   3
   0   2   7-28.0452 73.6279   1
  -2   0   7 66.5652 132.134   8
  -2   0  10 549353. 11779.0   8
   2  -2  10 507226. 11483.4   3
   2  -2  10 500869. 11656.7   8
   0   2  10 537728. 11157.3   1
   0   2  10 525612. 11188.5   4
   0   2  13 153.879 134.105   8
   2  -2  13 151.884 152.989   3
   0   2  13 126.272 101.617   4
  -2   0  13 35.4857 191.787   8
   2  -2  13-73.5772 161.111   8
   2  -2  16 338609. 8853.10   8
   0   2  16 436924. 8685.25   8
  -2   0  16 330835. 9052.32   8
   0   2  16 432016. 8838.73   1
   2  -2  16 378561. 8827.31   3
  -2   0  19 130.829 211.607   8
   2  -2  19 295.234 215.062   8
   2  -2  22 235526. 5957.31   8
   1  -2 -21 2951.02 511.840   5
   1   1 -21 3574.02 598.428   5
  -1  -1 -21 3421.92 558.782   5
   2  -1 -21 3207.30 511.144   5
  -2   1 -21 1988.88 433.077   5
  -1   2 -21 2856.09 546.972   5
   1   1 -21 2614.39 422.049   2
   2  -1 -18 294048. 7390.46   7
   2  -1 -18 310800. 7791.01   5
   1  -2 -18 321913. 8107.42   7
  -2   1 -18 309701. 8058.06   5
   1   1 -18 325662. 8116.44   5
   1  -2 -18 321354. 7904.27   5
  -1   2 -18 335359. 8177.12   5
   1   1 -18 322796. 7705.89   2
  -1  -1 -18 325361. 7846.50   6
  -1   2 -18 324932. 7480.84   2
  -1  -1 -18 303243. 7991.77   5
  -1  -1 -15 6456.87 672.522   5
   1   1 -15 6369.82 607.107   2
  -1   2 -15 6620.55 551.475   2
   1  -2 -15 6618.36 592.713   6
   2  -1 -15 6553.49 577.804   7
   1   1 -15 6730.18 678.366   5
   2  -1 -15 5864.64 602.826   2
   1  -2 -15 8045.32 728.320   7
   2  -1 -15 6289.56 613.380   5
   1  -2 -15 6548.71 650.086   5
  -1   2 -15 7338.18 719.235   5
  -2   1 -15 6121.81 659.244   5
  -1  -1 -15 7489.22 654.205   6
   1  -2 -12 485449. 11029.9   7
   1  -2 -12 470132. 11070.6   5
  -1  -1 -12 489130. 10886.7   6
   2  -1 -12 513601. 10989.9   7
  -2   1 -12 484439. 10854.9   6
   1   1 -12 446719. 10931.7   2
   2  -1 -12 455679. 10883.4   5
  -1   2 -12 503445. 11188.0   5
  -1  -1 -12 516833. 11306.2   5
  -1   2 -12 503012. 10796.3   2
   2  -1 -12 482742. 10948.8   2
   1   1 -12 516009. 11106.1   5
   1  -2 -12 507306. 10201.5  10
  -2   1 -12 465614. 11010.3   5
   1  -2 -12 481944. 10739.6   6
   1  -2  -9 23923.3 1210.45   5
  -1  -1  -9 22222.6 1041.37   7
  -1  -1  -9 23389.1 1081.88   5
   1   1  -9 20589.3 624.626   4
   1   1  -9 20148.2 1089.71   2
   2  -1  -9 18980.5 932.414   5
  -2   1  -9 21959.6 923.549   6
   1   1  -9 21829.2 971.454   5
   1  -2  -9 23383.7 817.789  10
  -1   2  -9 21801.3 924.447   2
  -1   2  -9 23487.1 1117.45   5
   2  -1  -9 17919.4 900.149   2
  -1  -1  -9 19456.3 900.604  10
   1  -2  -9 20531.1 841.835   6
  -2   1  -9 19806.1 974.926   5
  -2   1  -6 735013. 15735.7   6
   2  -1  -6 767867. 15979.5   5
   1   1  -6 756115. 15634.3   4
   1  -2  -6 775518. 15702.8  10
   1   1  -6 759519. 15791.2   5
   1   1  -6 802703. 16389.5   2
  -1  -1  -6 786475. 15969.0   5
   2  -1  -6 747870. 15785.4   4
   2  -1  -6 808858. 15515.9  10
  -1  -1  -6 782851. 16042.2  10
  -1   2  -6 724848. 15884.5   2
   1   1  -6 686029. 15482.4   3
  -2   1  -6 812297. 16116.6   5
   2  -1  -6 658760. 15773.0   2
  -1   2  -6 894901. 16206.5   1
   2  -1  -6 734841. 15955.4   9
  -2   1  -3 65990.6 1555.62   1
  -1  -1  -3 69654.2 1850.48  10
   1   1  -3 63590.8 1661.43   4
  -1  -1  -3 69216.4 1719.71   7
   2  -1  -3 57567.4 1662.88   3
   2  -1  -3 67829.3 1853.84   9
   2  -1  -3 59646.8 1697.45   4
   1   1  -3 63560.9 1566.89   5
  -1   2  -3 54729.8 1686.06   1
  -1  -1  -3 71768.5 1479.63   1
   2  -1  -3 55457.5 1645.04   2
   1  -2  -3 75124.5 1771.96  10
   1   1  -3 63127.2 1656.14   9
  -1  -1  -3 59579.2 1618.91   5
  -2   1   0 568258. 12668.4   1
   2  -1   0 588474. 12824.2   4
   1  -2   0 624664. 12560.0   9
   1  -2   0 548246. 12746.4  10
   1   1   0 602274. 12780.3   4
  -1  -1   0 626618. 12855.3  10
  -1   2   0 635304. 12879.6   1
  -1  -1   0 713500. 13282.8   8
   1  -2   0 645279. 12622.5   8
   1   1   3 67911.8 1552.12   5
  -1   2   3 67800.1 1723.77   1
  -2   1   3 55375.3 1832.19   8
   1  -2   3 70234.5 1730.28   8
   2  -1   3 60436.4 1734.58   4
   1  -2   3 68841.6 1731.25   3
  -1  -1   3 65617.0 1714.82  10
   1   1   3 65269.1 1739.08   4
   2  -1   3 68666.6 1560.81   1
   1   1   3 62121.5 1551.63   1
  -1  -1   3 66627.2 1884.84   8
  -1   2   6 730004. 15011.3   8
  -1  -1   6 679564. 15152.4  10
  -1  -1   6 723477. 15554.4   8
   1   1   6 768863. 14949.5   1
   1  -2   6 930067. 15721.6   8
   2  -1   6 675035. 15238.9   4
   1  -2   6 835734. 15400.1   3
   1   1   6 696755. 15301.0   4
  -2   1   6 623863. 15366.6   8
  -1   2   6 700008. 15259.6   1
   1   1   9 21743.8 895.000   4
  -1  -1   9 21966.2 1005.49   8
   1  -2   9 23994.1 1013.63   8
  -1   2   9 21849.2 793.824   8
   1  -2   9 20372.2 844.732   3
  -1  -1   9 21853.9 691.743  10
   2  -1   9 20959.8 771.865   4
  -1   2   9 21241.8 886.936   1
   1   1   9 21378.1 658.076   1
  -1   2  12 448963. 10775.6   8
   1  -2  12 518359. 10797.4   3
   1   1  12 567320. 11147.1   4
   1   1  12 520420. 10597.2   1
  -1  -1  12 427646. 10939.3   8
   1  -2  12 535409. 11139.8   8
  -2   1  12 517927. 11243.9   8
  -1   2  12 500036. 10548.1   4
  -1   2  12 512873. 11041.6   1
   1   1  15 6699.64 630.953   8
   2  -1  15 7118.15 707.811   8
  -1   2  15 7306.19 611.946   1
  -1  -1  15 7857.53 605.111   8
  -1   2  15 6355.87 461.168   8
   1  -2  15 7028.63 567.217   8
  -2   1  15 8649.82 739.875   8
   1  -2  15 7908.63 459.091   3
  -1  -1  18 357444. 8409.18   8
   1   1  18 378688. 8434.27   8
  -1   2  18 357364. 8581.76   1
   2  -1  18 349604. 8755.95   8
  -2   1  18 358027. 8482.92   8
   1  -2  18 356314. 8332.92   8
  -1  -1  21 3509.16 455.929   8
  -2   1  21 2578.54 458.557   1
   2  -1  21 3405.70 440.737   8
   1  -2  21 2792.13 393.862   8
  -2   2 -22 220646. 6267.65   5
   2   0 -22 217381. 6037.14   5
   0  -2 -22 219797. 6097.95   5
   2   0 -19 179.396 162.775   2
   2   0 -19 73.2646 246.093   5
  -2   2 -19 320.490 266.364   5
   0  -2 -19 75.2002 201.873   6
   0  -2 -19 177.721 252.682   5
   0  -2 -16 390320. 8853.41   6
   0  -2 -16 373462. 9164.68   5
  -2   2 -16 370413. 9096.92   5
   0  -2 -16 393263. 9169.50   7
   2   0 -16 374525. 8960.96   5
   0  -2 -13-38.7182 147.631   6
   2   0 -13 185.748 121.719   7
   2   0 -13 156.256 189.349   5
   0  -2 -13 261.781 132.799  10
   2   0 -13-64.2585 185.184   2
   0  -2 -13 419.354 258.906   5
  -2   2 -13-56.5716 200.745   5
   0  -2 -13 281.954 201.019   7
   0  -2 -10 607834. 12620.4   5
   2   0 -10 557152. 11648.8   7
  -2   2 -10 575707. 11716.6   2
  -2   2 -10 601671. 12362.2   5
   0  -2 -10 556259. 12114.7   7
   0  -2 -10 591526. 12007.4  10
   2   0 -10 495608. 11373.7   4
   2   0 -10 545785. 11983.2   5
   2   0 -10 491845. 12049.4   2
   2   0  -7-37.0172 84.5540   4
   0  -2  -7 30.2230 120.126  10
   0  -2  -7 336.022 232.688   5
   2   0  -7 118.546 110.150   5
   0  -2  -7 2.93855 136.849   7
  -2   2  -7 126.202 93.4218   1
  -2   2  -7-33.2442 75.7831   2
   2   0  -4 810199. 17842.1   9
   2   0  -4 877299. 17749.7   4
   2   0  -4 770470. 17701.1   5
  -2   2  -4 915925. 17602.8   2
  -2   2  -4 876496. 17796.9   1
   0  -2  -4 859026. 17915.2  10
  -2   2  -1 54.7085 96.8036   1
   0  -2  -1 118.418 116.759  10
   0  -2  -1 164.115 119.805   8
   2   0  -1 21.5166 86.1929   4
  -2   2   2 568747. 12380.4   1
  -2   2   2 597967. 12012.0   2
   0  -2   2 582287. 12368.3   8
   2   0   2 585486. 12452.1   4
   0  -2   5-10.7961 101.240   8
   2   0   5 134.086 115.466   4
   0  -2   5 16.6662 90.3024  10
  -2   2   5 12.3446 85.8672   1
  -2   2   5-14.8605 42.7450   8
   0  -2   8 589848. 13610.3  10
  -2   2   8 622605. 13939.6   1
   0  -2   8 602301. 13755.8   8
  -2   2   8 640514. 13643.5   8
   2   0   8 665578. 14019.1   4
  -2   2  11 102.088 174.046   1
  -2   2  11-128.326 111.783   8
   0  -2  11 15.9567 123.765   8
   2   0  11 164.478 115.877   4
   0  -2  11 93.4048 87.2824  10
  -2   2  14 460132. 11193.1   1
   0  -2  14 469633. 10804.7   8
   2   0  17-111.980 142.634   8
   0  -2  17-49.7487 132.701   8
  -2   2  17-241.599 212.333   1
  -2   2  20 259771. 6814.46   1
   0  -2  20 270829. 6130.70   8
  -3   0 -21-85.5468 200.800   5
   0   3 -21 91.2118 141.111   2
   0   3 -21 109.572 220.207   5
   3  -3 -21 104.239 113.865   7
   0   3 -18 281634. 7052.99   2
   0   3 -18 315041. 7720.88   5
  -3   0 -18 313725. 7537.60   6
   3  -3 -18 265874. 6960.52   7
  -3   0 -18 289254. 7705.67   5
  -3   0 -15-129.433 159.828   5
   3  -3 -15 237.424 190.243   7
   0   3 -15-86.1054 176.651   5
  -3   0 -15 4.51864 168.075   6
   0   3 -15-127.415 158.907   2
  -3   0 -12 465057. 10594.0   6
  -3   0 -12 472592. 10689.9   5
   0   3 -12 500205. 10822.7   5
   0   3  -9 120.301 173.805   5
   0   3  -9 145.237 234.166   2
  -3   0  -9-13.8409 120.962   5
   3  -3  -9 116.788 94.4998  10
   0   3  -9 244.400 149.927   4
  -3   0  -6 486008. 10593.5   5
   0   3  -6 547504. 11073.7   5
   3  -3  -3 200.279 133.852   9
   0   3  -3-111.556 165.986   1
  -3   0  -3 105.833 173.123  10
  -3   0  -3 20.7723 59.1674   5
   3  -3  -3-4.56398 59.4445   8
  -3   0  -3 144.895 57.6293   1
  -3   0   0 796034. 16265.4   5
  -3   0   0 785058. 16807.2  10
   0   3   3 23.4585 108.354   1
   3  -3   3 185.760 173.158   3
  -3   0   3-87.9002 204.930   8
  -3   0   3 49.6015 108.461  10
   3  -3   6 434690. 10067.3   3
  -3   0   6 455575. 9560.11  10
  -3   0   6 451628. 10386.2   8
   0   3   9 41.4486 90.9952   4
   3  -3   9 86.2470 154.259   3
   0   3   9 149.137 104.812   1
   3  -3   9 23.7482 147.486   8
  -3   0   9 119.710 251.212   8
   0   3  12 483653. 10219.8   4
  -3   0  12 475611. 11132.0   8
   0   3  12 501950. 10118.1   1
   3  -3  15-28.9665 152.943   8
  -3   0  15 91.5715 222.222   8
   3  -3  15 228.905 196.331   3
   3  -3  18 284916. 7164.98   8
  -3   0  18 318560. 8105.28   8
   3  -3  21-103.052 204.328   8
  -3   1 -22 192617. 5871.09   5
  -2  -1 -22 197770. 6028.23   5
  -3   1 -19 1161.05 360.859   5
  -1   3 -19 1359.48 283.838   2
  -2  -1 -19 1286.34 358.997   6
   1   2 -19 687.670 217.027   2
  -1   3 -19 759.710 295.193   5
  -2  -1 -19 864.512 355.819   5
   1   2 -19 885.408 343.717   5
   3  -2 -19 894.438 217.681   7
   2  -3 -19 1172.58 326.009   7
  -3   1 -16 339146. 8187.92   6
   3  -2 -16 316847. 7835.01   7
   1   2 -16 356335. 8517.36   5
  -2  -1 -16 332520. 8577.66   5
   1   2 -16 330643. 8143.17   2
  -3   1 -16 329537. 8404.55   5
  -1   3 -16 362069. 8564.05   5
  -2  -1 -16 361648. 8407.27   6
  -1   3 -16 347879. 7961.89   2
   2  -3 -16 334826. 8247.85   7
  -1   3 -13 1977.36 389.478   5
  -3   1 -13 1613.36 291.210   6
  -2  -1 -13 1929.72 362.770   6
   2  -3 -13 2138.04 356.791   7
   2  -3 -13 1946.79 327.159   6
  -1   3 -13 1720.90 293.753   2
   1   2 -13 2568.85 421.333   5
   3  -2 -13 1494.75 270.279   2
   1   2 -13 1417.00 321.746   2
  -3   1 -13 1800.75 349.097   5
  -2  -1 -13 2077.49 401.301   5
  -1   3 -10 549162. 11873.3   5
   2  -3 -10 506492. 11343.7   6
  -2  -1 -10 561284. 11842.9   5
   3  -2 -10 518683. 10867.8  10
  -3   1 -10 507881. 11708.2   5
  -1   3 -10 499785. 11559.1   2
   1   2 -10 573853. 11254.8   4
   1   2 -10 556077. 11744.1   5
   1   2 -10 600360. 12365.5   2
   3  -2 -10 478558. 11349.5   2
  -2  -1 -10 508542. 11661.4  10
  -3   1 -10 504700. 11512.2   6
   2  -3 -10 560824. 11232.1  10
   3  -2  -7 4056.02 321.502   2
  -2  -1  -7 5065.45 395.544   5
   3  -2  -7 3586.23 424.708   9
   1   2  -7 4451.54 402.179   5
  -3   1  -7 3954.50 433.884   5
   2  -3  -7 5004.69 383.053  10
   2  -3  -7 3976.37 303.953   6
  -1   3  -7 4527.41 448.839   1
  -1   3  -7 3890.86 434.290   2
  -2  -1  -7 4396.03 506.375  10
  -3   1  -7 4268.01 366.071   6
   1   2  -7 4670.78 376.001   4
   1   2  -4 716173. 12970.5   4
  -2  -1  -4 674125. 13174.7  10
   1   2  -4 720063. 12795.5   5
  -1   3  -4 552521. 12849.3   1
   1   2  -4 613952. 12561.2   9
  -2  -1  -4 588021. 12248.5   1
   2  -3  -4 712895. 12964.5  10
   3  -2  -4 632840. 12450.1   2
  -2  -1  -4 692435. 12489.4   5
  -3   1  -4 620678. 12431.6   1
   3  -2  -4 647641. 12853.6   3
   3  -2  -4 723535. 13099.5   9
   2  -3  -1 7768.56 313.243   8
  -2  -1  -1 9050.97 635.946   8
   1   2  -1 9030.49 570.525   4
   3  -2  -1 7303.04 563.725   3
  -1   3  -1 8888.59 561.030   1
  -2  -1  -1 9936.22 609.433  10
   3  -2  -1 8296.81 542.743   4
   2  -3  -1 9022.39 464.280   9
  -3   1  -1 8601.68 452.069   1
  -3   1   2 595734. 13529.0   8
   2  -3   2 676924. 13308.9   3
   3  -2   2 615382. 13310.0   4
   3  -2   2 609050. 13485.7   3
  -2  -1   2 633600. 13327.7  10
  -1   3   2 734048. 13358.7   1
   1   2   2 642422. 13431.0   4
  -1   3   2 600293. 12902.4   8
   2  -3   2 704816. 13233.6   8
   1   2   2 683117. 12926.2   5
  -2  -1   2 627295. 13777.8   8
   3  -2   2 611117. 12780.4   2
   1   2   2 678985. 13329.8   1
   2  -3   5 6149.23 449.024   8
  -2  -1   5 6213.99 427.907  10
   1   2   5 5536.01 381.592   1
   1   2   5 6008.18 480.136   4
  -2  -1   5 7005.16 611.814   8
  -1   3   5 5825.31 385.330   1
   3  -2   5 5832.05 444.206   4
   2  -3   5 6554.06 483.196   3
  -3   1   5 6218.81 573.377   8
   2  -3   8 555042. 11952.8   8
  -3   1   8 498072. 12138.1   8
   2  -3   8 605915. 11889.9   3
   3  -2   8 545650. 11718.1   4
  -2  -1   8 546987. 11586.6  10
  -1   3   8 567003. 11353.7   8
  -1   3   8 584784. 11306.8   8
  -2  -1   8 547883. 12281.7   8
   1   2   8 544692. 11919.2   4
   1   2   8 646122. 11442.9   1
  -1   3   8 549218. 11737.8   1
  -1   3  11 2300.86 303.526   1
   2  -3  11 1752.59 287.294   8
   1   2  11 2271.23 326.814   4
  -3   1  11 2764.01 441.398   8
   1   2  11 1905.84 174.959   1
  -2  -1  11 2649.33 439.196   8
   2  -3  11 1691.50 263.253   3
  -1   3  11 2339.68 202.364   8
  -2  -1  11 1966.53 187.448  10
   2  -3  14 412787. 9934.19   8
  -1   3  14 455777. 9586.96   4
   3  -2  14 409140. 10352.7   8
  -1   3  14 494984. 10146.6   1
   2  -3  14 459799. 9792.09   3
   3  -2  14 423188. 10214.8   3
  -2  -1  14 365079. 10144.2   8
   1   2  14 502585. 10420.9   4
  -3   1  14 474328. 10554.4   8
   2  -3  17 1088.81 244.657   8
   3  -2  17 1010.90 299.130   3
   1   2  17 819.880 226.574   8
  -1   3  17 902.879 231.459   1
  -3   1  17 833.421 261.279   8
   3  -2  17 492.115 241.028   8
  -2  -1  17 875.166 312.612   8
   2  -3  20 243917. 5977.47   8
  -2  -1  20 240098. 6240.09   8
   3  -2  20 242409. 6301.66   8
   1  -3 -20 238012. 6586.12   7
  -1  -2 -20 265334. 6706.50   6
  -1  -2 -20 256209. 7225.04   5
  -3   2 -20 229180. 6573.03   5
  -2   3 -20 214883. 6293.93   5
   2   1 -20 261085. 6394.32   2
   2   1 -20 248170. 6659.34   5
   3  -1 -20 244631. 6331.89   5
   1  -3 -17 1040.23 303.867   6
  -1  -2 -17 968.160 400.680   5
   3  -1 -17 754.383 172.164   7
  -1  -2 -17 1165.53 362.950   6
   2   1 -17 1454.21 346.042   2
  -2   3 -17 990.778 304.633   5
   2   1 -17 545.785 266.623   5
   3  -1 -17 922.481 262.277   5
  -2   3 -17 677.262 195.529   2
  -3   2 -17 1047.27 326.591   5
   3  -1 -17 598.912 264.439   2
   1  -3 -17 1029.14 295.880   7
   2   1 -14 434000. 10016.5   2
   3  -1 -14 403695. 9306.41   7
   1  -3 -14 419117. 9848.20   7
   3  -1 -14 402642. 9635.03   5
  -1  -2 -14 447483. 10499.0   5
  -1  -2 -14 450351. 9969.79   6
   1  -3 -14 439595. 9776.95   6
   2   1 -14 445111. 10009.1   5
  -3   2 -14 451711. 10247.0   5
  -2   3 -14 383480. 9765.23   5
  -2   3 -14 441999. 9507.30   2
   3  -1 -14 413227. 9957.21   2
  -2   3 -11 1709.71 256.769   2
  -2   3 -11 1545.03 293.081   5
  -1  -2 -11 2608.17 415.823   7
   2   1 -11 2244.36 192.450   4
   2   1 -11 2281.30 404.583   2
   1  -3 -11 2118.73 310.189   6
   2   1 -11 1660.45 306.746   5
   3  -1 -11 2380.30 329.958   5
   1  -3 -11 1904.55 320.822   7
  -1  -2 -11 1715.74 355.931  10
  -3   2 -11 1811.05 363.587   5
   1  -3 -11 1949.90 254.675  10
   3  -1 -11 2174.36 364.645   2
  -1  -2 -11 1715.88 353.825   5
  -2   3  -8 555973. 12222.8   1
  -3   2  -8 575424. 12206.6   6
  -1  -2  -8 574733. 12439.0   5
  -1  -2  -8 599628. 12722.6  10
  -1  -2  -8 580072. 12515.8   7
   2   1  -8 546026. 12201.8   5
   3  -1  -8 571050. 12516.6   2
  -3   2  -8 531229. 11927.3   1
  -2   3  -8 590170. 12125.7   2
   2   1  -8 662625. 12646.7   2
   3  -1  -8 589407. 12596.4   9
   2   1  -8 577966. 12001.3   4
   1  -3  -8 604513. 12189.7  10
   3  -1  -8 566023. 12307.1   4
   2   1  -8 616425. 11736.9   3
  -3   2  -8 512582. 12317.3   5
   2   1  -5 5345.95 360.916   5
   3  -1  -5 5858.38 544.720   2
  -1  -2  -5 6877.11 512.673   7
  -2   3  -5 6127.64 401.209   2
   3  -1  -5 6200.38 462.658   9
  -2   3  -5 6033.41 431.945   1
   2   1  -5 6252.15 435.946   9
   3  -1  -5 6227.08 447.153   3
  -3   2  -5 6768.56 383.918   1
  -1  -2  -5 7047.76 562.364  10
   1  -3  -5 6087.08 451.515  10
   2   1  -5 6283.50 462.660   4
   3  -1  -5 6249.05 494.131   4
  -3   2  -5 6062.97 388.668   6
  -1  -2  -2 826065. 13766.9   8
  -2   3  -2 628301. 13310.3   1
  -1  -2  -2 637524. 13143.0   7
  -3   2  -2 552934. 13094.5   1
  -1  -2  -2 611575. 13441.9  10
  -3   2  -2 631023. 12901.6   6
   2   1  -2 606874. 12785.8   5
   1  -3  -2 718729. 13543.3  10
   3  -1  -2 711667. 13528.1   4
   2   1  -2 613043. 13283.6   4
   2   1  -2 587114. 12799.5   7
   1  -3  -2 655645. 13039.3   8
  -3   2   1 8778.13 520.443   1
  -1  -2   1 9321.49 635.748   8
  -2   3   1 8695.61 526.006   1
   2   1   1 8530.41 546.570   4
  -1  -2   1 9482.46 368.813   7
   3  -1   1 9061.86 596.290   4
   1  -3   1 9368.30 480.267   8
   1  -3   1 7928.35 507.414  10
  -1  -2   1 9667.95 600.332  10
  -2   3   4 636481. 13322.1   1
  -1  -2   4 670668. 13506.9  10
  -3   2   4 570641. 13337.4   1
  -1  -2   4 641338. 13605.5   8
   1  -3   4 668535. 13262.7  10
   2   1   4 627005. 13420.1   4
   1  -3   4 587918. 13124.5   8
   3  -1   4 625336. 13453.1   4
   3  -1   7 3860.58 188.473   1
   1  -3   7 5058.00 396.847   8
   1  -3   7 4431.06 340.040  10
  -3   2   7 3933.55 427.634   1
  -1  -2   7 4791.46 411.964  10
   2   1   7 4518.68 443.693   4
  -3   2   7 5653.60 404.925   8
   3  -1   7 4167.52 406.862   4
  -1  -2   7 5030.04 522.017   8
  -2   3   7 4761.15 427.090   1
  -3   2  10 547422. 11298.2   1
  -2   3  10 532026. 11152.4   1
  -1  -2  10 492207. 10786.9  10
   1  -3  10 557861. 10762.3  10
   3  -1  10 495784. 10900.4   4
  -1  -2  10 417446. 11005.0   8
   2   1  10 494364. 11174.3   4
  -3   2  10 540282. 10970.2   8
   1  -3  10 577966. 11062.8   8
   2   1  13 2059.43 354.923   4
  -1  -2  13 1794.77 289.973   8
   1  -3  13 1635.85 272.970   8
  -3   2  13 1905.63 344.355   1
  -3   2  13 2270.67 312.279   8
  -2   3  13 1846.69 336.004   1
   1  -3  13 1872.56 221.190  10
   3  -1  13 1832.93 260.580   4
  -2   3  16 365508. 8536.27   1
   3  -1  16 336225. 8658.62   8
  -3   2  16 357996. 8567.81   1
   1  -3  16 341449. 8030.55   8
  -1  -2  16 363194. 8237.67   8
  -2   3  19 858.694 314.736   1
  -3   2  19 764.667 282.854   1
  -1  -2  19 889.585 255.703   8
   1  -3  19 801.073 204.461   8
   3  -1  19 1270.95 336.411   8
   2   1  19 722.461 210.747   8
   3  -1  19 918.476 303.194   3
  -3   2  22 183868. 5393.85   1
  -3   3 -21 313.410 172.978   5
   0  -3 -21 184.157 168.804   6
   3   0 -21 69.6474 174.566   5
   3   0 -21 59.6121 129.062   2
   3   0 -18 303924. 7198.13   2
   0  -3 -18 299628. 7307.95   6
   3   0 -18 286936. 7153.06   5
   0  -3 -15 255.159 252.417   7
   3   0 -15 411.129 226.974   2
   0  -3 -15 189.179 211.949   6
   3   0 -15 169.854 174.276   5
  -3   3 -15 135.530 131.114   5
   0  -3 -12 485841. 10741.5   7
   3   0 -12 445941. 10426.9   5
   3   0 -12 457254. 9887.17   7
  -3   3 -12 427271. 10492.9   5
   3   0 -12 535030. 10922.3   2
   0  -3 -12 517408. 10823.8  10
  -3   3  -9 40.8789 89.3197   1
   0  -3  -9 99.1658 143.249  10
   3   0  -9 489.473 205.403   2
   3   0  -9 248.748 103.384   4
   3   0  -9-208.343 126.695   5
   0  -3  -9 100.212 145.768   7
   0  -3  -6 501619. 10869.7   7
   3   0  -6 483547. 10546.9   4
   0  -3  -6 498820. 10877.8  10
   3   0  -6 459114. 10556.5   5
  -3   3  -6 486112. 10650.6   1
   3   0  -6 501838. 10772.1   9
  -3   3  -6 488183. 10378.1   2
   0  -3  -3 153.964 156.322  10
   0  -3  -3 163.991 105.487   8
   3   0  -3 207.369 104.135   4
  -3   3  -3 290.881 168.721   1
  -3   3   0 800643. 17040.2   1
   3   0   0 782881. 17019.7   4
   0  -3   0 775016. 17084.8   8
   0  -3   3 176.264 143.812   8
   3   0   3 185.089 133.175   4
   0  -3   3 201.183 195.550  10
  -3   3   3 137.203 170.663   1
  -3   3   6 450775. 9510.45   1
   0  -3   6 376755. 9205.64  10
   3   0   6 473721. 9529.31   4
   0  -3   6 413260. 9393.28   8
   0  -3   9 81.3634 130.893   8
   3   0   9 191.130 186.330   4
   0  -3   9 81.8258 126.151  10
  -3   3   9 212.179 174.678   1
   0  -3  12 467911. 10502.1   8
   3   0  12 466339. 10666.5   4
  -3   3  12 448395. 10838.8   1
   0  -3  15-88.3822 122.124   8
  -3   3  15-203.090 206.155   1
   3   0  18 287607. 7497.62   8
  -3   3  18 303956. 8036.33   1
   0  -3  21 177.411 165.746   8
  -3   3  21-48.2181 197.326   1
   3   0  21 80.1242 134.804   8
   0   4 -19 143.661 193.584   2
   4  -4 -19-0.54031 158.154   7
  -4   0 -19-0.90645 222.381   6
   0   4 -19 0.85511 217.986   5
   4  -4 -16 242756. 6192.42   7
  -4   0 -16 263465. 6798.46   6
   0   4 -16 268777. 6809.73   5
   0   4 -16 246730. 6404.42   2
  -4   0 -13 187.821 153.452   5
   0   4 -13-325.426 217.414   2
  -4   0 -13-279.258 242.585   6
   0   4 -13 26.3818 186.842   5
   4  -4 -10 494981. 10643.8  10
  -4   0 -10 495985. 10599.0   5
   0   4 -10 492014. 11158.2   5
   0   4 -10 508706. 10881.7   4
   0   4  -7-45.6068 155.963   4
   0   4  -7 41.7498 174.335   5
  -4   0  -7-26.3676 55.7359   5
   4  -4  -7-25.9380 118.384  10
   4  -4  -4 484800. 11123.4   9
   0   4  -4 492416. 11234.0   1
  -4   0  -4 501221. 10129.7   5
   4  -4  -1 131.612 133.372   3
   0   4  -1-68.6056 170.249   1
  -4   0  -1 174.438 139.577  10
   4  -4  -1 191.160 194.324   9
  -4   0  -1 86.1980 96.1476   1
  -4   0   2 526591. 11766.2  10
   4  -4   2 569301. 12053.2   3
  -4   0   2 552986. 12235.9   8
   0   4   2 527054. 11900.2   1
   0   4   5 32.2718 90.8597   1
   0   4   5-187.898 139.941   4
  -4   0   5 154.032 230.694   8
   4  -4   5-13.1136 148.478   3
  -4   0   8 436572. 10749.7   8
   4  -4   8 442751. 10190.3   8
   4  -4   8 421543. 10181.1   3
   0   4   8 443131. 9615.72   1
  -4   0  11-17.0075 253.373   8
   4  -4  11-18.8601 161.433   8
   0   4  11 97.3480 138.122   4
   0   4  11 70.7797 114.264   1
   4  -4  11 227.891 226.946   3
  -4   0  14 359770. 8873.65   8
   0   4  14 351264. 7584.72   4
  -4   0  17 36.3731 222.388   8
   4  -4  17 186.397 185.503   8
   4  -4  17 21.0919 154.160   3
   1   3 -20 220707. 6219.16   5
   3  -4 -20 212829. 5719.30   7
  -4   1 -20 220609. 6178.46   5
  -1   4 -20 205398. 5840.95   5
  -1   4 -20 213271. 5554.68   2
   1   3 -20 224532. 5711.07   2
  -1   4 -17 1219.22 284.240   2
   4  -3 -17 1467.90 275.786   7
   3  -4 -17 1543.73 343.641   7
   1   3 -17 1699.22 398.566   5
  -4   1 -17 1374.92 384.196   6
  -3  -1 -17 1841.00 473.729   6
  -4   1 -17 2002.12 441.128   5
   1   3 -17 1365.35 323.579   2
  -1   4 -17 1777.14 373.710   5
  -4   1 -14 360509. 8611.20   6
  -3  -1 -14 372864. 8864.85   6
  -1   4 -14 329462. 8490.52   5
  -3  -1 -14 398051. 8562.22   5
   1   3 -14 374776. 8768.37   5
  -4   1 -14 394848. 8929.97   5
  -1   4 -14 327111. 8311.81   2
   1   3 -14 345712. 8558.42   2
  -1   4 -11 2415.60 372.329   2
   1   3 -11 2593.66 416.793   2
   3  -4 -11 2872.12 356.955   6
  -4   1 -11 2428.79 372.064   6
  -3  -1 -11 3659.49 395.529   5
   1   3 -11 3168.11 336.226   4
   1   3 -11 3054.53 425.662   5
   3  -4 -11 3138.04 320.361  10
  -1   4 -11 3024.74 412.625   5
  -4   1 -11 2588.99 399.795   5
   3  -4  -8 498348. 10402.9   6
  -4   1  -8 465498. 10713.7   6
  -3  -1  -8 482329. 11062.5  10
  -1   4  -8 405638. 10635.5   5
  -3  -1  -8 531679. 10443.6   5
   1   3  -8 497207. 10816.5   5
  -4   1  -8 513061. 10910.4   5
   3  -4  -8 501893. 10706.1  10
  -1   4  -8 447126. 10919.8   2
   1   3  -8 496757. 10776.1   4
   3  -4  -5 5796.68 509.389  10
  -1   4  -5 5219.93 485.953   1
   1   3  -5 6133.42 550.768   4
   3  -4  -5 5819.45 312.261   6
   1   3  -5 6054.76 465.167   5
  -4   1  -5 6369.27 532.550   5
  -3  -1  -5 6244.08 603.374  10
  -4   1  -5 5448.32 257.074   1
   4  -3  -5 5932.71 529.293   9
   1   3  -2 650220. 12962.7   4
  -3  -1  -2 590085. 12822.8  10
  -4   1  -2 558038. 12252.8   1
   4  -3  -2 601443. 12798.5   3
  -1   4  -2 548397. 12562.9   1
   1   3  -2 578554. 12022.0   9
   3  -4  -2 489102. 11869.5   8
   3  -4  -2 586287. 12464.1   9
   3  -4   1 7829.32 456.714   8
   1   3   1 8035.69 632.976   4
   1   3   1 8409.51 633.892   1
   4  -3   1 5527.39 566.811   3
  -3  -1   1 7263.58 583.303  10
  -1   4   1 7637.75 576.149   1
  -4   1   1 7134.44 483.293   1
  -3  -1   1 7487.91 641.320   8
   1   3   4 549081. 11085.6   4
   3  -4   4 460566. 10757.0   8
   1   3   4 523678. 11067.3   1
   3  -4   4 530942. 10963.8   3
   4  -3   4 465722. 11223.3   3
  -3  -1   4 489473. 10949.8  10
  -1   4   4 558089. 10874.8   1
  -4   1   4 493272. 11253.8   8
  -3  -1   4 474157. 11488.0   8
   1   3   7 5001.21 458.020   4
   3  -4   7 4011.09 416.435   8
  -3  -1   7 4900.41 427.871  10
  -3  -1   7 6380.72 694.278   8
   3  -4   7 5053.03 464.531   3
   1   3   7 4685.35 342.820   1
   4  -3   7 4264.17 524.886   3
  -1   4   7 4466.01 378.970   1
  -4   1   7 5166.86 561.132   8
   3  -4  10 485734. 10825.7   8
  -1   4  10 500750. 10492.8   1
   3  -4  10 508170. 10711.2   3
   4  -3  10 449790. 11038.4   3
  -3  -1  10 472967. 10296.2  10
  -4   1  10 453880. 11316.0   8
  -3  -1  10 481482. 11444.0   8
   1   3  10 475532. 10627.0   4
  -3  -1  13 2725.19 560.896   8
  -4   1  13 3130.75 525.542   8
   3  -4  13 2133.42 339.584   8
  -1   4  13 2476.01 325.819   1
   4  -3  13 2769.79 469.316   8
   3  -4  13 2476.45 343.651   3
   4  -3  13 2159.14 407.232   3
  -1   4  13 2546.59 304.716   4
   1   3  13 3193.32 390.473   4
   3  -4  16 281959. 7021.22   8
   4  -3  16 279631. 7590.60   8
   4  -3  16 286555. 7490.15   3
   3  -4  16 304750. 6880.75   3
  -3  -1  16 293604. 7869.82   8
   3  -4  19 1455.91 286.368   8
   4  -3  19 1247.53 372.931   8
  -3  -1  19 1059.04 310.899   8
  -4   2 -21 1446.97 362.985   5
   2  -4 -18 260705. 6826.35   7
  -2  -2 -18 280775. 7060.33   6
  -2  -2 -18 279032. 7064.57   5
   2   2 -18 277909. 7160.39   5
  -4   2 -18 241968. 6906.14   5
  -2   4 -18 245891. 6608.99   5
  -2   4 -18 256061. 6338.13   2
   2   2 -18 275854. 6571.16   2
   2   2 -15 3257.45 413.233   2
   4  -2 -15 3359.09 359.531   7
   2   2 -15 3200.57 505.173   5
   2  -4 -15 3352.70 490.097   7
  -2  -2 -15 4147.95 541.107   6
  -2  -2 -15 3791.71 538.319   5
  -4   2 -15 3421.63 528.078   5
  -2   4 -15 3113.67 388.072   2
  -2   4 -15 2838.68 423.079   5
   2  -4 -15 3973.15 498.665   6
   4  -2 -15 2937.42 423.586   2
  -4   2 -12 391968. 9140.33   6
   4  -2 -12 381923. 9078.03   2
  -2  -2 -12 436538. 9326.01   5
   2   2 -12 410892. 9334.14   5
  -4   2 -12 376700. 9427.08   5
  -2   4 -12 360242. 9102.82   5
  -2   4 -12 397142. 9002.60   2
   2  -4 -12 423264. 8796.78  10
  -2  -2 -12 400333. 9486.29  10
   2  -4 -12 420358. 9179.63   6
   2   2 -12 396711. 9204.04   2
  -2  -2  -9 8306.44 774.306  10
   2   2  -9 6386.80 506.978   4
  -2   4  -9 5738.57 507.391   1
  -4   2  -9 6426.58 511.591   6
   4  -2  -9 7369.16 615.911   9
   2   2  -9 6260.02 513.831   5
  -4   2  -9 5920.26 560.336   5
   2  -4  -9 6879.83 502.302  10
   4  -2  -9 5609.99 469.231   2
  -2   4  -9 6461.66 510.069   2
   2   2  -9 6618.59 546.376   2
   4  -2  -6 604833. 12165.1   9
  -4   2  -6 535491. 11811.9   6
  -2   4  -6 548270. 12053.8   1
   4  -2  -6 655614. 11920.6   3
  -2   4  -6 584677. 12103.9   2
  -4   2  -6 610285. 11638.0   1
   2   2  -6 542710. 11762.7   5
   2  -4  -6 594032. 12188.8  10
   4  -2  -6 555820. 12279.1   4
  -2  -2  -6 568050. 12567.7  10
   4  -2  -6 509178. 11751.3   2
   2   2  -6 582318. 12175.5   4
  -4   2  -3 11787.5 514.205   6
   2   2  -3 13535.4 598.961   9
   4  -2  -3 13558.4 859.499   3
  -2   4  -3 11865.9 708.562   1
   2   2  -3 11033.5 439.353   5
  -2  -2  -3 12460.2 838.750  10
   2  -4  -3 12749.7 792.730  10
   4  -2  -3 10014.2 706.727   4
  -4   2  -3 11325.5 580.364   1
   4  -2  -3 10522.2 512.580   2
   2   2  -3 12292.4 746.188   4
  -4   2   0 498269. 11821.1   1
  -2   4   0 600175. 12019.0   1
  -2  -2   0 559930. 12129.5  10
   2  -4   0 537700. 11809.6  10
   4  -2   0 525667. 12007.1   4
  -2  -2   0 564663. 12189.1   8
   2  -4   0 557303. 11540.9   8
   2   2   0 535520. 11981.5   4
  -2  -2   3 13183.2 783.531  10
  -4   2   3 10542.6 668.947   1
   2  -4   3 12518.2 680.079  10
  -2   4   3 11771.6 648.582   1
   4  -2   3 11380.3 730.636   4
   2  -4   3 9258.23 398.171   9
  -2  -2   3 13423.9 912.934   8
   2   2   3 11550.9 751.008   4
   2  -4   3 11506.7 548.050   8
   2  -4   6 643185. 11951.5   8
  -2  -2   6 544675. 12024.2  10
  -2   4   6 569364. 11893.1   1
  -4   2   6 540526. 12053.4   1
   2  -4   6 627202. 11989.8  10
   4  -2   6 506626. 12025.2   4
  -4   2   6 527077. 11947.5   8
  -2  -2   6 548624. 12511.7   8
   2   2   6 547972. 12217.4   4
   2  -4   9 7205.91 524.469   8
  -4   2   9 6911.29 535.871   8
  -2  -2   9 7832.22 543.786  10
  -4   2   9 6781.11 570.879   1
   2  -4   9 6236.38 457.959  10
   4  -2   9 6828.63 556.289   4
  -2  -2   9 8476.09 800.346   8
   2   2   9 6125.25 609.197   4
  -2   4   9 6948.30 546.297   1
   2  -4  12 402991. 9016.03   8
   2   2  12 405239. 9594.18   4
  -2   4  12 405050. 9240.10   1
  -4   2  12 396626. 9267.19   1
   2  -4  12 404782. 8798.42  10
   4  -2  12 407401. 9031.19   4
  -4   2  12 421994. 9201.29   8
  -2  -2  15 3053.99 456.937   8
  -2   4  15 3353.38 470.069   1
   4  -2  15 3320.60 511.947   3
   2  -4  15 3443.57 316.163  10
  -4   2  15 3259.49 474.440   1
   2  -4  15 3556.87 398.606   8
   4  -2  18 278958. 7248.07   3
  -4   2  18 278557. 7005.88   1
   4  -2  18 263340. 7285.42   8
  -2  -2  18 281310. 6895.43   8
   2  -4  18 262148. 6450.22   8
  -3   4 -19 1688.01 357.495   5
   3   1 -19 1046.19 253.984   2
   1  -4 -19 1938.75 432.722   7
   1  -4 -19 1082.24 316.904   6
  -1  -3 -19 1628.47 407.632   6
   3   1 -19 1763.74 384.266   5
  -4   3 -19 1052.39 291.409   5
   4  -1 -19 1189.77 287.555   2
   1  -4 -16 290896. 7187.83   7
   1  -4 -16 267921. 6979.52   6
   4  -1 -16 317312. 7168.36   2
   3   1 -16 278476. 7026.70   5
  -4   3 -16 262554. 6915.63   5
  -3   4 -16 271878. 6913.21   5
  -1  -3 -16 290896. 7175.63   6
   3   1 -16 292441. 6830.43   2
   4  -1 -13 2501.41 267.312   7
   4  -1 -13 2885.78 419.876   2
   3   1 -13 2418.50 349.332   2
  -4   3 -13 2468.54 370.970   5
   1  -4 -13 2333.94 374.858   7
   1  -4 -13 2218.04 352.937   6
   3   1 -13 2486.76 375.192   5
  -1  -3 -13 3024.83 485.766  10
  -3   4 -13 1873.17 335.100   5
  -1  -3 -13 2425.60 437.696   7
  -3   4 -13 2366.69 291.582   2
   1  -4 -10 494982. 11519.9   7
  -3   4 -10 489598. 11247.2   1
  -1  -3 -10 524643. 11765.2   7
   3   1 -10 467182. 11243.5   5
   1  -4 -10 496200. 11326.4  10
  -1  -3 -10 513927. 11915.6  10
  -3   4 -10 510149. 11083.6   2
  -4   3 -10 471749. 11377.5   5
   3   1 -10 519746. 10972.9   4
   3   1 -10 521270. 11405.3   2
  -1  -3  -7 6296.56 568.679   7
  -3   4  -7 5031.71 434.302   1
  -4   3  -7 4566.82 353.524   1
   3   1  -7 4413.92 347.937   5
   4  -1  -7 5727.97 314.849   3
   4  -1  -7 4681.81 406.572   4
  -1  -3  -7 4748.73 524.258  10
  -3   4  -7 4975.48 343.403   2
   1  -4  -7 5224.87 469.701  10
   4  -1  -7 4690.67 424.262   9
   3   1  -7 4641.74 392.217   4
   4  -1  -7 5000.78 443.874   2
   3   1  -7 4401.04 396.585   9
   3   1  -4 527520. 11204.6   9
  -1  -3  -4 571658. 11453.2   7
  -3   4  -4 531389. 10888.2   2
  -3   4  -4 552737. 11462.4   1
  -1  -3  -4 534638. 11643.7  10
  -4   3  -4 462790. 11185.4   1
   1  -4  -4 540813. 11535.7  10
   4  -1  -4 555126. 11305.9   4
   3   1  -4 484287. 11381.2   4
   4  -1  -4 532480. 11363.9   9
  -1  -3  -1 7616.43 472.366   7
   4  -1  -1 6861.29 503.112   4
  -3   4  -1 7814.56 350.778   2
   3   1  -1 6567.65 571.886   4
  -3   4  -1 8534.29 641.292   1
   1  -4  -1 7761.59 648.267  10
  -1  -3  -1 7300.99 586.704   8
  -4   3  -1 7406.30 553.507   1
  -1  -3  -1 9141.60 664.017  10
   1  -4  -1 7556.93 513.241   8
  -4   3   2 543305. 12446.9   1
  -1  -3   2 647903. 12698.8  10
   1  -4   2 519753. 12318.1  10
  -3   4   2 603390. 12341.4   1
   3   1   2 579229. 12599.0   4
   4  -1   2 638893. 12454.7   4
  -1  -3   2 515362. 12538.2   8
   1  -4   2 577253. 12286.1   8
  -4   3   5 5107.44 528.342   1
   4  -1   5 7412.97 627.805   4
   1  -4   5 6583.79 483.668  10
  -3   4   5 5621.52 500.761   1
  -1  -3   5 6946.53 619.897  10
   3   1   5 5552.47 565.344   4
  -1  -3   5 5661.92 577.279   8
   1  -4   5 5137.02 426.248   8
  -3   4   8 477446. 10674.0   1
  -4   3   8 483480. 10809.6   1
  -1  -3   8 418556. 10461.6  10
   1  -4   8 505695. 10302.4  10
   4  -1   8 463565. 10633.6   4
   3   1   8 465487. 10708.5   4
  -1  -3   8 448107. 10797.4   8
   1  -4   8 492090. 10350.0   8
   4  -1  11 3319.94 421.636   4
  -1  -3  11 2839.53 414.400   8
  -4   3  11 3236.60 461.475   1
   3   1  11 2836.00 432.086   4
  -3   4  11 3442.01 464.495   1
   1  -4  11 3218.25 356.953   8
  -1  -3  11 2617.65 314.394  10
   1  -4  11 3306.76 324.517  10
  -3   4  14 387981. 9371.74   1
   3   1  14 405878. 9351.76   4
  -4   3  14 372714. 9205.93   1
   4  -1  14 375699. 8827.03   4
   1  -4  14 398839. 8451.34  10
  -1  -3  14 367988. 8891.04   8
   1  -4  14 385203. 8746.81   8
   1  -4  17 1375.25 264.853   8
  -3   4  17 1509.21 400.223   1
  -4   3  17 1796.13 397.900   1
  -1  -3  17 1403.25 309.960   8
  -3   4  20 226986. 6464.57   1
   4  -1  20 211831. 5968.10   8
   3   1  20 204821. 5662.11   8
  -4   3  20 225007. 6258.24   1
  -1  -3  20 243735. 5805.79   8
   1  -4  20 234060. 5641.37   8
   0  -4 -20 206758. 5652.46   6
   4   0 -17 77.8871 138.150   2
   0  -4 -17 438.701 280.123   7
   0  -4 -17-28.0469 171.467   6
  -4   4 -17 142.504 185.962   5
   0  -4 -14 333311. 8040.68   7
   0  -4 -14 330645. 7901.67   6
  -4   4 -14 320900. 7758.37   5
   4   0 -14 327912. 7625.22   2
   4   0 -11 541.852 155.100   4
   4   0 -11 176.779 163.761   2
   0  -4 -11 162.996 190.272   7
  -4   4 -11 258.599 173.266   5
   0  -4 -11 105.590 164.829  10
   0  -4  -8 470232. 10381.9  10
   0  -4  -8 475349. 10358.9   7
  -4   4  -8 451899. 10027.6   1
   4   0  -8 449208. 10094.1   9
   4   0  -8 448116. 9893.96   4
   4   0  -8 471724. 10095.4   2
   4   0  -5 78.9650 145.705   9
   4   0  -5 109.143 98.6408   4
   0  -4  -5 97.1732 132.871   7
  -4   4  -5 332.739 158.022   1
   0  -4  -5 245.298 194.254  10
   0  -4  -2 594148. 12478.4  10
  -4   4  -2 504988. 12282.1   1
   4   0  -2 511159. 12019.1   4
   0  -4  -2 591541. 12256.1   8
   0  -4   1 161.405 159.387   8
   4   0   1 323.470 135.334   4
   0  -4   1-20.1340 146.015  10
  -4   4   1 231.132 169.629   1
  -4   4   4 433200. 9999.11   1
   0  -4   4 408603. 9881.72  10
   4   0   4 463644. 9920.64   4
   0  -4   4 476263. 10217.9   8
   0  -4   7-66.0904 122.560   8
   4   0   7 140.467 166.904   4
  -4   4   7 230.964 200.102   1
   0  -4   7 144.875 134.067  10
  -4   4  10 433153. 10595.3   1
   0  -4  10 458911. 10029.5  10
   0  -4  10 441127. 10219.9   8
   0  -4  13 46.6553 93.9772  10
   4   0  13 131.679 212.167   4
   0  -4  13 85.5880 191.031   8
  -4   4  13 161.397 183.661   1
  -4   4  16 270803. 7497.47   1
   0  -4  16 290620. 6817.45   8
   0  -4  19 89.5105 146.603   8
  -4   4  19 127.014 243.556   1
   0   5 -17 307.089 207.682   2
  -5   0 -17 159.229 194.438   6
   0   5 -17 238.876 177.342   5
   5  -5 -17 107.456 121.867   7
  -5   0 -14 271136. 6963.36   6
   0   5 -14 258307. 6543.49   2
   0   5 -11 259.399 202.150   2
  -5   0 -11 44.4898 176.013   6
   0   5 -11 55.6538 160.475   5
   0   5  -8 443502. 10096.9   4
   5  -5  -8 445576. 9920.90  10
   0   5  -5 209.542 139.849   4
   5  -5  -5 142.316 178.064   9
   0   5  -2 325124. 7793.33   4
   0   5  -2 290074. 7955.35   1
   0   5   1-74.3910 175.163   4
   5  -5   1 41.7855 133.109   3
   0   5   1-29.7411 132.054   1
   5  -5   4 533635. 11477.9   8
   0   5   4 535027. 11549.2   4
   5  -5   4 505394. 11527.2   3
  -5   0   7 47.1705 176.923   8
   5  -5   7-255.791 224.585   8
   0   5   7-25.0924 122.143   4
   5  -5   7 177.315 223.672   3
   0   5   7 91.4932 112.965   1
   0   5  10 310270. 7141.14   4
   5  -5  10 301491. 7366.47   3
  -5   0  10 300678. 7863.99   8
  -5   0  13 122.884 210.827   8
   5  -5  13-45.1839 165.554   8
   0   5  13 103.263 153.371   4
   5  -5  13 98.7075 253.250   3
   5  -5  16 238236. 6183.97   8
   5  -5  16 246887. 6191.89   3
  -5   0  16 230804. 6951.16   8
   5  -4 -18 196885. 5078.86   7
   4  -5 -18 208079. 5436.35   7
  -5   1 -18 223168. 5929.56   6
  -4  -1 -18 221037. 6055.62   6
   1   4 -18 205125. 5837.62   5
  -1   5 -18 190098. 5417.65   5
  -1   5 -18 204699. 5378.35   2
   1   4 -18 208866. 5376.94   2
  -1   5 -15 684.540 245.131   2
   1   4 -15 650.167 225.530   2
   1   4 -15 1238.80 314.573   5
  -5   1 -15 926.491 322.536   6
  -4  -1 -15 926.146 375.754   6
  -1   5 -15 753.088 258.741   5
  -1   5 -12 286643. 7364.01   2
  -5   1 -12 311043. 7462.35   6
   1   4 -12 335062. 7520.38   5
  -1   5 -12 267072. 7089.24   5
   1   4 -12 312513. 7351.07   2
  -1   5  -9 2128.35 406.232   2
   1   4  -9 1902.75 354.419   4
  -5   1  -9 1627.64 310.998   6
   1   4  -9 2153.55 337.830   5
   4  -5  -9 2345.13 364.063  10
   5  -4  -9 1607.03 273.745  10
  -1   5  -9 1969.07 325.425   5
   1   4  -6 451298. 10365.4   4
   1   4  -6 468951. 9989.12   5
  -4  -1  -6 451622. 10401.6  10
   4  -5  -6 453435. 10305.2  10
   1   4  -3 2732.90 473.089   4
   5  -4  -3 1789.44 312.343   3
   1   4  -3 3065.94 343.443   5
  -4  -1  -3 2577.45 395.011  10
   4  -5  -3 2720.13 368.409  10
   4  -5  -3 2769.17 376.264   9
  -1   5  -3 2115.84 345.305   1
   5  -4  -3 2504.33 350.582   9
  -5   1  -3 2814.60 261.920   1
   4  -5   0 475309. 9424.45   8
  -5   1   0 454580. 9727.06   1
   5  -4   0 415094. 10075.7   3
   1   4   0 488914. 10271.2   4
  -1   5   0 430327. 9923.24   1
  -4  -1   0 429580. 10160.7  10
   4  -5   0 386057. 9786.33   9
   4  -5   3 2720.96 317.733   8
  -4  -1   3 3124.86 461.038   8
  -4  -1   3 2987.51 411.383  10
   1   4   3 2511.92 362.079   4
  -1   5   3 2722.05 319.413   1
   5  -4   3 2040.18 396.758   3
   1   4   3 2982.33 400.331   1
  -5   1   3 2808.95 325.234   1
   1   4   6 456969. 10246.3   4
   4  -5   6 468845. 10175.7   8
   1   4   6 499499. 10015.3   1
   4  -5   6 472858. 10208.9   3
   5  -4   6 403026. 10553.1   3
  -1   5   6 457768. 9971.83   1
  -4  -1   6 408026. 10725.3   8
  -4  -1   6 443726. 10168.1  10
  -5   1   6 432026. 10529.1   8
  -4  -1   9 2191.98 490.509   8
  -5   1   9 2407.47 416.742   8
   4  -5   9 1943.28 314.935   8
   1   4   9 1949.28 318.258   4
  -1   5   9 1670.57 269.161   1
   4  -5   9 2300.81 346.172   3
   5  -4   9 1072.07 340.275   3
   4  -5  12 289246. 7298.20   8
  -1   5  12 321009. 7355.80   4
   5  -4  12 316947. 7957.27   8
  -4  -1  12 347001. 8677.60   8
   4  -5  12 325501. 7392.15   3
   5  -4  12 288254. 7881.93   3
  -1   5  12 326534. 7200.87   1
  -5   1  12 305894. 7902.69   8
   1   4  12 306373. 7354.67   4
  -5   1  15 1070.23 327.642   8
  -4  -1  15 1841.02 521.299   8
   4  -5  15 1621.59 327.904   8
   5  -4  15 1063.42 343.066   8
   5  -4  15 880.063 354.780   3
   4  -5  15 1242.37 271.640   3
   4  -5  15 1030.99 214.543  10
   4  -5  18 232337. 5828.13   8
   5  -4  18 232701. 6323.08   8
   5  -4  18 217654. 6106.34   3
  -5   1  18 231311. 6083.56   1
  -4  -1  18 219736. 6669.80   8
  -2   5 -19 274.813 154.770   2
   5  -3 -16 260657. 6136.32   7
   3  -5 -16 257858. 6786.50   7
  -3  -2 -16 270419. 6975.83   6
   2   3 -16 276058. 6964.21   5
  -5   2 -16 272162. 6765.09   5
  -2   5 -16 254676. 6528.89   5
  -2   5 -16 248987. 6335.85   2
   2   3 -16 266508. 6426.77   2
  -2   5 -13 364.219 171.480   2
   2   3 -13 254.443 158.719   2
  -5   2 -13 454.777 235.080   6
  -2   5 -13 421.313 168.961   5
   2   3 -13 373.366 174.192   5
  -5   2 -13 500.968 184.727   5
  -5   2 -10 359441. 8441.00   6
   2   3 -10 391158. 8551.27   5
  -5   2 -10 392636. 8647.10   5
   3  -5 -10 377257. 8401.09  10
  -2   5 -10 346449. 8440.80   5
  -2   5 -10 342387. 8402.55   2
  -3  -2 -10 360526. 8988.33  10
   2   3 -10 393728. 8594.58   4
   2   3 -10 347463. 8388.03   2
  -5   2  -7 1035.81 234.095   5
  -2   5  -7 848.765 248.191   2
  -2   5  -7 688.156 224.849   1
   2   3  -7 675.293 228.373   4
  -5   2  -7 671.997 192.599   6
   2   3  -7 723.664 178.687   5
  -3  -2  -7 324.792 244.650  10
   3  -5  -7 397.700 196.427  10
   5  -3  -7 567.046 196.677   9
   2   3  -4 522346. 11284.6   9
  -5   2  -4 533558. 11402.8   6
  -2   5  -4 525751. 11813.2   1
   5  -3  -4 546859. 11676.7   3
  -5   2  -4 507414. 11320.7   1
   2   3  -4 547847. 11215.8   5
   3  -5  -4 516736. 11914.0  10
  -3  -2  -4 522100. 12229.2  10
   5  -3  -4 554687. 11753.1   9
   2   3  -4 559271. 12132.1   4
   5  -3  -1 402.385 203.779   4
  -2   5  -1 1303.64 323.615   1
   3  -5  -1 601.266 124.387   8
  -5   2  -1 736.085 212.208   1
   2   3  -1 650.132 286.555   4
   5  -3  -1 790.607 266.211   3
  -3  -2  -1 796.697 263.177  10
   3  -5  -1 1006.18 235.897  10
  -5   2   2 389624. 9153.53   1
   5  -3   2 483290. 9947.43   3
  -3  -2   2 412489. 9546.64  10
   3  -5   2 456060. 9313.36  10
   5  -3   2 380594. 9396.99   4
   3  -5   2 399075. 8611.23   9
  -2   5   2 415659. 9154.18   1
  -3  -2   2 398006. 9589.06   8
   3  -5   2 409367. 8789.97   8
   2   3   2 404998. 9619.38   4
   5  -3   5 441.492 220.488   4
  -5   2   5 525.965 192.664   1
  -3  -2   5 1030.75 383.417   8
   3  -5   5 632.102 161.686   8
   2   3   5 482.833 188.221   4
  -2   5   5 802.233 209.959   1
  -3  -2   5 477.379 213.078  10
   5  -3   5 903.730 301.965   3
   3  -5   5 940.861 229.021  10
   3  -5   8 485378. 10019.0   8
   5  -3   8 419343. 10587.6   3
  -5   2   8 451565. 10205.8   1
   3  -5   8 457213. 10010.9  10
   5  -3   8 435824. 10280.9   4
  -3  -2   8 440416. 10149.5  10
  -2   5   8 470293. 10057.4   1
  -5   2   8 438179. 10164.1   8
  -3  -2   8 447584. 10961.2   8
   2   3   8 446947. 10313.9   4
  -5   2  11 529.430 190.800   8
  -3  -2  11 488.624 322.108   8
   3  -5  11 363.124 158.122   8
   2   3  11 224.589 167.715   4
   5  -3  11 346.422 250.741   3
  -2   5  11 516.037 196.619   1
   3  -5  11 521.375 173.623  10
  -5   2  11 378.447 170.036   1
  -2   5  14 328193. 7353.49   4
  -3  -2  14 305516. 8224.53   8
   5  -3  14 301859. 8101.73   3
  -5   2  14 316817. 7662.94   1
   3  -5  14 307554. 7143.19  10
  -2   5  14 323107. 7506.62   1
   2   3  14 311181. 7645.62   4
   3  -5  14 321268. 7392.37   8
  -3  -2  17-343.742 274.685   8
   3  -5  17 230.648 107.481   8
   5  -3  17-198.026 262.664   8
   5  -3  17-186.537 269.389   3
  -5   2  17 93.3503 143.786   1
   3   2 -17 72.3173 109.472   2
   2  -5 -17-38.0277 169.683   7
  -2  -3 -17-40.9483 202.069   6
  -5   3 -17 80.4519 164.132   5
  -3   5 -17 203.488 174.807   5
  -3   5 -17 413.295 171.117   2
  -2  -3 -14 327220. 7951.05  10
   2  -5 -14 304953. 7749.87   7
   2  -5 -14 317564. 7559.60   6
   3   2 -14 310764. 7614.11   5
  -5   3 -14 305728. 7609.00   5
  -3   5 -14 310598. 7568.15   5
  -3   5 -14 326508. 7293.70   2
   5  -2 -14 338046. 7423.93   2
   3   2 -14 303773. 7407.41   2
   5  -2 -11 418.740 184.668   2
  -3   5 -11 412.497 139.196   2
   3   2 -11 327.044 159.566   2
  -5   3 -11 523.087 204.234   5
   2  -5 -11 271.051 143.651   6
  -3   5 -11 263.892 173.566   5
  -2  -3 -11 254.874 255.917  10
   2  -5 -11 245.999 153.165  10
   3   2 -11 383.458 185.844   5
  -3   5  -8 459469. 10671.5   1
  -5   3  -8 489814. 10251.2   1
   3   2  -8 456529. 10295.1   5
  -2  -3  -8 474662. 11328.4  10
   2  -5  -8 465739. 10749.5  10
   5  -2  -8 534781. 10940.6   4
  -3   5  -8 477924. 10437.7   2
   5  -2  -8 551652. 10577.6   2
   5  -2  -8 453594. 10627.3   9
   3   2  -8 458724. 10719.1   4
   5  -2  -5 441.791 187.167   4
   5  -2  -5 595.317 137.416   2
  -3   5  -5 836.573 171.955   2
   3   2  -5 385.777 187.759   4
  -5   3  -5 615.696 158.137   1
   5  -2  -5 672.193 155.736   3
  -2  -3  -5 288.432 262.376  10
   2  -5  -5 779.349 259.242  10
   3   2  -5 642.546 166.167   9
   5  -2  -5 796.088 222.565   9
  -3   5  -5 607.999 190.425   1
   5  -2  -2 437341. 9203.21   3
  -3   5  -2 442582. 9619.53   1
  -2  -3  -2 429767. 9886.06  10
   5  -2  -2 467641. 9613.67   4
   2  -5  -2 398039. 9565.43  10
  -5   3  -2 362122. 9210.60   1
   2  -5  -2 415889. 8900.69   8
   3   2  -2 395856. 9614.06   4
  -2  -3   1 1133.16 292.243   8
   2  -5   1 634.455 182.996   8
  -5   3   1 406.615 225.357   1
   3   2   1 615.964 221.413   4
  -2  -3   1 941.128 292.274  10
  -3   5   1 646.996 218.413   1
   2  -5   1 933.767 227.133  10
   5  -2   1 727.259 245.951   4
  -5   3   4 521356. 11980.1   1
  -2  -3   4 516304. 12110.3  10
   2  -5   4 593390. 11839.5  10
  -3   5   4 550874. 11798.6   1
   5  -2   4 558910. 12141.2   4
  -2  -3   4 529196. 12406.8   8
   3   2   4 500780. 12099.6   4
   2  -5   4 513967. 11522.6   8
  -2  -3   7 301.640 291.734   8
   2  -5   7 878.029 197.207   8
   3   2   7 606.802 283.227   4
  -5   3   7 744.604 265.690   1
   5  -2   7 852.128 262.132   4
  -3   5   7 623.141 204.942   1
  -2  -3   7 1034.57 275.374  10
   2  -5   7 825.820 220.393  10
   5  -2  10 349290. 8401.49   4
  -5   3  10 346568. 8367.46   1
   2  -5  10 346220. 7949.49  10
  -2  -3  10 346983. 8199.55  10
   3   2  10 348214. 8687.21   4
  -3   5  10 357040. 8272.85   1
  -2  -3  10 367631. 8950.15   8
   2  -5  10 372745. 8032.08   8
   5  -2  13 574.075 227.978   4
  -2  -3  13 144.172 179.818   8
   2  -5  13 427.320 173.379   8
   3   2  13 700.382 294.733   4
   2  -5  13 520.040 160.125  10
  -5   3  13 678.407 278.751   1
  -3   5  13 471.532 215.636   1
  -5   3  16 270523. 6930.06   1
   5  -2  16 264243. 7409.70   3
  -2  -3  16 271927. 6859.13   8
  -3   5  16 271551. 6969.30   1
   2  -5  16 277319. 6509.91   8
   5  -2  19 42.8475 266.563   3
   1  -5 -18 211135. 5923.80   7
   1  -5 -18 214006. 5758.36   6
  -1  -4 -18 226937. 5949.45   6
  -5   4 -18 215842. 5625.27   5
  -4   5 -18 216448. 5635.98   5
   5  -1 -18 214990. 5388.14   2
   4   1 -18 221677. 5404.09   2
   5  -1 -15 1258.22 257.672   2
   4   1 -15 1137.56 226.248   2
   1  -5 -15 1228.81 288.344   7
   1  -5 -15 1012.75 301.598   6
  -1  -4 -15 1122.73 319.585   6
  -5   4 -15 1228.64 263.554   5
  -4   5 -15 968.272 253.149   5
   1  -5 -12 319991. 7832.71   7
  -1  -4 -12 343153. 8061.12   7
  -5   4 -12 317267. 7620.53   5
  -4   5 -12 307105. 7624.50   5
  -1  -4 -12 314199. 7973.86  10
   1  -5 -12 347604. 7786.52  10
   5  -1 -12 351251. 7501.97   2
   4   1 -12 295958. 7394.31   2
   5  -1  -9 1601.12 245.289   4
   5  -1  -9 1723.33 267.304   2
   4   1  -9 1981.74 256.596   4
   4   1  -9 1950.66 295.385   2
   1  -5  -9 1479.06 303.024   7
  -4   5  -9 1905.62 298.331   1
  -1  -4  -9 2051.31 387.613  10
   1  -5  -9 1900.54 323.795  10
  -5   4  -9 2116.14 263.252   1
   5  -1  -9 1644.71 286.223   9
  -1  -4  -6 498261. 10812.2   7
  -4   5  -6 458468. 10653.4   1
   5  -1  -6 524470. 10224.0   3
  -5   4  -6 489286. 10557.7   1
  -1  -4  -6 469002. 10970.6  10
   1  -5  -6 470726. 10841.5  10
   5  -1  -6 458557. 10424.0   4
   4   1  -6 464935. 10455.3   9
   5  -1  -6 454868. 10552.0   9
   4   1  -6 453696. 10527.0   4
   5  -1  -6 497017. 10375.4   2
   4   1  -3 2490.90 357.042   4
  -4   5  -3 2753.14 400.633   1
  -1  -4  -3 3217.61 359.806   7
  -5   4  -3 2522.25 370.327   1
   1  -5  -3 2356.38 376.189  10
   5  -1  -3 2976.37 344.044   4
  -1  -4  -3 3002.68 443.010  10
   5  -1   0 434791. 9501.10   4
  -1  -4   0 414522. 9082.17   7
  -1  -4   0 477891. 10025.5  10
   1  -5   0 402290. 9770.06  10
  -4   5   0 463490. 9869.33   1
  -5   4   0 437773. 9840.59   1
   4   1   0 407322. 9734.92   4
  -1  -4   0 412992. 9822.43   8
   1  -5   0 430828. 9681.01   8
  -5   4   3 2952.55 424.404   1
  -1  -4   3 3518.92 527.142   8
   1  -5   3 3078.30 425.342   8
   4   1   3 2539.31 392.515   4
   5  -1   3 2898.75 368.603   4
  -1  -4   3 2984.52 430.887  10
   1  -5   3 2934.25 377.454  10
  -4   5   3 2885.61 406.569   1
  -5   4   6 422011. 9985.73   1
   5  -1   6 466711. 9703.81   4
  -1  -4   6 396067. 9573.65  10
   1  -5   6 444655. 9413.25  10
   4   1   6 414653. 9725.86   4
  -4   5   6 400091. 9543.49   1
  -1  -4   6 456294. 10211.5   8
   1  -5   6 380897. 9328.36   8
  -4   5   9 1767.55 354.543   1
  -1  -4   9 1496.17 326.208   8
   5  -1   9 2160.13 411.758   4
   1  -5   9 1545.59 271.760   8
   4   1   9 1651.72 318.257   4
  -5   4   9 1674.05 382.187   1
  -1  -4   9 1772.32 296.490  10
   1  -5   9 1761.85 269.373  10
  -4   5  12 310138. 7951.43   1
  -5   4  12 310720. 7984.76   1
  -1  -4  12 303652. 7209.59  10
   1  -5  12 320784. 7199.40  10
   5  -1  12 320761. 7903.01   4
   4   1  12 331339. 7865.26   4
  -1  -4  12 305927. 7663.29   8
  -4   5  15 857.295 318.153   1
  -1  -4  15 1263.02 309.735   8
   1  -5  15 982.381 225.102   8
  -5   4  15 924.743 313.281   1
  -4   5  18 211832. 6355.58   1
  -5   4  18 226189. 6323.02   1
   1  -5  18 227443. 5671.00   8
   0  -5 -16 234473. 6109.50   6
  -5   5 -16 233614. 5868.73   5
   5   0 -16 220673. 5606.70   2
   5   0 -13-110.211 131.359   2
   0  -5 -13 156.767 220.513   7
   0  -5 -13 119.159 214.708  10
  -5   5 -13 100.123 166.031   5
   0  -5 -10 309184. 7493.84   7
  -5   5 -10 314489. 7103.37   1
   0  -5 -10 308825. 7549.77  10
   5   0 -10 316802. 6974.49   4
   5   0 -10 293544. 7039.76   2
   5   0  -7 149.548 132.653   4
   5   0  -7 223.000 149.839   2
   0  -5  -7-87.4513 138.218   7
   0  -5  -7 332.514 232.695  10
   5   0  -7 366.750 161.024   9
  -5   5  -7 10.8909 103.527   1
   0  -5  -4 542719. 11189.8   7
  -5   5  -4 491961. 11284.7   1
   0  -5  -4 511757. 11503.3  10
   5   0  -4 473607. 10980.6   4
   5   0  -4 511380. 11220.3   9
   0  -5  -1-40.5841 134.957   8
   5   0  -1 128.800 146.802   4
   0  -5  -1 462.442 132.082   7
  -5   5  -1 268.190 244.529   1
   0  -5  -1 25.3411 187.199  10
   0  -5   2 302286. 7353.52  10
  -5   5   2 306283. 7327.90   1
   5   0   2 299366. 7099.94   4
   0  -5   2 316566. 7552.85   8
   0  -5   5-212.780 227.709   8
   5   0   5 29.3118 154.346   4
   0  -5   5 36.7159 117.599  10
  -5   5   5 234.079 210.161   1
   0  -5   8 391450. 8731.41  10
   5   0   8 417962. 9044.03   4
   0  -5   8 356229. 8963.24   8
  -5   5   8 383345. 9327.84   1
   0  -5  11 199.037 174.714   8
   5   0  11 258.650 190.081   4
  -5   5  11 115.427 202.775   1
   0  -5  11 58.4313 123.347  10
  -5   5  14 274631. 7746.09   1
   5   0  14 293100. 7528.32   4
   0  -5  14 291668. 6968.95   8
   0  -5  17 227.226 165.108   8
  -5   5  17 373.034 328.384   1
  -6   0 -12 226991. 6086.12   6
   0   6 -12 225872. 5944.18   2
   0   6  -9 228.354 216.543   2
   0   6  -9 28.4772 159.753   4
   0   6  -6 281569. 6426.78   4
   6  -6  -6 215006. 5967.11  10
   0   6  -3 152.505 146.373   4
   6  -6  -3 26.9746 195.359   9
   0   6   0 349474. 8105.89   4
   0   6   0 344287. 8052.18   1
   0   6   3 152.609 160.301   4
   0   6   3 45.8207 122.275   1
   6  -6   3 485.712 193.077   9
   6  -6   6 280505. 6903.67   8
   0   6   6 274224. 6552.93   1
   6  -6   6 262585. 6759.02   3
  -6   0   9 415.113 234.080   8
   6  -6   9-150.388 180.735   8
   0   6   9 72.7204 170.343   4
   6  -6   9 197.681 200.639   3
   6  -6  12 214703. 5965.21   8
   6  -6  12 257352. 6223.70   3
  -6   0  12 264054. 6918.76   8
   0   6  12 231992. 5981.05   4
  -1   6 -16 173897. 4959.16   5
  -1   6 -16 186772. 5110.28   2
  -1   6 -13 857.837 280.174   2
   1   5 -13 670.891 237.491   2
  -6   1 -13 1213.05 307.523   6
  -5  -1 -13 1203.70 360.290   6
  -1   6 -13 876.775 228.469   5
  -1   6 -10 258005. 6558.89   4
  -6   1 -10 283836. 6806.30   6
  -1   6 -10 253202. 6577.98   5
  -1   6 -10 294517. 7344.63   2
   1   5 -10 293365. 6801.08   2
   1   5  -7 1045.76 326.276   4
  -1   6  -7 1284.83 278.061   4
  -1   6  -7 1308.27 279.528   5
   5  -6  -7 1234.62 331.295  10
   6  -5  -7 1155.23 271.556   9
   1   5  -4 367154. 8578.25   4
  -1   6  -4 327116. 8340.22   1
  -5  -1  -4 362798. 8568.05  10
   5  -6  -4 325552. 8207.35  10
   6  -5  -4 380376. 8361.85   9
   1   5  -1 1121.70 309.005   4
   6  -5  -1 1649.25 324.402   3
  -5  -1  -1 1264.83 309.129  10
   5  -6  -1 1160.66 289.680  10
  -1   6  -1 1044.17 249.115   1
   5  -6  -1 925.811 203.461   9
   6  -5  -1 1341.95 281.969   9
   1   5   2 372532. 8249.93   4
   6  -5   2 358245. 8275.41   3
  -6   1   2 357815. 7796.61   1
  -1   6   2 324626. 7787.55   1
  -5  -1   2 356456. 8197.09  10
   5  -6   2 310446. 7588.70   9
  -1   6   5 1505.32 256.972   1
  -5  -1   5 1115.86 349.200   8
   5  -6   5 1256.82 246.137   8
   1   5   5 892.568 215.150   1
   1   5   5 1062.19 268.990   4
   6  -5   5 726.118 244.668   3
  -5  -1   5 851.990 235.160  10
  -6   1   5 847.638 233.304   1
   5  -6   8 293134. 6970.63   8
   6  -5   8 299128. 7605.73   3
  -1   6   8 281992. 6806.76   1
  -6   1   8 294348. 7123.87   1
  -5  -1   8 307467. 7847.97   8
   1   5   8 306073. 7238.65   4
  -6   1  11 681.408 295.603   8
  -5  -1  11 669.335 297.381   8
   5  -6  11 1039.87 264.993   8
   6  -5  11 739.340 286.623   8
   1   5  11 887.100 258.521   4
  -1   6  11 592.996 216.809   4
   6  -5  11 379.712 281.301   3
  -6   1  11 558.831 211.792   1
   5  -6  14 244641. 6178.10   8
   6  -5  14 252827. 6926.91   8
   6  -5  14 248819. 6622.57   3
  -6   1  14 265115. 6511.68   1
   5  -6  14 239757. 6123.51  10
  -6   1  14 259088. 6714.94   8
   1   5  14 237719. 6165.37   4
  -6   2 -14 274759. 6714.07   6
  -2   6 -14 248601. 6451.55   5
  -2   6 -14 251656. 6454.36   2
   2   4 -14 281005. 6588.06   2
  -2   6 -11 3152.31 431.034   2
  -6   2 -11 3358.41 427.999   6
  -2   6 -11 3362.52 445.225   5
   2   4 -11 3289.22 434.123   2
  -2   6  -8 318916. 7728.89   1
  -6   2  -8 324069. 7447.52   6
   6  -4  -8 319428. 7635.48   9
  -4  -2  -8 313387. 8142.79  10
   4  -6  -8 330527. 7930.37  10
  -2   6  -8 317228. 7833.56   2
   2   4  -8 325486. 7947.58   4
   2   4  -5 3944.41 552.727   4
  -2   6  -5 4948.12 521.715   1
   6  -4  -5 3511.27 367.115   3
  -6   2  -5 5287.48 424.748   6
  -4  -2  -5 4377.02 630.522  10
   4  -6  -5 4008.88 512.789  10
   6  -4  -5 4849.16 499.116   9
   6  -4  -2 434615. 9538.50   3
  -2   6  -2 428963. 9704.43   1
  -4  -2  -2 404398. 10178.9  10
   4  -6  -2 412995. 9659.76  10
   6  -4  -2 425951. 9684.59   9
  -6   2  -2 420830. 9300.67   1
   2   4  -2 412635. 10194.9   4
  -6   2   1 5115.51 483.750   1
   6  -4   1 5740.69 653.732   3
  -2   6   1 4496.16 471.516   1
  -4  -2   1 5445.73 644.322  10
   4  -6   1 5172.53 525.385  10
   2   4   1 5202.76 592.420   4
  -6   2   4 365131. 8411.15   1
   6  -4   4 391483. 9181.98   3
  -2   6   4 355992. 8268.48   1
  -4  -2   4 365454. 8845.30  10
   4  -6   4 365862. 8444.94  10
  -4  -2   4 351479. 8884.68   8
   2   4   4 359332. 8702.36   4
   4  -6   4 375018. 8028.93   8
  -4  -2   7 4376.05 645.914   8
  -6   2   7 3719.34 431.171   1
   6  -4   7 3661.09 564.065   3
  -2   6   7 3820.16 400.379   1
   4  -6   7 4086.09 460.170  10
  -4  -2   7 3342.64 483.047  10
   2   4   7 4611.34 534.479   4
   4  -6   7 4293.91 402.150   8
   4  -6  10 333774. 7588.49   8
   6  -4  10 301985. 8331.55   3
  -6   2  10 322502. 7806.88   1
  -2   6  10 338475. 7679.73   1
   4  -6  10 327627. 7667.54  10
  -4  -2  10 359376. 9060.39   8
   2   4  10 320775. 7845.26   4
  -4  -2  13 4119.48 741.810   8
   4  -6  13 2700.63 355.301   8
   2   4  13 2518.85 401.090   4
  -6   2  13 3611.90 479.712   1
  -2   6  13 3393.55 424.017   4
  -2   6  13 2722.17 377.264   1
   6  -4  13 3138.57 572.048   3
   4  -6  13 2792.27 361.844  10
   6  -4  16 228990. 6499.91   8
   6  -4  16 215497. 6368.04   3
  -6   2  16 221844. 5868.82   1
  -4  -2  16 209404. 6450.47   8
   4  -6  16 222874. 5513.97   8
   3   3 -15 47.4738 123.813   2
   3  -6 -15 288.197 187.027   7
  -3  -3 -15 557.523 280.272   6
  -3   6 -15 107.850 154.513   5
  -6   3 -12 318483. 7201.87   5
  -3   6 -12 305350. 7385.64   5
  -3  -3 -12 298467. 7868.49  10
   3   3 -12 298352. 7235.42   2
   3   3  -9 325.085 198.658   4
  -3   6  -9 39.6145 133.919   1
  -6   3  -9 265.877 147.700   5
  -3  -3  -9 289.772 269.390  10
   3  -6  -9 371.562 198.138  10
   6  -3  -9 31.0475 163.750   9
  -3   6  -6 345460. 8037.33   1
   6  -3  -6 325322. 7391.13   3
  -3  -3  -6 347678. 8677.60  10
   3  -6  -6 332430. 8223.49  10
   6  -3  -6 341614. 7888.82   9
  -3   6  -6 348723. 7767.21   2
   3   3  -6 345435. 8419.30   4
   6  -3  -3 133.205 163.589   4
  -3   6  -3 412.235 193.815   2
   3   3  -3 224.148 230.147   4
   6  -3  -3 215.172 133.909   3
  -6   3  -3 621.426 164.875   1
  -3  -3  -3 636.127 298.052  10
   3  -6  -3 159.802 166.448  10
   6  -3  -3 984.405 279.238   9
  -3   6  -3 228.845 184.422   1
   6  -3   0 495716. 10741.5   3
  -3   6   0 495308. 10811.9   1
  -3  -3   0 438483. 11257.4  10
   3  -6   0 478617. 10833.8  10
   6  -3   0 504295. 11241.1   4
  -3  -3   0 494179. 11091.6   8
   3   3   0 448288. 11215.1   4
  -6   3   0 463389. 10864.3   1
  -3  -3   3 600.516 282.891   8
   6  -3   3 287.173 242.497   4
   3  -6   3 349.654 133.910   8
   3   3   3 296.224 208.336   4
  -3   6   3 336.472 157.794   1
   6  -3   3 249.029 201.346   3
  -6   3   3 166.057 151.387   1
  -3  -3   3 574.129 250.925  10
  -6   3   6 318510. 7913.68   1
   6  -3   6 366859. 8355.25   3
  -3   6   6 336922. 7865.33   1
   3  -6   6 342559. 7787.74  10
  -3  -3   6 336150. 8243.09  10
   6  -3   6 307067. 8115.77   4
  -3  -3   6 358966. 8842.24   8
   3   3   6 314562. 8267.05   4
   3  -6   6 350348. 7576.01   8
   6  -3   9 228.060 201.117   4
  -3  -3   9 358.143 382.871   8
   3  -6   9 373.547 152.820   8
   3   3   9 303.562 217.970   4
  -6   3   9 316.184 172.611   1
  -3   6   9 330.344 200.817   1
   6  -3   9 136.703 249.148   3
  -3  -3   9 531.115 254.086  10
   3  -6   9 258.059 120.476  10
  -6   3  12 282653. 7150.85   1
   6  -3  12 304211. 7904.34   3
   3  -6  12 286347. 6777.71  10
  -3   6  12 298792. 7147.35   1
   3   3  12 285339. 7370.14   4
  -3  -3  12 294793. 7899.68   8
   3  -6  12 299793. 6838.65   8
  -3  -3  15 338.738 270.334   8
   3  -6  15 114.117 146.658   8
  -6   3  15-49.2662 175.546   1
   6  -3  15 32.1422 291.129   3
  -3   6  15 236.002 172.554   1
   2  -6 -16 216589. 5904.06   7
  -2  -4 -16 215704. 5940.96   6
  -6   4 -16 220912. 5548.51   5
  -4   6 -16 218589. 5614.25   5
   4   2 -16 214751. 5375.44   2
   2  -6 -13 3128.37 491.868   7
  -6   4 -13 3164.82 411.263   5
  -4   6 -13 3162.52 440.825   5
  -2  -4 -13 3253.11 530.207  10
   4   2 -13 2753.90 371.228   2
  -4   6 -10 352688. 8004.64   1
  -6   4 -10 355634. 7925.39   5
  -2  -4 -10 334012. 8453.44  10
   2  -6 -10 320897. 7970.96  10
   6  -2 -10 324459. 7812.92   9
   4   2 -10 354164. 7735.39   4
   4   2 -10 325240. 7807.30   2
  -4   6  -7 5014.32 529.382   1
   2  -6  -7 4689.49 552.386  10
  -2  -4  -7 4502.50 603.923  10
   6  -2  -7 3922.45 410.877   4
   4   2  -7 4647.19 407.827   9
   6  -2  -7 4323.43 455.081   9
   4   2  -7 4008.53 477.641   4
  -4   6  -4 380685. 8822.17   1
   6  -2  -4 391045. 8293.10   3
  -2  -4  -4 379240. 9170.62  10
  -6   4  -4 347901. 8574.52   1
   2  -6  -4 389889. 9120.72  10
   6  -2  -4 366366. 8517.21   4
   4   2  -4 395389. 8401.15   9
   6  -2  -4 375876. 8722.36   9
   4   2  -4 340919. 8831.65   4
   6  -2  -1 4670.94 415.590   3
  -4   6  -1 4864.56 527.967   1
  -2  -4  -1 5600.33 662.988  10
   2  -6  -1 4083.90 496.497  10
   6  -2  -1 5337.35 491.249   4
  -6   4  -1 6067.45 610.206   1
  -2  -4  -1 5351.80 560.127   8
   4   2  -1 4462.46 601.839   4
  -2  -4   2 441004. 10066.4  10
  -4   6   2 413588. 9538.65   1
   2  -6   2 414200. 9496.64  10
   6  -2   2 426047. 9516.46   4
  -2  -4   2 398676. 9815.91   8
   4   2   2 391939. 9914.35   4
   2  -6   2 418867. 9541.27   8
  -6   4   2 409323. 9752.13   1
  -2  -4   5 5031.03 678.822   8
   4   2   5 4022.85 572.883   4
  -6   4   5 4099.84 550.287   1
  -2  -4   5 5188.48 638.895  10
   2  -6   5 4866.26 477.167  10
  -4   6   5 3988.02 469.945   1
   6  -2   5 5433.92 588.236   4
   2  -6   5 4193.27 428.834   8
  -6   4   8 324823. 7796.93   1
   2  -6   8 332930. 7321.37  10
   6  -2   8 342700. 7962.45   4
  -4   6   8 313378. 7519.77   1
  -2  -4   8 341000. 8395.97   8
   2  -6   8 326995. 7238.89   8
   6  -2  11 2736.52 482.712   4
  -2  -4  11 2666.89 456.101   8
   4   2  11 2789.71 451.334   4
  -4   6  11 3436.86 499.903   1
   2  -6  11 3109.07 355.148  10
  -6   4  11 2967.34 471.478   1
   2  -6  11 3018.53 377.436   8
  -6   4  14 273588. 7082.84   1
  -4   6  14 275402. 7043.07   1
  -2  -4  14 273641. 7025.17   8
   4   2  14 262894. 6883.35   4
   2  -6  14 288952. 6630.76   8
  -4   6  17 2141.27 423.107   1
   1  -6 -14 251552. 6603.88   7
   1  -6 -14 256422. 6465.64   6
  -6   5 -14 271596. 6431.97   5
  -5   6 -14 264010. 6429.80   5
   5   1 -11 1203.66 250.846   2
   1  -6 -11 386.676 232.948   7
  -5   6 -11 594.724 179.020   1
  -6   5 -11 1099.19 265.675   5
  -1  -5 -11 766.441 292.342  10
   1  -6 -11 698.237 256.258  10
   1  -6  -8 314229. 7591.98   7
  -1  -5  -8 324215. 7629.41   7
  -5   6  -8 321356. 7473.11   1
  -6   5  -8 338185. 7299.55   1
  -1  -5  -8 316702. 7846.75  10
   1  -6  -8 306614. 7632.25  10
   6  -1  -8 298956. 7158.00   4
   5   1  -8 312257. 7221.26   9
   6  -1  -8 314087. 7326.66   9
   5   1  -8 303762. 7204.30   4
   6  -1  -8 324988. 7089.45   2
   5   1  -8 299163. 7242.42   2
  -5   6  -5 1284.79 284.640   1
   6  -1  -5 1150.93 223.523   4
   5   1  -5 814.485 216.023   4
  -6   5  -5 1314.98 279.877   1
   6  -1  -5 1078.78 193.887   2
  -1  -5  -5 1101.09 219.536   7
  -1  -5  -5 1217.02 328.547  10
   1  -6  -5 1384.35 347.299  10
   5   1  -5 1088.11 230.208   9
   6  -1  -5 914.978 237.237   9
  -5   6  -2 394986. 8843.33   1
  -1  -5  -2 379456. 8778.66  10
   1  -6  -2 376675. 8802.26  10
  -6   5  -2 323033. 8539.87   1
   6  -1  -2 348533. 8133.91   4
   5   1  -2 349174. 8347.71   4
  -1  -5   1 1534.20 353.497   8
   1  -6   1 1663.09 340.742   8
   6  -1   1 1421.54 273.600   4
   5   1   1 1440.41 311.072   4
  -5   6   1 1739.90 352.271   1
  -6   5   1 1417.50 353.151   1
  -1  -5   1 1121.02 341.063  10
   1  -6   1 1024.73 255.068  10
  -1  -5   4 318756. 8232.16  10
   1  -6   4 355840. 8153.00  10
  -5   6   4 365688. 8414.77   1
   6  -1   4 357375. 8157.28   4
   5   1   4 338529. 8289.38   4
  -1  -5   4 374814. 8950.20   8
   1  -6   4 361575. 8541.30   8
  -6   5   4 344695. 8456.17   1
  -6   5   7 1494.45 401.714   1
  -1  -5   7 1758.27 452.166   8
   1  -6   7 1307.03 293.516   8
   6  -1   7 1027.01 259.038   4
   5   1   7 834.934 274.617   4
  -5   6   7 1257.77 338.951   1
  -1  -5   7 1363.76 282.764  10
   1  -6   7 1334.83 257.471  10
  -6   5  10 284606. 7439.38   1
  -1  -5  10 280718. 6701.41  10
   1  -6  10 276684. 6592.04  10
   6  -1  10 310785. 7329.92   4
   5   1  10 282579. 7054.10   4
  -5   6  10 278884. 7170.89   1
  -1  -5  10 263049. 7059.40   8
   1  -6  10 303074. 6894.41   8
  -1  -5  13 1903.74 371.407   8
   6  -1  13 854.081 328.122   4
   1  -6  13 1082.94 257.830   8
   5   1  13 1387.72 333.930   4
  -6   5  13 1406.36 430.362   1
  -5   6  13 1476.21 402.428   1
   0  -6 -12 254855. 6626.26   7
   0  -6 -12 244018. 6562.62  10
   6   0 -12 246960. 6022.74   2
   6   0  -9 212.473 130.334   4
   6   0  -9 624.780 185.544   2
   0  -6  -9 247.029 215.066   7
   0  -6  -9 72.5631 211.302  10
   6   0  -9 61.5493 126.979   9
  -6   6  -9 214.270 166.279   1
   0  -6  -6 249062. 6348.65   7
  -6   6  -6 288064. 6739.91   1
   0  -6  -6 289914. 7022.52  10
   6   0  -6 261544. 6366.55   4
   6   0  -6 284260. 6535.32   9
   6   0  -3 158.543 151.918   4
  -6   6  -3-113.811 190.609   1
   0  -6  -3 200.190 233.940  10
   6   0  -3 575.999 271.786   9
   0  -6   0 332374. 8408.35  10
  -6   6   0 353069. 8592.52   1
   6   0   0 337694. 8070.06   4
   0  -6   3 440.099 292.636   8
   6   0   3 221.485 170.395   4
  -6   6   3 36.7270 156.658   1
   0  -6   3-15.5485 148.930  10
   0  -6   6 272482. 6393.42  10
   6   0   6 278322. 6531.64   4
  -6   6   6 274479. 6856.61   1
   0  -6   9-245.705 212.571   8
   6   0   9 79.8456 148.141   4
   0  -6   9 78.5580 91.8220  10
  -6   6   9 132.359 207.324   1
   6   0  12 238942. 6352.27   4
   0  -6  12 253961. 6175.97   8
  -6   6  12 230901. 6595.15   1
   0   7  -7 168.130 153.159   4
   0   7  -4 223685. 5583.62   4
   7  -7  -4 190592. 5300.30  10
   0   7  -1-9.37427 139.220   4
   0   7   2 226759. 5959.35   4
   0   7   5 222.932 179.508   4
   0   7   8 227602. 6002.15   4
  -1   7 -11 2023.74 415.508   2
   1   6 -11 3253.45 458.683   2
  -1   7  -8 209445. 5628.84   2
   1   6  -8 219703. 5894.04   4
   1   6  -5 4132.80 566.883   4
  -1   7  -5 3456.36 454.558   4
   6  -7  -5 3146.27 459.661  10
   7  -6  -5 4228.79 510.989   9
  -1   7  -2 301659. 7198.76   4
  -1   7  -2 279852. 6970.22   1
   6  -7  -2 277346. 7035.78  10
   7  -6  -2 285088. 6977.33   9
   1   6  -2 299029. 7236.36   4
  -1   7   1 4985.53 583.187   4
   6  -7   1 4637.93 532.101  10
  -1   7   1 3150.25 397.103   1
   7  -6   1 3916.40 436.325   9
   1   6   1 3949.61 507.361   4
  -1   7   4 249716. 6186.44   4
   7  -6   4 246805. 6090.22   3
   6  -7   4 245739. 6068.98  10
   1   6   4 245883. 6111.54   4
   7  -6   7 3453.08 532.154   8
   1   6   7 3493.11 499.400   4
  -1   7   7 3803.93 533.732   4
  -7   1   7 3491.52 446.380   1
   7  -6   7 3229.21 485.034   3
  -1   7  10 262666. 6533.55   4
   7  -6  10 228324. 6615.50   8
   7  -6  10 256600. 6603.46   3
  -7   1  10 239567. 6289.99   1
   6  -7  10 252759. 6390.12  10
  -6  -1  10 283263. 7221.96   8
   1   6  10 243655. 6374.37   4
  -2   7 -12 201950. 5457.55   5
   2   5 -12 228481. 5614.11   2
   2   5  -9 50.1521 162.718   4
  -2   7  -9 264.761 181.487   5
  -2   7  -6 276466. 6826.99   1
  -5  -2  -6 292943. 7284.88  10
   7  -5  -6 278804. 6644.68   9
  -2   7  -6 273696. 6979.96   2
   2   5  -6 264129. 7195.56   4
   2   5  -3 866.223 385.245   4
   7  -5  -3 268.377 129.135   3
  -5  -2  -3 534.850 306.923  10
  -2   7  -3 790.650 258.555   1
   5  -7  -3 464.109 201.014  10
   7  -5  -3 828.432 246.626   9
   7  -5   0 322683. 7332.20   3
  -2   7   0 293238. 7245.59   1
  -5  -2   0 320038. 7949.82  10
   5  -7   0 315526. 7466.96  10
   7  -5   0 290253. 7383.77   9
   2   5   0 316849. 7796.01   4
   2   5   3 802.234 290.322   4
   7  -5   3 695.168 233.519   3
  -5  -2   3 633.255 284.608  10
  -7   2   3 598.683 195.318   1
   5  -7   3 816.164 251.975  10
  -2   7   3 844.615 219.200   1
  -7   2   6 261360. 6667.66   1
   7  -5   6 298953. 7390.07   3
  -2   7   6 252473. 6461.91   1
  -5  -2   6 279571. 6980.64  10
   5  -7   6 289683. 6845.25  10
  -5  -2   6 313268. 7599.99   8
   2   5   6 283438. 7001.59   4
  -5  -2   9 742.842 350.835   8
  -2   7   9 553.705 200.627   1
   2   5   9 529.346 216.813   4
   7  -5   9 543.552 252.286   3
  -7   2   9 647.475 217.633   1
   5  -7   9 403.146 193.218  10
  -2   7  12 216665. 5755.96   4
   7  -5  12 227981. 6415.61   8
   7  -5  12 213488. 6175.07   3
  -7   2  12 217347. 5709.95   1
   5  -7  12 219013. 5516.99  10
  -5  -2  12 242734. 6711.42   8
   2   5  12 202141. 5612.45   4
   5  -7  12 222365. 5384.29   8
   3   4 -13 970.731 265.911   2
  -3   7 -13 1124.16 272.938   5
  -4  -3 -10 304429. 7827.91  10
  -3   7 -10 293486. 7204.42   5
   3   4 -10 289730. 7103.36   2
   3   4  -7 1216.92 367.745   4
  -4  -3  -7 1639.82 454.966  10
  -3   7  -7 1474.94 319.279   1
   4  -7  -7 1202.03 346.297  10
   7  -4  -7 1399.33 273.172   9
  -3   7  -4 306136. 6972.76   1
   7  -4  -4 251607. 6181.28   3
  -4  -3  -4 300999. 7688.64  10
   4  -7  -4 243601. 6817.65  10
   7  -4  -4 294867. 6775.64   9
   3   4  -4 277363. 7344.41   4
   3   4  -1 2696.68 565.745   4
   7  -4  -1 1740.82 287.687   3
   4  -7  -1 2455.34 381.152  10
  -4  -3  -1 2669.73 544.405  10
  -3   7  -1 2324.35 365.080   1
  -7   3   2 338351. 8014.82   1
   7  -4   2 334059. 8013.39   3
  -3   7   2 336530. 7874.75   1
  -4  -3   2 322675. 8586.87  10
   4  -7   2 348293. 8055.09  10
  -4  -3   2 348794. 8405.94   8
   3   4   2 328474. 8513.39   4
  -4  -3   5 1891.80 427.045   8
  -3   7   5 1738.43 300.177   1
   3   4   5 1588.06 382.026   4
   7  -4   5 1822.98 383.423   3
  -7   3   5 1846.99 368.519   1
  -4  -3   5 2228.85 452.650  10
   4  -7   5 1837.47 326.568  10
  -7   3   8 256432. 6744.58   1
   7  -4   8 298812. 7431.97   3
  -4  -3   8 281337. 7170.14  10
  -3   7   8 262205. 6600.46   1
   4  -7   8 275987. 6634.83  10
  -4  -3   8 285621. 7639.54   8
   3   4   8 269869. 6996.06   4
   4  -7   8 288701. 6414.90   8
  -4  -3  11 1336.45 433.404   8
   4  -7  11 1501.18 263.419   8
   3   4  11 963.833 267.342   4
  -7   3  11 1182.43 296.362   1
  -3   7  11 1373.35 304.077   1
   7  -4  11 1886.00 502.521   3
   4  -7  11 1329.83 259.784  10
   4  -7  14 195136. 4994.02  10
   4  -7  14 211015. 5119.52   8
  -3  -4 -14 199563. 5542.85  10
   4   3 -11 1459.45 303.522   2
  -3  -4 -11 1129.18 360.925  10
  -4   7 -11 1450.25 345.108   5
  -4   7  -8 288787. 7047.47   1
  -3  -4  -8 289799. 7628.81  10
   3  -7  -8 261861. 7107.06  10
   7  -3  -8 277860. 6836.69   9
   4   3  -8 270896. 7065.61   4
   4   3  -5 1972.08 443.609   4
   7  -3  -5 1496.58 284.348   4
  -3  -4  -5 1664.30 432.711  10
   3  -7  -5 2091.66 433.086  10
   7  -3  -5 2394.21 377.899   9
  -4   7  -5 2176.21 385.239   1
   7  -3  -2 334574. 7648.47   3
  -4   7  -2 362249. 8177.91   1
  -3  -4  -2 351485. 8752.22  10
  -7   4  -2 338931. 7930.80   1
   7  -3  -2 331760. 7903.97   4
   7  -3  -2 355365. 8228.10   9
   4   3  -2 329062. 8645.24   4
  -3  -4   1 2022.16 399.103   8
   7  -3   1 1630.03 332.235   4
  -4   7   1 2449.10 380.826   1
   4   3   1 2737.95 538.683   4
   7  -3   1 1354.97 268.806   3
  -3  -4   1 1649.04 437.171  10
   3  -7   1 1963.53 372.037  10
  -7   4   1 1446.38 318.831   1
  -7   4   4 268988. 7008.28   1
   7  -3   4 272032. 6851.63   3
  -4   7   4 280041. 6901.99   1
  -3  -4   4 288295. 7612.12  10
   3  -7   4 311093. 7049.92  10
   7  -3   4 311439. 7331.18   4
  -3  -4   4 296260. 7482.17   8
   4   3   4 271913. 7633.33   4
  -3  -4   7 1955.79 489.104   8
   7  -3   7 2213.42 444.041   4
   3  -7   7 1351.55 249.167   8
   4   3   7 1296.15 401.539   4
  -4   7   7 1456.21 327.403   1
  -7   4   7 1538.74 363.826   1
   7  -3   7 1823.53 368.453   3
  -3  -4   7 1253.72 313.095  10
   3  -7   7 1524.91 293.736  10
  -7   4  10 301478. 7289.97   1
   7  -3  10 314290. 7491.89   3
   3  -7  10 277464. 6727.50  10
  -4   7  10 292013. 7118.36   1
   7  -3  10 260665. 7306.04   4
   4   3  10 260917. 7175.41   4
  -3  -4  10 301789. 8020.32   8
   3  -7  10 284435. 6675.51   8
  -3  -4  13 1363.31 389.533   8
   3  -7  13 818.299 204.041   8
   4   3  13 755.122 214.688   4
  -4   7  13 840.233 263.284   1
   7  -3  13 983.632 389.416   3
   3  -7  13 1060.93 223.280  10
  -7   4  13 955.673 298.935   1
   2  -7 -12 214713. 5969.98   7
  -7   5 -12 220945. 5552.05   5
  -2  -5 -12 228602. 6234.96  10
   5   2 -12 221793. 5588.16   2
   7  -2  -9 571.818 171.740   4
   5   2  -9 611.909 188.705   4
   5   2  -9 744.938 245.615   2
   2  -7  -9 737.235 253.207   7
  -2  -5  -9 1195.45 399.086  10
   2  -7  -9 685.446 250.873  10
  -5   7  -9 717.856 224.827   1
   7  -2  -9 532.641 189.994   9
  -5   7  -6 308599. 7165.68   1
  -2  -5  -6 292310. 7441.63  10
   2  -7  -6 289546. 7289.59  10
   7  -2  -6 266341. 6605.29   4
   7  -2  -6 292625. 6897.03   9
   5   2  -6 263046. 6823.32   4
  -5   7  -3 1087.71 305.212   1
   7  -2  -3 541.334 196.756   4
   5   2  -3 551.970 253.362   4
  -7   5  -3 732.322 245.638   1
   7  -2  -3 619.646 172.492   3
  -2  -5  -3 923.595 334.265  10
   2  -7  -3 540.613 217.312  10
   5   2  -3 895.228 227.495   9
   7  -2  -3 673.772 252.350   9
   7  -2   0 306468. 7219.63   3
  -5   7   0 324553. 7665.17   1
  -2  -5   0 349922. 8245.24  10
   2  -7   0 295879. 7558.71  10
  -7   5   0 306059. 7941.22   1
   7  -2   0 311576. 7402.26   4
  -2  -5   0 335439. 7836.83   8
   5   2   0 305269. 7816.99   4
  -2  -5   3 618.909 292.358   8
   7  -2   3 1398.57 301.532   4
   5   2   3 357.414 194.712   4
  -5   7   3 768.582 241.818   1
  -2  -5   3 341.410 228.264  10
   2  -7   3 926.412 249.157  10
  -7   5   3 640.933 269.279   1
   2  -7   6 281041. 6517.11  10
  -5   7   6 282635. 6852.05   1
   7  -2   6 288789. 6800.00   4
   5   2   6 259193. 6907.75   4
  -2  -5   6 289538. 7520.32   8
  -7   5   6 261697. 6805.82   1
  -7   5   9 554.638 284.310   1
  -2  -5   9 512.442 324.259   8
   7  -2   9 339.347 221.180   4
   2  -7   9 394.418 179.977   8
   5   2   9 356.372 242.207   4
  -5   7   9 372.887 231.400   1
  -2  -5   9 441.343 161.480  10
   2  -7   9 433.596 158.756  10
  -7   5  12 232980. 6169.32   1
   2  -7  12 217759. 5350.37  10
   7  -2  12 226941. 6289.01   4
  -5   7  12 236389. 6094.61   1
  -2  -5  12 230472. 6092.84   8
   2  -7  12 234078. 5596.05   8
   1  -7 -10 232355. 6261.07   7
  -6   7 -10 254855. 6154.28   1
  -1  -6 -10 255770. 6661.04  10
   1  -7 -10 242018. 6453.53  10
   7  -1 -10 249718. 6050.80   9
   6   1 -10 246185. 5992.02   2
   1  -7  -7 3137.02 411.098   7
  -1  -6  -7 4177.95 579.053  10
   1  -7  -7 3433.61 521.798  10
   7  -1  -7 3265.76 390.630   4
   6   1  -7 4094.80 428.955   9
   7  -1  -7 3915.94 450.445   9
   6   1  -7 3629.95 425.925   4
  -6   7  -7 3872.24 499.292   1
  -6   7  -4 269883. 6683.64   1
  -7   6  -4 259143. 6543.00   1
  -1  -6  -4 271787. 6883.44  10
   1  -7  -4 259659. 6755.94  10
   7  -1  -4 240266. 6072.42   4
   6   1  -4 259107. 6199.04   9
   7  -1  -4 255119. 6362.87   9
   6   1  -4 243332. 6201.15   4
  -7   6  -1 4609.18 653.933   1
  -6   7  -1 5232.19 609.289   1
  -1  -6  -1 5224.54 658.271  10
   1  -7  -1 3426.91 488.610  10
   7  -1  -1 4157.89 452.984   4
   6   1  -1 3720.37 455.572   4
  -6   7   2 309401. 7454.57   1
   1  -7   2 290498. 7110.43  10
  -7   6   2 306289. 7575.48   1
   7  -1   2 287597. 6980.26   4
   6   1   2 297129. 7165.90   4
  -1  -6   2 305050. 7420.29   8
  -1  -6   5 4396.46 683.919   8
   6   1   5 3372.54 473.079   4
  -1  -6   5 4677.87 514.244  10
   1  -7   5 4377.85 481.261  10
  -6   7   5 4799.82 596.696   1
  -7   6   5 3945.23 566.348   1
   7  -1   5 3820.51 466.467   4
  -1  -6   8 199775. 5327.46  10
   1  -7   8 219414. 5353.90  10
  -6   7   8 243953. 6064.56   1
   7  -1   8 226137. 5693.81   4
   6   1   8 218252. 5679.54   4
  -1  -6   8 198489. 5846.83   8
  -7   6   8 222855. 5900.70   1
   1  -7   8 221616. 5591.23   8
  -1  -6  11 2672.60 432.699   8
   1  -7  11 3049.32 419.744   8
   7  -1  11 3262.75 512.290   4
   6   1  11 2863.10 448.664   4
   1  -7  11 2812.21 331.316  10
   7   0  -8 222239. 5533.84   4
   7   0  -8 222268. 5595.34   9
  -7   7  -5-68.4276 168.274   1
   7   0  -5 314.957 179.252   4
   0  -7  -5 271.364 252.988  10
   7   0  -5 36.8032 154.187   9
  -7   7  -2 256235. 6657.57   1
   7   0  -2 242164. 6007.26   4
   7   0  -2 252552. 6289.15   9
   7   0   1 159.366 152.165   4
  -7   7   1 274.056 248.446   1
   0  -7   1 139.665 174.767  10
   0  -7   4 214225. 5579.91  10
  -7   7   4 225909. 6060.02   1
   7   0   4 227345. 5673.42   4
   0  -7   7-95.6417 168.700   8
   7   0   7 9.20496 124.488   4
  -7   7   7-70.0766 173.961   1
   0  -7   7 250.203 168.718  10
   7  -8  -3 113.934 135.161  10
   2   6  -7-154.706 238.310   4
  -2   8  -7 260.603 118.197   4
  -2   8  -4 207560. 5670.46   4
  -2   8  -4 249314. 5898.46   1
   6  -8  -4 219284. 5881.23  10
   8  -6  -4 220166. 5671.47   9
   2   6  -4 235906. 6275.06   4
   2   6  -1 220.618 228.415   4
  -2   8  -1 24.0729 132.813   1
   6  -8  -1 303.043 215.552  10
   8  -6  -1 215.945 125.936   9
  -2   8   2 218835. 5576.94   4
  -2   8   2 173854. 4833.36   1
   8  -6   2 201870. 4938.30   3
   6  -8   2 202591. 5190.76  10
   8  -6   2 169014. 4907.72   9
   2   6   2 212224. 5473.05   4
   2   6   5 380.649 222.655   4
  -2   8   5 378.758 233.652   4
   8  -6   5 420.353 212.927   3
   6  -8   5 373.356 207.476  10
  -2   8   5 181.657 132.471   1
  -5  -3  -8 265258. 7066.31  10
   8  -5  -8 246708. 6290.97   9
   3   5  -5 295.013 277.668   4
  -3   8  -5 425.015 243.733   1
  -5  -3  -5 755.663 363.811  10
   5  -8  -5 165.083 227.276  10
   8  -5  -5 104.202 116.800   9
  -3   8  -2 213024. 5066.69   1
  -5  -3  -2 214598. 5902.25  10
   5  -8  -2 196842. 5168.62  10
   8  -5  -2 186438. 4966.05   9
   3   5  -2 189134. 5605.10   4
   3   5   1 87.7413 161.946   4
   8  -5   1 446.150 185.441   3
  -5  -3   1 155.634 260.922  10
   5  -8   1 374.626 175.699  10
   8  -5   1 344.076 214.515   9
  -3   8   1 350.492 215.357   1
   8  -5   4 288597. 7065.04   3
  -3   8   4 283708. 6918.37   1
  -5  -3   4 278681. 7581.72  10
   5  -8   4 305062. 7172.78  10
   3   5   4 285889. 7413.68   4
  -3   8   7 241.163 163.892   1
  -5  -3   7 358.100 298.535   8
   3   5   7 439.100 230.745   4
   8  -5   7 514.613 238.614   3
  -8   3   7 227.183 183.563   1
   5  -8   7 319.676 190.795  10
  -4   8  -6 278270. 6661.11   1
  -4  -4  -6 277790. 7302.17  10
   4  -8  -6 218461. 6571.59  10
   8  -4  -6 259553. 6346.46   9
   4   4  -6 233806. 6739.29   4
   4   4  -3 373.303 272.371   4
  -4  -4  -3 500.534 310.246  10
   4  -8  -3-46.1665 139.891  10
   8  -4  -3 209.882 178.733   9
  -4   8  -3 419.380 207.476   1
  -4   8   0 249821. 6032.47   1
  -4  -4   0 265718. 7100.30  10
   4  -8   0 246654. 6148.83  10
   4   4   0 239959. 6960.29   4
  -4   8   3-45.9890 150.001   1
   4   4   3 100.053 172.434   4
   8  -4   3 51.5508 162.891   3
  -4  -4   3 188.918 206.412  10
   4  -8   3-107.606 137.694  10
  -8   4   3-265.099 163.006   1
  -8   4   6 221091. 6048.00   1
   8  -4   6 244767. 6151.16   3
  -4   8   6 248057. 6063.35   1
  -4  -4   6 204563. 6351.08  10
   4  -8   6 259800. 6117.62  10
  -4  -4   6 267250. 6773.45   8
   4   4   6 234138. 6440.79   4
  -4   8   9 37.4151 138.715   1
  -8   4   9-43.9602 176.195   1
   5   3  -7-63.9256 126.903   4
  -3  -5  -7 368.602 198.880  10
   3  -8  -7-46.9865 210.998  10
  -5   8  -7 578.975 286.080   1
   8  -3  -7 403.604 199.744   9
  -5   8  -4 346699. 7731.32   1
  -3  -5  -4 305156. 7949.43  10
   3  -8  -4 256654. 7347.38  10
   8  -3  -4 301779. 7145.18   4
   8  -3  -4 308703. 7415.17   9
   5   3  -4 279137. 7517.42   4
  -5   8  -1 558.227 231.040   1
   8  -3  -1 174.275 116.821   4
   5   3  -1-47.9909 203.094   4
   8  -3  -1 397.229 173.472   3
  -3  -5  -1 291.322 229.020  10
   3  -8  -1 201.913 167.630  10
   8  -3  -1 788.874 350.220   9
   8  -3   2 178413. 4840.94   3
  -5   8   2 212862. 5271.77   1
  -3  -5   2 214323. 5929.91  10
   3  -8   2 205529. 5191.74  10
   8  -3   2 200241. 5123.98   4
  -8   5   2 185140. 5212.63   1
   5   3   2 169181. 5460.17   4
  -3  -5   5 228.257 256.791   8
   8  -3   5 453.264 240.169   4
   5   3   5 134.898 211.772   4
  -5   8   5 100.434 194.795   1
   8  -3   5 101.764 135.053   3
  -3  -5   5 586.744 293.678  10
   3  -8   5 111.699 147.730  10
  -8   5   5-28.9429 152.104   1
   8  -3   8 246350. 6162.45   3
  -3  -5   8 209549. 5968.51  10
  -5   8   8 242583. 6144.16   1
   3  -8   8 238011. 5857.80  10
   8  -3   8 268059. 6561.49   4
   5   3   8 233070. 6306.72   4
  -3  -5   8 248144. 6794.62   8
  -8   5   8 238590. 6193.67   1
   8  -2  -5 551.665 201.182   4
   6   2  -5 458.419 180.717   4
  -2  -6  -5 849.494 342.081  10
   2  -8  -5 97.9995 170.622  10
   8  -2  -5 240.087 196.710   9
  -6   8  -5 409.178 232.526   1
  -6   8  -2 235282. 5873.67   1
  -2  -6  -2 227675. 6185.86  10
   2  -8  -2 190244. 5564.40  10
   8  -2  -2 203695. 5321.73   4
   8  -2  -2 231462. 5885.72   9
   6   2  -2 210226. 5636.40   4
   8  -2   1 242.303 158.964   4
   6   2   1 577.525 232.455   4
  -6   8   1 346.122 174.343   1
  -8   6   1 304.184 257.494   1
   8  -2   1 258.182 155.109   3
  -2  -6   1 486.798 260.154  10
   2  -8   1 206.161 141.347  10
   8  -2   4 232383. 5844.31   3
  -6   8   4 243468. 6194.69   1
   2  -8   4 250677. 5994.42  10
   8  -2   4 247544. 6018.09   4
  -8   6   4 234916. 6155.49   1
   6   2   4 241166. 6243.91   4
  -2  -6   4 230938. 6361.83   8
  -2  -6   7-69.8457 229.238   8
  -2  -6   7 290.584 177.547  10
  -8   7   0 223790. 6203.67   1
   0   0   0    0.00    0.00   0
TITL paper_1617_red_abscor in R3c
REM R3c (#161 in standard setting)
CELL 0.71073   5.148570   5.148570  13.780767  90.0000  90.0000 120.0000
ZERR    6.00   0.000252   0.000252   0.000737   0.0000   0.0000   0.0000
LATT -3
SYMM -y, x-y, z
SYMM -x+y,-x, z
SYMM -y,-x, z+1/2
SYMM -x+y, y, z+1/2
SYMM  x, x-y, z+1/2
SFAC Li O Nb Ta
UNIT 6.00 18.00 0.48 5.52
TREF
HKLF 4
END
;
_shelx_hkl_checksum              25446
_shelx_res_file
;
    paper_1617_red_abscor.res created by SHELXL-2014/7
TITL paper_1617_red_abscor in R3c
REM R3c (#161 in standard setting)
CELL 0.71073 5.149 5.149 13.781 90 90 120
ZERR 6 0.001 0.001 0.005 0 0 0
LATT -3
SYMM -Y,+X-Y,+Z
SYMM +Y-X,-X,+Z
SYMM -Y,-X,0.5+Z
SYMM +Y-X,+Y,0.5+Z
SYMM +X,+X-Y,0.5+Z
SFAC Li O Nb Ta
UNIT 6 18 0.48 5.52
EADP Ta Nb
EXYZ Ta Nb
L.S. 10
PLAN  25
LIST 3
fmap 2
acta
MERG 2
TWIN -1 0 0 0 -1 0 0 0 -1 2
REM <olex2.extras>
REM <HklSrc "%.\\paper_1617_red_abscor.hkl">
REM </olex2.extras>
WGHT    0.031300
EXTI    0.023768
BASF   0.47611
FVAR       3.53236
TA    4    0.000000    0.000000    0.001452    10.30666    0.00407    0.00407 =
         0.00386    0.00000    0.00000    0.00204
NB    3    0.000000    0.000000    0.001452    10.02667    0.00407    0.00407 =
         0.00386    0.00000    0.00000    0.00204
O     2    0.050300    0.344496    0.069827    11.00000    0.00671    0.00479 =
         0.00724   -0.00193   -0.00182    0.00324
LI    1    0.000000    0.000000    0.283534    10.33333    0.00582    0.00582 =
         0.01492    0.00000    0.00000    0.00291
HKLF 4
REM  paper_1617_red_abscor in R3c
REM R1 =  0.0190 for     358 Fo > 4sig(Fo)  and  0.0194 for all     371 data
REM     18 parameters refined using      1 restraints
END
WGHT      0.0313      0.0000
REM Highest difference peak  2.143,  deepest hole -1.564,  1-sigma level  0.464
Q1    1   0.0800  0.1549  0.0108  11.00000  0.05    2.14
Q2    1  -0.0755 -0.1547 -0.0077  11.00000  0.05    2.12
Q3    1   0.0750 -0.0564  0.0557  11.00000  0.05    1.77
Q4    1  -0.0563 -0.1299 -0.0497  11.00000  0.05    1.72
Q5    1  -0.1530 -0.0609 -0.0393  11.00000  0.05    1.21
Q6    1   0.1201  0.2552  0.0542  11.00000  0.05    1.09
Q7    1   0.1939  0.4071  0.1163  11.00000  0.05    1.06
Q8    1   0.0000  0.0000 -0.0796  10.33333  0.05    1.01
Q9    1   0.0000  0.0000  0.0823  10.33333  0.05    0.98
Q10   1   0.0552  0.2744  0.0123  11.00000  0.05    0.89
Q11   1   0.1123  0.3939  0.1565  11.00000  0.05    0.81
Q12   1   0.2221  0.2731  0.0117  11.00000  0.05    0.67
Q13   1   0.2294  0.4607  0.0650  11.00000  0.05    0.67
Q14   1   0.0000  0.0000  0.3464  10.33333  0.05    0.57
Q15   1   0.0882  0.1772  0.0997  11.00000  0.05    0.57
Q16   1   0.0000  0.0000  0.1568  10.33333  0.05    0.56
Q17   1   0.2271  0.1121  0.3261  11.00000  0.05    0.44
Q18   1  -0.2169  0.2206  0.0106  11.00000  0.05    0.40
Q19   1   0.0651  0.1332  0.3344  11.00000  0.05    0.40
Q20   1  -0.0743 -0.1328  0.1680  11.00000  0.05    0.38
Q21   1  -0.0070  0.2621  0.2394  11.00000  0.05    0.37
Q22   1   0.0007  0.4420  0.0021  11.00000  0.05    0.34
Q23   1  -0.0519  0.3051  0.0998  11.00000  0.05    0.32
Q24   1  -0.1066  0.2322  0.1672  11.00000  0.05    0.31
Q25   1   0.1028  0.5680  0.0868  11.00000  0.05    0.30
;
_shelx_res_checksum              23534
loop_
_space_group_symop_operation_xyz
'x, y, z'
'-y, x-y, z'
'-x+y, -x, z'
'-y, -x, z+1/2'
'-x+y, y, z+1/2'
'x, x-y, z+1/2'
'x+2/3, y+1/3, z+1/3'
'-y+2/3, x-y+1/3, z+1/3'
'-x+y+2/3, -x+1/3, z+1/3'
'-y+2/3, -x+1/3, z+5/6'
'-x+y+2/3, y+1/3, z+5/6'
'x+2/3, x-y+1/3, z+5/6'
'x+1/3, y+2/3, z+2/3'
'-y+1/3, x-y+2/3, z+2/3'
'-x+y+1/3, -x+2/3, z+2/3'
'-y+1/3, -x+2/3, z+7/6'
'-x+y+1/3, y+2/3, z+7/6'
'x+1/3, x-y+2/3, z+7/6'
loop_
_atom_site_type_symbol
_atom_site_label
_atom_site_fract_x
_atom_site_fract_y
_atom_site_fract_z
_atom_site_U_iso_or_equiv
_atom_site_adp_type
_atom_site_calc_flag
_atom_site_occupancy
Ta Ta 0.0000 0.0000 0.0015(5) 0.00400(18) Uani d 0.92
Nb Nb 0.0000 0.0000 0.0015(5) 0.00400(18) Uani d 0.08
O O 0.0503(4) 0.3445(4) 0.0698(6) 0.0061(3) Uani d 1
Li Li 0.0000 0.0000 0.284(3) 0.009(6) Uani d 1
loop_
_atom_site_aniso_label
_atom_site_aniso_U_11
_atom_site_aniso_U_22
_atom_site_aniso_U_33
_atom_site_aniso_U_12
_atom_site_aniso_U_13
_atom_site_aniso_U_23
Ta 0.0041(2) 0.0041(2) 0.0039(2) 0.00204(10) 0.000 0.000
Nb 0.0041(2) 0.0041(2) 0.0039(2) 0.00204(10) 0.000 0.000
O 0.0067(9) 0.0048(6) 0.0072(5) 0.0032(9) -0.0018(9) -0.0019(4)
Li 0.006(8) 0.006(8) 0.015(13) 0.003(4) 0.000 0.000
loop_
_atom_type_symbol
_atom_type_description
_atom_type_scat_dispersion_real
_atom_type_scat_dispersion_imag
_atom_type_scat_source
Li Li -0.0003 0.0001 'International Tables Vol C Tables 4.2.6.8 and 6.1.1.4'
O O 0.0106 0.0060 'International Tables Vol C Tables 4.2.6.8 and 6.1.1.4'
Nb Nb -2.0727 0.6215 'International Tables Vol C Tables 4.2.6.8 and 6.1.1.4'
Ta Ta -0.7052 6.5227 'International Tables Vol C Tables 4.2.6.8 and 6.1.1.4'
loop_
_exptl_crystal_face_index_h
_exptl_crystal_face_index_k
_exptl_crystal_face_index_l
_exptl_crystal_face_perp_dist
1 -5 13 0.0661
5 -6 8 0.0845
-3 1 -18 0.0888
5 -4 13 0.1227
1 -6 -10 0.1037
-6 1 4 0.0724
0 5 11 0.0937
6 0 -9 0.0564
-4 5 -12 0.0581
loop_
_geom_angle_atom_site_label_1
_geom_angle_atom_site_label_2
_geom_angle_atom_site_label_3
_geom_angle_site_symmetry_1
_geom_angle_site_symmetry_3
_geom_angle
_geom_angle_publ_flag
O Ta O . 3 97.7(3) n
O Ta O 3 11_444 88.87(6) n
O Ta O . 10_554 88.86(6) n
O Ta O 11_444 10_554 81.9(3) n
O Ta O 2 11_444 90.43(6) n
O Ta O 11_444 12_454 81.9(3) n
O Ta O . 2 97.7(3) n
O Ta O 2 10_554 168.7(4) n
O Ta O . 12_454 90.43(6) n
O Ta O 3 12_454 168.7(4) n
O Ta O 3 2 97.7(3) n
O Ta O 2 12_454 88.86(6) n
O Ta O 3 10_554 90.43(6) n
O Ta O . 11_444 168.7(4) n
O Ta O 10_554 12_454 81.9(3) n
O Ta Li . 4_554 119.6(2) n
O Ta Li 10_554 10_444 147.7(4) n
O Ta Li 10_554 10_554 72.4(7) n
O Ta Li 3 4_554 119.6(2) n
O Ta Li 2 10_554 118.5(7) n
O Ta Li 12_454 13_544 121.6(8) n
O Ta Li 3 13_444 141.5(4) n
O Ta Li 12_454 13_554 76.5(5) n
O Ta Li . 10_554 70.3(3) n
O Ta Li 10_554 13_444 121.6(8) n
O Ta Li 12_454 4_554 49.18(18) n
O Ta Li 2 13_544 103.2(4) n
O Ta Li . 13_444 103.2(4) n
O Ta Li 2 13_554 141.5(4) n
O Ta Li 10_554 13_544 76.5(5) n
O Ta Li 11_444 13_554 121.6(8) n
O Ta Li 10_554 13_554 41.9(6) n
O Ta Li 2 10_444 32.96(15) n
O Ta Li 2 13_444 48.0(8) n
O Ta Li 3 10_554 32.96(15) n
O Ta Li 3 13_554 103.2(4) n
O Ta Li 11_444 10_554 112.5(4) n
O Ta Li 3 13_544 48.0(8) n
O Ta Li 12_454 10_554 147.7(4) n
O Ta Li 12_454 13_444 41.9(6) n
O Ta Li 3 10_444 70.3(3) n
O Ta Li 11_444 13_544 41.9(6) n
O Ta Li 11_444 10_444 72.4(7) n
O Ta Li . 10_444 118.5(7) n
O Ta Li 12_454 10_444 112.5(4) n
O Ta Li 11_444 4_554 49.18(18) n
O Ta Li . 13_544 141.5(4) n
O Ta Li 11_444 13_444 76.5(5) n
O Ta Li 2 4_554 119.6(2) n
O Ta Li 10_554 4_554 49.18(18) n
O Ta Li . 13_554 48.0(8) n
Li Ta Li 4_554 10_554 118.1(7) n
Li Ta Li 13_554 10_444 165.2(15) n
Li Ta Li 4_554 13_444 76.6(8) n
Li Ta Li 4_554 10_444 118.1(7) n
Li Ta Li 13_554 10_554 71.34(18) n
Li Ta Li 13_444 13_554 114.8(6) n
Li Ta Li 13_444 10_554 165.2(15) n
Li Ta Li 4_554 13_544 76.6(8) n
Li Ta Li 10_554 10_444 99.6(9) n
Li Ta Li 4_554 13_554 76.6(8) n
Li Ta Li 13_444 10_444 71.34(18) n
Li Ta Li 13_544 10_444 71.35(18) n
Li Ta Li 13_554 13_544 114.8(6) n
Li Ta Li 13_544 10_554 71.35(18) n
Li Ta Li 13_444 13_544 114.8(6) n
Ta O Ta . 16_554 141.37(14) n
Ta O Nb 16_554 16_554 0.0(3) n
Ta O Nb . 16_554 141.4 n
Ta O Li . 10_454 116.6(5) n
Ta O Li 16_554 13_554 87.3(8) n
Ta O Li . 13_554 93.4(7) n
Nb O Li 16_554 13_554 87.3(8) n
Li O Ta 10_454 16_554 95.6(9) n
Li O Nb 10_454 16_554 95.6(9) n
Li O Li 10_454 13_554 120.4(9) n
Ta Li Ta 4 7_445 76.6(8) n
Ta Li Ta 7 7_445 114.8(6) n
Ta Li Ta 4 7 76.6(8) n
Ta Li Nb 7 7_445 114.8(6) n
Ta Li Nb 4 4 0.0 n
Ta Li Nb 7_445 7_445 0.0 n
Ta Li Nb 7 7 0.0(2) n
Ta Li Nb 4 7_445 76.6(8) n
Ta Li Nb 4 7 76.6(8) n
Nb Li Ta 4 7 76.6 n
Nb Li Ta 7 7_445 114.8 n
Nb Li Ta 4 7_445 76.6 n
Nb Li Nb 7 7_445 114.8(6) n
Nb Li Nb 4 7_445 76.6(8) n
Nb Li Nb 4 7 76.6(8) n
O Li Ta 8 7 38.57(18) n
O Li Ta 18_554 7_445 149.4(3) n
O Li Ta 17_444 7_445 95.54(7) n
O Li Ta 7_445 7 111.9(13) n
O Li Ta 8 4 43.6(8) n
O Li Ta 17_444 4 108.4(12) n
O Li Ta 16_544 7_445 42.4(3) n
O Li Ta 9_455 7_445 111.9(13) n
O Li Ta 18_554 7 42.4(3) n
O Li Ta 9_455 4 43.6(8) n
O Li Ta 18_554 4 108.4(12) n
O Li Ta 8 7_445 84.7(8) n
O Li Ta 7_445 7_445 38.57(18) n
O Li Ta 17_444 7 149.4(3) n
O Li Ta 16_544 7 95.54(7) n
O Li Ta 7_445 4 43.6(8) n
O Li Ta 16_544 4 108.4(12) n
O Li Ta 9_455 7 84.7(8) n
O Li Nb 17_444 7 149.4(3) n
O Li Nb 8 4 43.6(8) n
O Li Nb 17_444 4 108.4(12) n
O Li Nb 18_554 4 108.4(12) n
O Li Nb 9_455 7 84.7(8) n
O Li Nb 16_544 7_445 42.4(3) n
O Li Nb 16_544 4 108.4(12) n
O Li Nb 9_455 7_445 111.9(13) n
O Li Nb 9_455 4 43.6(8) n
O Li Nb 17_444 7_445 95.54(7) n
O Li Nb 16_544 7 95.54(7) n
O Li Nb 18_554 7_445 149.4(3) n
O Li Nb 8 7_445 84.7(8) n
O Li Nb 7_445 7_445 38.57(18) n
O Li Nb 8 7 38.57(18) n
O Li Nb 18_554 7 42.4(3) n
O Li Nb 7_445 7 111.9(13) n
O Li Nb 7_445 4 43.6(8) n
O Li O 7_445 9_455 73.3(12) n
O Li O 18_554 16_544 110.5(12) n
O Li O 18_554 8 80.1(5) n
O Li O 18_554 9_455 89.0(6) n
O Li O 17_444 8 151.2(19) n
O Li O 17_444 9_455 80.1(5) n
O Li O 17_444 7_445 89.0(6) n
O Li O 16_544 9_455 151.2(19) n
O Li O 18_554 7_445 151.2(19) n
O Li O 16_544 7_445 80.1(5) n
O Li O 17_444 16_544 110.5(12) n
O Li O 8 7_445 73.3(12) n
O Li O 8 9_455 73.3(12) n
O Li O 16_544 8 89.0(6) n
O Li O 17_444 18_554 110.5(12) n
loop_
_geom_bond_atom_site_label_1
_geom_bond_atom_site_label_2
_geom_bond_site_symmetry_2
_geom_bond_distance
_geom_bond_publ_flag
Ta O . 1.908(4) n
Ta O 11_444 2.072(6) n
Ta O 10_554 2.072(6) n
Ta O 2 1.908(4) n
Ta O 3 1.908(4) n
Ta O 12_454 2.072(6) n
Ta Li 13_554 3.056(10) n
Ta Li 4_554 3.00(4) n
Ta Li 13_444 3.056(10) n
Ta Li 10_444 3.37(2) n
Ta Li 13_544 3.056(10) n
Ta Li 10_554 3.37(2) n
O Ta 16_554 2.072(6) n
O Nb 16_554 2.072(6) n
O Li 13_554 2.28(3) n
O Li 10_454 2.052(14) n
Li Ta 4 3.00(4) n
Li Ta 7 3.056(10) n
Li Ta 7_445 3.056(10) n
Li Nb 7 3.056(10) n
Li Nb 4 3.00(4) n
Li Nb 7_445 3.056(10) n
Li O 16_544 2.052(14) n
Li O 7_445 2.28(3) n
Li O 18_554 2.052(14) n
Li O 8 2.28(3) n
Li O 9_455 2.28(3) n
Li O 17_444 2.052(14) n
