#------------------------------------------------------------------------------
#$Date: 2019-12-26 20:55:13 +0200 (Thu, 26 Dec 2019) $
#$Revision: 246091 $
#$URL: file:///home/coder/svn-repositories/cod/cif/2/31/17/2311707.cif $
#------------------------------------------------------------------------------
#
# This file is available in the Crystallography Open Database (COD),
# http://www.crystallography.net/. The original data for this entry
# were provided by IUCr Journals, http://journals.iucr.org/.
#
# The file may be used within the scientific community so long as
# proper attribution is given to the journal article from which the
# data were obtained.
#
data_2311707
loop_
_publ_author_name
'Huband, S.'
'Keeble, D. S.'
'Zhang, N.'
'Glazer, A. M.'
'Bartasyte, A.'
'Thomas, P. A.'
_publ_section_title
;
 Crystallographic and optical study of
 LiNb<sub>1&#x2005;-&#x2005;x</sub>Ta<sub>x</sub>O<sub>3</sub>.
;
_journal_issue                   'Pt 3'
_journal_name_full
'Acta crystallographica Section B, Structural science, crystal engineering and materials'
_journal_page_first              498
_journal_page_last               506
_journal_paper_doi               10.1107/S2052520617004711
_journal_volume                  73
_journal_year                    2017
_chemical_formula_moiety         'Li Nb0.40 O3 Ta0.60'
_chemical_formula_sum            'Li Nb0.4 O3 Ta0.6'
_chemical_formula_weight         200.67
_chemical_name_common            'lithium niobate tantalate'
_chemical_name_systematic        'lithium niobate tantalate'
_space_group_crystal_system      trigonal
_space_group_IT_number           161
_space_group_name_Hall           'R 3 -2"c'
_space_group_name_H-M_alt        'R 3 c :H'
_atom_sites_solution_primary     other
_atom_sites_solution_secondary   other
_audit_creation_method
;
Olex2 1.2
(compiled 2016.09.09 svn.r3337 for OlexSys, GUI svn.r5227)
Dolomanov, O.V., Bourhis, L.J., Gildea, R.J, Howard, J.A.K. & Puschmann, H.
 (2009), J. Appl. Cryst. 42, 339-341.
Sheldrick, G.M. (2015). Acta Cryst. C71, 3-8.
;
_cell_angle_alpha                90
_cell_angle_beta                 90
_cell_angle_gamma                120
_cell_formula_units_Z            6
_cell_length_a                   5.1470(10)
_cell_length_b                   5.1470(10)
_cell_length_c                   13.798(5)
_cell_measurement_reflns_used    2949
_cell_measurement_temperature    294(2)
_cell_measurement_theta_max      37.1860
_cell_measurement_theta_min      4.7670
_cell_volume                     316.56(14)
_computing_cell_refinement
;
CrysAlisPro, Agilent Technologies,
Version 1.171.37.35 (release 13-08-2014 CrysAlis171 .NET)
(compiled Aug 13 2014,18:06:01)
;
_computing_data_collection
;
CrysAlisPro, Agilent Technologies,
Version 1.171.37.35 (release 13-08-2014 CrysAlis171 .NET)
(compiled Aug 13 2014,18:06:01)
;
_computing_data_reduction
;
CrysAlisPro, Agilent Technologies,
Version 1.171.37.35 (release 13-08-2014 CrysAlis171 .NET)
(compiled Aug 13 2014,18:06:01)
;
_computing_molecular_graphics    'Olex2 (Dolomanov et al., 2009)'
_computing_publication_material  'Olex2 (Dolomanov et al., 2009)'
_computing_structure_refinement  'ShelXL (Sheldrick, 2015)'
_diffrn_ambient_temperature      294(2)
_diffrn_detector_area_resol_mean 10.2833
_diffrn_measured_fraction_theta_full 1.000
_diffrn_measured_fraction_theta_max 1.000
_diffrn_measurement_device       'four-circle diffractometer'
_diffrn_measurement_device_type  'Xcalibur, Ruby, Gemini'
_diffrn_measurement_method       '\w scans'
_diffrn_radiation_monochromator  graphite
_diffrn_radiation_type           MoK\a
_diffrn_radiation_wavelength     0.71073
_diffrn_reflns_av_R_equivalents  0.0432
_diffrn_reflns_limit_h_max       8
_diffrn_reflns_limit_h_min       -8
_diffrn_reflns_limit_k_max       8
_diffrn_reflns_limit_k_min       -8
_diffrn_reflns_limit_l_max       22
_diffrn_reflns_limit_l_min       -23
_diffrn_reflns_number            3999
_diffrn_reflns_theta_full        25.242
_diffrn_reflns_theta_max         37.362
_diffrn_reflns_theta_min         5.447
_exptl_absorpt_coefficient_mu    33.191
_exptl_absorpt_correction_T_max  0.099
_exptl_absorpt_correction_T_min  0.015
_exptl_absorpt_correction_type   analytical
_exptl_absorpt_process_details
;
CrysAlisPro, Agilent Technologies,
Version 1.171.37.35 (release 13-08-2014 CrysAlis171 .NET)
(compiled Aug 13 2014,18:06:01)
Analytical numeric absorption correction using a multifaceted crystal
   model based on expressions derived by R.C. Clark & J.S. Reid.
(Clark, R. C. & Reid, J. S. (1995). Acta Cryst. A51, 887-897)
Empirical absorption correction using spherical harmonics,
 implemented in SCALE3 ABSPACK scaling algorithm.
;
_exptl_crystal_colour            'clear green'
_exptl_crystal_density_diffrn    6.316
_exptl_crystal_description       block
_exptl_crystal_F_000             523
_exptl_crystal_size_max          0.2149
_exptl_crystal_size_mid          0.1467
_exptl_crystal_size_min          0.1342
_refine_diff_density_max         2.170
_refine_diff_density_min         -0.790
_refine_ls_abs_structure_details
;
 Refined as an inversion twin.
;
_refine_ls_abs_structure_Flack   0.29(10)
_refine_ls_extinction_coef       0.0277(15)
_refine_ls_extinction_expression Fc^*^=kFc[1+0.001xFc^2^\l^3^/sin(2\q)]^-1/4^
_refine_ls_extinction_method     'SHELXL-2014/7 (Sheldrick 2014'
_refine_ls_goodness_of_fit_ref   1.180
_refine_ls_hydrogen_treatment    undef
_refine_ls_matrix_type           full
_refine_ls_number_parameters     18
_refine_ls_number_reflns         372
_refine_ls_number_restraints     1
_refine_ls_restrained_S_all      1.178
_refine_ls_R_factor_all          0.0145
_refine_ls_R_factor_gt           0.0144
_refine_ls_shift/su_max          0.000
_refine_ls_shift/su_mean         0.000
_refine_ls_structure_factor_coef Fsqd
_refine_ls_weighting_details
'w=1/[\s^2^(Fo^2^)+(0.0225P)^2^] where P=(Fo^2^+2Fc^2^)/3'
_refine_ls_weighting_scheme      calc
_refine_ls_wR_factor_gt          0.0360
_refine_ls_wR_factor_ref         0.0362
_reflns_number_gt                365
_reflns_number_total             372
_reflns_threshold_expression     'I > 2\s(I)'
_cod_data_source_file            bp5094sup1.cif
_cod_data_source_block           LNT60
_cod_depositor_comments
;
The following automatic conversions were performed:

data item '_atom_sites_solution_primary' value 'Other' was changed to
'other' in accordance with the
/home/saulius/struct/COD-crude-data/automatic-downloads/DataCite-retrospective/IUCr/depositions/lib/dictionaries/cif_core.dic
dictionary named 'cif_core.dic' version 2.4.2 last updated on
2011-04-26.

data item '_atom_sites_solution_secondary' value 'Other' was changed
to 'other' in accordance with the
/home/saulius/struct/COD-crude-data/automatic-downloads/DataCite-retrospective/IUCr/depositions/lib/dictionaries/cif_core.dic
dictionary named 'cif_core.dic' version 2.4.2 last updated on
2011-04-26.

Automatic conversion script
Id: cif_fix_values 7556 2019-12-06 15:28:31Z antanas 
;
_cod_original_cell_volume        316.56(17)
_cod_original_sg_symbol_H-M      'R 3 c'
_cod_original_formula_sum        'Li Nb0.40 O3 Ta0.60'
_cod_database_code               2311707
_shelx_space_group_comment
;
The symmetry employed for this shelxl refinement is uniquely defined
by the following loop, which should always be used as a source of
symmetry information in preference to the above space-group names.
They are only intended as comments.
;
_shelx_hkl_file
;
   0   0 -21 83.7492 93.0416  13
   0   0 -21-134.522 233.073   9
   0   0 -21 298.090 219.723   3
   0   0 -18 367704. 9343.29   9
   0   0 -18 338811. 8685.97  13
   0   0 -18 376295. 9121.49   8
   0   0 -18 352719. 8774.18   3
   0   0 -15 1.62842 102.453   3
   0   0 -15 8.90634 123.957  13
   0   0 -15 0.95280 167.269   9
   0   0 -15-4.42774 127.119   8
   0   0 -12 588961. 12916.2   9
   0   0 -12 589119. 12907.5   3
   0   0 -12 625182. 12915.4   8
   0   0  -9 111.365 93.9415  13
   0   0  -9 105.699 109.639   3
   0   0  -9 126.573 100.067  14
   0   0  -9 25.5177 89.3995   8
   0   0  -6 504120. 10512.6   3
   0   0  -6 489611. 10307.5  13
   0   0  -3 18.9666 42.4670   3
   0   0   3 90.0560 45.1286   1
   0   0   3 62.5797 39.7507  14
   0   0   3 110.362 47.7250  13
   0   0   3-1.66503 25.9443   9
   0   0   3 78.4212 43.6207   6
   0   0   3 9.09050 38.1018   7
   0   0   3 1.46441 35.2246   4
   0   0   6 439124. 9232.49   1
   0   0   9 109.043 114.593   1
   0   0  12 614130. 13259.8   1
   0   0  15 30.3173 115.031   1
   0   0  18 402620. 9536.09   1
   0   0  21-410.811 315.361   5
   0   1 -22 222092. 6568.95   8
  -1   0 -22 209889. 6395.83   9
  -1   0 -22 215895. 6325.60  13
  -1   0 -22 205754. 6038.63   3
   0   1 -22 191221. 5824.21  13
   1  -1 -22 198336. 5918.70   3
   1  -1 -19-118.444 238.085   9
   0   1 -19-165.287 195.948  13
   1  -1 -19-29.0998 142.473  13
  -1   0 -19-36.4137 212.682   9
   1  -1 -19 42.4818 232.491   8
   0   1 -19-152.991 239.185   9
  -1   0 -19-10.2897 202.308  13
   1  -1 -19-30.0625 213.449   3
  -1   0 -19-22.3097 207.019   3
   0   1 -19-288.013 221.982   3
   0   1 -19 393.068 264.222   8
   1  -1 -16 409661. 9029.67   8
   0   1 -16 378821. 9175.07   8
   0   1 -16 386302. 8960.38   3
   1  -1 -16 340109. 8432.59  13
   1  -1 -16 367312. 9103.59   9
   0   1 -16 364764. 9099.20  14
   0   1 -16 351364. 8773.77  13
   0   1 -16 362422. 9015.79   9
  -1   0 -16 355386. 8822.83  13
  -1   0 -16 377811. 8972.38   3
   1  -1 -16 361970. 9072.78   3
  -1   0 -16 353573. 9317.34   9
  -1   0 -13-31.1546 125.736  13
   0   1 -13 206.498 165.678  13
   0   1 -13 166.946 178.766  14
   1  -1 -13 57.6854 94.9913  13
  -1   0 -13 68.2300 159.178   9
   0   1 -13 199.864 192.596   8
   1  -1 -13 82.1325 138.784   3
  -1   0 -13-48.0352 117.975   3
   1  -1 -13 273.824 151.225   8
   1  -1 -13-29.9096 145.554   9
   0   1 -13 24.6293 112.345   3
   0   1 -13 19.6988 147.809   9
   1  -1 -10 627248. 13568.5   9
  -1   0 -10 648044. 13605.0  13
   1  -1 -10 624538. 13362.5   8
   0   1 -10 654765. 13725.7  13
   0   1 -10 618781. 13540.5   3
   0   1 -10 609960. 13482.5   9
  -1   0 -10 663918. 13856.9   3
   0   1 -10 609565. 13591.8   8
  -1   0 -10 634650. 14022.3   9
  -1   0 -10 639220. 13255.3   7
   1  -1 -10 652249. 13781.2   3
   0   1 -10 657037. 13831.6  14
   1  -1 -10 608286. 13191.8  13
  -1   0  -7 95.1376 91.7267   3
   1  -1  -7 25.5032 62.6672  14
   1  -1  -7 40.1478 43.6720  12
   1  -1  -7 75.3014 79.0880   9
  -1   0  -7 112.925 67.9440   7
   1  -1  -7 410.851 148.419   4
   1  -1  -7 40.9116 81.6749   3
   1  -1  -7 96.8848 62.5341  13
   0   1  -7 75.7962 89.5142  13
   0   1  -7 172.664 103.027   3
  -1   0  -4 636669. 15286.1  12
   0   1  -4 788528. 15138.9  12
   0   1  -4 715261. 15108.8   2
  -1   0  -4 716207. 15307.8   3
   1  -1  -4 888838. 15773.4   4
  -1   0  -4 726891. 15200.9  10
   1  -1  -4 735915. 15035.5  14
   0   1  -4 813258. 15068.9   3
   1  -1  -4 805477. 15415.5   3
   0   1  -4 706471. 15522.1  13
   1  -1  -4 740339. 15245.7   9
   1  -1  -1 110.067 53.4609   5
   1  -1  -1 23.0218 52.4367   3
   0   1  -1 47.0720 54.5820   5
   0   1  -1 233.296 36.7122   3
   1  -1  -1 19.7704 51.3577  11
  -1   0  -1 27.1686 27.7000   1
   1  -1  -1 40.8936 49.1468   4
  -1   0  -1 39.2251 68.0669  12
   0   1   2 849537. 16643.7   5
   1  -1   2 825952. 16354.2  14
   1  -1   2 830361. 16353.5   6
   1  -1   2 987840. 16750.6   1
   0   1   2 806433. 16752.3   2
  -1   0   2 713408. 16417.1  12
  -1   0   2 886245. 16692.7  11
   1  -1   2 794288. 16482.1   8
   1  -1   2 753344. 16495.9   9
  -1   0   2 656341. 16399.8   1
   1  -1   2 721151. 16494.9   5
   1  -1   2 823985. 16291.1  11
   0   1   2 891724. 16679.5   9
   0   1   2 791477. 16588.4   1
  -1   0   2 924279. 16302.1  13
   1  -1   5 91.5646 48.4829  11
  -1   0   5-3.94027 35.8913  13
   0   1   5 23.0825 34.1998   7
   0   1   5 69.4508 56.2253   1
  -1   0   5 66.7325 57.0457   1
  -1   0   5 25.6347 24.0144   4
   1  -1   8 634078. 13051.9  12
  -1   0   8 639121. 13560.9   1
  -1   0   8 640983. 13122.6   4
   1  -1   8 610846. 13156.1   1
   0   1   8 654577. 13253.2   1
  -1   0  11 149.205 123.456   1
   0   1  11-44.3035 100.273   1
   1  -1  11 258.338 136.785   1
   0   1  14 486803. 10429.3   1
  -1   0  14 490340. 10667.5   1
   1  -1  17 215.030 219.654   5
   0   1  17 164.603 126.410   1
   0   1  17 167.717 239.943   5
   1  -1  17 2.90804 83.9318   1
  -1   0  17 25.0413 115.568   1
   1  -1  20 276606. 8232.00   5
   0   1  20 279762. 7983.06   5
  -1   0  20 271245. 7067.71   1
   1   0 -23-301.884 274.224   8
   0  -1 -23 48.9452 153.351   3
  -1   1 -23 103.837 204.812  13
   1   0 -20 278270. 7544.01   8
  -1   1 -20 258434. 7227.40  13
   1   0 -20 252540. 6791.27  13
   1   0 -20 251541. 7042.07   3
   0  -1 -20 257266. 6969.50   3
  -1   1 -20 277249. 7616.39   9
   0  -1 -20 252472. 7002.51  13
   0  -1 -20 275555. 7383.87   9
  -1   1 -20 283810. 7458.08   3
   0  -1 -17 43.4536 151.273  13
  -1   1 -17-40.5918 176.489  13
  -1   1 -17 239.247 191.347   3
  -1   1 -17 4.36339 197.464   8
   1   0 -17 105.019 191.886   8
   1   0 -17 58.1729 166.700   3
   1   0 -17-28.0378 150.342  13
  -1   1 -17 135.192 200.316   9
   0  -1 -17-136.699 182.895   3
   0  -1 -17 378.469 238.619   9
   1   0 -14 471691. 10993.2   3
   1   0 -14 458596. 10788.4   9
  -1   1 -14 481585. 10849.5   3
  -1   1 -14 466604. 10899.6   9
  -1   1 -14 481892. 10994.2   8
   0  -1 -14 489139. 10712.5   8
   0  -1 -14 437933. 10807.9   9
   1   0 -14 445357. 10413.2  13
   0  -1 -14 471020. 10748.1   3
   1   0 -14 481558. 10911.7  14
   0  -1 -14 452746. 10486.9  13
  -1   1 -14 481436. 10895.2  13
   1   0 -14 474124. 10744.1   8
   0  -1 -11 13.1204 93.0907  13
   1   0 -11 15.1904 103.885   3
  -1   1 -11 537.899 181.482   3
   0  -1 -11 1.71677 115.527   8
   1   0 -11 9.57149 83.6907  13
  -1   1 -11-15.1586 88.8754   7
   1   0 -11 30.1483 135.714  14
  -1   1 -11 90.8793 113.032   9
   0  -1 -11 24.8531 47.4161  12
  -1   1 -11-57.8660 140.465  13
  -1   1 -11 65.0962 116.287   8
   0  -1 -11-2.76685 111.329   9
  -1   1 -11 8.28421 127.328  14
   0  -1 -11-60.5297 115.666   3
   1   0 -11 1.83553 117.400   9
  -1   1  -8 643581. 14040.2   9
   0  -1  -8 711279. 13739.8  12
   1   0  -8 715148. 13402.6  12
   0  -1  -8 721130. 14686.1   4
  -1   1  -8 644274. 13901.7   3
  -1   1  -8 628874. 13974.3   7
   0  -1  -8 665440. 13928.6   8
   1   0  -8 656012. 14097.5  14
   1   0  -8 663737. 14116.5   6
   0  -1  -8 642941. 14119.8   9
  -1   1  -8 661567. 14140.6  13
   1   0  -8 662592. 13833.4  13
   0  -1  -8 665063. 14168.3   3
   1   0  -8 673116. 14017.1   3
   0  -1  -5 15.8794 120.435   4
   0  -1  -5-12.6688 72.7533   9
  -1   1  -5-3.15688 41.6375   3
   0  -1  -5 48.3956 80.6726   3
   1   0  -5 4.74652 64.1346   3
   0  -1  -5 53.3077 53.0545  12
   1   0  -5 203.328 94.2728  14
   1   0  -5 142.491 80.9710   6
  -1   1  -5 253.107 46.3559   2
   1   0  -5 125.999 53.7189  12
  -1   1  -5-56.7392 72.5151   7
   0  -1  -2 880867. 16432.6   9
   1   0  -2 888000. 16601.4   5
   1   0  -2 753584. 16327.5   2
   1   0  -2 819152. 16450.2  11
   0  -1  -2 822082. 17350.8   4
   0  -1  -2 859794. 16398.1  12
  -1   1  -2 770453. 16190.6  14
   0  -1  -2 954575. 16544.7   5
   0  -1  -2 868697. 16463.7   3
   0  -1   1 104.309 74.7546   4
   0  -1   1 115.468 62.6743  12
   0  -1   1 121.593 50.7179   7
   1   0   1 6.35035 29.1606   2
   1   0   1 78.2224 30.8173   1
  -1   1   1 28.3131 62.4307   1
   1   0   1 41.5250 37.2049  11
   1   0   4 667688. 15303.1  12
   0  -1   4 827295. 15156.6  11
   0  -1   4 721438. 15311.7  12
  -1   1   4 686474. 15440.7   1
   0  -1   4 667295. 15473.0   4
   1   0   4 686644. 15907.1   5
  -1   1   4 746058. 15248.6  14
   1   0   4 802355. 15098.7   2
  -1   1   4 745642. 15249.0   6
  -1   1   4 915650. 15799.3   4
   0  -1   7 65.7036 69.1747   1
   1   0   7 36.2063 123.523   5
  -1   1   7 150.484 105.164   1
   1   0   7 170.513 66.3565   1
   0  -1   7 14.8086 19.6558  12
  -1   1  10 593753. 12988.9   1
   1   0  10 628871. 13469.1   5
   1   0  10 620534. 12272.1  12
   0  -1  10 608347. 12878.7   1
   0  -1  13-51.2118 128.220   1
   1   0  13 31.3741 134.147   5
   1   0  13-71.9474 79.7780   1
  -1   1  13 281.098 172.500   1
   1   0  16 353770. 9523.80   5
  -1   1  16 386618. 9103.17   1
   1   0  16 395887. 8682.46   1
   0  -1  16 369887. 8877.14   1
   0  -1  19 19.0102 115.854   1
  -1   1  19 85.9537 129.259   1
   1   0  19 76.0342 185.811   5
   1   0  22 220161. 6864.60   5
   0  -1  22 224339. 7340.38   5
  -1   1  22 227072. 7127.01   5
  -2   0 -20 249628. 6799.86   9
  -2   0 -20 249479. 7088.26  13
   0   2 -20 243469. 7272.81   8
   2  -2 -20 231553. 6810.86   3
   0   2 -20 222559. 6470.33  13
   2  -2 -17-8.80696 218.119   3
   0   2 -17-164.471 219.407   8
   2  -2 -17-177.564 143.680  13
   0   2 -17 295.282 241.140  14
  -2   0 -17 84.8539 208.646  13
   0   2 -17-200.758 196.789  13
  -2   0 -17-43.1596 176.500   9
   2  -2 -17 226.705 195.621   8
   0   2 -14 424171. 10171.0  13
  -2   0 -14 423796. 10214.6  13
  -2   0 -14 425199. 10230.6   9
   0   2 -14 423835. 10340.6   8
   2  -2 -14 419933. 10415.6   3
   0   2 -14 461081. 10024.7   3
   2  -2 -14 465059. 9855.64   8
   0   2 -14 444740. 10539.2  14
   2  -2 -14 403291. 9360.78  13
  -2   0 -14 418982. 10295.5   3
   0   2 -11 194.389 151.772   8
   2  -2 -11-38.8567 123.112   9
   2  -2 -11 39.1352 69.4374  13
   2  -2 -11 8.32060 76.9420  12
  -2   0 -11-16.1767 105.734   9
   2  -2 -11 24.8080 133.789   3
   2  -2 -11 94.1921 122.640   4
   0   2 -11-120.782 154.650  13
   0   2 -11 32.4475 96.3022   3
  -2   0 -11-1.61610 70.7667   7
   0   2 -11-27.3829 163.849  14
   0   2 -11 187.928 174.322   6
   2  -2 -11-219.402 118.580   8
  -2   0 -11 503.777 220.413  13
   0   2  -8 644801. 14149.9   2
   2  -2  -8 697717. 14689.5   3
  -2   0  -8 710423. 14792.7   9
   0   2  -8 676746. 14022.4   3
   0   2  -8 664458. 14781.7   6
  -2   0  -8 655581. 14086.8   7
   0   2  -8 661510. 14779.7  14
  -2   0  -8 666750. 14618.9  13
   2  -2  -5 42.9824 98.9720   3
  -2   0  -5 91.5572 70.8838  10
  -2   0  -5 105.314 102.782  12
   2  -2  -5 107.298 85.2763   4
  -2   0  -5 278.029 71.6584   2
   0   2  -2 608590. 11654.9  11
  -2   0  -2 535900. 12342.4  12
  -2   0  -2 558400. 11802.2   1
   0   2  -2 609029. 12167.3   2
   0   2  -2 625938. 12192.2   7
   2  -2  -2 572646. 12417.4  11
   0   2  -2 593174. 11735.1   3
   2  -2  -2 613945. 12373.3   4
   2  -2  -2 593573. 12314.7   3
   2  -2   1 847.595 111.860  14
  -2   0   1 137.312 72.0042   1
   0   2   1 32.0272 42.7703   5
   2  -2   1 111.399 123.117  11
   2  -2   1 83.5426 48.8897   5
   0   2   1 32.7661 75.1559   2
  -2   0   1 51.2028 96.0440  12
   2  -2   1-0.58903 95.3665   4
   2  -2   1 1048.64 126.096   6
   0   2   1 18.5854 40.0979   7
   2  -2   4 818178. 18062.9   5
   2  -2   4 824082. 17869.2  11
   0   2   4 880906. 18374.6   2
  -2   0   4 954465. 17684.2  13
  -2   0   4 791726. 18074.6   1
   0   2   4 945067. 18147.0   5
   0   2   7 70.4986 105.389   5
   2  -2   7-27.9300 99.4577   5
   0   2   7 59.5529 111.931   2
   2  -2   7 196.125 80.4656  11
   0   2   7 32.0407 24.8966   7
  -2   0   7 169.052 109.374   1
   0   2   7-34.7844 108.655   1
   0   2  10 512859. 11112.8   1
   2  -2  10 534203. 12215.9   5
   0   2  10 510083. 11714.2   5
   2  -2  10 522619. 11023.1  11
  -2   0  10 541950. 11540.1   1
   0   2  13 2.03247 101.141   1
  -2   0  13 115.723 166.220   1
   0   2  13 24.6025 129.280   5
   2  -2  13 59.6127 84.1824  11
   2  -2  13 138.843 151.889   5
   2  -2  13 203.513 112.379   1
   0   2  16 345569. 8932.51   5
   2  -2  16 374549. 8291.20  11
   0   2  16 370157. 8265.78   2
   2  -2  16 362993. 9572.54   5
  -2   0  16 355362. 8549.59   1
   2  -2  19-345.906 276.104   5
  -2   0  19 153.210 189.063   1
   0   2  19-157.730 234.314   5
   2  -2  22 235722. 7310.59   5
   0   2  22 228047. 6731.28   5
  -1   2 -21 3377.38 611.082   9
   1  -2 -21 4130.00 615.736  13
  -2   1 -21 4074.25 725.575   9
   1  -2 -21 4982.77 713.860   9
  -2   1 -21 4586.84 755.477  13
   1  -2 -21 4382.97 661.360   3
   1   1 -21 4979.10 822.306   8
   2  -1 -21 3723.73 688.633   8
  -1  -1 -21 5047.78 713.990   9
  -1  -1 -21 4087.97 689.796  13
  -1  -1 -21 3504.36 583.099   3
   2  -1 -21 3648.23 655.478   3
   1   1 -18 303444. 7958.85   3
  -2   1 -18 322667. 8349.90  13
  -1  -1 -18 297463. 7870.85  13
   1  -2 -18 289356. 7459.60  13
  -1  -1 -18 329937. 8053.68   9
  -1   2 -18 298340. 7852.30   9
   1  -2 -18 299917. 7838.00   3
  -1  -1 -18 305770. 7782.22   3
  -2   1 -18 318002. 8306.57   9
   1   1 -18 308984. 8264.27   8
  -1   2 -18 312711. 8343.22   8
   1  -2 -18 307764. 7829.83   9
   2  -1 -18 287598. 8180.91   3
   1   1 -18 313545. 8200.72  14
  -1   2 -18 305877. 8046.99  13
   2  -1 -18 332775. 8106.93   8
   1   1 -18 284437. 7537.92  13
   1   1 -15 9078.72 890.493   8
   1   1 -15 9213.37 889.278   3
  -2   1 -15 9088.88 918.862  13
  -1   2 -15 9454.12 946.264   8
   1  -2 -15 8560.93 718.736  13
  -1   2 -15 10291.8 771.786   3
   1   1 -15 8947.18 789.079  13
   1  -2 -15 10906.8 830.812   8
   1  -2 -15 8495.32 849.056   3
   1  -2 -15 7935.27 785.406   9
  -1  -1 -15 9017.79 846.208  13
  -2   1 -15 10362.1 981.008   9
  -1  -1 -15 9383.03 875.012   9
  -1   2 -15 9365.76 907.919  13
   2  -1 -15 10042.8 706.358  13
  -1   2 -15 9414.14 841.319   9
  -1  -1 -15 9909.35 868.421   3
   2  -1 -15 9675.72 837.220   8
   1   1 -15 9259.75 938.300  14
   2  -1 -15 7543.15 847.979   3
  -1   2 -15 9376.70 895.980  14
  -1  -1 -12 479666. 10882.8   9
   2  -1 -12 454651. 10940.1   3
   1  -2 -12 433679. 10622.0   9
  -1  -1 -12 490259. 10880.8   3
   1  -2 -12 454584. 10928.9   3
   1   1 -12 480350. 10782.3   3
  -2   1 -12 461316. 11051.2   9
  -1   2 -12 464306. 10938.4   7
   2  -1 -12 436997. 10143.8  13
   2  -1 -12 471692. 10602.8  14
  -2   1 -12 450395. 10510.7   7
   1  -2 -12 547102. 11326.5   4
   1  -2 -12 497029. 10492.4   8
  -1   2 -12 469040. 10268.6   3
   1   1 -12 459425. 11130.0  14
  -1  -1 -12 550779. 10553.5  12
   1  -2 -12 532507. 10126.1  12
  -1   2 -12 466886. 10982.7   8
   1   1 -12 445437. 10661.2  13
  -2   1 -12 476629. 10979.0  13
  -1   2 -12 461186. 10847.2  14
   1  -2 -12 462002. 10470.4  13
   2  -1 -12 494171. 9779.81  12
  -1   2 -12 464180. 11009.2  13
  -1  -1 -12 467794. 10840.8  13
  -1   2 -12 457801. 10580.2   9
   1   1 -12 448106. 11072.8   6
   1   1  -9 30106.9 1492.55  14
  -1   2  -9 30915.7 1021.16   3
   2  -1  -9 31916.4 1283.67  14
  -1  -1  -9 28457.6 1356.41   9
  -2   1  -9 31964.2 1416.51  13
  -1   2  -9 29910.9 1399.71   8
   1  -2  -9 32108.7 1153.93   8
   2  -1  -9 31458.0 1041.39  13
   1  -2  -9 30499.9 1446.84   3
  -1   2  -9 32327.6 1556.48  13
  -1  -1  -9 31769.4 946.284   1
  -1   2  -9 29324.6 1208.61   9
  -1   2  -9 30988.9 1394.53  14
   1   1  -9 30158.9 1264.18   3
   2  -1  -9 29852.9 1419.63   3
  -1  -1  -9 31193.1 1459.25   3
  -1   2  -9 29395.7 1445.66   7
  -2   1  -9 31724.6 1512.22   9
  -1   2  -9 33526.0 1117.50   2
   1  -2  -9 29633.1 1085.85  12
   1  -2  -9 29056.5 1266.28   9
   1   1  -9 31174.9 1365.74  13
  -2   1  -9 30197.2 1310.63   7
   1  -2  -9 34997.8 1773.20   4
  -1  -1  -9 35503.1 1441.68  12
   1   1  -9 29401.3 1481.72   6
   2  -1  -6 721322. 15388.5  13
  -1   2  -6 771017. 15696.4   9
  -1   2  -6 821547. 16096.8  14
   1   1  -6 730547. 15857.6   2
   1  -2  -6 751128. 15769.6   9
   1  -2  -6 906727. 16512.5   4
   2  -1  -6 785742. 16255.9   3
   1  -2  -6 793677. 16122.3   3
  -1  -1  -6 756350. 15982.7  12
  -1   2  -6 759933. 16036.7   8
  -1   2  -6 823554. 16097.6   6
   2  -1  -6 807204. 16291.2  11
  -1  -1  -6 645364. 16768.3   4
  -2   1  -6 767100. 16340.2   9
  -1  -1  -6 739821. 15445.4   1
   1  -2  -6 761068. 15506.0   8
  -1   2  -6 767181. 15562.8   2
   2  -1  -6 784331. 15804.5   6
   2  -1  -6 777126. 15795.9  14
  -1  -1  -6 962413. 16503.6   9
   1  -2  -6 844015. 15918.4  12
  -2   1  -6 785401. 16235.6  10
   1   1  -6 793722. 15967.7   3
  -1  -1  -6 776110. 16271.8   3
  -1  -1  -6 746789. 15333.7   7
   1  -2  -3 91248.0 2389.86  12
   2  -1  -3 92492.6 2517.97   5
  -1  -1  -3 86254.5 2557.14   9
  -1  -1  -3 95964.8 2203.92   1
   1   1  -3 91218.1 2515.46   5
   2  -1  -3 91625.2 2198.34  14
  -1   2  -3 90712.5 2347.96   8
   1   1  -3 88552.8 2248.55  11
  -1   2  -3 90181.7 2099.15   9
  -2   1  -3 91225.4 2377.54  13
   1  -2  -3 83257.3 2868.74   4
   2  -1  -3 98342.8 2197.54   4
  -1  -1  -3 93655.9 3054.13   4
  -1   2  -3 84645.6 2334.63   6
  -1   2  -3 93823.7 1998.03  11
   1  -2  -3 89579.0 2122.29   9
   1   1  -3 98998.5 2268.60   4
   1   1  -3 99973.8 2348.07   2
  -1   2  -3 100338. 2405.28   2
  -1   2  -3 83715.5 2320.19  14
   1  -2  -3 91355.6 2392.47   3
   2  -1  -3 92720.4 2198.95   6
   2  -1  -3 92444.8 2612.10  11
  -2   1  -3 105503. 2177.45   2
  -1  -1  -3 92045.6 2442.24  12
  -1   2   0 710462. 12696.8  14
   1   1   0 624933. 12670.5   5
   2  -1   0 733923. 12443.2  13
  -1   2   0 566120. 12401.9   8
  -1  -1   0 593658. 12705.7  12
  -2   1   0 714852. 12558.4  13
   2  -1   0 588238. 12833.6  11
   2  -1   0 687890. 12685.5   5
   1  -2   0 634924. 13114.9   4
  -1   2   0 580555. 13134.5   2
   1   1   0 626599. 12571.7   2
   1   1   0 635085. 12505.5  11
  -1   2   0 630788. 12987.7  10
  -1  -1   0 533183. 13240.8   4
  -2   1   0 554557. 12606.7   1
   1  -2   0 637751. 12753.5  12
   1  -2   0 683167. 12491.4   3
   2  -1   3 92212.1 2258.42  11
   1  -2   3 88105.6 2304.30  12
   1  -2   3 83132.2 2095.55   9
   2  -1   3 90345.9 2535.24   5
  -1  -1   3 99744.6 2133.61  11
   2  -1   3 89642.9 2139.69   1
   1  -2   3 89151.4 2651.41   4
  -1   2   3 85117.1 2471.76   1
   1   1   3 96457.3 2256.73   2
  -2   1   3 97311.1 2476.39   1
   1  -2   3 94178.7 2087.33  11
   1   1   3 79486.9 2430.72   5
  -1  -1   3 82452.7 2425.75   4
  -1  -1   3 91405.3 2236.30   1
  -1  -1   3 91608.1 2264.26  12
  -1   2   3 86509.4 2076.07   9
  -1  -1   6 773064. 16402.1   4
   2  -1   6 847527. 16636.6   1
  -1   2   6 716737. 16643.5   1
   1  -2   6 789425. 16610.3  12
  -1  -1   6 771997. 16706.7   1
  -2   1   6 826346. 16268.7   4
   1   1   6 929450. 17577.3   5
   2  -1   6 755343. 16535.6  11
   2  -1   6 792258. 17275.7   5
   1  -2   6 822076. 16233.5  11
  -1  -1   6 753332. 16454.1  12
   1  -2   6 843252. 16237.3   3
  -2   1   6 681105. 16827.2   1
   1   1   6 763906. 16508.3   2
   2  -1   9 25772.9 1463.17   5
  -1   2   9 29304.1 1200.78   1
   2  -1   9 29197.8 935.711   1
  -2   1   9 29189.0 904.804   4
   1   1   9 28796.1 1043.89   2
   1   1   9 27475.6 891.798   1
  -1  -1   9 30401.4 957.458  12
   1  -2   9 26342.2 1032.42  12
   2  -1   9 29713.8 1148.29  11
   1  -2   9 30996.4 917.588  11
   1   1   9 28448.8 1429.31   5
  -1  -1   9 29869.2 1311.76   1
  -2   1   9 32964.8 1441.25   1
  -1  -1   9 30766.7 996.626   4
  -1  -1  12 450311. 10809.8   1
   1  -2  12 502298. 10197.6  11
  -2   1  12 499934. 10960.9   1
   1  -2  12 457058. 10527.0   1
  -1  -1  12 494445. 10209.8   4
   1   1  12 499418. 10097.7   1
  -1   2  12 485693. 10681.9   1
   2  -1  12 483344. 10613.8  11
   1   1  12 538622. 10299.7   2
   2  -1  12 414791. 10219.2   1
   2  -1  12 471407. 11388.0   5
   1   1  12 449736. 11076.9   5
   1  -2  15 9511.09 817.627   1
   1   1  15 8115.60 863.831   5
  -2   1  15 10361.4 876.128   1
  -1   2  15 9172.25 791.979   1
   2  -1  15 9719.27 813.799  11
   2  -1  15 9011.57 985.790   5
  -1  -1  15 9471.26 831.782   1
   1  -2  15 11467.3 706.825  11
   2  -1  18 319590. 7995.22  11
   1   1  18 291939. 8163.56   5
   1  -2  18 312043. 8887.63   5
  -1  -1  18 303461. 7763.95   1
   2  -1  18 303167. 8483.29   5
  -1   2  18 309221. 8329.16   5
  -2   1  18 318363. 7848.47   1
  -1   2  18 343254. 7913.95   1
   1  -2  18 288224. 7626.95   1
  -1  -1  21 3558.70 564.702   1
   2  -1  21 3118.70 673.587   5
   1   1  21 3558.88 663.396   5
   1  -2  21 3244.20 789.437   5
  -2   1  21 4282.09 629.618   1
  -1   2  21 5252.49 825.966   5
  -2   2 -22 225028. 6541.26   9
   0  -2 -22 208791. 6101.01   3
   0  -2 -22 235440. 6276.95   9
   2   0 -22 215890. 6713.63   8
   0  -2 -22 202863. 6272.50  13
  -2   2 -22 219354. 6693.96  13
   2   0 -19 113.115 279.007   3
   0  -2 -19 149.848 214.109  13
   0  -2 -19 23.5533 211.420   9
  -2   2 -19 225.969 215.167  13
   0  -2 -19 26.9158 165.629   3
  -2   2 -19 250.708 205.741   9
   2   0 -19-311.670 286.258   8
   0  -2 -16 367460. 8573.06   9
  -2   2 -16 345112. 8627.68   9
  -2   2 -16 369150. 9173.69  13
   2   0 -16 382281. 8919.65  14
   2   0 -16 339604. 8231.91  13
   2   0 -16 343010. 9007.72   3
   2   0 -16 349854. 8865.21   8
   0  -2 -16 357135. 8618.56   3
   0  -2 -16 341091. 8585.64  13
  -2   2 -13-54.3523 129.165   9
  -2   2 -13 167.678 183.847  13
   0  -2 -13 50.5152 119.784   9
  -2   2 -13 27.5579 126.991   7
   2   0 -13-62.9068 152.393   3
   0  -2 -13-146.556 145.290   3
   2   0 -13 64.7889 190.071  14
   0  -2 -13-52.7829 131.785  13
   0  -2 -13 94.0228 91.6525  12
   2   0 -13 98.7735 114.945  13
   2   0 -10 535280. 11787.8   6
   0  -2 -10 586154. 13104.3   4
  -2   2 -10 539361. 11495.6   9
   2   0 -10 524274. 11760.4  14
  -2   2 -10 506130. 11836.9   8
   2   0 -10 470657. 11630.2   3
   2   0 -10 479374. 11091.3  13
   0  -2 -10 579410. 11542.6  12
   0  -2 -10 542346. 11506.3   9
  -2   2 -10 533925. 12021.7  13
   0  -2 -10 546747. 11653.7   3
  -2   2 -10 499690. 11772.1   7
   0  -2  -7 19.5065 77.7579   9
   2   0  -7 508.709 166.326   6
   2   0  -7 16.1527 93.0742   3
   0  -2  -7-95.4498 218.774   4
   2   0  -7 31.5884 76.0187  11
   2   0  -7 633.484 183.370  14
  -2   2  -7 84.2445 99.7733  14
  -2   2  -7 158.339 157.833   7
   0  -2  -7-2.15094 95.8275   3
  -2   2  -7 29.8112 28.5913   2
   0  -2  -7 0.42528 75.9071  12
  -2   2  -7-45.5332 76.9487   9
  -2   2  -4 810413. 17119.6  14
   0  -2  -4 829062. 18152.6   4
  -2   2  -4 807779. 17109.3   2
   0  -2  -4 929559. 17268.1   9
  -2   2  -4 792983. 17130.4   9
   0  -2  -4 920084. 17510.2   3
   0  -2  -4 891924. 17394.7  12
   2   0  -4 859474. 17564.6   5
   2   0  -4 834489. 17420.8  11
  -2   2  -1 164.179 122.210   1
   0  -2  -1 225.593 64.8315  10
  -2   2  -1 40.5605 55.4088   9
   0  -2  -1-3.77089 45.6763   9
   0  -2  -1 223.887 191.167   4
   0  -2  -1 4.22296 40.6375   5
   2   0  -1 11.3144 60.4007   5
   2   0  -1 14.7462 58.6851   2
   0  -2  -1 42.0446 99.4709  12
   0  -2  -1 68.6342 75.2468   3
   2   0  -1 51.4865 66.8573  11
  -2   2  -1 78.1330 53.7984   5
   0  -2   2 607739. 12910.5   4
   2   0   2 616761. 12800.3   5
   2   0   2 577965. 12367.7   2
   2   0   2 577039. 12482.0  11
   2   0   2 542313. 12168.7   1
   0  -2   2 625016. 12788.2  12
  -2   2   2 554484. 12695.2   1
  -2   2   5 207.396 131.919   1
   2   0   5-25.2015 95.7533   5
   0  -2   5 22.0588 51.8791  12
  -2   2   5 102.652 39.1043   6
   2   0   5 101.452 92.7473  11
   0  -2   5 109.755 102.084   4
   2   0   5-12.9805 32.7007   2
  -2   2   5 95.9825 37.0405  14
   2   0   8 668438. 14638.2  11
   2   0   8 567862. 13830.9   2
  -2   2   8 665051. 14780.9   1
   2   0   8 713334. 15231.9   5
   0  -2   8 788496. 14136.9  11
   0  -2   8 615625. 14179.4  12
   0  -2   8 652871. 14675.5   4
   0  -2   8 640782. 14482.6   1
   2   0  11 17.8046 139.189   5
   2   0  11 389.744 55.1641   1
   0  -2  11-227.440 141.012   1
   2   0  11-194.005 153.434  11
   0  -2  11 213.935 127.368   4
   0  -2  11 14.7547 42.1165  12
  -2   2  11 64.7969 133.998   1
   2   0  14 431314. 10406.4  11
   0  -2  14 442443. 10341.1   1
  -2   2  14 430692. 10322.4   1
   0  -2  14 469374. 10023.7   4
   2   0  14 429220. 10583.8   5
   2   0  17 400.487 221.333  11
   2   0  17 166.091 167.388   5
   0  -2  17-73.1959 153.700   1
  -2   2  17 29.7290 207.054   1
   2   0  20 227049. 6788.71  11
  -2   2  20 239643. 6639.36   1
   2   0  20 249665. 7005.70   5
   0  -2  20 227857. 6414.78   1
   3  -3 -21 94.9043 284.770   3
   0   3 -21 5.63173 274.044   8
   0   3 -21-77.3312 215.409  14
  -3   0 -21 27.8100 143.636   9
  -3   0 -21-185.751 269.837  13
   3  -3 -18 275838. 8221.25   3
   0   3 -18 295057. 8491.93   8
  -3   0 -18 281556. 8128.06  13
   3  -3 -15 152.468 239.540   3
   0   3 -15-51.1633 229.760  14
  -3   0 -15 57.2935 196.210  13
   0   3 -15 11.9585 209.828   6
   0   3 -15 247.308 236.923   8
  -3   0 -15 21.0294 170.963   9
  -3   0 -12 486162. 11125.0   9
   3  -3 -12 453821. 10211.4  13
   0   3 -12 429965. 11244.5   8
   3  -3 -12 503571. 10497.6   8
   0   3 -12 464880. 11638.9  14
   3  -3 -12 457580. 11443.8   3
  -3   0 -12 469782. 10354.2   7
  -3   0 -12 463418. 11388.3  13
   3  -3 -12 516705. 10727.1  12
   0   3 -12 465840. 11630.9   6
   0   3 -12 463410. 10840.6   2
   0   3  -9 55.9744 168.300  14
  -3   0  -9-40.2145 143.890   9
   0   3  -9-207.649 194.232   6
  -3   0  -9 100.807 110.490   7
   0   3  -9 27.1888 39.5171   3
  -3   0  -9-130.909 151.208  13
   0   3  -9 18.3525 113.851   2
   3  -3  -9 134.474 177.083   3
  -3   0  -6 464686. 10494.1  13
  -3   0  -6 490997. 10935.6   9
   3  -3  -6 453449. 10516.2   3
   0   3  -6 458284. 9389.02   3
   0   3  -6 451693. 10655.9  14
   0   3  -6 455690. 10119.8   2
  -3   0  -6 439002. 10031.9  10
   0   3  -6 446921. 10623.0   6
  -3   0  -3 246.528 142.060   9
   3  -3  -3 6.72087 85.1228   3
  -3   0  -3 84.3738 59.8522   1
   0   3  -3 12.5419 95.7951  14
   3  -3  -3 3.45822 113.649   4
   0   3  -3 26.5174 24.8162  11
  -3   0  -3 56.5461 104.441  12
   3  -3  -3-89.6159 131.316  11
   0   3  -3 15.5615 85.3563   7
   0   3  -3-11.9284 96.0957   2
   0   3  -3 70.2928 43.8078   3
   0   3   0 761475. 16710.7   2
   3  -3   0 843389. 17081.3   4
   3  -3   0 775032. 16649.9   3
   3  -3   0 765047. 16135.6   5
   0   3   0 891973. 16333.8   5
   0   3   0 937673. 16260.5   7
   3  -3   0 789049. 16946.0  11
  -3   0   0 837365. 16525.5   1
  -3   0   0 754145. 16735.8  12
   3  -3   3 57.2649 47.9758   5
   0   3   3 100.521 72.4157   5
  -3   0   3 1.46033 85.2414   1
   3  -3   3 66.0572 111.142  11
   0   3   3 125.835 117.284   2
   3  -3   3 384.134 193.062   4
   0   3   6 510651. 10304.9   5
   3  -3   6 441157. 10342.3  11
  -3   0   6 497667. 9724.07  13
   3  -3   6 446557. 10274.3   5
  -3   0   6 468264. 10533.3   1
   0   3   6 467401. 10572.3   2
   3  -3   9 58.5557 144.359   5
   3  -3   9 76.5061 89.3799  11
  -3   0   9 34.4742 128.448   1
   0   3   9 3.57187 96.3665   5
   0   3   9 8.21287 90.6760   2
   3  -3  12 442314. 11272.3   5
   3  -3  12 500313. 10517.5  11
   0   3  12 493219. 11054.8   5
   0   3  12 469776. 10596.9   2
  -3   0  12 460176. 10842.2   1
   0   3  12 484728. 10501.7   1
   3  -3  15-128.328 116.884   1
  -3   0  15 52.7928 154.200   1
   3  -3  15-156.007 197.547   5
   0   3  15-79.5513 187.821   5
   0   3  18 304308. 8050.13   5
   3  -3  18 301273. 8599.61   5
  -3   0  18 304781. 7760.14   1
   3  -3  21-483.376 309.738   5
  -3   0  21-127.522 190.440   1
   0   3  21-17.0204 192.014   5
   3  -2 -22 170864. 5567.53   3
   3  -2 -19 583.586 326.672   3
  -3   1 -19 1390.31 476.012  13
  -2  -1 -19 726.453 300.456   9
  -3   1 -19 1353.35 390.625   9
   1   2 -19 736.377 366.059   8
   3  -2 -19 1589.51 439.015   8
   2  -3 -19 1122.03 385.623   3
  -2  -1 -19 1508.53 440.130  13
  -1   3 -19 1482.85 467.138   8
   1   2 -19 1851.61 473.365  14
  -2  -1 -16 304454. 8424.99  13
  -3   1 -16 337078. 8538.66   9
   3  -2 -16 314693. 8716.16   3
   3  -2 -16 349625. 8160.19   8
   2  -3 -16 326610. 7762.48  13
  -3   1 -16 320561. 7833.36   7
   2  -3 -16 319142. 8550.74   3
   2  -3 -16 310825. 8002.49   9
   1   2 -16 322926. 8536.11  14
  -1   3 -16 325129. 8821.02   8
   1   2 -16 325087. 8715.49   8
  -1   3 -16 315632. 8476.39  14
  -3   1 -16 357166. 8937.95  13
  -1   3 -16 332105. 8548.35  13
  -2  -1 -16 368448. 8448.28   9
   2  -3 -13 2340.92 291.170  12
   1   2 -13 2743.37 517.439   6
   2  -3 -13 2447.69 495.867   3
   3  -2 -13 2179.46 471.809   3
  -2  -1 -13 2469.08 434.911   9
   2  -3 -13 2285.48 395.588   9
   1   2 -13 2158.40 469.376  14
   2  -3 -13 2433.70 368.359  13
  -2  -1 -13 2314.78 466.674  13
  -1   3 -13 2542.47 484.207  13
  -1   3 -13 2630.80 417.286   9
   2  -3 -13 2092.68 429.355   4
  -1   3 -13 2340.38 476.635   8
  -3   1 -13 2180.23 362.934   7
  -3   1 -13 2278.84 459.083   9
  -3   1 -13 2708.63 507.393  13
   1   2 -13 2589.98 417.140   3
   2  -3 -13 2717.30 341.439   8
  -1   3 -13 2754.21 489.359  14
   1   2 -10 541425. 11616.6   3
   3  -2 -10 541754. 11260.5  14
   1   2 -10 498789. 11677.3   2
   2  -3 -10 517841. 12119.6   3
   3  -2 -10 503168. 12197.3   3
  -1   3 -10 537374. 11663.3   9
  -1   3 -10 492653. 11980.8   8
  -3   1 -10 510804. 12005.2   9
   3  -2 -10 495039. 10935.7  13
  -2  -1 -10 542997. 12459.9  12
  -1   3 -10 517323. 12058.2   6
  -1   3 -10 490819. 12195.3   7
   2  -3 -10 514365. 11696.1   9
   2  -3 -10 550552. 11654.4  12
  -3   1 -10 524082. 11730.1   7
  -1   3 -10 525560. 12072.3  14
   2  -3 -10 551548. 11153.0   8
   1   2 -10 515359. 12146.5   6
  -3   1 -10 492449. 11983.3  13
  -1   3 -10 518877. 11395.7   2
   1   2 -10 518664. 12154.4  14
   2  -3 -10 564136. 11785.3   4
  -2  -1 -10 550631. 11951.0   9
  -3   1  -7 4721.81 491.950  10
   2  -3  -7 6121.94 522.949  12
   2  -3  -7 6009.70 287.444   8
  -3   1  -7 5504.17 547.104  13
   3  -2  -7 5121.06 603.258   3
  -2  -1  -7 5494.64 297.072   7
  -2  -1  -7 5397.14 598.331   9
   1   2  -7 5850.34 508.250   2
   2  -3  -7 5765.75 544.885   4
   3  -2  -7 6947.12 379.867  14
  -2  -1  -7 6558.75 659.325  12
  -1   3  -7 5522.88 562.747  14
  -1   3  -7 6409.99 475.618   2
  -3   1  -7 6195.23 668.158   9
   2  -3  -7 5445.49 464.469   9
  -1   3  -7 5439.04 555.980   6
   1   2  -7 5130.05 433.308   3
  -1   3  -7 5758.72 545.729   8
   3  -2  -7 5827.60 402.200   4
   2  -3  -7 5893.78 578.338   3
  -1   3  -7 5357.23 601.405   7
   1   2  -7 4752.60 527.713   6
   1   2  -7 5039.88 543.375  14
   3  -2  -4 628869. 13348.3  14
  -3   1  -4 628259. 13924.0  13
   3  -2  -4 577536. 13215.1  13
  -3   1  -4 711588. 14560.2   9
   2  -3  -4 685219. 14086.3  12
  -1   3  -4 662251. 14112.5  14
  -2  -1  -4 561771. 14552.1   4
   2  -3  -4 715592. 14557.4   4
  -3   1  -4 749902. 13744.3   1
  -2  -1  -4 648587. 14258.3  12
   3  -2  -4 751709. 13823.3   4
  -1   3  -4 688296. 14069.6   2
  -2  -1  -4 636256. 13393.6   1
  -1   3  -4 643934. 13874.6   8
   3  -2  -4 666126. 14433.1   3
   1   2  -4 672461. 13586.2  11
  -2  -1  -4 713136. 14416.7   9
  -1   3  -4 656270. 14291.8   7
  -2  -1  -4 737500. 13442.5   1
   3  -2  -4 623919. 13346.4   6
   2  -3  -4 688057. 14061.3   3
  -1   3  -4 674316. 14115.6   6
   1   2  -4 660389. 13891.4   2
   3  -2  -4 665309. 14352.6  11
   3  -2  -1 12053.1 842.413  11
  -3   1  -1 13448.1 590.901  13
  -3   1  -1 11121.4 683.550   9
  -1   3  -1 11064.2 723.662  14
  -2  -1  -1 11964.0 550.162   1
  -2  -1  -1 11196.5 731.713  12
  -2  -1  -1 11521.0 812.462   4
   2  -3  -1 14286.0 975.548   4
  -1   3  -1 10655.9 511.191   8
  -1   3  -1 10590.3 761.122   2
  -1   3  -1 12302.2 723.522   7
  -1   3  -1 10996.3 722.996   6
   1   2  -1 13429.3 567.490  11
   1   2  -1 13541.9 697.487   2
  -3   1  -1 10699.2 616.418   1
  -1   3  -1 13049.1 499.987   3
   3  -2  -1 10764.9 644.800   5
   1   2  -1 10583.4 658.923   5
   3  -2  -1 13535.7 764.484   4
   2  -3  -1 11744.4 603.091   3
  -1   3   2 645633. 13667.4   2
   1   2   2 645008. 13081.4  11
  -2  -1   2 630277. 13040.4   1
   2  -3   2 639830. 12710.7   3
   3  -2   2 609242. 13273.5  11
   1   2   2 656217. 13227.5   2
  -1   3   2 633417. 12601.9   5
   2  -3   2 649239. 12499.2   5
  -3   1   2 589001. 13258.0   1
   3  -2   2 671900. 13094.9   5
   2  -3   2 614460. 13032.2  11
  -1   3   2 687041. 13076.1  10
  -2  -1   2 593442. 13129.7   4
   2  -3   2 586495. 13832.4   4
  -2  -1   2 640005. 13291.4  12
  -3   1   2 612215. 12479.9  13
   1   2   2 636390. 13230.9   5
   2  -3   5 6619.29 488.242   5
   2  -3   5 7665.19 773.245   4
  -1   3   5 7096.92 464.346   5
  -2  -1   5 8828.38 610.258  12
   3  -2   5 7491.27 588.335   5
  -2  -1   5 8536.91 609.432   1
  -2  -1   5 8077.16 427.099   4
   1   2   5 7136.21 533.020   2
   1   2   5 8259.01 601.163   5
   2  -3   5 8112.60 540.782  11
  -3   1   5 7853.16 646.231   1
   2  -3   5 7643.36 351.438   3
  -1   3   5 6446.69 609.178   2
   3  -2   5 8213.95 541.802  11
  -1   3   5 7298.32 604.277   1
   2  -3   8 547817. 11936.7  12
  -2  -1   8 563501. 12216.3   1
   3  -2   8 551454. 11838.1  11
  -2  -1   8 536874. 11813.4  12
   1   2   8 573504. 11811.3   2
   2  -3   8 518132. 12392.7   4
  -1   3   8 567507. 12034.8   5
   1   2   8 555016. 12193.1   5
  -1   3   8 525217. 12078.0   1
  -3   1   8 592197. 12297.3   1
   3  -2   8 522475. 12233.6   5
   2  -3   8 571555. 12449.3   5
   2  -3   8 571535. 11560.9  11
  -2  -1  11 2543.74 412.040   1
   3  -2  11 2709.14 494.204   5
   3  -2  11 2701.54 358.120  11
  -1   3  11 2418.22 400.769   5
   2  -3  11 3416.90 316.723  11
   3  -2  11 2561.90 266.433   1
  -3   1  11 2338.68 387.262   1
   2  -3  11 2425.75 469.808   5
   2  -3  11 2967.42 402.033  12
   1   2  11 2398.43 298.513   2
   1   2  11 2724.92 433.231   5
  -1   3  11 2690.84 395.117   1
   3  -2  14 417811. 9762.16  11
  -1   3  14 413283. 10219.5   5
   3  -2  14 415083. 10582.3   5
   1   2  14 480362. 9422.51   2
   2  -3  14 406703. 9798.26   1
  -3   1  14 422714. 10072.0   1
  -2  -1  14 409104. 10069.0   1
  -1   3  14 467439. 10075.3   1
   1   2  14 416166. 10202.0   5
   2  -3  14 413595. 10870.7   5
  -2  -1  17 1251.40 368.083   1
   1   2  17 1086.97 352.076   5
   2  -3  17 2103.58 445.672   1
   2  -3  17 512.056 378.841   5
  -1   3  17 1247.64 382.697   5
   2  -3  17 947.166 285.740   4
   3  -2  17 760.566 338.244   5
  -3   1  17 1240.97 353.048   1
   3  -2  17 1339.13 342.529  11
  -1   3  20 237396. 6922.73   5
   1   2  20 246454. 6782.53   5
  -3   1  20 227858. 6410.11   1
   2  -3  20 227132. 7558.20   5
  -2  -1  20 228494. 6427.89   1
   3  -2  20 248401. 7246.96   5
  -1  -2 -20 210339. 6481.67  13
   1  -3 -20 213400. 6193.19  13
   1  -3 -20 238217. 6145.46   9
  -1  -2 -20 249222. 6343.93   9
  -3   2 -20 244252. 6759.20   9
   2   1 -20 220387. 6761.10   8
  -1  -2 -20 224986. 6286.63   3
   3  -1 -20 224981. 6487.94   8
  -3   2 -20 250342. 7253.10  13
   1  -3 -20 225957. 6376.24   3
   3  -1 -20 192848. 6460.63   3
   2   1 -20 222451. 6277.60  14
  -2   3 -20 245795. 6923.51  13
  -2   3 -20 221804. 6275.03   9
  -1  -2 -17 1095.95 322.743   3
   1  -3 -17 1202.02 351.002   3
  -3   2 -17 1489.31 454.782  13
   2   1 -17 1741.23 474.390   3
   3  -1 -17 1420.31 423.157   3
  -2   3 -17 1596.09 455.564  13
   2   1 -17 680.104 316.879   8
   1  -3 -17 877.503 293.135  13
  -1  -2 -17 867.273 289.864   9
  -3   2 -17 1333.86 348.513   9
  -2   3 -17 795.380 294.235   9
   2   1 -17 1169.94 339.921  14
   3  -1 -17 686.799 262.033   8
  -3   2 -17 792.967 294.056   7
   1  -3 -17 1006.93 284.887   9
  -1  -2 -17 931.759 323.097  13
  -3   2 -14 422716. 10476.9  13
   2   1 -14 415470. 9955.41   6
   1  -3 -14 450829. 10570.1   4
  -2   3 -14 397914. 9822.84  14
  -3   2 -14 435531. 10073.1   9
   1  -3 -14 412736. 9477.86   9
  -2   3 -14 411176. 9505.30   9
   3  -1 -14 454839. 9749.72  14
  -3   2 -14 399135. 9880.12   7
  -2   3 -14 390450. 10211.5   8
   2   1 -14 417308. 9957.39  14
  -1  -2 -14 459744. 9842.61   9
  -2   3 -14 405550. 10307.9   7
   1  -3 -14 390160. 9807.63   3
  -1  -2 -14 415490. 9795.32   3
   3  -1 -14 367684. 10012.0   3
   2   1 -14 427945. 10106.3   3
  -1  -2 -14 396943. 10073.6  13
  -2   3 -14 423160. 10365.5  13
   1  -3 -11 2479.65 306.286  12
  -2   3 -11 3266.83 320.740   2
  -1  -2 -11 2628.57 668.152   4
   2   1 -11 2519.19 419.920  14
   2   1 -11 2673.80 432.475   6
  -2   3 -11 2978.86 531.960  13
  -3   2 -11 2426.19 418.803   9
   3  -1 -11 3468.04 450.494  14
   1  -3 -11 2759.25 363.655   9
  -2   3 -11 2726.60 357.078   9
   1  -3 -11 2862.16 491.268   4
  -2   3 -11 3010.82 512.517   8
  -1  -2 -11 2593.66 421.514   3
  -2   3 -11 3082.47 552.849   7
  -3   2 -11 3567.82 566.231  13
  -3   2 -11 2546.09 442.466   7
   1  -3 -11 2832.15 441.980   3
  -1  -2 -11 2630.97 393.885   9
   3  -1 -11 3084.61 422.902   6
  -1  -2 -11 3301.58 543.821  12
  -2   3 -11 2130.44 375.247  14
   2   1 -11 2740.10 422.293   3
   3  -1 -11 2423.50 445.767   3
   2   1  -8 561395. 12271.8   3
   1  -3  -8 594833. 12199.0  12
  -3   2  -8 558420. 12552.1   9
  -1  -2  -8 482705. 14215.8   4
   1  -3  -8 545094. 12528.9   3
  -1  -2  -8 636699. 12475.9   9
  -2   3  -8 574197. 11821.7   2
   3  -1  -8 576844. 12497.7  11
  -2   3  -8 574958. 12001.5   9
  -1  -2  -8 560226. 12715.1  12
  -2   3  -8 538486. 12644.9   8
  -1  -2  -8 608564. 12684.7   3
  -2   3  -8 514467. 13008.3   7
  -3   2  -8 526736. 12650.7  10
   2   1  -8 569714. 12439.3  14
   3  -1  -8 580517. 12237.5   6
   3  -1  -8 578346. 12236.9  14
   2   1  -8 573227. 12438.0   6
  -2   3  -8 578585. 12379.1  14
  -3   2  -8 527885. 12712.1  13
   3  -1  -8 559283. 12587.2   3
   1  -3  -8 561363. 12062.3   9
  -2   3  -8 574804. 13051.3  13
   1  -3  -8 624234. 12740.7   4
   1  -3  -5 7318.48 449.864   9
   3  -1  -5 10537.3 391.144   4
  -1  -2  -5 8008.26 676.186  12
  -2   3  -5 7883.48 529.530   2
   2   1  -5 9487.32 644.345   2
   1  -3  -5 6375.58 693.137   4
  -3   2  -5 6594.95 679.180  10
   3  -1  -5 7817.15 319.867   4
   3  -1  -5 8121.12 639.230  11
  -1  -2  -5 8376.75 676.437   9
  -3   2  -5 7692.07 715.002   9
  -2   3  -5 8250.73 427.066   9
   2   1  -5 8166.84 383.090   4
  -2   3  -5 7077.34 522.273  14
  -2   3  -5 7742.12 637.857   8
   2   1  -5 8012.31 535.570  11
  -1  -2  -5 6745.32 621.841   3
   3  -1  -5 8579.34 508.191  14
  -3   2  -5 9356.36 726.933  13
   3  -1  -5 7960.09 491.875   6
   1  -3  -5 7169.99 589.479   3
   1  -3  -5 7716.28 601.775  12
  -2   3  -5 7750.67 542.042   6
   3  -1  -5 8151.72 641.178   5
   2   1  -5 7336.21 595.951  14
   2   1  -5 7479.44 611.203   5
  -1  -2  -5 8159.11 1024.83   4
   1  -3  -2 655283. 13160.0   3
  -3   2  -2 593318. 13604.8   1
  -2   3  -2 681868. 12973.8   6
  -1  -2  -2 678983. 13265.4   9
  -1  -2  -2 618263. 13469.9  12
   2   1  -2 632206. 13096.5  11
   3  -1  -2 610096. 13588.3  11
  -2   3  -2 687123. 12542.1   9
   2   1  -2 606802. 13416.3   5
  -3   2  -2 682758. 13450.2   9
   1  -3  -2 600067. 14042.5   4
   1  -3  -2 602185. 12615.9   9
  -2   3  -2 649830. 13586.6   2
  -1  -2  -2 661760. 12643.8   7
  -2   3  -2 677954. 13761.0  10
  -1  -2  -2 600677. 14092.2   4
   1  -3  -2 635612. 13455.2  12
  -2   3  -2 679111. 12977.4  14
  -3   2  -2 646610. 13193.0  13
   2   1  -2 618145. 13114.8   2
   3  -1  -2 614334. 13412.1   5
  -1  -2   1 11059.7 717.791  12
   3  -1   1 10980.8 671.352  11
   2   1   1 12452.1 633.743  11
   2   1   1 12059.3 596.504   2
   2   1   1 10701.8 685.692   5
   1  -3   1 11940.5 765.403  12
  -1  -2   1 9660.90 752.312   4
  -2   3   1 10562.0 425.587  14
   1  -3   1 10517.5 823.283   4
   1  -3   1 10741.3 514.060   3
  -2   3   1 10621.0 425.254   6
  -3   2   1 10315.3 687.044   1
  -2   3   1 11481.3 831.598   1
   3  -1   1 11051.5 674.203   5
  -1  -2   4 657619. 13870.2  12
  -1  -2   4 640250. 14168.5   4
  -3   2   4 659493. 14112.3   1
   2   1   4 699429. 13885.0  11
   2   1   4 665102. 13560.4   2
   3  -1   4 686749. 14326.5   5
   1  -3   4 661097. 14414.8   4
   2   1   4 616015. 14143.2   5
   1  -3   4 680183. 14133.3  12
   3  -1   4 671460. 13825.4  11
  -2   3   4 640289. 14167.5   1
  -1  -2   7 5513.63 495.775   1
  -1  -2   7 6328.22 309.177  11
   2   1   7 4450.34 541.993   5
   3  -1   7 6962.28 533.440  11
   2   1   7 6139.90 561.595  11
  -1  -2   7 5192.98 468.131   4
   1  -3   7 5591.34 625.439   4
  -3   2   7 5866.10 600.938   1
  -2   3   7 5334.19 535.744   1
   2   1   7 6207.54 408.344   2
   3  -1   7 5353.57 251.735   1
  -1  -2   7 5848.37 454.958  12
   1  -3   7 5791.46 539.118  12
   3  -1   7 4385.79 529.574   5
   1  -3  10 472713. 11198.9  12
  -1  -2  10 539542. 11088.7  12
   1  -3  10 511664. 11893.2   4
  -1  -2  10 533672. 11655.2   1
   2   1  10 508947. 11670.6  11
  -1  -2  10 528957. 11177.1   4
  -3   2  10 492497. 11796.5   1
   2   1  10 559597. 10934.7   2
   2   1  10 531600. 11830.9   5
  -2   3  10 528948. 11646.3   1
   3  -1  10 518072. 11902.1   5
   3  -1  10 503130. 11396.2  11
   3  -1  13 2187.81 441.654   5
   2   1  13 2318.27 434.600  11
   3  -1  13 2415.87 402.152  11
  -2   3  13 2941.95 470.615   1
   1  -3  13 2334.74 409.128   4
  -1  -2  13 2560.86 456.436   1
   1  -3  13 2458.54 406.847   1
  -3   2  13 3025.14 507.437   1
   2   1  13 2971.67 484.744   5
   2   1  16 327108. 8533.36   5
   3  -1  16 333877. 8792.75   5
   3  -1  16 338982. 8536.37  11
   1  -3  16 345388. 8641.32   1
   2   1  16 356553. 8746.15  11
  -2   3  16 365214. 8656.38   1
   1  -3  16 351544. 8398.87   4
  -3   2  16 349272. 8676.29   1
  -1  -2  16 326409. 8567.92   1
  -2   3  19 843.102 335.160   1
   1  -3  19 1103.91 345.976   1
   3  -1  19 1550.51 421.554  11
   2   1  19 754.292 307.550   5
  -2   3  19 1702.36 500.911   5
  -1  -2  19 816.912 304.484   1
   1  -3  19 1207.71 476.192   5
  -3   2  19 736.991 295.339   1
   3  -1  19 753.526 335.739   5
   2   1  19 1058.01 376.352  11
  -2   3  22 201115. 6357.18   5
  -3   2  22 187167. 5614.69   1
  -1  -2  22 187822. 5672.33   1
   3   0 -21-73.7925 201.282   8
  -3   3 -21-379.618 312.236  13
  -3   3 -21-60.0976 210.597   9
   0  -3 -21 180.425 170.501   9
   0  -3 -21-50.1034 162.107   3
   0  -3 -21 179.965 193.058  13
   3   0 -18 262193. 7396.20   3
   0  -3 -18 289544. 7044.84   9
  -3   3 -18 284365. 7268.88   9
   3   0 -18 269765. 7363.70   8
   0  -3 -18 260895. 7352.80  13
   0  -3 -18 283447. 7303.57   3
  -3   3 -18 271965. 7785.30   7
   3   0 -18 297700. 7231.55  14
  -3   3 -18 299983. 8219.02  13
   0  -3 -15-2.09475 137.840   9
   0  -3 -15-126.206 199.711  13
   3   0 -15 176.722 203.428  14
   3   0 -15 213.261 186.453   3
   0  -3 -15 7.00817 164.337   3
  -3   3 -15 133.677 170.239   9
  -3   3 -15 85.9492 217.357   7
  -3   3 -15 9.55374 231.068  13
   0  -3 -12 522930. 10861.1  12
   0  -3 -12 473595. 10995.3   3
  -3   3 -12 479269. 10743.1   9
   0  -3 -12 478313. 11967.4   4
   0  -3 -12 511470. 10768.9   9
   3   0 -12 492561. 10964.8   6
  -3   3 -12 471563. 11725.1  13
   3   0 -12 490807. 10956.6  14
   3   0 -12 469100. 11020.6   3
   3   0  -9 135.518 128.390  11
   0  -3  -9-0.54883 113.154  12
   0  -3  -9-3.26681 85.7213   9
   3   0  -9 43.9827 112.664   3
  -3   3  -9 20.4302 173.089  13
   0  -3  -9-1.97975 113.255   3
   3   0  -9 68.7433 136.311  14
   0  -3  -9-127.812 180.143   4
   3   0  -9 105.479 125.729   6
  -3   3  -9 54.9675 83.1933   9
  -3   3  -9 218.303 56.8514   2
  -3   3  -9-14.8609 166.770   7
   3   0  -6 459490. 10113.6  11
   0  -3  -6 450236. 10735.2   4
  -3   3  -6 421839. 10700.4  10
   0  -3  -6 490511. 9825.32   9
  -3   3  -6 439303. 9753.07   9
   0  -3  -6 429081. 10104.5   3
   3   0  -6 464702. 10037.4   6
   3   0  -6 463415. 10042.7  14
  -3   3  -6 427415. 10561.6  13
   0  -3  -6 479449. 10093.6  12
  -3   3  -6 482125. 9669.20   2
   0  -3  -3 34.2025 79.4832   9
   3   0  -3 177.587 148.031   5
   0  -3  -3 40.3818 116.705  12
   3   0  -3 12.8203 99.5650  11
  -3   3  -3 55.3186 170.297  10
  -3   3  -3-19.7161 57.9078   9
   0  -3  -3-15.4931 77.4672   3
  -3   3   0 766966. 17238.4   1
   3   0   0 788681. 16669.3   2
   3   0   0 840185. 16809.5  11
   0  -3   0 793357. 17625.5   4
   0  -3   0 921953. 16391.9   9
  -3   3   0 846233. 16420.4   9
   0  -3   0 882551. 16962.5  12
   3   0   0 852015. 16990.7   5
   3   0   3-28.3666 128.371   5
   0  -3   3-8.27277 94.9093  12
   3   0   3 240.633 131.683  11
   0  -3   3 166.170 156.094   4
   3   0   3 27.8442 63.2068   2
  -3   3   3 123.521 143.463   1
   0  -3   6 418982. 9863.76  12
   3   0   6 444342. 9811.30  11
  -3   3   6 468981. 10177.4   1
   0  -3   6 441867. 10074.6   4
   3   0   6 461074. 9401.34   2
   3   0   6 417434. 10322.9   5
   3   0   9-42.2047 131.388   5
   3   0   9 52.5736 134.866  11
   0  -3   9 116.167 97.4762  12
   0  -3   9-34.9417 114.034   4
  -3   3   9-3.95865 171.711   1
   3   0  12 457101. 10680.9   5
   3   0  12 450997. 10609.0  11
   0  -3  12 448315. 10442.9   1
  -3   3  12 446760. 10707.3   1
   0  -3  12 472269. 10430.6   4
  -3   3  15 140.095 215.628   1
   3   0  15-65.2471 184.931   5
   3   0  15 180.763 224.710  11
   0  -3  15-97.5451 177.189   1
   3   0  18 303830. 7852.56   5
   0  -3  18 282015. 7961.14   1
   3   0  18 300730. 8144.27  11
  -3   3  18 300754. 8011.73   1
   0  -3  21 351.684 195.433   1
   3   0  21-211.332 263.931  11
  -3   3  21-386.068 175.236   1
   3   0  21-369.281 252.693   5
  -4   0 -19-264.609 185.565  13
   0   4 -19 64.3791 168.543  14
   4  -4 -19 16.9860 184.308   3
  -4   0 -19 364.886 237.547   9
   0   4 -19-5.81678 265.555   8
   0   4 -16 247768. 7208.78   6
  -4   0 -16 270290. 6855.46   9
   0   4 -16 245476. 7220.84  14
   0   4 -16 242341. 7547.03   8
   4  -4 -16 253689. 7565.46   3
  -4   0 -16 245825. 7479.68  13
  -4   0 -13 134.558 246.252  13
   4  -4 -13 157.286 140.958  12
   0   4 -13-154.443 220.912   8
   0   4 -13 296.316 194.214   2
  -4   0 -13 303.311 192.061   9
   0   4 -13-46.0511 209.437   6
   0   4 -13-238.978 234.231  14
   4  -4 -13-389.132 293.794   3
  -4   0 -10 452114. 11091.0  13
   4  -4 -10 433980. 11025.0   3
   4  -4 -10 444414. 10575.9  12
   0   4 -10 455148. 10553.0   2
  -4   0 -10 438513. 9964.46   7
   0   4 -10 424148. 11005.4   6
   0   4 -10 424018. 11014.8  14
   0   4  -7 130.729 162.905  14
   0   4  -7-33.6640 159.744   6
  -4   0  -7 22.4299 80.6121  10
  -4   0  -7 105.761 164.773   9
   4  -4  -7 17.2241 126.153   4
  -4   0  -7 155.853 176.293  13
   0   4  -7 83.7975 125.629   2
   4  -4  -7-165.973 178.852   3
   4  -4  -4 419201. 10938.7  11
  -4   0  -4 502563. 9784.65   1
  -4   0  -4 461063. 10932.4   9
   4  -4  -4 503927. 10817.0   4
   0   4  -4 453636. 10758.3   2
  -4   0  -4 512286. 10677.9  13
   0   4  -4 450183. 10854.3   6
   0   4  -4 452057. 10871.7  14
   4  -4  -4 427232. 10723.7   3
   4  -4  -1-24.0445 86.1570   3
   4  -4  -1 147.045 146.505   4
   4  -4  -1-81.9095 133.729  11
   0   4  -1 3.42239 78.5044  11
  -4   0  -1 35.3815 100.596   1
   0   4  -1 133.745 165.945   2
   0   4  -1-3.27172 78.1313   5
  -4   0  -1 85.3985 110.182   9
   4  -4   2 535975. 12315.5  11
   0   4   2 525662. 12126.8   2
   4  -4   2 531714. 12600.9   4
  -4   0   2 584447. 12027.8   1
   4  -4   2 516740. 11864.4   3
   4  -4   2 533911. 11413.9   5
   0   4   2 577485. 11624.7   5
   4  -4   5 88.7635 72.9584   5
   0   4   5 263.136 168.235   2
   4  -4   5 324.633 168.022  11
   0   4   5 15.9689 60.4035   5
   4  -4   5 240.345 224.908   4
  -4   0   5-120.941 124.251   1
   4  -4   8 464325. 10266.0  11
   4  -4   8 386802. 10668.6   4
   0   4   8 492443. 9772.51   5
   0   4   8 433938. 10005.4   2
  -4   0   8 438345. 10117.3   1
   4  -4   8 431347. 9746.10   5
   0   4  11 322.873 154.399   2
   4  -4  11 88.5683 125.474   5
  -4   0  11 264.166 229.152   1
   4  -4  11 23.2112 116.436  11
   0   4  11 54.6658 117.587   5
   4  -4  14 309330. 8184.49   5
   0   4  14 336986. 7699.50   2
  -4   0  14 305499. 8011.97   1
   0   4  14 348715. 7971.07   5
   4  -4  17-41.5371 200.539   5
   0   4  17-113.325 181.584   5
  -4   0  17-162.654 219.844   1
   4  -4  17-279.173 256.420   4
   4  -4  20 211611. 6796.89   4
  -4   1 -20 220481. 7141.08  13
  -3  -1 -20 198474. 6625.05  13
  -3  -1 -20 232644. 6155.95   9
  -4   1 -20 224387. 6255.18   9
   1   3 -20 197577. 6864.04   8
  -1   4 -20 203134. 6934.14   8
   3  -4 -20 215561. 6568.95   3
   4  -3 -20 208488. 6636.11   3
  -1   4 -20 205865. 6579.65  14
   1   3 -20 214643. 6249.19  14
   4  -3 -17 1912.42 537.088   3
   3  -4 -17 1940.69 524.718   3
   1   3 -17 2452.32 509.080   6
  -4   1 -17 2209.66 592.142  13
  -3  -1 -17 2061.75 440.852   9
  -4   1 -17 2008.89 454.504   9
   1   3 -17 2045.07 553.771   8
  -1   4 -17 1552.96 498.975   8
  -3  -1 -17 2533.01 588.531  13
   1   3 -17 2162.36 488.926  14
  -1   4 -17 1969.11 517.402  14
   1   3 -14 340165. 8956.04   6
   1   3 -14 347039. 8998.69  14
  -4   1 -14 351576. 8767.30   9
  -1   4 -14 348094. 9215.74  14
  -1   4 -14 353718. 8341.51   2
  -3  -1 -14 347457. 9365.62  13
   4  -3 -14 341003. 9275.47   3
  -3  -1 -14 366645. 8691.45   9
  -1   4 -14 329517. 9224.31   8
  -4   1 -14 348299. 8328.63   7
   3  -4 -14 363110. 9402.57   3
  -4   1 -14 361440. 9461.85  13
  -1   4 -11 3112.90 535.312   8
   4  -3 -11 3629.82 603.634   3
  -3  -1 -11 3667.72 663.995  12
   1   3 -11 4429.60 566.363   2
  -1   4 -11 4165.00 482.949   2
   3  -4 -11 4171.02 635.347   3
  -4   1 -11 3062.10 499.983   9
  -3  -1 -11 3630.68 517.350   9
   3  -4 -11 4064.73 528.865  12
  -4   1 -11 3782.72 474.169   7
  -1   4 -11 3779.28 588.041  14
  -1   4 -11 4281.70 654.825   7
   1   3 -11 4251.82 592.847   6
  -1   4 -11 3437.45 574.805   6
   1   3 -11 4031.68 582.452  14
   3  -4 -11 3380.09 419.894   4
  -3  -1 -11 5679.60 781.937  13
  -4   1 -11 4096.71 617.212  13
   1   3  -8 449001. 10516.0  14
   1   3  -8 482628. 9883.89   3
  -3  -1  -8 445948. 9493.37   7
   3  -4  -8 462103. 10454.7  12
  -1   4  -8 448286. 10742.7  14
   1   3  -8 454065. 10328.2   2
   3  -4  -8 496964. 10441.9   4
   4  -3  -8 536365. 10005.9   4
  -4   1  -8 410449. 10140.9  10
  -1   4  -8 473890. 10240.0   2
   4  -3  -8 421657. 10734.7   3
  -4   1  -8 493235. 11009.9   9
  -3  -1  -8 481687. 10814.3   9
  -1   4  -8 406916. 10384.8   8
  -3  -1  -8 441735. 11061.4  12
  -1   4  -8 456711. 10776.1   7
   1   3  -8 439745. 10469.5   6
  -1   4  -8 447717. 10731.2   6
   3  -4  -8 454717. 10679.4   3
  -4   1  -8 436490. 10515.3  13
   3  -4  -5 7477.57 680.773  12
   1   3  -5 7723.26 350.753  11
   4  -3  -5 7910.17 746.352  11
   3  -4  -5 8450.08 760.357   4
   4  -3  -5 7712.65 569.115   4
  -3  -1  -5 9513.46 825.051   9
  -4   1  -5 7307.35 755.647   9
  -1   4  -5 8289.09 696.859   2
   3  -4  -5 7710.96 676.914   3
  -1   4  -5 6240.40 560.468   8
  -3  -1  -5 8300.36 848.853  12
  -1   4  -5 8008.33 711.447   7
   1   3  -5 7360.27 683.182   6
  -1   4  -5 6920.29 687.253   6
  -1   4  -5 6232.62 653.982  14
   1   3  -5 7669.97 695.965  14
   1   3  -5 7796.60 636.463   2
  -4   1  -5 8306.68 649.517  13
   4  -3  -5 7724.23 752.976   3
   4  -3  -2 634693. 13598.3   3
   4  -3  -2 598174. 13554.3  11
   3  -4  -2 607089. 13097.5   3
   1   3  -2 676179. 13498.1   5
  -4   1  -2 573524. 13065.4   1
   1   3  -2 590742. 13239.0   2
  -3  -1  -2 608874. 13372.3   9
  -4   1  -2 609040. 13408.0   9
   3  -4  -2 601475. 13763.7   4
   4  -3  -2 624612. 13280.8   4
  -1   4  -2 502663. 13357.1   2
  -3  -1  -2 645323. 12923.9   1
  -3  -1  -2 592948. 13629.6  12
  -1   4  -2 660935. 13225.9   7
  -1   4  -2 649901. 13716.6   6
  -1   4  -2 641957. 13710.6  14
   4  -3  -2 571636. 13113.6   5
   1   3  -2 617697. 12670.5  11
  -4   1  -2 646175. 12842.1  13
  -3  -1   1 9917.65 650.591   1
   3  -4   1 10291.6 729.208  11
   1   3   1 9279.51 665.286   5
   1   3   1 10443.0 640.031  11
  -4   1   1 10975.9 441.477  13
   3  -4   1 10955.8 996.892   4
   1   3   1 9869.21 750.951   2
   4  -3   1 9683.00 769.108   4
  -4   1   1 9753.37 750.660   1
   3  -4   1 9522.98 571.075   3
  -1   4   1 9680.02 790.217   2
  -1   4   1 9212.22 410.892   8
  -1   4   1 9977.99 591.520   7
  -3  -1   1 10984.8 843.121  12
   4  -3   1 9139.70 610.145   5
   4  -3   1 9846.92 824.829  11
   3  -4   4 525181. 10616.8   3
   4  -3   4 492203. 11006.2   5
  -1   4   4 550744. 10592.6   5
   3  -4   4 487609. 11147.1  11
   4  -3   4 495625. 11386.3  11
   3  -4   4 431273. 12010.7   4
   1   3   4 477122. 11240.6   2
  -4   1   4 543114. 11670.7   1
  -1   4   4 491566. 11413.2   2
  -1   4   4 566621. 10672.4   7
   3  -4   4 497365. 10482.6   5
  -3  -1   4 528102. 11577.3  12
  -3  -1   4 490378. 11209.5   1
   1   3   4 542027. 11132.6   5
   1   3   7 6935.21 563.021   5
   4  -3   7 5804.50 549.871   5
   3  -4   7 5674.49 436.618   5
   4  -3   7 7219.44 613.093  11
  -3  -1   7 6610.61 619.177  12
  -1   4   7 5573.87 603.536   2
  -1   4   7 6341.21 446.167   5
   1   3   7 7091.50 587.644   2
  -4   1   7 7093.38 669.118   1
   3  -4   7 6619.86 523.230  11
   3  -4   7 6550.28 767.804   4
  -3  -1   7 5563.62 579.928   1
   3  -4   7 7219.94 307.594   3
   1   3  10 513493. 10920.8   5
   3  -4  10 481455. 10985.1   5
  -1   4  10 482827. 10935.0   1
   3  -4  10 476136. 10830.6  12
  -1   4  10 525009. 10846.6   5
   4  -3  10 487705. 10880.7  11
   4  -3  10 481864. 11172.0   5
   3  -4  10 430660. 11462.9   4
   1   3  10 506864. 10700.7   2
  -1   4  10 486538. 11244.2   2
  -4   1  10 478247. 11079.0   1
  -3  -1  10 479324. 11124.5   1
   1   3  13 2884.79 459.869   5
  -1   4  13 3306.83 457.530   1
   4  -3  13 3502.59 480.550  11
   4  -3  13 1991.22 415.846   5
  -1   4  13 2857.24 448.042   5
   1   3  13 3561.00 400.408   2
   3  -4  13 3454.41 602.351   4
  -4   1  13 3461.88 519.493   1
  -1   4  13 3284.22 512.823   2
   3  -4  13 2839.60 516.081   5
   1   3  16 298607. 7536.44   5
   4  -3  16 279093. 7793.73   5
  -1   4  16 309109. 7716.43   5
   3  -4  16 272934. 8020.17   5
  -3  -1  16 296660. 7641.34   1
   3  -4  16 292044. 8006.89   4
  -4   1  16 286830. 7469.32   1
  -1   4  16 296485. 7403.34   2
   3  -4  16 296965. 7389.40   1
   1   3  19 1370.06 406.986   5
   4  -3  19 1653.79 450.527   5
  -1   4  19 2138.84 492.592   5
   3  -4  19 1499.83 469.581   5
   3  -4  19 1949.33 518.599   4
  -4   1  19 1815.36 452.214   1
  -3  -1  19 1784.75 443.444   1
  -4   2 -18 279229. 8100.50  13
  -2  -2 -18 287215. 7064.08   9
  -4   2 -18 272606. 7438.95   9
   2   2 -18 240530. 7271.99   8
   4  -2 -18 255888. 6766.66   8
  -2   4 -18 264317. 7753.31   8
  -4   2 -18 249805. 6887.76   7
   2  -4 -18 269062. 7259.30   3
   4  -2 -18 251596. 7253.19   3
   2   2 -18 263516. 7078.67  14
  -2  -2 -18 248433. 7449.26  13
   2  -4 -15 4822.52 618.058   4
  -4   2 -15 4787.14 703.450   9
   2  -4 -15 4865.39 539.680   9
  -2   4 -15 4390.29 646.098  14
  -2  -2 -15 4635.56 743.973  13
  -2   4 -15 3763.50 676.011   8
  -2  -2 -15 4574.93 594.353   9
  -4   2 -15 4018.40 581.184   7
   2  -4 -15 3972.85 639.604   3
  -2   4 -15 3617.69 707.402   7
   2   2 -15 4632.26 637.212   6
   4  -2 -15 4070.07 638.429   3
   2  -4 -15 4028.68 545.480  13
  -4   2 -15 3911.09 727.958  13
  -2  -2 -12 417822. 10512.2  12
   2   2 -12 375977. 8919.15   3
   2  -4 -12 412283. 9120.13   4
  -2   4 -12 389718. 8568.43   2
   4  -2 -12 436149. 8629.33  14
   2  -4 -12 403639. 8731.02  12
  -2  -2 -12 394015. 9093.25   9
  -4   2 -12 378474. 9426.65   9
   2  -4 -12 391007. 8744.91   9
  -2   4 -12 417868. 8896.39   9
  -2   4 -12 350460. 9549.15   8
   2   2 -12 374576. 9213.61  14
  -4   2 -12 344312. 9068.99   7
  -2   4 -12 346911. 9825.33   7
   4  -2 -12 358930. 9322.95   3
   2  -4 -12 355901. 9367.28   3
   2   2 -12 371736. 9191.02   6
  -2   4 -12 362448. 9217.05  14
  -4   2 -12 373296. 9738.05  13
   4  -2  -9 10748.5 612.622   6
   2  -4  -9 9502.02 763.060  12
   2   2  -9 8566.30 749.691   2
  -2  -2  -9 8181.75 1197.32   4
   4  -2  -9 7630.20 757.390   3
  -2   4  -9 8884.08 776.082  14
  -2  -2  -9 9374.34 776.418   9
  -4   2  -9 8268.67 763.996  10
   2   2  -9 7847.67 718.290  14
   4  -2  -9 10799.6 619.011  14
   2  -4  -9 9412.55 753.462   4
  -4   2  -9 8381.21 811.874   9
   2  -4  -9 9207.66 638.058   9
  -2   4  -9 8107.93 816.733   8
  -4   2  -9 9914.47 914.746  13
  -2   4  -9 8673.01 942.176   7
   2  -4  -9 8752.12 825.598   3
   2   2  -9 9356.51 771.770   6
  -2   4  -9 9454.81 624.023   2
  -2   4  -9 7861.38 727.113   6
   2   2  -9 9268.92 650.345   3
  -2  -2  -9 9530.16 983.625  12
   2  -4  -6 584487. 13101.2  12
   4  -2  -6 570416. 12999.0  11
   2   2  -6 622169. 12393.9  11
  -2  -2  -6 481683. 14144.4   4
   2   2  -6 564789. 12836.3   2
   2  -4  -6 615623. 13534.1   4
   2   2  -6 583737. 12976.0  14
  -4   2  -6 562636. 13287.9  10
  -2   4  -6 580109. 12862.3  14
   4  -2  -6 675185. 12267.6   4
  -2  -2  -6 607267. 13266.1   9
  -4   2  -6 626628. 13678.4   9
  -2  -2  -6 614406. 12057.4   1
  -2   4  -6 582192. 12733.1   2
  -2   4  -6 536148. 12941.5   8
  -2  -2  -6 553854. 13415.2  12
  -2   4  -6 603624. 13679.2   7
   2   2  -6 577198. 12971.2   6
   2  -4  -6 579890. 13046.5   3
   4  -2  -6 628171. 12267.5   6
  -2   4  -6 582881. 12864.2   6
   4  -2  -6 638820. 12290.4  14
  -4   2  -6 642567. 13275.8  13
   4  -2  -6 584951. 13139.0   3
   2   2  -3 16551.1 798.957  11
  -2  -2  -3 14170.5 1258.53   4
   4  -2  -3 16182.0 1038.11  11
   2   2  -3 17153.4 914.877   2
   2  -4  -3 16998.3 1283.73   4
  -4   2  -3 15637.3 1012.41   9
   4  -2  -3 16675.5 800.047   4
  -2  -2  -3 15314.6 1048.67  12
  -2  -2  -3 16914.5 694.090   1
  -2   4  -3 15328.6 826.390   8
   2  -4  -3 15308.0 984.721  12
  -2   4  -3 17606.8 1105.46   7
  -4   2  -3 18153.5 900.711  13
   2  -4  -3 14975.2 870.116   3
  -2   4  -3 14854.6 823.957   6
  -2   4  -3 14689.5 821.517  14
  -2  -2  -3 15057.3 929.895   9
  -4   2  -3 14604.4 962.091   1
   4  -2  -3 15390.7 1006.38   5
   2   2  -3 16149.2 1041.35   5
  -2   4  -3 14767.1 951.348   2
   4  -2   0 526331. 12288.5  11
  -2  -2   0 491859. 12598.9   4
  -4   2   0 523604. 12050.8   1
  -2  -2   0 529249. 12160.2  12
  -2   4   0 579394. 11968.6  10
   2  -4   0 515472. 12762.8   4
  -2  -2   0 561963. 11614.1   1
   2   2   0 547018. 11799.2   2
   2  -4   0 536256. 12128.1  12
  -2   4   0 506095. 12030.5   2
  -2   4   0 585252. 11659.8  14
   2   2   0 570157. 11744.9  11
   2  -4   0 543682. 11561.0   3
  -2   4   0 586796. 11650.0   6
   4  -2   0 539228. 11941.6   5
   2   2   0 525902. 12033.0   5
  -4   2   0 568227. 11400.4  13
  -2  -2   3 15901.3 964.623  12
   2  -4   3 14595.8 956.490  12
   2   2   3 15967.7 878.105  11
   4  -2   3 15394.9 910.831  11
  -2  -2   3 14361.2 997.398   4
  -2   4   3 17553.9 846.686  10
  -2  -2   3 15785.7 848.621   1
   2   2   3 17172.7 880.837   2
   2  -4   3 16229.2 1218.90   4
  -4   2   3 16761.8 1039.74   1
  -2   4   3 14373.5 975.394   2
   4  -2   3 15173.7 915.581   5
   2   2   3 13076.9 904.225   5
   2  -4   6 634019. 12057.4   5
   2   2   6 626534. 12553.2   5
  -2   4   6 500939. 12407.7   1
   4  -2   6 561082. 12266.1  11
  -2   4   6 584025. 11796.5   5
  -2  -2   6 569472. 12370.3  12
  -2  -2   6 590347. 12441.6   1
  -2  -2   6 522476. 12208.4   4
   2   2   6 539147. 12361.0  11
   2   2   6 554586. 12127.7   2
   2  -4   6 553294. 13207.8   4
  -4   2   6 542346. 12669.1   1
   2  -4   6 534434. 12517.9  12
   4  -2   6 569660. 12549.4   5
  -2  -2   9 10061.9 736.887  12
   4  -2   9 7700.54 757.005   5
   2  -4   9 9279.43 762.947   5
   2  -4   9 8633.78 799.499  12
  -2   4   9 8869.93 801.478   1
  -2  -2   9 8645.20 775.379   1
   4  -2   9 8732.03 697.396  11
  -2   4   9 8712.45 636.991   5
   2  -4   9 8610.04 884.531   4
   2   2   9 8939.48 758.041   5
  -4   2   9 9728.56 890.585   1
   2   2   9 9676.61 637.627   2
   2   2   9 8534.11 741.187  11
  -2   4  12 420223. 9112.44   5
   2  -4  12 404910. 9694.60   5
  -2  -2  12 382855. 9346.46   1
   2  -4  12 354098. 8967.14  12
   2   2  12 392617. 9169.96  11
  -2   4  12 383868. 9218.19   1
   4  -2  12 370430. 8940.74  11
   4  -2  12 373024. 9288.81   5
   2  -4  12 366034. 9378.65   4
  -4   2  12 391071. 9336.30   1
   2   2  12 384906. 9120.10   5
   2   2  15 3577.63 535.766   5
  -2   4  15 4670.03 648.605   5
   4  -2  15 3597.18 581.711   5
   2  -4  15 3491.94 673.274   5
   2   2  15 4060.49 592.919  11
  -2   4  15 5366.19 696.138   1
   2  -4  15 4421.41 597.410   1
   2  -4  15 4238.27 625.914   4
  -4   2  15 4565.21 647.205   1
  -2  -2  15 4354.89 653.225   1
   4  -2  15 4724.56 620.349  11
   2   2  18 265469. 7078.75   5
   4  -2  18 267932. 7417.44   5
   4  -2  18 265077. 7258.78  11
   2   2  18 289978. 7397.46  11
  -2   4  18 272141. 7426.60   5
   2  -4  18 257189. 8211.43   5
   2  -4  18 268332. 7363.49   1
  -4   2  18 263085. 7161.07   1
  -2  -2  18 258978. 7261.03   1
  -3   4 -19 1411.73 457.506  13
   1  -4 -19 1411.62 388.721   3
   4  -1 -19 1328.03 403.136   3
  -1  -3 -19 1668.09 401.220  13
  -1  -3 -19 2077.17 408.687   9
  -4   3 -19 1731.78 452.109   9
   1  -4 -19 1897.56 373.749   9
  -3   4 -19 1388.48 368.590   9
   3   1 -19 1029.43 337.611   8
   4  -1 -19 1564.32 373.416   8
  -4   3 -19 1039.32 358.067   7
   3   1 -19 1721.21 397.940  14
  -4   3 -19 1537.02 502.429  13
   1  -4 -19 1713.25 406.722  13
  -1  -3 -16 251034. 7223.45  13
   4  -1 -16 264077. 7214.52   3
   1  -4 -16 269099. 7301.69   4
  -3   4 -16 305430. 8155.64  13
  -4   3 -16 290477. 8218.90  13
  -1  -3 -16 293557. 6991.64   9
  -4   3 -16 285354. 7258.55   9
   1  -4 -16 284842. 6741.86   9
  -3   4 -16 284052. 6908.81   9
  -1  -3 -16 279509. 7181.23   3
   3   1 -16 276759. 7127.06   6
  -4   3 -16 256550. 7396.60   7
  -3   4 -16 281331. 8069.92   7
   1  -4 -16 276069. 7255.11   3
   1  -4 -16 266142. 7002.08  13
   3   1 -16 279684. 7159.40  14
   3   1 -16 277319. 7091.22   3
  -1  -3 -13 2727.93 467.822   3
  -1  -3 -13 4014.79 605.226  12
  -4   3 -13 3534.80 666.263  13
  -1  -3 -13 2741.58 414.673   9
   4  -1 -13 3098.75 501.100   3
   3   1 -13 3450.86 478.620   3
  -4   3 -13 3719.22 532.285   9
   1  -4 -13 2877.26 380.007   9
  -3   4 -13 3170.45 415.767   9
   1  -4 -13 3052.54 521.032   4
   3   1 -13 3920.78 530.590  14
   1  -4 -13 2874.70 485.444   3
  -4   3 -13 2995.36 539.004   7
  -3   4 -13 3227.66 644.968   7
   1  -4 -13 3525.59 418.400  12
   3   1 -13 3338.25 502.198   6
   4  -1 -13 4055.84 471.725   6
   4  -1 -13 4331.40 493.189  14
  -3   4 -13 3308.73 647.194  13
   3   1 -10 485648. 10962.1   3
  -1  -3 -10 508410. 11434.4  12
   1  -4 -10 510967. 10863.9  12
  -1  -3 -10 443091. 12463.9   4
   1  -4 -10 510528. 11412.7   4
  -3   4 -10 457282. 10985.4  14
  -3   4 -10 509798. 12062.0  13
  -1  -3 -10 505045. 10914.4   9
  -4   3 -10 502519. 11121.3   9
   1  -4 -10 517995. 10662.5   9
  -3   4 -10 522992. 10681.7   9
  -4   3 -10 447510. 11444.7   7
  -1  -3 -10 495093. 11276.2   3
  -3   4 -10 428663. 11812.2   7
   1  -4 -10 482947. 11189.3   3
   4  -1 -10 521901. 10852.0  14
  -3   4 -10 507051. 10397.2   2
   3   1 -10 473614. 11047.5   6
   4  -1 -10 523493. 10850.5   6
   3   1 -10 475447. 11071.6  14
   4  -1 -10 477753. 11218.0   3
  -4   3 -10 455473. 11775.5  13
  -1  -3  -7 6061.86 635.522  12
   1  -4  -7 5944.53 552.648  12
  -3   4  -7 7612.02 529.617   2
   1  -4  -7 5769.15 665.819   4
  -4   3  -7 5537.79 688.021  10
  -1  -3  -7 5739.86 814.950   4
  -1  -3  -7 6710.36 569.204   9
  -4   3  -7 7013.95 624.634   9
   1  -4  -7 6861.68 446.578   9
  -3   4  -7 6792.40 431.990   9
   3   1  -7 6834.54 540.670  11
   4  -1  -7 6551.57 618.367  11
  -4   3  -7 6823.23 350.258   2
  -3   4  -7 5659.67 728.574   7
   1  -4  -7 6133.77 586.005   3
   3   1  -7 6350.61 598.853   6
   4  -1  -7 6753.94 510.447   6
   3   1  -7 6755.75 619.791  14
   4  -1  -7 6824.57 516.655  14
  -3   4  -7 6256.90 541.965  14
  -4   3  -7 7560.47 791.213  13
   4  -1  -7 6454.98 653.268   3
   1  -4  -4 495675. 12125.1   4
   4  -1  -4 512008. 11505.3  11
   3   1  -4 455730. 11130.8  11
   3   1  -4 503364. 11229.6   2
  -4   3  -4 530906. 12348.3  10
  -3   4  -4 558210. 11853.8  10
  -1  -3  -4 560800. 11379.8   9
  -4   3  -4 529549. 11464.6   9
   1  -4  -4 558511. 10478.5   9
  -3   4  -4 593916. 10416.4   9
  -1  -3  -4 484947. 11763.0   4
  -3   4  -4 511979. 10800.3  14
  -1  -3  -4 510090. 11449.1  12
  -3   4  -4 470932. 11122.7   2
   1  -4  -4 516478. 11033.9   3
   1  -4  -4 508556. 11228.1  12
   3   1  -4 499799. 11592.8   5
  -4   3  -4 498717. 11214.9  13
   4  -1  -4 489122. 11533.5   5
  -1  -3  -1 8675.34 757.104  12
   1  -4  -1 10266.5 777.562  12
  -4   3  -1 8724.83 822.991   1
   4  -1  -1 10585.3 838.296  11
   3   1  -1 10308.7 715.311  11
   3   1  -1 11223.1 720.874   2
   1  -4  -1 12173.8 1088.38   4
  -3   4  -1 9957.19 787.058  10
  -4   3  -1 8574.25 662.352   9
   3   1  -1 9379.15 785.480   5
  -1  -3  -1 9502.98 617.973   9
   1  -4  -1 8185.72 297.725   9
   1  -4  -1 9252.60 600.042   3
  -3   4  -1 8791.79 734.137   2
  -3   4  -1 9826.20 473.161  14
  -1  -3  -1 9368.13 803.979   4
   4  -1  -1 10733.1 823.884   5
   4  -1   2 587525. 12430.7  11
   1  -4   2 572693. 11466.7   5
  -1  -3   2 567974. 12653.9  12
   1  -4   2 596072. 12639.5  12
  -4   3   2 569656. 12783.8   1
   3   1   2 583563. 12749.8   5
   3   1   2 612396. 12374.9  11
   3   1   2 572695. 12119.5   2
  -1  -3   2 580995. 12722.8   4
   1  -4   2 582543. 13168.8   4
   1  -4   2 600545. 11478.2   9
  -3   4   2 509779. 11334.2   9
   1  -4   2 540410. 11516.1   9
  -3   4   2 564593. 12779.4   1
   4  -1   2 600526. 12663.2   5
  -1  -3   5 8161.59 699.347  12
   1  -4   5 7066.21 655.173  12
  -3   4   5 7204.13 738.633   1
   4  -1   5 7847.20 636.972  11
   3   1   5 8132.18 661.126  11
  -1  -3   5 7115.87 712.616   4
  -4   3   5 7836.66 750.499   1
   3   1   5 9028.74 574.162   2
   1  -4   5 8218.89 837.038   4
   4  -1   5 6546.87 719.883   5
   3   1   5 6834.20 702.491   5
   4  -1   8 416212. 10557.2   5
  -1  -3   8 447801. 10160.3  12
   1  -4   8 464271. 10465.0  12
  -1  -3   8 431571. 10354.4   4
   4  -1   8 450911. 10308.9  11
  -3   4   8 460990. 10742.4   1
   3   1   8 490119. 10771.4   5
   3   1   8 463965. 10498.0  11
   3   1   8 480875. 9786.79   2
  -4   3   8 457825. 10749.1   1
   1  -4   8 450630. 10842.0   4
  -1  -3   8 454122. 10305.5   1
   3   1  11 3705.93 533.631   5
  -1  -3  11 4192.15 455.077  12
   1  -4  11 3334.28 436.840  12
  -4   3  11 3391.36 560.267   1
   4  -1  11 3473.08 497.320  11
   3   1  11 4108.16 579.637  11
  -3   4  11 3856.53 594.487   1
  -1  -3  11 3701.93 525.787   1
  -1  -3  11 3466.48 459.004   4
   1  -4  11 3827.80 588.561   4
   4  -1  11 3944.12 564.560   5
   3   1  14 355971. 8697.74   5
   4  -1  14 351585. 8851.32   5
  -1  -3  14 361085. 9066.63   1
   4  -1  14 345818. 8766.71  11
   3   1  14 349462. 8909.87  11
  -3   4  14 361561. 9031.42   1
   1  -4  14 348338. 8831.19   1
   1  -4  14 368364. 9004.16   4
  -4   3  14 359991. 9135.01   1
   3   1  17 1332.69 343.279   5
   4  -1  17 2800.41 528.046   5
  -3   4  17 1968.34 486.963   1
   4  -1  17 1915.17 488.425  11
   3   1  17 2335.57 505.882  11
  -1  -3  17 1480.67 432.879   1
   1  -4  17 1826.59 476.112   1
  -4   3  17 1744.14 499.232   1
   3   1  20 225933. 6249.24   5
   4  -1  20 240683. 6549.38   5
  -3   4  20 225481. 6601.81   5
   1  -4  20 211666. 6575.81   1
   4  -1  20 202115. 6578.26  11
   3   1  20 247782. 6787.26  11
  -4   3  20 231010. 6476.51   1
  -1  -3  20 219658. 6549.12   1
   0  -4 -20 190986. 5394.62  13
   0  -4 -17 69.9428 183.974   3
   0  -4 -17 64.3725 199.432  13
   4   0 -17-23.0291 142.746   3
   0  -4 -17-29.0801 119.541   9
  -4   4 -17 115.651 157.955   9
  -4   4 -17-133.250 242.184   7
   4   0 -17-116.466 150.369  14
  -4   4 -17 38.6892 216.229  13
   0  -4 -14 362840. 8001.85  12
   0  -4 -14 336740. 8714.27   4
   4   0 -14 313094. 7997.53   3
   0  -4 -14 331442. 7657.40   9
  -4   4 -14 331323. 7834.26   9
   4   0 -14 328950. 7907.78   6
   0  -4 -14 328510. 8135.89   3
  -4   4 -14 296756. 8605.52   7
   4   0 -14 332838. 7932.74  14
  -4   4 -14 328003. 9103.59  13
   0  -4 -11 61.7766 153.230   3
   4   0 -11 129.308 164.279   6
  -4   4 -11-129.548 223.563  13
   0  -4 -11 39.0677 127.116  12
   4   0 -11-66.0052 133.390   3
   0  -4 -11-305.469 248.070   4
   0  -4 -11 167.388 138.006   9
  -4   4 -11-121.218 120.609   9
  -4   4 -11 126.786 197.593   7
   4   0 -11-13.7838 95.7482  14
   0  -4  -8 442993. 10074.9  12
   0  -4  -8 428955. 10726.7   4
   4   0  -8 445389. 10055.9  11
   4   0  -8 444089. 10008.9  14
   0  -4  -8 477114. 9731.51   9
  -4   4  -8 461224. 9731.01   9
   0  -4  -8 438705. 10166.0   3
   4   0  -8 445822. 10004.2   6
  -4   4  -8 447850. 10938.4  13
   4   0  -8 434435. 10284.7   3
  -4   4  -5 140.021 105.372   2
   4   0  -5 67.9776 174.197   5
   0  -4  -5-81.2096 139.364  12
   4   0  -5 88.2543 133.442  11
  -4   4  -5 8.37726 148.554  10
   0  -4  -5 154.532 212.610   4
   0  -4  -5-3.69877 51.4013   9
  -4   4  -5 34.7355 62.8435   9
   0  -4  -5 44.4119 115.562   3
   0  -4  -2 558661. 12348.1  12
   4   0  -2 530250. 12566.6  11
   0  -4  -2 531104. 12838.4   4
  -4   4  -2 584307. 13073.5  10
   0  -4  -2 617059. 11901.1   9
  -4   4  -2 557686. 11721.2   9
   4   0  -2 521044. 12726.1   5
   4   0   1 22.3113 148.465   5
   0  -4   1-52.8020 106.971  12
   4   0   1-18.3600 130.959  11
   0  -4   1 77.0680 63.6648   9
  -4   4   1-19.3872 53.8375   9
   0  -4   1 3.27639 189.753   4
   0  -4   4 469950. 10404.2  12
  -4   4   4 461589. 10772.5   1
   4   0   4 462550. 10179.3  11
   0  -4   4 419790. 10675.0   4
   4   0   4 434999. 10684.8   5
   4   0   7 68.9155 144.912   5
   4   0   7 27.5915 163.921  11
   0  -4   7 89.1481 129.509   4
  -4   4   7-40.7240 183.270   1
   0  -4   7-18.0234 115.100  12
   4   0  10 453207. 10487.4   5
   4   0  10 424169. 10258.8  11
  -4   4  10 451364. 10678.0   1
   0  -4  10 457636. 10449.1   4
   0  -4  10 422462. 10127.7   1
   0  -4  10 425477. 9895.26  12
   4   0  13 188.184 198.713   5
   0  -4  13-352.192 229.036   1
   4   0  13 138.684 192.898  11
  -4   4  13-5.98593 163.149   1
   4   0  16 265941. 6997.50   5
   0  -4  16 264605. 7413.05   1
   4   0  16 249012. 7286.98  11
  -4   4  16 256783. 7332.53   1
   4   0  19 85.2589 175.450   5
   4   0  19 190.146 222.660  11
  -4   4  19-223.966 252.839   1
   0  -4  19-291.317 267.416   1
   5  -5 -17 227.556 286.770   3
  -5   0 -17 444.790 333.955  13
  -5   0 -17 223.710 209.082   9
   0   5 -17-394.937 356.942   8
   0   5 -17 161.085 209.661  14
   5  -5 -14 244664. 7307.34   3
   0   5 -14 240320. 6662.54   2
  -5   0 -14 259818. 7606.80  13
  -5   0 -14 253175. 6634.57   9
   0   5 -14 235076. 7432.21   8
   0   5 -14 239776. 7018.11  14
   0   5 -14 239093. 7012.59   6
   5  -5 -11 20.9323 187.396  12
  -5   0 -11 31.9586 239.972  13
  -5   0 -11 99.3790 176.385   9
   5  -5 -11 169.285 237.221   3
   0   5 -11 120.434 218.920   8
   0   5 -11 179.516 206.392   2
   0   5 -11 1.24198 198.679   6
   0   5 -11 92.5319 167.159  14
   5  -5  -8 492038. 10069.1   4
  -5   0  -8 453695. 10163.6  13
   0   5  -8 420789. 10129.7   2
  -5   0  -8 414078. 10418.0   9
   5  -5  -8 385460. 10234.2   3
   0   5  -8 386055. 10189.5  14
   0   5  -8 379621. 10142.5   6
   5  -5  -5-258.057 216.196   3
   5  -5  -5-83.6963 161.857   4
   0   5  -5 171.545 173.570   6
   0   5  -5 175.680 208.705   2
   0   5  -5 98.4682 153.179  14
  -5   0  -5 76.5366 150.810  13
   5  -5  -2 283116. 7711.69  11
  -5   0  -2 292716. 7699.12   9
   5  -5  -2 308785. 7646.30   4
   0   5  -2 266256. 7512.29   2
   0   5  -2 284293. 7574.32   6
   0   5  -2 286661. 7586.43  14
   5  -5  -2 293643. 7332.09   3
   5  -5   1 168.637 121.231   3
   5  -5   1 26.6313 134.181  11
   0   5   1 16.6494 83.3484  11
  -5   0   1 52.8936 136.372   1
   5  -5   1-152.409 183.214   4
   0   5   1 115.946 163.477   2
   5  -5   4 477226. 11337.2  11
   5  -5   4 495004. 11952.7   4
   0   5   4 520967. 11414.9   2
  -5   0   4 529894. 11346.9   1
   5  -5   4 470347. 10851.8   3
   5  -5   7 205.688 162.505  11
  -5   0   7 435.125 209.441   1
   5  -5   7 155.233 201.382   4
   0   5   7 69.0525 123.095   2
   5  -5  10 286358. 8225.64   4
   0   5  10 297313. 7102.55   2
  -5   0  10 281015. 7192.29   1
  -5   0  13 122.073 175.579   1
   0   5  13 98.1580 149.577   2
   5  -5  16 258082. 7861.52   4
  -5   0  16 228814. 6507.49   1
   1   4 -18 217701. 6259.97  14
  -1   5 -18 198482. 6501.63  14
  -4  -1 -18 229503. 6025.76   9
  -5   1 -18 209824. 5978.59   9
   1   4 -18 179444. 6608.35   8
  -1   5 -18 199380. 6962.78   8
   4  -5 -18 216109. 6760.74   3
   5  -4 -18 207591. 6500.56   3
  -4  -1 -18 203574. 6921.38  13
  -5   1 -18 227285. 7314.78  13
   5  -4 -15 1313.37 420.098   3
  -4  -1 -15 1970.35 569.793  13
   4  -5 -15 800.995 377.539   3
  -4  -1 -15 1139.41 346.826   9
  -5   1 -15 1468.21 385.569   9
   1   4 -15 1476.05 480.196   8
  -1   5 -15 1134.30 474.183   8
   1   4 -15 1400.61 404.835   6
   1   4 -15 1132.01 375.274  14
  -1   5 -15 1040.86 412.417  14
  -5   1 -15 1461.82 477.559  13
   4  -5 -12 345711. 8133.29  12
   1   4 -12 309272. 7981.25   2
   4  -5 -12 345203. 7363.47   4
  -1   5 -12 307482. 7547.62   2
  -1   5 -12 290882. 8340.67   6
  -4  -1 -12 302350. 7707.42   9
  -5   1 -12 305109. 7789.78   9
  -1   5 -12 278820. 8120.78   8
   1   4 -12 294116. 7894.59  14
   1   4 -12 293715. 7874.86   6
   4  -5 -12 299131. 8287.94   3
  -1   5 -12 293523. 8363.80  14
   5  -4 -12 284860. 8092.81   3
  -5   1 -12 317145. 8356.62  13
  -4  -1 -12 309840. 8701.23  13
  -4  -1  -9 2424.35 594.249  13
   4  -5  -9 2646.03 517.092   3
   5  -4  -9 2056.33 484.351   3
  -1   5  -9 2535.15 510.046  14
   4  -5  -9 2580.72 429.919   4
  -5   1  -9 2244.71 361.871  10
  -4  -1  -9 2027.23 458.421   9
  -5   1  -9 2093.39 461.189   9
   4  -5  -9 2722.68 497.508  12
  -1   5  -9 3024.39 510.395   8
   1   4  -9 2533.64 452.997   2
  -1   5  -9 2342.75 401.860   2
   1   4  -9 1638.11 365.908   6
   1   4  -9 2408.96 458.917  14
  -1   5  -9 2959.00 565.156   6
  -5   1  -9 3097.36 524.417  13
   4  -5  -6 447455. 10465.5  12
   5  -4  -6 412736. 10379.4  11
  -1   5  -6 433540. 10724.8  14
  -5   1  -6 415625. 10214.6  10
  -4  -1  -6 438770. 9542.89  10
   1   4  -6 440015. 10280.9   2
   4  -5  -6 468436. 10539.0   4
   5  -4  -6 507438. 10027.5   4
  -1   5  -6 434863. 10291.6   2
  -4  -1  -6 435325. 10556.3   9
  -5   1  -6 429985. 10652.6   9
  -1   5  -6 415192. 9934.75   8
  -1   5  -6 462822. 10282.6   7
   1   4  -6 429058. 10254.2   6
  -1   5  -6 425248. 10654.9   6
   1   4  -6 428417. 10272.4  14
   4  -5  -6 435990. 10339.6   3
  -4  -1  -6 416504. 10830.6  12
  -5   1  -6 455578. 9942.10  13
   5  -4  -6 436111. 10509.9   3
   4  -5  -3 3743.67 540.603  12
  -4  -1  -3 3175.88 564.308  12
   5  -4  -3 3475.36 523.590  11
  -5   1  -3 3732.96 403.610   1
  -1   5  -3 3276.85 527.455   2
   4  -5  -3 3778.27 573.437   4
   1   4  -3 3503.89 510.918   2
  -4  -1  -3 3536.34 530.301   9
  -5   1  -3 3333.36 530.656   9
   5  -4  -3 4102.60 496.442   4
  -1   5  -3 4031.87 394.403   8
  -4  -1  -3 3617.25 399.042   1
  -1   5  -3 3268.92 429.123   7
  -1   5  -3 3359.79 547.416   6
  -1   5  -3 3062.54 525.663  14
   4  -5  -3 3778.02 488.150   3
  -5   1  -3 3844.54 378.311  13
   5  -4  -3 3971.45 560.246   3
   5  -4   0 449925. 10298.4   3
  -1   5   0 391073. 10398.0  14
   5  -4   0 436823. 10409.7  11
   1   4   0 442993. 9768.96  11
  -5   1   0 485038. 9368.16  13
  -4  -1   0 451902. 10485.1   9
  -5   1   0 441981. 10469.0   9
   4  -5   0 435973. 10941.0   4
   1   4   0 404612. 10238.7   2
  -4  -1   0 413185. 10490.6  12
   5  -4   0 449889. 10419.9   4
  -5   1   0 405208. 10258.1   1
  -1   5   0 417457. 10340.6   2
  -1   5   0 455541. 9294.14   8
  -1   5   0 489559. 9745.08   7
  -4  -1   0 482033. 10039.3   1
   4  -5   0 443800. 9814.80   3
   5  -4   0 428440. 9975.77   5
   1   4   0 435031. 10132.7   5
  -4  -1   3 4428.23 598.567  12
   4  -5   3 3792.77 469.416  11
   5  -4   3 3902.11 543.996  11
   1   4   3 3253.24 412.585  11
   1   4   3 3230.24 465.337   2
   5  -4   3 3641.29 531.102   4
  -1   5   3 3196.58 465.870   2
  -5   1   3 4083.96 585.555   1
   4  -5   3 3339.64 662.038   4
  -1   5   3 4671.60 336.993   7
  -4  -1   3 3843.64 471.714   1
   4  -5   3 3960.99 344.921   3
   5  -4   3 3994.29 419.533   5
   1   4   3 4037.81 437.283   5
   4  -5   6 467810. 10046.1  11
   5  -4   6 452746. 10653.4  11
   4  -5   6 393313. 11033.2   4
   1   4   6 445419. 10257.2   2
  -5   1   6 454594. 10470.0   1
  -1   5   6 424116. 10289.3   2
  -4  -1   6 448809. 10333.7   1
   1   4   6 501114. 10015.4   5
   5  -4   6 453708. 9939.94   5
  -4  -1   9 2643.06 448.339   1
   5  -4   9 3066.84 507.821  11
  -5   1   9 2270.60 415.379   1
   1   4   9 2900.22 403.418   2
   4  -5   9 1945.99 475.235   4
   4  -5   9 2386.82 412.625  12
   5  -4   9 2239.89 359.809   5
   1   4   9 3027.83 389.032   5
  -1   5   9 2150.41 389.250   2
   1   4  12 334627. 7548.73   5
   5  -4  12 312641. 7784.44   5
   4  -5  12 305380. 7667.17  12
   5  -4  12 325965. 8026.27  11
   4  -5  12 310536. 8591.54   4
   1   4  12 340405. 7497.83   2
  -4  -1  12 306880. 7906.38   1
  -5   1  12 290457. 7715.97   1
  -1   5  12 299465. 7663.94   2
   1   4  15 1390.42 332.136   5
   5  -4  15 1344.30 388.876   5
  -5   1  15 1618.82 412.712   1
   4  -5  15 2051.87 539.327   4
  -4  -1  15 1544.31 381.967   1
  -1   5  15 1773.82 358.870   2
   1   4  18 233212. 6145.35   5
   1   4  18 229501. 6162.93  11
   4  -5  18 218238. 6887.19   4
  -5   1  18 216830. 6188.38   1
  -4  -1  18 218144. 6243.50   1
  -3  -2 -16 252365. 7683.40  13
  -3  -2 -16 280159. 6937.19   9
  -5   2 -16 257727. 7121.91   9
  -2   5 -16 236660. 7599.72   8
  -5   2 -16 275582. 8139.83  13
  -2   5 -16 251788. 7288.69  14
   3  -5 -16 274725. 7516.66   3
   2   3 -16 262473. 7075.26   6
   5  -3 -16 256074. 7210.05   3
   2   3 -16 263809. 7091.08  14
   3  -5 -13 237.086 260.484   3
  -3  -2 -13 604.819 414.064  12
   3  -5 -13 670.112 239.891  12
   5  -3 -13 523.838 265.527   3
  -5   2 -13 247.881 288.534  13
   3  -5 -13 589.910 244.605   4
  -3  -2 -13 249.401 196.930   9
  -5   2 -13 291.751 224.687   9
  -2   5 -13 553.519 314.250   8
  -5   2 -13 618.505 255.459   7
  -2   5 -13 188.798 215.970   7
   2   3 -13 368.391 228.216   6
   2   3 -13 825.610 271.216  14
  -2   5 -13 709.971 297.613  14
  -3  -2 -13 274.586 270.479  13
  -3  -2 -10 351882. 9693.20  12
  -2   5 -10 336209. 8552.75   6
   3  -5 -10 364158. 8564.98  12
   2   3 -10 341830. 8505.22   2
   3  -5 -10 368800. 8229.79   4
  -2   5 -10 351635. 7973.94   2
  -5   2 -10 310324. 8157.90  10
  -3  -2 -10 341272. 8308.56   9
  -5   2 -10 337573. 8498.20   9
  -2   5 -10 314727. 8563.39   8
  -2   5 -10 361073. 9174.02   7
   3  -5 -10 343346. 8730.05   3
   2   3 -10 335498. 8308.68   6
   2   3 -10 332257. 8302.80  14
  -2   5 -10 336996. 8574.49  14
   5  -3 -10 321787. 8411.28   3
  -5   2 -10 391988. 9063.89  13
   3  -5  -7 1018.50 307.517   3
  -3  -2  -7 1090.90 413.914  12
   3  -5  -7 1049.78 314.963  12
   5  -3  -7 763.544 263.736   3
   2   3  -7 1138.21 301.261  14
   5  -3  -7 542.040 223.714  11
  -5   2  -7 812.675 293.855  10
  -3  -2  -7 1039.81 327.877   9
  -5   2  -7 683.223 298.949   9
   3  -5  -7 882.746 305.029   4
  -2   5  -7 942.721 287.009  14
  -2   5  -7 948.555 277.410   8
  -2   5  -7 808.404 295.581   7
   2   3  -7 554.605 225.774   2
   2   3  -7 828.725 260.460   6
  -2   5  -7 1058.33 289.622   6
  -2   5  -7 611.765 212.878   2
  -5   2  -7 819.167 250.972  13
  -3  -2  -4 623713. 11866.8   1
  -3  -2  -4 538702. 13097.0  12
   3  -5  -4 533940. 12673.5  12
  -5   2  -4 562023. 12105.2   1
   5  -3  -4 551746. 12584.1  11
   2   3  -4 578922. 11885.2  11
  -3  -2  -4 483586. 13177.9   4
   2   3  -4 535802. 12356.9   2
   3  -5  -4 540107. 13051.5   4
  -3  -2  -4 531663. 12540.8   9
  -5   2  -4 531630. 12774.0   9
   5  -3  -4 591437. 12037.9   4
  -2   5  -4 538393. 12331.9  14
  -2   5  -4 510466. 12480.8   2
   5  -3  -4 528295. 12233.3   5
  -2   5  -4 571706. 12114.3   8
  -2   5  -4 597147. 12707.8   7
   2   3  -4 553164. 12423.6   5
  -2   5  -4 552864. 12391.8   6
   3  -5  -4 544872. 12303.6   3
  -5   2  -4 582679. 12115.5  13
   5  -3  -4 551377. 12589.9   3
   5  -3  -1 1044.16 263.585   5
   2   3  -1 462.438 211.333   5
  -3  -2  -1 378.703 213.127  12
   3  -5  -1 1308.81 338.640  12
   5  -3  -1 974.243 297.246  11
  -2   5  -1 540.236 203.284   2
  -2   5  -1 808.386 215.629  14
   2   3  -1 831.751 203.695  11
  -3  -2  -1 658.907 264.090   4
  -3  -2  -1 675.830 233.798   9
  -5   2  -1 872.954 260.261   9
   3  -5  -1 786.063 359.528   4
   5  -3  -1 910.446 247.495   4
  -2   5  -1 962.399 245.819   7
  -3  -2  -1 952.284 217.694   1
  -5   2  -1 796.424 252.330   1
   2   3  -1 794.333 242.143   2
  -2   5  -1 910.577 230.345   6
   3  -5  -1 881.043 205.490   3
  -5   2  -1 874.290 171.639  13
  -3  -2   2 410540. 9618.98  12
   3  -5   2 374216. 9357.30  12
   5  -3   2 384960. 9438.97  11
  -3  -2   2 392177. 9305.99   4
   2   3   2 413394. 9075.71  11
  -2   5   2 399933. 8982.12  14
  -5   2   2 370157. 9411.75   1
   2   3   2 388248. 9167.87   2
   3  -5   2 360298. 10107.8   4
  -2   5   2 384687. 9137.44   2
  -2   5   2 409867. 9008.48   6
   3  -5   2 413896. 8388.50   3
  -3  -2   2 426719. 9215.01   1
   5  -3   2 406844. 9120.15   5
   2   3   2 371550. 9143.94   5
  -2   5   5 966.932 266.573   2
  -3  -2   5 778.666 261.930  12
   5  -3   5 538.389 177.771   5
   2   3   5 764.460 222.801   5
  -5   2   5 1043.13 327.552   1
   5  -3   5 881.036 269.719  11
   2   3   5 825.478 256.556  11
   3  -5   5 744.006 273.580  12
  -2   5   5 697.951 158.073  10
  -3  -2   5 1070.73 231.683   4
   3  -5   5 592.714 303.638   4
  -3  -2   5 509.383 226.204   1
   2   3   5 792.596 224.650   2
   3  -5   8 424572. 10331.7  12
  -3  -2   8 442499. 10448.4   1
   5  -3   8 433109. 10207.3  11
   2   3   8 437635. 10154.5  11
   2   3   8 480828. 10086.3   5
   3  -5   8 399050. 10930.3   4
   2   3   8 468877. 9990.08   2
  -5   2   8 415684. 10431.6   1
  -2   5   8 428855. 10337.2   2
  -3  -2   8 483901. 10487.9  12
   5  -3   8 436803. 10153.1   5
  -2   5  11 302.602 184.767   2
  -2   5  11 385.504 210.289   1
   3  -5  11 133.817 138.537  12
   2   3  11 429.604 206.003   5
   5  -3  11 557.067 235.521   5
  -5   2  11 240.434 209.102   1
   5  -3  11 590.245 246.243  11
   2   3  11 704.356 260.373  11
  -3  -2  11 274.500 235.613   1
   3  -5  11 500.976 277.550   4
   2   3  11 192.010 133.720   2
   5  -3  14 292297. 8001.48   5
   2   3  14 326948. 7813.13   5
  -2   5  14 322386. 7934.28   1
   5  -3  14 305274. 7845.97  11
   2   3  14 314874. 7835.96  11
   3  -5  14 302837. 8330.16   4
  -5   2  14 309076. 7919.05   1
  -2   5  14 313147. 8155.39   2
  -3  -2  14 306479. 8083.40   1
  -3  -2  17 301.208 220.266   1
  -2   5  17 31.9156 177.217   2
   2   3  17 370.401 242.556   5
   5  -3  17 460.779 275.870   5
  -5   2  17 84.4267 223.082   1
   3  -5  17 156.131 155.640   1
   2   3  17 297.948 232.707  11
   3  -5  17 825.902 338.790   4
   2  -5 -17 132.263 176.772   3
  -5   3 -17 396.570 305.649  13
   3   2 -17 253.235 222.242   6
   5  -2 -17-114.992 203.343   3
   3   2 -17 249.368 202.263  14
   2  -5 -17 17.5413 144.160   4
  -2  -3 -17 25.6062 147.203   9
  -5   3 -17 525.903 298.363   9
  -3   5 -17 297.184 346.598   7
   2  -5 -17 426.668 197.951  13
  -2  -3 -17 91.8675 259.155  13
  -2  -3 -14 331533. 8538.14  12
   2  -5 -14 309184. 7552.80   4
  -5   3 -14 298711. 8571.43  13
  -2  -3 -14 314239. 7447.62   9
  -5   3 -14 316760. 7944.21   9
   3   2 -14 300181. 7621.57   6
  -5   3 -14 268485. 7656.26   7
  -3   5 -14 273516. 8399.42   7
   2  -5 -14 300395. 7776.49   3
   3   2 -14 313088. 7697.96  14
  -3   5 -14 275658. 7602.07  14
   5  -2 -14 294315. 7702.06   3
   2  -5 -11 249.756 201.255   3
   2  -5 -11 241.850 159.697  12
   5  -2 -11 795.640 280.130   3
   3   2 -11 445.577 174.518   3
   2  -5 -11 179.079 211.561   4
  -2  -3 -11 612.314 386.628  12
  -2  -3 -11 354.985 201.532   9
  -5   3 -11 165.512 176.902   9
  -5   3 -11 374.445 222.030   7
  -3   5 -11 355.705 305.861   7
   3   2 -11 494.063 240.251  14
   3   2 -11 280.374 201.025   6
  -3   5 -11 390.612 182.498  14
  -5   3 -11 386.728 241.321  13
  -2  -3  -8 457217. 11146.1  12
   2  -5  -8 461623. 10479.8  12
   5  -2  -8 435436. 10426.3  11
   3   2  -8 481945. 9832.20  11
  -3   5  -8 436191. 10288.4  14
  -2  -3  -8 414056. 11715.3   4
   3   2  -8 433943. 10544.2   2
   2  -5  -8 463360. 10663.7   4
  -5   3  -8 421519. 10700.4  10
  -2  -3  -8 476253. 10449.0   9
  -5   3  -8 474547. 10858.8   9
  -3   5  -8 489684. 10156.7   2
  -3   5  -8 483464. 11292.2   7
   2  -5  -8 450814. 10476.5   3
   3   2  -8 439657. 10407.9   6
   3   2  -8 442046. 10420.9  14
  -5   3  -8 467309. 10832.8  13
   5  -2  -8 433393. 10534.2   3
   5  -2  -5 555.233 225.671   5
   3   2  -5 617.704 230.171   5
  -5   3  -5 1326.61 292.211  13
  -2  -3  -5 37.6250 177.439  12
   2  -5  -5 832.772 278.479  12
   5  -2  -5 1082.06 287.470  11
   3   2  -5 572.990 161.274  11
  -5   3  -5 2106.60 482.907  10
   2  -5  -5 932.281 242.377   3
  -2  -3  -5 579.408 318.691   4
  -2  -3  -5 608.528 238.959   9
  -5   3  -5 322.884 201.242   9
   2  -5  -5 630.085 307.543   4
   5  -2  -5 910.125 158.878   4
  -3   5  -5 764.813 291.211   7
   3   2  -5 964.725 276.136   2
   5  -2  -5 796.946 158.062   6
   5  -2  -5 823.313 165.895  14
  -3   5  -5 541.038 176.548  14
  -3   5  -5 804.864 235.519   2
  -3   5  -5 571.652 170.970   6
   3   2  -2 369332. 9483.08   5
  -2  -3  -2 382573. 9679.98  12
   2  -5  -2 386044. 9468.82  12
   5  -2  -2 399071. 9646.59  11
   3   2  -2 412281. 9073.65  11
  -2  -3  -2 396205. 9956.03   4
   3   2  -2 398025. 9132.41   2
  -5   3  -2 340536. 9421.46   1
   2  -5  -2 362209. 10185.5   4
  -3   5  -2 417650. 9255.93  10
  -2  -3  -2 379150. 9048.41   9
  -5   3  -2 379406. 9329.04   9
  -3   5  -2 401187. 9204.22   2
   2  -5  -2 413058. 8742.80   3
  -3   5  -2 423461. 8698.56   6
  -3   5  -2 410809. 8673.10  14
   5  -2  -2 373529. 9434.41   5
  -5   3  -2 424510. 8819.43  13
   2  -5   1 783.553 136.104   3
  -3   5   1 731.808 249.120   2
  -3   5   1 1129.87 165.024   6
  -2  -3   1 887.839 295.085  12
   3   2   1 716.470 241.720   5
   2  -5   1 700.250 278.751  12
   5  -2   1 425.845 220.646  11
   3   2   1 1044.28 268.711  11
  -3   5   1 947.586 236.471  10
  -5   3   1 584.217 206.690   9
  -2  -3   1 698.138 267.978   4
   2  -5   1 866.935 362.789   4
  -2  -3   1 530.581 184.443   1
  -5   3   1 329.700 209.201   1
   3   2   1 734.733 217.175   2
  -3   5   1 1147.97 162.005  14
   5  -2   1 1168.75 298.196   5
  -2  -3   4 547181. 12361.2  12
   2  -5   4 525896. 12354.7  12
   5  -2   4 530199. 12065.0  11
   3   2   4 542110. 12050.9  11
  -2  -3   4 526944. 12219.4   4
   3   2   4 548584. 11826.1   2
  -3   5   4 560450. 11771.2  10
  -5   3   4 523008. 12486.5   1
   2  -5   4 512325. 12975.6   4
  -2  -3   4 558563. 12011.6   1
   3   2   4 540032. 12249.8   5
  -3   5   4 524370. 12202.9   2
   5  -2   4 541273. 12276.5   5
  -2  -3   7 653.800 251.127   1
  -5   3   7 906.015 357.081   1
  -2  -3   7 975.013 277.974  12
   2  -5   7 713.568 274.900  12
   5  -2   7 792.059 272.308   5
   3   2   7 783.645 253.835   5
   5  -2   7 847.290 248.101  11
   3   2   7 1049.70 310.300  11
  -2  -3   7 833.202 236.519   4
  -3   5   7 501.587 226.807   1
   2  -5   7 436.464 262.804   4
   3   2   7 868.299 223.237   2
  -2  -3  10 376916. 8466.98  12
   2  -5  10 353039. 8591.67  12
  -3   5  10 343961. 8725.30   1
   5  -2  10 335291. 8364.75  11
  -2  -3  10 349538. 8691.32   1
   3   2  10 334041. 8479.34  11
   2  -5  10 350959. 9252.61   4
  -5   3  10 348404. 8922.51   1
   5  -2  10 319279. 8536.73   5
   3   2  10 365727. 8487.88   5
  -5   3  13 460.380 284.289   1
   3   2  13 234.023 203.874   5
   5  -2  13 726.253 275.647  11
   3   2  13 815.874 303.626  11
   5  -2  13 606.928 278.659   5
   2  -5  13 879.039 361.361   4
  -3   5  13 293.176 237.150   1
  -2  -3  13 382.969 275.926   1
   3   2  16 264636. 6850.91   5
   5  -2  16 252521. 7077.95   5
  -2  -3  16 250183. 7221.64   1
  -3   5  16 270245. 7357.84   1
   5  -2  16 229492. 6876.04  11
   3   2  16 280842. 7172.97  11
   2  -5  16 257375. 7083.25   1
   2  -5  16 250832. 7083.70   4
  -5   3  16 263654. 7144.05   1
   2  -5  19 227.631 193.842   1
  -3   5  19 784.032 315.641   2
  -1  -4 -18 199170. 5400.45   9
  -5   4 -18 211915. 5835.04   9
   1  -5 -18 221925. 6049.24   3
  -5   4 -18 186610. 6093.37   7
  -4   5 -18 209725. 6707.61   7
   5  -1 -18 204324. 5848.23   3
   4   1 -18 209703. 5719.93  14
   1  -5 -18 207118. 5599.33  13
  -1  -4 -18 208794. 5780.58  13
  -5   4 -18 229871. 7230.16  13
   1  -5 -15 1918.55 414.247   3
   4   1 -15 1675.99 358.537   3
   5  -1 -15 1394.57 372.183   3
  -5   4 -15 1832.01 547.744  13
   1  -5 -15 2083.58 468.432   4
  -1  -4 -15 1571.62 339.543   9
  -5   4 -15 1447.76 349.325   9
  -5   4 -15 1290.77 409.448   7
   4   1 -15 1536.89 382.078   6
   4   1 -15 1746.11 378.281  14
  -1  -4 -12 328994. 7724.18  12
   1  -5 -12 302988. 7242.88  12
  -1  -4 -12 303876. 8509.79   4
   1  -5 -12 320460. 7863.91   4
  -1  -4 -12 301914. 7116.91   9
  -5   4 -12 325159. 7504.20   9
  -5   4 -12 307780. 8497.31  13
  -5   4 -12 281947. 7966.17   7
  -4   5 -12 288255. 8329.09   7
   1  -5 -12 295195. 7498.99   3
   4   1 -12 301279. 7451.01   6
   4   1 -12 292945. 7396.07  14
   5  -1 -12 289701. 7514.59   3
   4   1 -12 293685. 7299.01   3
   4   1  -9 2692.23 433.085  14
  -1  -4  -9 2438.92 426.783  12
   5  -1  -9 3022.12 451.885  11
   4   1  -9 2466.62 347.282  11
   5  -1  -9 2359.20 432.016   3
   1  -5  -9 2071.24 356.451  12
  -5   4  -9 2218.24 502.197  10
  -1  -4  -9 2577.82 351.356   9
  -5   4  -9 2620.90 386.021   9
  -1  -4  -9 1888.66 501.746   4
   1  -5  -9 2739.34 489.896   4
   1  -5  -9 2680.47 431.095   3
  -4   5  -9 3530.61 651.591   7
   4   1  -9 2770.21 426.767   6
   5  -1  -9 2458.97 335.813   6
   5  -1  -9 2475.47 338.073  14
   4   1  -9 2915.57 439.648   3
  -5   4  -9 2327.70 484.798  13
  -1  -4  -6 452260. 10598.8  12
   1  -5  -6 451609. 10414.9  12
   5  -1  -6 431142. 10699.7   5
   5  -1  -6 439889. 10619.3  11
   4   1  -6 467147. 10469.7  11
  -1  -4  -6 389878. 10907.2   4
   1  -5  -6 452684. 11022.9   4
   5  -1  -6 489517. 10216.5  14
  -5   4  -6 453915. 11308.1  10
   4   1  -6 459497. 10614.4  14
  -1  -4  -6 476011. 10159.0   9
  -5   4  -6 471364. 10260.8   9
  -4   5  -6 486305. 10342.3   2
   1  -5  -6 463287. 10325.5   3
   5  -1  -6 482032. 10196.0   6
   4   1  -6 443805. 10752.4   5
  -5   4  -6 480180. 10798.3  13
  -1  -4  -3 3329.27 493.545  12
   1  -5  -3 3630.10 485.807  12
   5  -1  -3 3057.69 538.605   5
   5  -1  -3 4149.90 608.401  11
   4   1  -3 3268.15 496.061  11
   4   1  -3 4324.87 531.906   2
  -1  -4  -3 3319.85 526.648   4
  -4   5  -3 3524.20 517.176  10
  -5   4  -3 3045.77 598.338  10
  -1  -4  -3 3826.75 440.127   9
  -5   4  -3 3555.57 442.070   9
   1  -5  -3 3758.63 656.728   4
  -4   5  -3 3755.50 477.851   2
   1  -5  -3 3982.89 422.570   3
   4   1  -3 3419.52 580.002   5
  -1  -4   0 437716. 10211.4  12
   1  -5   0 431056. 9967.34  12
  -5   4   0 386420. 10371.3   1
   5  -1   0 431356. 10251.5  11
   4   1   0 442532. 10115.3  11
   4   1   0 435614. 9893.37   2
  -1  -4   0 422036. 10139.7   4
   1  -5   0 393660. 10844.3   4
  -4   5   0 439431. 10100.3  10
  -1  -4   0 456556. 9597.16   9
  -5   4   0 459870. 9773.78   9
  -4   5   0 422552. 10063.8   2
   5  -1   0 433613. 10427.4   5
   4   1   0 437120. 10530.8   5
  -1  -4   3 3302.57 525.972  12
   1  -5   3 3202.75 461.517  12
   4   1   3 2361.10 497.947   5
   5  -1   3 3595.37 498.601  11
   4   1   3 3703.95 492.472  11
   4   1   3 3680.83 452.725   2
  -1  -4   3 4114.72 551.591   4
  -4   5   3 2366.86 470.127   1
   1  -5   3 3209.87 589.470   4
  -5   4   3 2765.46 545.306   1
   5  -1   3 4148.54 606.883   5
  -1  -4   6 413509. 10045.1  12
   1  -5   6 433723. 9934.71  12
  -4   5   6 393161. 10266.2   1
   5  -1   6 406185. 9835.71  11
   4   1   6 442131. 10048.4  11
  -5   4   6 421269. 10468.6   1
  -1  -4   6 419058. 10026.3   4
   1  -5   6 417149. 10600.0   4
   5  -1   6 411813. 10437.2   5
   4   1   6 404671. 10158.9   5
  -1  -4   9 2376.56 423.051  12
   1  -5   9 2452.11 458.185  12
   5  -1   9 2230.25 460.021   5
   4   1   9 2639.74 482.884   5
   5  -1   9 2439.51 444.256  11
   4   1   9 2698.63 500.438  11
  -1  -4   9 2021.85 398.166   4
   1  -5   9 2326.91 513.351   4
  -4   5   9 2140.23 501.794   1
  -5   4   9 2235.63 509.134   1
  -1  -4   9 1671.00 377.195   1
  -4   5  12 328790. 8389.79   1
   5  -1  12 299893. 7867.78  11
   4   1  12 287723. 7908.03  11
  -1  -4  12 303614. 7995.47   1
  -5   4  12 296848. 8218.71   1
   1  -5  12 308178. 8255.12   4
   5  -1  12 300295. 7879.24   5
   4   1  12 316979. 7850.23   5
  -1  -4  15 1499.08 437.251   1
   4   1  15 1721.11 401.748   5
   5  -1  15 1225.95 389.333   5
   5  -1  15 1651.18 454.811  11
   4   1  15 956.051 358.005  11
   1  -5  15 1314.06 389.375   1
  -4   5  15 1313.89 449.168   1
  -5   4  15 2046.06 530.047   1
   4   1  18 210155. 5970.59   5
   5  -1  18 218776. 6213.73   5
  -1  -4  18 204267. 6575.94   1
  -4   5  18 205069. 6525.57   1
   1  -5  18 219384. 6662.74   1
   5  -1  18 201921. 6510.36  11
   4   1  18 218535. 6501.27  11
  -5   4  18 228137. 6606.15   1
   0  -5 -16 231352. 6194.92   3
  -5   5 -16 235932. 6930.02   7
   0  -5 -13 106.124 165.468   3
   0  -5 -13 76.4056 143.650  12
   5   0 -13-222.487 190.898   3
   0  -5 -13 107.983 207.478   4
  -5   5 -13 8.73355 224.661   7
   5   0 -13 92.6113 168.164   6
   5   0 -13-14.4138 117.810  14
   0  -5 -10 285790. 6989.61  12
   5   0 -10 276585. 6870.88  11
   0  -5 -10 293058. 7758.27   4
   0  -5 -10 277510. 7043.30   3
  -5   5 -10 272745. 7838.74   7
   5   0 -10 289015. 6878.40   6
   5   0 -10 289979. 6902.06  14
   5   0 -10 280650. 7151.49   3
   0  -5  -7 58.0618 175.060  12
   5   0  -7 256.671 193.576  11
  -5   5  -7-193.297 215.333  10
   0  -5  -7-54.3305 181.802   4
   5   0  -7 50.3596 147.152   6
   5   0  -7-67.1522 134.377  14
   0  -5  -4 490779. 11350.6  12
   5   0  -4 484639. 11831.9  11
   0  -5  -4 473775. 11794.7   4
  -5   5  -4 525837. 12048.4  10
   5   0  -4 488968. 12111.1   5
   5   0  -1 73.2073 198.886   5
   0  -5  -1-30.2949 124.394  12
   5   0  -1-8.32721 169.625  11
  -5   5  -1 2.11183 191.187  10
   0  -5  -1 139.548 182.501   4
   0  -5   2 280012. 7167.55  12
  -5   5   2 293741. 7714.14   1
   5   0   2 302744. 7384.41  11
   0  -5   2 280977. 7772.76   4
   5   0   2 297229. 7849.56   5
   0  -5   5 217.275 175.658  12
   5   0   5 222.169 192.557  11
   0  -5   5 177.145 214.548   4
  -5   5   5 255.618 288.938   1
   0  -5   8 371863. 9463.37  12
  -5   5   8 411314. 10165.9   1
   5   0   8 407381. 9563.22  11
   0  -5   8 383202. 9831.01   4
   5   0   8 372548. 9726.81   5
   5   0  11-431.984 247.713   5
   5   0  11 885.975 340.975  11
   0  -5  11 1191.55 381.352   1
   0  -5  11-111.086 141.880  12
   0  -5  11 338.512 272.132   4
  -5   5  11-93.7953 241.582   1
   5   0  14 272315. 7687.01  11
  -5   5  14 267175. 7832.86   1
   0  -5  14 264845. 7567.80   1
   5   0  14 267948. 7186.67   5
   5   0  17-180.048 193.035   5
   0  -5  17-198.196 259.504   1
   5   0  17 134.330 215.524  11
  -5   5  17 80.2651 271.767   1
   0   6 -12 213290. 6222.86   2
   0   6 -12 213952. 6423.79   6
  -6   0 -12 209669. 6020.86   9
   0   6 -12 202369. 6265.63   8
   6  -6 -12 216706. 6627.94   3
   0   6 -12 208635. 6384.91  14
  -6   0 -12 224426. 6423.85  13
   6  -6  -9-248.226 201.909   3
   6  -6  -9 1.24334 204.318  12
  -6   0  -9-446.211 299.859   9
   0   6  -9 109.626 151.353   8
   0   6  -9-12.1049 195.012   2
   0   6  -9 112.341 194.878   6
   0   6  -9-61.6135 165.900  14
  -6   0  -9 250.694 264.423  13
   6  -6  -6 301667. 7162.38   4
   0   6  -6 269435. 7417.60   2
  -6   0  -6 263330. 7522.35   9
   0   6  -6 241834. 7074.22   6
   0   6  -6 236845. 7058.08  14
   6  -6  -6 255256. 7054.60   3
  -6   0  -6 286545. 6644.87  13
   6  -6  -3-56.0810 138.932   3
   0   6  -3-114.482 170.719   6
  -6   0  -3 56.7777 211.441   9
   6  -6  -3-44.5882 146.626   4
   0   6  -3 192.621 180.684  14
   0   6  -3 331.504 232.303   2
  -6   0   0 344931. 9096.25   9
   6  -6   0 353138. 9013.08   4
   0   6   0 341645. 8707.08   2
   0   6   0 350814. 8834.90  14
   6  -6   0 367222. 8341.36   3
   6  -6   3 142.641 147.148  11
  -6   0   3 188.685 196.200   1
   6  -6   3 223.892 227.660   4
   0   6   3 141.900 181.994   2
   0   6   6 278205. 6462.97  11
   6  -6   6 268974. 7667.07   4
   0   6   6 263174. 6792.14   2
  -6   0   6 256739. 6825.42   1
  -6   0   9-10.4648 192.646   1
   6  -6   9 76.5231 293.864   4
   0   6   9-1.66181 142.515   2
   0   6  12 234203. 6062.35   2
  -6   0  12 222134. 6330.68   1
  -1   6 -16 194135. 6544.55   8
   5  -6 -13 1062.72 396.162   3
   6  -5 -13 1280.83 439.287   3
  -1   6 -13 1038.84 406.487  14
  -5  -1 -13 1317.91 357.904   9
  -6   1 -13 974.578 332.898   9
   1   5 -13 1039.73 398.159   8
  -1   6 -13 1052.26 402.324   8
   1   5 -13 1407.59 414.799   2
  -1   6 -13 1080.49 340.464   2
   1   5 -13 779.551 352.048   6
  -1   6 -13 200.162 265.319   6
   1   5 -13 1071.69 341.904  14
  -5  -1 -13 1969.41 615.038  13
  -6   1 -13 1380.88 433.702  13
   5  -6 -10 272392. 7551.32  12
   1   5 -10 286411. 7585.92   2
   5  -6 -10 310324. 6972.75   4
  -1   6 -10 263617. 7081.41   2
  -5  -1 -10 273423. 7304.50   9
  -6   1 -10 262764. 7285.78   9
  -1   6 -10 258121. 7872.97   6
  -1   6 -10 263881. 7143.22   8
   1   5 -10 256216. 7150.65   6
   5  -6 -10 268776. 7589.40   3
   1   5 -10 262215. 7210.08  14
  -1   6 -10 257530. 7855.71  14
   6  -5 -10 263137. 7424.34   3
  -5  -1 -10 308858. 7979.36  13
  -6   1 -10 279540. 7155.61  13
   5  -6  -7 1556.50 411.321   3
   5  -6  -7 1972.68 486.472  12
   6  -5  -7 990.331 321.193   3
  -6   1  -7 1257.94 323.816  10
  -5  -1  -7 1894.44 442.175  13
  -5  -1  -7 1335.66 409.022   9
  -6   1  -7 1396.06 420.562   9
   5  -6  -7 1937.46 461.198   4
  -1   6  -7 1694.82 319.520   8
   1   5  -7 2598.71 527.414   2
   1   5  -7 1090.77 339.164   6
  -1   6  -7 3365.19 648.624   6
  -1   6  -7 1695.12 420.266   2
   1   5  -7 2021.90 431.618  14
  -1   6  -7 2390.02 557.261  14
  -6   1  -7 1461.35 324.350  13
   5  -6  -4 348528. 8718.50  12
   6  -5  -4 349778. 8706.42  11
   5  -6  -4 353550. 8784.82   4
   1   5  -4 340265. 8753.83   2
   6  -5  -4 380776. 8413.73   4
  -5  -1  -4 338357. 8833.26   9
  -6   1  -4 336732. 8878.69   9
  -1   6  -4 304033. 8451.46   2
   1   5  -4 337219. 8553.64   6
  -1   6  -4 311342. 8760.45   6
   1   5  -4 331478. 8531.51  14
  -1   6  -4 319792. 8827.67  14
   5  -6  -4 377038. 8421.42   3
   6  -5  -4 341118. 8507.80   3
   5  -6  -1 1780.77 310.013   3
   5  -6  -1 1851.49 413.505  12
   6  -5  -1 1230.60 322.755   3
   6  -5  -1 1535.45 378.331  11
  -5  -1  -1 2056.94 456.544   9
  -6   1  -1 1712.11 423.874   9
   5  -6  -1 1985.97 477.423   4
   6  -5  -1 1770.98 396.624   4
  -1   6  -1 1616.36 387.498   6
   1   5  -1 1619.48 393.496   2
  -1   6  -1 1808.95 437.242  14
  -1   6  -1 1728.50 410.336   2
   5  -6   2 326131. 8566.25  12
   6  -5   2 358710. 8712.48  11
   1   5   2 350924. 8112.98  11
   5  -6   2 329638. 9292.86   4
   1   5   2 330639. 8559.73   2
   6  -5   2 350136. 8790.62   4
  -6   1   2 393469. 9291.78   1
  -1   6   2 340817. 8562.69   2
  -5  -1   2 393623. 8531.79   1
  -1   6   2 339269. 8870.28  14
   6  -5   2 391818. 8652.00   3
   5  -6   5 1005.26 292.008  12
  -6   1   5 1032.33 347.481   1
   6  -5   5 1388.76 361.626  11
   1   5   5 1503.96 311.410  11
   5  -6   5 1051.63 379.882   4
  -5  -1   5 1320.80 326.003   1
   1   5   5 1574.45 345.761   2
  -1   6   5 1331.62 340.371   2
   5  -6   8 284339. 7528.25  12
   6  -5   8 336735. 8034.23  11
   1   5   8 301338. 7234.60  11
   5  -6   8 279287. 8349.84   4
   1   5   8 305034. 7358.74   2
   6  -5   8 318822. 8492.91   4
  -1   6   8 288704. 7367.17   2
  -6   1   8 292038. 7538.96   1
  -5  -1   8 301198. 7542.68   1
  -1   6  11 862.279 264.306   2
   5  -6  11 832.595 280.168  12
   1   5  11 626.962 258.227  11
  -6   1  11 710.567 301.551   1
   5  -6  11 1094.12 384.858   4
   6  -5  11 893.197 455.866   4
  -5  -1  11 838.929 293.595   1
   1   5  11 940.257 262.785   2
   1   5  14 215913. 6084.42  11
   5  -6  14 255748. 7666.52   4
   6  -5  14 263431. 8038.48   4
  -1   6  14 227604. 6139.61   2
  -6   1  14 239690. 6481.22   1
  -5  -1  14 246229. 6595.10   1
  -4  -2 -14 258156. 6779.77   9
  -6   2 -14 247437. 6881.26   9
  -2   6 -14 234036. 7330.65   8
   4  -6 -14 268642. 7561.84   3
   2   4 -14 266032. 7058.27   6
   2   4 -14 260987. 7043.38  14
   6  -4 -14 263173. 7173.70   3
  -2   6 -14 255093. 7472.37  14
  -4  -2 -14 268540. 8035.77  13
  -6   2 -14 276810. 7878.85  13
  -4  -2 -11 3206.86 745.511  12
   4  -6 -11 4459.78 676.945  12
   4  -6 -11 3749.59 658.784   3
   4  -6 -11 3482.34 500.564   4
  -2   6 -11 3881.34 522.296   2
  -4  -2 -11 4223.52 595.237   9
  -6   2 -11 3900.65 597.364   9
  -2   6 -11 3910.34 631.811   8
   2   4 -11 4005.69 659.175   2
  -2   6 -11 4165.90 703.963   7
   2   4 -11 3932.70 583.849   6
   2   4 -11 3434.59 550.726  14
  -2   6 -11 2894.06 576.612   6
   6  -4 -11 4474.21 653.402   3
  -2   6 -11 2901.09 588.368  14
  -4  -2 -11 3822.11 782.472  13
  -6   2 -11 3734.23 614.494  13
  -4  -2  -8 272278. 8400.10  12
   4  -6  -8 318585. 8081.48  12
   2   4  -8 292637. 7689.74   2
   4  -6  -8 311546. 7667.70   4
  -6   2  -8 256938. 7220.20  10
  -2   6  -8 300611. 7394.11   2
  -4  -2  -8 277867. 7580.78   9
  -6   2  -8 289320. 7811.51   9
  -2   6  -8 309671. 7322.37   8
  -2   6  -8 318561. 7829.67   7
   2   4  -8 280896. 7411.46   6
   4  -6  -8 305859. 7794.71   3
   2   4  -8 283986. 7447.66  14
  -2   6  -8 280987. 7712.41  14
   6  -4  -8 277877. 7475.34   3
  -6   2  -8 312838. 7377.70  13
  -4  -2  -5 5322.74 840.973  12
   4  -6  -5 6513.08 822.760  12
   6  -4  -5 5381.58 666.836  11
   2   4  -5 6418.23 735.784   2
   4  -6  -5 4723.83 731.292   4
   6  -4  -5 6343.49 581.005   4
  -4  -2  -5 4790.49 678.698   9
  -6   2  -5 4525.75 687.872   9
  -2   6  -5 6037.66 714.335   2
  -2   6  -5 7050.35 721.811   7
   2   4  -5 6626.85 753.529   6
   4  -6  -5 5580.36 645.506   3
  -2   6  -5 4543.29 621.174   6
   2   4  -5 6676.28 756.809  14
  -2   6  -5 4564.97 620.312  14
  -6   2  -5 6351.06 581.680  13
   6  -4  -5 5497.61 675.890   3
  -4  -2  -2 416204. 10606.8  12
   4  -6  -2 397364. 10051.8  12
   6  -4  -2 388760. 9744.19  11
  -6   2  -2 416476. 9720.92   1
   2   4  -2 385890. 9745.44   2
   4  -6  -2 394477. 10407.9   4
  -4  -2  -2 385210. 9812.46   9
  -6   2  -2 395616. 9979.56   9
   6  -4  -2 444146. 9603.42   4
  -2   6  -2 397834. 9709.14   2
  -2   6  -2 442816. 9403.79   7
  -2   6  -2 392342. 9553.88   6
   4  -6  -2 434737. 9280.05   3
  -2   6  -2 385058. 9551.88  14
   6  -4  -2 409308. 9476.90   5
   2   4  -2 414623. 9660.49   5
   6  -4  -2 413570. 9697.31   3
  -4  -2   1 6387.43 837.949  12
   4  -6   1 6158.18 731.312  12
   6  -4   1 6195.22 705.856  11
   2   4   1 7315.86 665.264  11
  -6   2   1 6823.38 813.230   1
   2   4   1 6863.69 724.563   2
  -4  -2   1 6101.57 737.253   9
  -6   2   1 7197.35 812.537   9
   4  -6   1 7020.24 979.591   4
   6  -4   1 7143.99 703.817   4
  -2   6   1 6148.30 651.325   2
  -2   6   1 7810.63 588.065   7
  -2   6   1 6292.67 649.534   6
  -2   6   1 5200.61 584.910  14
   6  -4   1 6266.68 662.987   5
   2   4   1 5758.66 637.906   5
  -4  -2   1 6840.00 654.663   1
  -4  -2   4 355313. 9056.26  12
   4  -6   4 330449. 8614.53  12
   6  -4   4 359149. 8864.66  11
   2   4   4 347764. 8345.54  11
   2   4   4 334251. 8391.35   2
   4  -6   4 309667. 9612.70   4
  -6   2   4 355578. 9101.41   1
   6  -4   4 352195. 8744.60   4
  -2   6   4 339611. 8362.20   2
  -2   6   4 379374. 8472.25  14
   6  -4   4 364802. 8314.51   5
   2   4   4 388476. 8355.64   5
  -4  -2   4 359678. 8562.71   1
  -4  -2   7 5070.26 689.607  12
   4  -6   7 5493.60 680.867  12
  -4  -2   7 5176.52 664.572   1
   6  -4   7 5934.61 750.071  11
   2   4   7 6146.02 635.866  11
   2   4   7 5224.30 582.218   2
   4  -6   7 5251.04 828.287   4
  -6   2   7 5551.14 716.668   1
  -2   6   7 5336.08 624.072   2
   6  -4   7 5569.33 578.321   5
   2   4   7 5975.31 571.481   5
   4  -6  10 306866. 8095.11  12
   6  -4  10 325766. 8336.32  11
   2   4  10 318985. 7818.73  11
   2   4  10 347032. 7704.58   2
   4  -6  10 303099. 8751.86   4
  -6   2  10 306103. 8034.47   1
  -2   6  10 323633. 8010.49   2
  -4  -2  10 330610. 8257.85   1
   6  -4  10 309107. 7760.55   5
   2   4  10 324209. 7592.83   5
  -4  -2  13 3418.16 607.768   1
   6  -4  13 3364.45 537.161   5
   2   4  13 3774.48 556.729  11
   6  -4  13 4326.60 657.738  11
  -6   2  13 3942.08 602.544   1
   4  -6  13 3479.48 687.168   4
  -2   6  13 4003.18 595.881   2
   2   4  13 3803.73 502.150   5
   2   4  16 223314. 5993.09  11
   4  -6  16 218245. 6808.83   4
  -6   2  16 213257. 6092.92   1
  -2   6  16 208086. 5969.80   2
  -4  -2  16 220727. 6368.83   1
   6  -4  16 206565. 6225.38   5
   2   4  16 221063. 5846.98   5
   3  -6 -15 381.081 297.784   3
   6  -3 -15 354.034 226.045   3
   3  -6 -15 181.955 219.892   4
  -3  -3 -15 311.199 244.149   9
  -6   3 -15 114.953 209.382   9
  -6   3 -15 341.896 223.942   7
  -3   6 -15-133.744 374.939   7
   3   3 -15 136.331 199.248   6
   3   3 -15-52.5693 158.686  14
  -3   6 -15 434.773 286.412  14
  -3  -3 -15 183.909 199.379  13
  -6   3 -15-137.120 319.764  13
  -3  -3 -12 306336. 8531.88  12
   3  -6 -12 305485. 7261.81  12
   3  -6 -12 300716. 7236.16   4
  -3  -3 -12 278150. 7096.53   9
  -6   3 -12 270489. 7480.09   9
  -6   3 -12 243062. 7166.82   7
  -3   6 -12 306909. 8212.99   7
   3  -6 -12 284073. 7498.42   3
   3   3 -12 287055. 7306.24   6
   3   3 -12 285889. 7333.03  14
  -3   6 -12 262843. 7362.84  14
   6  -3 -12 284348. 7452.47   3
  -6   3 -12 295377. 7930.21  13
   3  -6  -9 509.399 288.799   3
  -3  -3  -9 185.962 236.633  12
   3  -6  -9 251.925 218.477  12
   6  -3  -9 161.564 195.695   3
   6  -3  -9 309.779 226.065  11
  -6   3  -9 308.427 202.012  10
   3  -6  -9 582.959 263.180   4
  -3  -3  -9 184.465 182.444   9
  -6   3  -9 563.920 260.382   9
   3   3  -9 420.282 239.957   2
  -3   6  -9 285.504 245.101   7
   3   3  -9 567.786 248.029   6
   3   3  -9 418.934 214.295  14
  -3   6  -9 284.846 169.861   2
  -3   6  -9-50.6311 177.937  14
  -6   3  -9 289.845 210.936  13
  -3  -3  -6 303557. 8755.59  12
   3  -6  -6 323449. 8297.79  12
   6  -3  -6 317264. 7934.93  11
  -3  -3  -6 287898. 8891.03   4
   3   3  -6 319864. 8060.24   2
   3  -6  -6 338023. 8609.10   4
  -6   3  -6 280381. 8132.09  10
  -3  -3  -6 301266. 7905.48   9
  -6   3  -6 309509. 8303.19   9
  -3   6  -6 332858. 7925.39   2
  -3   6  -6 337792. 8083.26   7
   3  -6  -6 333752. 7741.10   3
   3   3  -6 306030. 7928.14   6
   3   3  -6 310765. 7950.35  14
  -3   6  -6 309006. 7635.06   6
  -3   6  -6 316396. 7677.63  14
  -6   3  -6 347038. 7732.73  13
   6  -3  -6 320290. 7991.34   3
   3  -6  -3 353.081 146.845   3
   6  -3  -3 260.075 190.995   5
   3   3  -3 132.850 177.432   5
  -3  -3  -3 254.183 278.332  12
   3  -6  -3 268.477 230.155  12
   6  -3  -3 422.952 235.931  11
   3   3  -3 158.376 137.208  11
  -3  -3  -3 56.3697 225.458   4
  -3  -3  -3 135.746 171.955   9
  -6   3  -3 317.439 230.067   9
   3  -6  -3 189.666 283.369   4
  -6   3  -3 59.0301 135.901   1
   6  -3  -3 287.678 143.132   4
  -3   6  -3 463.794 229.529   7
   3   3  -3 404.168 220.498   2
  -3   6  -3 418.485 156.191   6
  -3   6  -3 163.850 119.220  14
  -3   6  -3 382.295 186.786   2
  -6   3  -3 358.170 148.659  13
  -3  -3   0 446923. 11319.7  12
   3  -6   0 432907. 11003.7  12
   6  -3   0 455155. 10901.6  11
   3   3   0 470777. 10447.1  11
  -3  -3   0 440513. 11258.7   4
  -6   3   0 426166. 11141.6   1
  -3  -3   0 511782. 10564.6   1
   3   3   0 452671. 10574.6   2
   3  -6   0 415972. 11710.8   4
  -3  -3   0 440535. 10520.6   9
  -6   3   0 438554. 10737.6   9
   6  -3   0 468808. 10309.3   4
  -3   6   0 446523. 10388.3   2
  -3   6   0 478962. 10239.7   7
   6  -3   0 458383. 10812.7   5
   3   3   0 441101. 10960.3   5
  -3   6   3 363.331 195.406   2
  -3  -3   3 297.792 231.903  12
   3   3   3 815.731 261.396   5
   3  -6   3 124.397 195.194  12
   6  -3   3 272.341 211.079  11
  -3  -3   3 377.323 221.472   1
   3   3   3 806.292 264.450  11
  -3  -3   3 593.661 268.637   4
   6  -3   3 488.468 234.416   5
   3  -6   3 599.159 323.235   4
   3   3   3 253.595 186.521   2
  -6   3   3 525.783 265.260   1
  -3  -3   6 328058. 8365.11  12
   3  -6   6 301573. 8187.97  12
  -3  -3   6 345664. 8298.65   1
   6  -3   6 317114. 8089.52  11
   3   3   6 301232. 7811.08  11
   3   3   6 325270. 7730.89   2
  -6   3   6 313680. 8449.08   1
   3  -6   6 311320. 9072.86   4
  -3   6   6 317704. 7900.97   2
   6  -3   6 312681. 7833.72   5
   3   3   6 337703. 7778.60   5
  -3   6   9 598.964 275.507   2
  -6   3   9 504.867 288.153   1
  -3  -3   9 30.6523 146.009  12
   6  -3   9 170.901 169.065   5
   3   3   9 146.774 118.378   5
   3  -6   9 699.296 302.332  12
   6  -3   9 228.666 166.547  11
   3   3   9 275.823 226.737  11
   3  -6   9 61.7808 212.593   4
  -3  -3   9 382.550 278.826   1
   3   3   9 413.290 166.385   2
  -3  -3  12 287119. 7743.19   1
   6  -3  12 271780. 7408.49  11
   3   3  12 287954. 7320.02  11
  -6   3  12 281394. 7526.76   1
   3  -6  12 270921. 7912.40   4
  -3   6  12 300468. 7735.29   2
   6  -3  12 269639. 7455.24   5
   3   3  12 286397. 7101.26   5
  -3   6  15-127.612 185.658   2
  -6   3  15 183.584 233.599   1
   6  -3  15 246.946 210.550   5
   3   3  15 54.3806 212.691   5
   6  -3  15 252.605 207.520  11
  -3  -3  15 585.980 276.039   1
   3   3  15 225.035 249.964  11
   3  -6  15 322.226 213.955   1
   3  -6  15 129.080 124.497   4
   2  -6 -16 195346. 5758.19   4
   4   2 -16 210600. 5826.51   6
  -2  -4 -16 202431. 5474.77   9
  -6   4 -16 212722. 5979.16   9
   2  -6 -16 224033. 6059.44   3
  -4   6 -16 207231. 6746.50   7
   4   2 -16 214506. 5862.44  14
   6  -2 -16 214434. 5971.39   3
  -2  -4 -16 210055. 5874.91  13
  -6   4 -16 216072. 6984.29  13
   2  -6 -13 3777.57 506.387  12
  -2  -4 -13 4360.95 690.853  12
  -2  -4 -13 3751.28 498.310   9
  -6   4 -13 3907.01 593.860   9
   2  -6 -13 3212.76 540.379   4
   2  -6 -13 4287.45 611.695   3
  -6   4 -13 3457.01 617.146   7
  -4   6 -13 4073.89 757.212   7
   4   2 -13 3804.08 571.685   6
   4   2 -13 3759.00 574.409  14
   6  -2 -13 4085.71 619.397   3
  -6   4 -13 3961.65 732.044  13
  -2  -4 -10 327486. 8368.45  12
   2  -6 -10 317857. 7811.14  12
   6  -2 -10 315892. 7946.35  11
  -2  -4 -10 323128. 8954.53   4
   2  -6 -10 347060. 8232.16   4
  -2  -4 -10 304055. 7514.27   9
  -6   4 -10 326068. 7972.29   9
  -4   6 -10 356212. 8857.20   7
   2  -6 -10 311716. 7820.57   3
   4   2 -10 316388. 7908.41   6
   4   2 -10 315178. 7920.02  14
  -4   6 -10 298946. 7711.04  14
   6  -2 -10 312358. 8020.74   3
  -6   4 -10 322938. 8382.31  13
   4   2 -10 334057. 7708.70   3
  -2  -4  -7 5542.25 731.387  12
   2  -6  -7 5884.03 674.226  12
   6  -2  -7 5853.25 690.922  11
  -2  -4  -7 5943.59 842.229   4
   2  -6  -7 5051.90 702.221   4
  -6   4  -7 4900.73 727.536  10
  -2  -4  -7 4628.77 539.684   9
  -6   4  -7 5308.17 637.065   9
  -4   6  -7 5520.75 583.953   2
  -4   6  -7 5651.61 734.923   7
   2  -6  -7 5676.47 583.469   3
   4   2  -7 4847.09 627.910   6
   4   2  -7 4852.75 621.577  14
  -4   6  -7 5484.58 551.671  14
  -6   4  -7 5617.51 658.689  13
   6  -2  -7 5831.64 713.050   3
  -2  -4  -4 351394. 8906.00  12
   2  -6  -4 346741. 8572.49  12
   6  -2  -4 345916. 8759.62  11
   4   2  -4 366332. 8605.21  11
   4   2  -4 335280. 8566.61   2
  -2  -4  -4 354289. 9040.25   4
   2  -6  -4 334491. 9465.22   4
  -6   4  -4 323087. 9230.98  10
  -2  -4  -4 342641. 8379.61   9
  -6   4  -4 345603. 8615.49   9
  -4   6  -4 353827. 8391.92   2
   2  -6  -4 374695. 7935.58   3
   6  -2  -4 341467. 8748.92   5
   4   2  -4 337298. 8807.98   5
  -2  -4  -1 5807.51 787.506  12
   2  -6  -1 5579.73 690.906  12
  -6   4  -1 4868.64 713.926   1
   6  -2  -1 6494.55 800.554  11
   4   2  -1 7568.36 770.082  11
  -2  -4  -1 7057.87 800.648   4
   4   2  -1 7097.78 732.983   2
   2  -6  -1 6259.62 974.219   4
  -4   6  -1 6594.52 664.095  10
  -2  -4  -1 7258.01 675.058   9
  -6   4  -1 6523.29 737.198   9
  -2  -4  -1 7599.55 669.447   1
  -4   6  -1 5735.90 622.406   2
   6  -2  -1 6855.97 823.645   5
   4   2  -1 6408.13 833.560   5
  -2  -4   2 387132. 10031.2  12
   2  -6   2 386240. 9595.14  12
  -6   4   2 370340. 10090.5   1
   6  -2   2 403346. 9792.31  11
   4   2   2 410455. 9570.16  11
  -2  -4   2 408372. 9645.90   4
   4   2   2 423542. 9497.54   2
  -4   6   2 413050. 9198.61  10
   2  -6   2 380746. 10590.6   4
  -2  -4   2 397982. 9246.62   9
  -6   4   2 401339. 9503.72   9
  -2  -4   2 409467. 9417.32   1
  -4   6   2 405720. 9521.50   2
   6  -2   2 389697. 9853.14   5
   4   2   2 367212. 9831.00   5
  -2  -4   5 5275.97 736.402  12
   2  -6   5 5789.92 690.687  12
   6  -2   5 6167.06 732.770  11
   4   2   5 6207.69 734.280  11
  -2  -4   5 6379.89 691.258   4
  -6   4   5 4570.94 750.180   1
   4   2   5 6503.49 672.464   2
  -4   6   5 5217.26 552.020  10
   2  -6   5 5267.56 849.218   4
  -2  -4   5 5406.65 670.202   1
  -4   6   5 5992.05 716.835   2
   6  -2   5 5100.71 686.505   5
   4   2   5 6183.57 736.837   5
  -2  -4   8 299117. 7844.70  12
   2  -6   8 292358. 7652.91  12
  -4   6   8 302410. 7905.01   1
   6  -2   8 289294. 7654.46  11
   4   2   8 279200. 7658.05  11
  -2  -4   8 313395. 7922.65   1
  -6   4   8 284323. 8171.67   1
   2  -6   8 291733. 8564.64   4
  -4   6   8 289965. 7856.19   2
   6  -2   8 286809. 7811.73   5
   4   2   8 303229. 7631.10   5
   2  -6  11 3872.33 595.511  12
   6  -2  11 3361.44 579.666   5
   6  -2  11 4106.08 624.342  11
  -2  -4  11 3542.24 632.004   1
   4   2  11 4244.89 654.995  11
  -4   6  11 3927.40 652.336   1
   2  -6  11 4157.06 779.238   4
  -6   4  11 4114.99 710.503   1
   4   2  11 4029.12 582.107   5
  -4   6  14 259993. 7287.64   1
  -2  -4  14 252438. 7428.62   1
   6  -2  14 246885. 7056.26  11
   4   2  14 269862. 7135.13  11
  -6   4  14 273272. 7437.71   1
   2  -6  14 246865. 7427.91   4
   2  -6  14 239435. 6965.77   1
   6  -2  14 246476. 6999.92   5
   4   2  14 263943. 6831.02   5
  -1  -5 -14 254590. 7376.80   4
   1  -6 -14 227617. 6431.29   3
  -6   5 -14 242788. 7136.07   7
  -5   6 -14 237768. 7377.37   7
   5   1 -14 242015. 6408.74   6
   5   1 -14 244137. 6427.72  14
   6  -1 -14 241820. 6610.12   3
   1  -6 -11 832.209 266.227   3
  -1  -5 -11 1147.50 341.030  12
   1  -6 -11 900.862 298.579  12
   6  -1 -11 701.270 284.377   3
   5   1 -11 720.256 264.304   3
  -1  -5 -11 753.634 369.618   4
   1  -6 -11 1288.47 398.741   4
  -6   5 -11 606.463 352.117   7
  -5   6 -11 1136.58 426.308   7
   5   1 -11 766.627 284.336   6
   5   1 -11 928.889 292.098  14
  -1  -5  -8 301877. 7575.62  12
   1  -6  -8 286619. 7345.10  12
   5   1  -8 297123. 7493.98  14
   6  -1  -8 287437. 7520.92  11
   5   1  -8 328925. 7404.63  11
  -1  -5  -8 302793. 8117.53   4
   1  -6  -8 296480. 7973.84   4
  -6   5  -8 291351. 8234.69  10
   1  -6  -8 298004. 7289.49   3
  -5   6  -8 319310. 8179.84   7
   5   1  -8 300100. 7501.22   6
   6  -1  -8 304114. 7784.54   3
   6  -1  -5 1398.21 406.984   5
   5   1  -5 1104.60 357.368   5
  -1  -5  -5 1190.96 312.580  12
   1  -6  -5 1651.32 349.920  12
   6  -1  -5 1627.51 403.713  11
   5   1  -5 1328.10 371.274  11
  -6   5  -5 1270.26 412.590  10
  -5   6  -5 1331.44 357.776  10
  -1  -5  -5 1509.97 422.716   4
   1  -6  -5 1390.14 425.680   4
   6  -1  -5 1677.68 333.327  14
  -5   6  -5 1085.91 286.875   2
  -1  -5  -2 342660. 8498.80  12
   1  -6  -2 334844. 8294.81  12
   6  -1  -2 355603. 9119.73  11
   5   1  -2 347564. 8834.23  11
  -1  -5  -2 336742. 8581.41   4
   1  -6  -2 330484. 9085.87   4
  -6   5  -2 351064. 9151.93  10
  -5   6  -2 350428. 8516.00  10
  -5   6  -2 358457. 8317.52   2
   6  -1  -2 348314. 9192.20   5
   5   1  -2 332660. 9164.14   5
  -5   6   1 1389.64 364.472   2
   6  -1   1 1564.89 452.884   5
   5   1   1 1729.33 476.189   5
  -1  -5   1 1886.03 430.937  12
   1  -6   1 2167.30 422.611  12
   6  -1   1 2215.04 487.484  11
   5   1   1 1585.39 394.653  11
  -5   6   1 1685.78 370.872  10
  -1  -5   1 1861.10 419.664   4
   1  -6   1 1275.75 477.898   4
  -6   5   1 1291.17 375.444   1
  -1  -5   4 355737. 8931.58  12
   1  -6   4 347069. 8514.83  12
  -6   5   4 344936. 9338.69   1
   6  -1   4 345972. 8720.27  11
   5   1   4 364820. 8745.61  11
  -1  -5   4 333199. 8477.33   4
  -5   6   4 376860. 8734.96  10
   1  -6   4 331927. 9474.55   4
   6  -1   4 354677. 9299.40   5
   5   1   4 317419. 8908.78   5
  -1  -5   7 1462.03 416.456  12
   1  -6   7 1225.39 360.347  12
   6  -1   7 1235.91 457.078   5
   5   1   7 1042.48 358.092   5
   6  -1   7 1514.37 402.175  11
   5   1   7 1239.66 367.299  11
  -1  -5   7 1265.29 340.345   4
   1  -6   7 1139.18 419.870   4
  -1  -5   7 1485.13 374.624   1
  -5   6   7 1729.09 461.305   1
  -6   5   7 1665.09 496.442   1
  -1  -5  10 256980. 7074.95  12
   1  -6  10 249273. 7087.98  12
  -5   6  10 281144. 7742.35   1
   6  -1  10 261222. 7172.03  11
   5   1  10 273138. 7397.48  11
  -6   5  10 281344. 7922.59   1
  -1  -5  10 252882. 7200.40   1
   1  -6  10 245885. 7529.26   4
   6  -1  10 257011. 7200.74   5
   5   1  10 279856. 7309.78   5
   1  -6  13 1056.90 370.979   1
   6  -1  13 1015.87 346.564   5
   5   1  13 1127.11 382.774   5
   6  -1  13 1195.67 408.870  11
   5   1  13 896.830 372.234  11
  -5   6  13 1170.58 486.917   1
  -1  -5  13 1176.97 400.688   1
  -6   5  13 675.993 388.180   1
   0  -6 -12 237778. 6369.18  12
  -6   6 -12 249967. 7433.45   7
   6   0 -12 231689. 6469.61   3
   0  -6  -9 29.2842 150.346  12
   6   0  -9-148.088 183.057   3
   6   0  -9-112.672 162.658  11
   0  -6  -9 82.6593 220.659   4
  -6   6  -9 107.000 204.886   7
   6   0  -9 21.0998 150.322   6
   6   0  -9 2.37301 142.149  14
   0  -6  -6 259853. 6829.55  12
   6   0  -6 259110. 7061.70  11
   0  -6  -6 260004. 7266.30   4
  -6   6  -6 277971. 7461.87  10
   6   0  -6 276015. 6897.89   6
   6   0  -6 277970. 6911.87  14
   6   0  -6 267561. 7370.94   5
  -6   6  -3-74.1886 144.384   2
   6   0  -3-75.4586 256.346   5
   0  -6  -3-22.3397 170.455  12
   6   0  -3-173.220 229.667  11
  -6   6  -3 83.0211 196.411  10
   0  -6  -3 263.147 256.905   4
   0  -6   0 345342. 8527.93  12
   6   0   0 351060. 9097.96  11
   0  -6   0 320809. 8718.93   4
  -6   6   0 364605. 8972.69  10
  -6   6   0 347533. 8717.76   2
   6   0   0 352723. 9531.93   5
  -6   6   3-320.389 237.198   1
   6   0   3 26.3945 271.672   5
   0  -6   3 152.628 195.071  12
   6   0   3 39.3829 166.180  11
  -6   6   3-193.164 219.374  10
   0  -6   3 181.066 215.724   4
   0  -6   6 268723. 7145.73  12
  -6   6   6 272404. 7687.83   1
   6   0   6 281125. 7350.16  11
   0  -6   6 251219. 7346.27   4
   6   0   6 252166. 7549.72   5
   6   0   9-124.896 194.310   5
   6   0   9 166.895 221.539  11
   0  -6   9-364.612 267.313   4
  -6   6   9 172.670 291.441   1
   0  -6   9 121.915 166.269   1
  -6   6  12 230836. 7176.53   1
   6   0  12 228386. 6804.01  11
   0  -6  12 215954. 6787.49   1
   6   0  12 226936. 6443.54   5
   7  -7  -7-118.217 172.354   3
   7  -7  -7-92.7056 194.170  12
  -7   0  -7 110.612 256.671   9
   0   7  -7-106.860 232.449   2
   0   7  -7-42.7277 112.696   6
   0   7  -7 181.475 166.521  14
   7  -7  -4 220968. 6246.27  12
   7  -7  -4 216833. 6085.26   4
   0   7  -4 201815. 6055.52   2
  -7   0  -4 196294. 6381.81   9
   0   7  -4 200102. 6054.16   6
   0   7  -4 199962. 6054.39  14
   7  -7  -1 78.2681 189.678  12
  -7   0  -1 26.2180 227.442   9
   7  -7  -1 111.956 238.497   4
   0   7  -1 134.978 173.913   6
   0   7  -1-250.548 198.603  14
   0   7  -1-121.848 161.023   2
  -7   0   2 231262. 6982.72   9
   7  -7   2 232511. 6714.75   4
   0   7   2 215350. 6218.97   2
   0   7   2 236940. 6295.99   6
   0   7   2 233986. 6271.23  14
   7  -7   5-259.584 210.698  12
  -7   0   5 337.732 298.181   9
   7  -7   5-28.4841 199.266   4
   0   7   5 89.8578 158.665   2
   7  -7   8 217899. 6409.11  12
   0   7   8 209478. 5839.86   2
  -7   0   8 224407. 6154.81   1
   6  -7 -11 3780.29 686.944   3
   7  -6 -11 3772.74 691.753   3
   6  -7 -11 3686.69 688.183  12
   7  -6 -11 4435.04 648.910  12
  -6  -1 -11 4122.90 664.337   9
  -7   1 -11 3139.75 569.978   9
   1   6 -11 3596.58 641.943   8
   1   6 -11 3895.79 692.859   2
  -1   7 -11 4318.74 665.218   2
   1   6 -11 3206.02 589.658   6
  -1   7 -11 2793.02 656.818   6
   1   6 -11 3134.11 588.133  14
  -1   7 -11 2735.70 599.920  14
  -6  -1 -11 4210.93 706.946  13
   6  -7  -8 210001. 6374.33  12
   1   6  -8 212629. 6394.36   2
  -1   7  -8 196587. 5928.72   2
  -6  -1  -8 201522. 6134.71   9
  -7   1  -8 198644. 6151.08   9
   1   6  -8 192604. 5772.94   6
  -1   7  -8 171663. 6069.41   6
   6  -7  -8 206201. 5895.72   3
   1   6  -8 197303. 5837.61  14
  -1   7  -8 177603. 6132.58  14
   7  -6  -8 199178. 5850.43   3
  -6  -1  -8 230020. 5912.12  13
   6  -7  -5 5142.04 761.851  12
   1   6  -5 5985.00 842.049   2
   6  -7  -5 4950.19 731.965   4
  -1   7  -5 5378.03 746.411   2
  -6  -1  -5 4895.26 782.038   9
  -7   1  -5 4792.14 789.078   9
   1   6  -5 5206.53 717.165   6
   1   6  -5 4773.34 686.651  14
  -1   7  -5 3988.41 684.035   6
  -1   7  -5 3711.30 683.307  14
   7  -6  -5 4768.07 671.371   3
   6  -7  -2 288238. 7709.11  12
   7  -6  -2 285943. 7495.93  11
   1   6  -2 276774. 7577.70   2
   6  -7  -2 283853. 7825.82   4
   7  -6  -2 301830. 7572.28   4
  -6  -1  -2 283656. 7979.82   9
  -7   1  -2 281089. 7990.40   9
  -1   7  -2 289819. 7505.07   2
   1   6  -2 280207. 7485.81   6
  -1   7  -2 264881. 7653.07   6
   1   6  -2 282645. 7509.11  14
  -1   7  -2 260780. 7655.62  14
   7  -6  -2 303523. 7417.71   3
   6  -7   1 5464.22 747.212  12
   7  -6   1 5510.44 705.734  11
  -1   7   1 5304.60 699.759  14
   6  -7   1 4857.30 788.407   4
   1   6   1 5840.85 728.011   2
  -6  -1   1 6311.55 878.194   9
  -7   1   1 5246.67 817.546   9
   7  -6   1 5292.90 701.999   4
  -1   7   1 5655.60 691.075   2
  -1   7   1 5316.88 699.362   6
   6  -7   4 227336. 6592.95  12
   7  -6   4 240828. 6545.70  11
  -6  -1   4 246345. 7015.64   9
  -7   1   4 250147. 6987.33   9
   6  -7   4 241586. 7227.02   4
   1   6   4 233269. 6339.02   2
   7  -6   4 245579. 6834.30   4
  -1   7   4 236500. 6317.74   2
   6  -7   7 4556.44 680.606  12
   1   6   7 4643.77 592.564   2
   7  -6   7 5611.64 845.976   4
  -7   1   7 4621.50 666.946   1
  -1   7   7 4444.68 599.397   2
   6  -7   7 4576.65 828.390   4
  -6  -1   7 4872.74 655.009   1
   6  -7  10 217792. 6444.18  12
   1   6  10 227071. 5900.64  11
   6  -7  10 237876. 7452.30   4
   1   6  10 209776. 5879.70   2
   7  -6  10 269813. 7677.92   4
  -7   1  10 229351. 6367.40   1
  -1   7  10 243042. 6258.62   2
  -6  -1  10 245526. 6522.27   1
   5  -7 -12 220032. 6290.94  12
   2   5 -12 219081. 6540.28   2
  -5  -2 -12 201373. 5753.23   9
  -7   2 -12 195685. 5800.37   9
   5  -7 -12 202416. 6243.79   3
   2   5 -12 202425. 5921.60   6
   2   5 -12 200796. 5906.99  14
  -2   7 -12 181871. 6208.86   6
  -2   7 -12 186472. 6261.22  14
   7  -5 -12 211435. 6063.19   3
  -5  -2 -12 241660. 6883.70  13
  -7   2 -12 213525. 6058.20  13
   5  -7  -9 415.303 322.522   3
   5  -7  -9 527.024 301.000  12
   7  -5  -9 303.234 250.646   3
   5  -7  -9 925.914 317.826   4
  -5  -2  -9 240.411 199.556   9
  -7   2  -9 797.740 335.581   9
   2   5  -9 570.583 341.585   2
  -2   7  -9 699.430 245.367   2
   2   5  -9 83.0981 180.849   6
  -2   7  -9 585.702 327.854   6
   2   5  -9 573.800 263.828  14
  -2   7  -9 489.425 259.323  14
  -5  -2  -9 138.177 261.450  13
   5  -7  -6 283058. 7679.92  12
   7  -5  -6 260359. 6970.76  11
   2   5  -6 267659. 7334.87   2
   5  -7  -6 264936. 7353.12   4
  -7   2  -6 221048. 6770.72  10
  -2   7  -6 245050. 6887.80   2
  -5  -2  -6 262594. 7316.78   9
  -7   2  -6 250168. 7423.49   9
  -2   7  -6 278453. 6743.29   7
   2   5  -6 252624. 6890.31   6
   5  -7  -6 273493. 6800.95   3
  -2   7  -6 244407. 7039.79   6
   2   5  -6 253144. 6908.86  14
  -2   7  -6 236995. 6998.67  14
   7  -5  -6 253822. 6785.81   3
  -5  -2  -3 924.751 432.946  12
   5  -7  -3 949.614 365.196  12
   7  -5  -3 645.894 274.039   3
   7  -5  -3 812.125 308.577  11
  -5  -2  -3 519.762 303.516   9
  -7   2  -3 687.560 316.219   9
   5  -7  -3 539.203 276.390   4
   2   5  -3 930.435 346.906   2
  -2   7  -3 663.572 286.329   6
   2   5  -3 485.782 264.526  14
  -2   7  -3 708.930 290.710  14
  -2   7  -3 1004.45 325.287   2
  -5  -2   0 303105. 8533.73  12
   5  -7   0 301378. 8063.68  12
   7  -5   0 313222. 7831.86  11
   2   5   0 282699. 7739.98   2
   5  -7   0 300292. 8654.99   4
  -5  -2   0 297611. 8182.35   9
  -7   2   0 287062. 8185.87   9
   7  -5   0 313729. 7711.78   4
  -2   7   0 307477. 7643.67   2
   7  -5   0 323305. 7723.25   3
  -7   2   3 946.570 410.423   1
   5  -7   3 1305.49 385.219  12
   7  -5   3 893.356 334.060  11
  -5  -2   3 707.828 338.169   9
  -7   2   3 845.622 383.010   9
   5  -7   3 1746.41 584.768   4
   7  -5   3 1043.26 328.302   4
  -5  -2   3 1274.60 326.299   1
   2   5   3 807.067 277.165   2
  -2   7   3 458.423 215.685   2
   5  -7   6 257881. 7213.04  12
   7  -5   6 279261. 7363.44  11
   2   5   6 277087. 6768.95  11
   2   5   6 263904. 6811.01   2
   5  -7   6 249821. 7974.09   4
  -7   2   6 259283. 7269.80   1
   7  -5   6 288865. 7531.04   4
  -2   7   6 266264. 6842.76   2
  -5  -2   6 280342. 7143.76   1
   5  -7   9 409.104 225.982  12
  -7   2   9 760.870 327.266   1
   7  -5   9 1061.00 345.694  11
   2   5   9 708.232 243.255  11
   5  -7   9 821.826 414.312   4
   7  -5   9 360.021 293.257   4
   2   5   9 597.185 234.010   2
  -5  -2   9 612.632 308.446   1
  -2   7   9 947.199 316.777   2
   2   5  12 204837. 5718.26  11
   5  -7  12 208496. 6919.97   4
  -7   2  12 210968. 6058.89   1
  -2   7  12 222120. 6002.71   2
  -5  -2  12 227402. 6358.13   1
   4  -7 -13 1350.03 404.496   3
   7  -4 -13 1097.74 352.997   3
  -4  -3 -13 1708.41 396.966   9
  -7   3 -13 454.074 282.238   9
  -3   7 -13 2058.91 518.982   7
   3   4 -13 1382.72 391.007   6
   3   4 -13 1164.77 393.813  14
  -3   7 -13 749.446 312.106  14
  -4  -3 -13 1272.08 424.909  13
  -7   3 -13 1054.15 329.183  13
  -4  -3 -10 267534. 8150.26  12
   4  -7 -10 277128. 7408.00  12
   3   4 -10 276811. 7609.59   2
   4  -7 -10 286060. 7129.61   4
  -7   3 -10 223585. 6824.92  10
  -4  -3 -10 259458. 6902.78   9
  -7   3 -10 244920. 7050.08   9
  -3   7 -10 285214. 7387.51   7
   4  -7 -10 283273. 7135.78   3
   3   4 -10 266600. 7075.24   6
   3   4 -10 268912. 7109.30  14
  -3   7 -10 256163. 7141.55  14
   7  -4 -10 272470. 7149.75   3
  -7   3 -10 279346. 7104.55  13
   4  -7  -7 1629.11 344.755   3
  -4  -3  -7 2485.20 670.465  12
   4  -7  -7 1746.59 490.684  12
   7  -4  -7 1989.62 433.221   3
   7  -4  -7 1760.78 411.718  11
  -7   3  -7 1126.45 362.839  10
  -4  -3  -7 1891.33 454.484   9
  -7   3  -7 1269.39 411.430   9
   4  -7  -7 1117.38 368.602   4
  -3   7  -7 1827.99 423.375   7
   3   4  -7 1630.01 452.289   2
   3   4  -7 2552.14 504.429   6
  -3   7  -7 2083.13 405.802   6
   3   4  -7 1669.98 423.083  14
  -3   7  -7 2045.73 438.843   2
  -3   7  -7 2662.42 475.067  14
  -4  -3  -4 282609. 8451.23  12
   4  -7  -4 273013. 7657.16  12
   7  -4  -4 266430. 7077.24  11
   3   4  -4 276566. 7342.77   2
  -7   3  -4 234860. 7455.68  10
   4  -7  -4 272505. 7905.15   4
  -4  -3  -4 239269. 6994.47   9
  -7   3  -4 244063. 7349.17   9
  -3   7  -4 278979. 7029.17   2
  -3   7  -4 281421. 6792.96   7
   3   4  -4 275567. 7358.48  14
   7  -4  -4 268658. 6975.78   3
   7  -4  -1 2205.01 443.662   5
   3   4  -1 2670.33 496.233   5
  -4  -3  -1 1558.33 544.452  12
   4  -7  -1 2307.44 531.453  12
   7  -4  -1 1917.32 439.971  11
  -4  -3  -1 1409.05 391.955   9
  -7   3  -1 1975.21 480.912   9
  -3   7  -1 2918.55 481.963   2
   4  -7  -1 1727.74 571.104   4
   7  -4  -1 2819.39 441.087   4
  -3   7  -1 2490.61 401.599   7
   3   4  -1 2450.91 491.310   2
  -4  -3   2 354200. 8159.38   1
  -4  -3   2 351461. 9292.97  12
   4  -7   2 312276. 8493.16  12
   7  -4   2 319206. 8268.16  11
   3   4   2 309959. 7882.72  11
  -7   3   2 309522. 8870.33   1
   3   4   2 302358. 7984.59   2
   4  -7   2 278084. 9118.35   4
  -4  -3   2 315380. 8357.10   9
  -7   3   2 306830. 8470.36   9
   7  -4   2 339036. 8013.58   4
  -3   7   2 305461. 7764.60   2
   7  -4   2 316952. 8043.33   5
   3   4   2 352341. 8090.38   5
  -4  -3   5 2618.15 583.827  12
   7  -4   5 2701.31 461.128   5
   3   4   5 2428.18 418.277   5
   4  -7   5 1830.95 450.224  12
   7  -4   5 2208.62 488.921  11
   3   4   5 2713.45 466.287  11
  -4  -3   5 2356.66 482.492   1
   4  -7   5 1489.22 556.699   4
   7  -4   5 2321.23 477.413   4
   3   4   5 1825.34 395.637   2
  -7   3   5 2325.89 553.002   1
  -3   7   5 2319.89 420.531   2
  -4  -3   8 258851. 7353.38  12
   4  -7   8 248440. 7110.73  12
   7  -4   8 265241. 7379.16  11
   3   4   8 257527. 6771.46  11
   3   4   8 271940. 6687.75   2
  -7   3   8 267669. 7358.32   1
   4  -7   8 253760. 7950.52   4
  -3   7   8 265926. 6858.00   2
   7  -4   8 258029. 6767.71   5
   3   4   8 270425. 6607.36   5
  -4  -3   8 272854. 7320.70   1
  -3   7  11 1888.43 428.809   2
  -7   3  11 1678.81 432.769   1
   7  -4  11 1707.48 391.632   5
   3   4  11 1381.21 331.968   5
  -4  -3  11 2141.40 493.478   1
   7  -4  11 2551.06 545.489  11
   3   4  11 2129.23 444.959  11
   4  -7  11 1993.56 558.069   4
   3  -7 -14 219430. 5705.59   4
  -3  -4 -14 186744. 5188.96   9
  -7   4 -14 165439. 5489.06   7
   3  -7 -14 195412. 5573.24   3
  -7   4 -14 193007. 6045.18  13
   3  -7 -11 1558.34 376.183   3
  -3  -4 -11 1652.95 452.061  12
   3  -7 -11 1304.85 357.252  12
   7  -3 -11 1466.08 395.000   3
   3  -7 -11 1519.76 406.504   4
  -3  -4 -11 1453.15 340.339   9
  -7   4 -11 1204.37 370.381   9
  -4   7 -11 1988.04 490.941   7
   4   3 -11 1813.27 420.091   6
   4   3 -11 2036.72 450.941  14
  -7   4 -11 2760.58 576.620  13
  -3  -4  -8 292859. 7753.46  12
   3  -7  -8 280289. 7103.39  12
   7  -3  -8 252929. 6844.16  11
   3  -7  -8 278736. 7256.39   4
  -7   4  -8 224561. 6946.00  10
  -3  -4  -8 243269. 6532.76   9
  -7   4  -8 246999. 6965.13   9
  -4   7  -8 271284. 7042.02   7
   3  -7  -8 267332. 6470.28   3
   4   3  -8 263398. 6922.78   6
   4   3  -8 257011. 6897.05  14
   7  -3  -8 246496. 6873.74   3
  -3  -4  -5 2317.62 565.710  12
   3  -7  -5 2739.73 524.469  12
   7  -3  -5 2104.00 460.681   3
   7  -3  -5 2138.91 465.269  11
  -7   4  -5 1602.35 435.975  10
  -3  -4  -5 1908.36 508.238   4
  -3  -4  -5 2321.79 429.650   9
  -7   4  -5 2025.49 451.629   9
   3  -7  -5 2530.35 601.103   4
  -4   7  -5 2588.53 474.641   7
   4   3  -5 2902.69 575.594   2
   4   3  -5 2197.37 496.481  14
  -4   7  -5 2862.52 491.302   2
  -3  -4  -2 343980. 9100.06  12
   3  -7  -2 317006. 8380.35  12
   7  -3  -2 320268. 8317.22  11
  -3  -4  -2 332121. 8749.62   4
   4   3  -2 329765. 8323.57   2
   3  -7  -2 312183. 9516.75   4
  -3  -4  -2 297823. 7920.43   9
  -7   4  -2 301367. 8325.21   9
  -4   7  -2 323148. 7813.85   2
  -4   7  -2 329587. 7778.20   7
   7  -3  -2 313967. 8402.25   5
   4   3  -2 318781. 8638.08   5
   7  -3   1 2249.79 529.675   5
   4   3   1 2284.17 499.855   5
  -3  -4   1 3085.79 672.985  12
   3  -7   1 1409.01 440.664  12
   7  -3   1 2144.33 481.473  11
   4   3   1 3286.26 565.012  11
  -3  -4   1 2946.91 497.383   1
  -3  -4   1 3467.35 627.336   4
  -3  -4   1 2032.58 415.122   9
  -7   4   1 1621.82 426.361   9
   3  -7   1 2632.35 677.656   4
  -4   7   1 2949.04 468.436   2
   7  -3   1 2337.75 404.451   4
  -4   7   1 3091.50 426.593   7
  -7   4   1 1789.06 516.208   1
   4   3   1 2152.70 453.718   2
  -3  -4   4 282813. 7925.81  12
   3  -7   4 259948. 7285.78  12
  -3  -4   4 288926. 7421.97   1
   7  -3   4 278875. 7506.80  11
   4   3   4 256333. 7071.75  11
  -7   4   4 257096. 7902.10   1
   4   3   4 269741. 7071.13   2
   3  -7   4 254564. 8307.07   4
  -3  -4   4 275059. 7238.49   9
  -7   4   4 270518. 7387.39   9
  -4   7   4 268844. 6901.61   2
   7  -3   4 264905. 7207.05   5
   4   3   4 280775. 7136.80   5
  -4   7   7 1835.56 421.821   2
  -3  -4   7 1535.94 444.154  12
   7  -3   7 1858.03 459.683   5
   4   3   7 1425.44 364.790   5
   3  -7   7 1656.89 425.179  12
   7  -3   7 2074.76 498.613  11
   4   3   7 2111.91 453.476  11
   3  -7   7 1489.62 556.000   4
   4   3   7 2684.35 456.776   2
  -7   4   7 1708.40 515.602   1
  -3  -4   7 2025.22 507.211   1
   3  -7  10 268624. 7193.30  12
  -3  -4  10 289716. 7949.21   1
   7  -3  10 276403. 7604.67  11
   4   3  10 283713. 7329.50  11
  -7   4  10 293080. 7944.75   1
   3  -7  10 259778. 8198.96   4
  -4   7  10 288423. 7496.58   2
   7  -3  10 247982. 7271.29   5
   4   3  10 274158. 7032.10   5
  -4   7  13 1386.93 452.096   2
   7  -3  13 903.009 338.649   5
   4   3  13 1395.19 372.702   5
   7  -3  13 1402.62 415.660  11
   4   3  13 1023.03 354.066  11
  -3  -4  13 1730.59 478.004   1
   3  -7  13 1963.29 538.124   4
  -7   4  13 1479.73 460.664   1
  -2  -5 -12 200521. 5973.01  12
   2  -7 -12 207313. 5654.66  12
  -7   5 -12 194380. 6089.67   7
   2  -7 -12 188593. 5505.13   3
  -5   7 -12 223722. 6491.66   7
   5   2 -12 201387. 5718.98   6
   5   2 -12 203179. 5760.86  14
   7  -2 -12 212685. 5947.90   3
  -2  -5  -9 1005.59 321.272  12
   2  -7  -9 790.612 293.552  12
   7  -2  -9 866.613 308.886   3
   5   2  -9 586.578 255.220   3
   7  -2  -9 340.071 228.488  11
  -7   5  -9 492.427 291.201  10
  -2  -5  -9 1289.57 433.527   4
   2  -7  -9 469.950 328.595   4
  -5   7  -9 891.652 357.791   7
   5   2  -9 814.412 308.622   6
   5   2  -9 764.004 306.148  14
   7  -2  -6 277152. 7514.37   3
  -2  -5  -6 281908. 7482.60  12
   2  -7  -6 278958. 7198.72  12
   7  -2  -6 272854. 7367.64  11
  -2  -5  -6 283858. 7751.73   4
   2  -7  -6 281702. 7833.98   4
  -5   7  -6 286740. 7394.49   7
   5   2  -6 279651. 7413.95   6
   5   2  -6 287468. 7467.07  14
   7  -2  -3 665.367 324.222   5
   5   2  -3 621.487 295.856   5
  -2  -5  -3 430.600 287.009  12
   2  -7  -3 670.163 264.806  12
   7  -2  -3 519.791 304.565  11
   5   2  -3 554.780 233.715  11
  -7   5  -3 1642.21 488.446  10
  -2  -5  -3 675.603 333.150   4
   2  -7  -3 699.851 360.339   4
  -5   7  -3 1000.08 299.466   2
  -2  -5   0 328160. 8493.22  12
   2  -7   0 300876. 7927.10  12
  -7   5   0 275248. 8303.19   1
   7  -2   0 307718. 8379.14  11
   5   2   0 323150. 8394.08  11
   5   2   0 309581. 8028.48   2
  -2  -5   0 315651. 8154.48   4
   2  -7   0 294786. 9102.07   4
  -5   7   0 316801. 7735.39  10
  -2  -5   0 351387. 7831.51   1
  -5   7   0 305913. 7707.74   2
   7  -2   0 316269. 8724.08   5
   5   2   0 304188. 8730.48   5
  -5   7   3 542.815 269.324   2
   7  -2   3 832.682 372.180   5
  -2  -5   3 1136.22 424.699  12
   5   2   3 1060.24 372.344   5
   2  -7   3 719.770 320.298  12
   7  -2   3 987.400 358.918  11
   5   2   3 917.969 346.228  11
  -5   7   3 726.442 244.772  10
  -2  -5   3 684.254 293.268   4
  -2  -5   3 580.291 255.494   1
   2  -7   3 392.117 337.822   4
  -7   5   3 838.684 415.236   1
   5   2   3 1237.83 365.000   2
  -2  -5   6 249885. 7460.77  12
   2  -7   6 243173. 6853.20  12
  -7   5   6 269572. 8019.20   1
   7  -2   6 257755. 7241.89  11
   5   2   6 262173. 7194.65  11
  -2  -5   6 259856. 7209.79   1
  -5   7   6 274617. 6588.34  10
   2  -7   6 242768. 7926.29   4
  -5   7   6 265060. 7162.36   2
   7  -2   6 248249. 7296.81   5
   5   2   6 284280. 7290.70   5
  -5   7   9 635.154 297.065   2
  -2  -5   9 197.537 186.067  12
   7  -2   9 427.959 308.317   5
   5   2   9 632.493 297.998   5
   2  -7   9 500.510 260.921  12
   7  -2   9 717.512 350.763  11
   5   2   9 870.548 358.018  11
  -2  -5   9 546.075 265.071   1
   2  -7   9 402.173 269.415   4
  -7   5   9 110.392 249.030   1
  -2  -5  12 226502. 6919.50   1
   7  -2  12 211192. 6451.73  11
   5   2  12 220711. 6396.48  11
  -7   5  12 239128. 7148.46   1
   2  -7  12 193882. 6846.94   4
  -5   7  12 229991. 6716.65   2
   7  -2  12 205905. 6300.94   5
   5   2  12 222490. 6162.82   5
  -1  -6 -10 246531. 6641.71  12
   1  -7 -10 239840. 6467.11  12
   7  -1 -10 226667. 6485.43  11
  -1  -6 -10 259276. 7282.38   4
   1  -7 -10 277868. 7384.52   4
  -7   6 -10 232714. 7139.97   7
  -6   7 -10 264690. 7287.27   7
   6   1 -10 248004. 6499.98   6
   6   1 -10 240758. 6466.61  14
   7  -1 -10 250876. 6820.55   3
   6   1 -10 235866. 6571.40   3
   7  -1  -7 4221.07 695.605   3
  -1  -6  -7 4506.49 644.784  12
   1  -7  -7 4108.33 590.252  12
   7  -1  -7 4630.74 674.115  11
  -1  -6  -7 4858.52 748.059   4
   1  -7  -7 5512.44 786.269   4
  -7   6  -7 5007.98 787.201  10
  -6   7  -7 4343.42 692.407   7
   6   1  -7 4960.38 661.170   6
   6   1  -7 4633.77 648.856  14
  -1  -6  -4 236007. 6477.29  12
   1  -7  -4 227778. 6303.84  12
   7  -1  -4 250768. 6962.36  11
   6   1  -4 250967. 6897.95  11
  -1  -6  -4 238448. 6779.58   4
   1  -7  -4 237447. 6920.28   4
  -7   6  -4 226826. 6833.46  10
  -6   7  -4 249572. 6682.66  10
   7  -1  -4 235092. 6992.88   5
   6   1  -4 244826. 7125.44   5
  -1  -6  -1 4843.11 675.192  12
   1  -7  -1 5308.99 671.469  12
   7  -1  -1 5511.06 899.348   5
   6   1  -1 5582.80 913.167   5
   7  -1  -1 6325.99 894.315  11
   6   1  -1 6092.07 873.386  11
  -1  -6  -1 4263.14 652.270   4
   1  -7  -1 5542.76 815.300   4
  -7   6  -1 4592.02 756.784  10
  -6   7  -1 6289.48 745.069  10
  -6   7  -1 5469.83 650.619   2
  -1  -6   2 287808. 7746.90  12
   1  -7   2 282247. 7473.71  12
   7  -1   2 310732. 8194.23  11
   6   1   2 298355. 8085.42  11
  -1  -6   2 270752. 7524.48   4
   1  -7   2 275988. 8212.84   4
  -7   6   2 317944. 8459.89  10
  -6   7   2 295459. 7567.39  10
  -6   7   2 306729. 7795.91   2
   7  -1   2 304382. 8699.55   5
   6   1   2 277991. 8416.35   5
   1  -7   5 5075.02 693.467  12
  -1  -6   5 4222.52 695.756  12
  -7   6   5 5629.29 882.158   1
   7  -1   5 5402.55 802.572  11
   6   1   5 5200.96 771.229  11
  -1  -6   5 5245.59 690.147   4
  -6   7   5 4568.55 647.260  10
  -1  -6   5 5473.20 739.220   1
   1  -7   5 5410.05 896.144   4
  -6   7   5 5574.24 781.812   2
   7  -1   5 5217.91 883.302   5
   6   1   5 5217.24 813.831   5
  -1  -6   8 187557. 6305.62  12
   1  -7   8 190834. 5961.36  12
  -7   6   8 217713. 6982.91   1
   7  -1   8 236934. 6563.51  11
   6   1   8 223876. 6507.42  11
   1  -7   8 190462. 6654.81   4
  -6   7   8 233708. 6169.07  10
  -1  -6   8 214992. 6468.71   1
   7  -1   8 204650. 6407.60   5
   6   1   8 228690. 6485.58   5
   7  -1  11 4090.15 699.410   5
  -1  -6  11 2644.64 616.187   1
   6   1  11 4859.58 714.316   5
   0  -7  -8 218111. 6081.12  12
   7   0  -8 224438. 6456.13   3
   7   0  -5 468.672 268.208   5
   0  -7  -5 170.503 200.077  12
  -7   7  -5-42.5070 209.499  10
   0  -7  -5-122.592 222.740   4
   0  -7  -2 241711. 6619.55  12
   7   0  -2 245999. 7354.47  11
   0  -7  -2 241464. 6924.72   4
  -7   7  -2 244140. 6879.21  10
   7   0  -2 251928. 7697.24   5
  -7   7   1-86.6679 144.048   2
   0  -7   1-27.2642 179.530  12
   7   0   1 124.403 206.531  11
  -7   7   1-37.3052 213.019  10
   0  -7   1 119.372 252.770   4
   0  -7   4 199250. 5990.16  12
   0  -7   4 194235. 6059.37   4
   7   0   4 206714. 6926.54   5
   0  -7   7-330.522 235.500   1
   0  -7   7-7.62673 124.588  12
   7   0   7 325.661 291.598   5
   7   0   7-47.4425 254.158  11
  -7   7   7 23.2270 217.718  10
   7  -8  -3-309.856 273.537   4
   7  -8   0 185354. 6006.48   4
   1   7   0 195209. 5530.28   6
   1   7   0 199651. 5574.41  14
   8  -7   3 321.924 266.256   4
   1   7   3 641.676 260.341  14
   8  -6  -7 438.691 246.375   3
   6  -8  -7 500.559 309.057   4
  -2   8  -7 602.458 291.042   2
   6  -8  -4 252026. 7103.15  12
   2   6  -4 225122. 6677.66   2
  -8   2  -4 200863. 6499.26  10
   6  -8  -4 224859. 6872.67   4
  -2   8  -4 246469. 6421.58   2
  -6  -2  -4 231570. 6938.67   9
  -8   2  -4 216186. 6892.35   9
   2   6  -4 230309. 6356.89   6
   2   6  -4 236267. 6417.06  14
   8  -6  -4 206227. 6037.54   3
   6  -8  -1 239.632 207.663  12
   8  -6  -1 228.093 180.972   3
   8  -6  -1 422.915 242.761  11
  -6  -2  -1 420.126 282.481   9
  -8   2  -1 140.034 267.122   9
   6  -8  -1 433.859 310.416   4
   2   6  -1 323.699 233.933   6
   2   6  -1 90.3278 212.329   2
   2   6  -1 326.715 224.277  14
  -2   8  -1 698.332 275.169   2
   6  -8   2 197238. 6020.54  12
   8  -6   2 198161. 5680.96  11
   2   6   2 197848. 5601.82   2
   6  -8   2 186555. 6364.19   4
  -6  -2   2 197455. 6307.28   9
  -8   2   2 199280. 6338.31   9
   8  -6   2 190512. 5606.64   4
  -2   8   2 191996. 5416.50   2
   6  -8   5 614.411 302.887  12
   8  -6   5 315.748 219.159  11
  -6  -2   5 453.704 307.739   9
  -8   2   5 145.809 250.857   9
   6  -8   5 767.179 396.670   4
   8  -6   5-332.581 254.351   4
   2   6   5 372.993 215.428   2
  -2   8   5 496.896 253.136   2
   5  -8  -8 261143. 7213.09  12
   5  -8  -8 243264. 6532.76   4
  -8   3  -8 193519. 6103.41  10
  -3   8  -8 213130. 6235.21   2
  -5  -3  -8 226019. 6371.93   9
  -8   3  -8 211938. 6438.60   9
  -3   8  -8 236537. 6213.84   7
   8  -5  -8 232083. 6289.14   3
  -5  -3  -5 173.720 358.263  12
   5  -8  -5 46.5667 265.883  12
   8  -5  -5 220.850 205.254   3
   8  -5  -5 620.933 323.077  11
  -8   3  -5-155.282 218.459  10
  -5  -3  -5 653.162 317.553   9
  -8   3  -5 120.619 298.580   9
   5  -8  -5 193.700 307.312   4
   3   5  -5 387.639 296.144   2
   3   5  -5 187.211 270.798   6
   3   5  -5-206.967 203.092  14
  -3   8  -5 296.908 237.934   2
  -5  -3  -2 182876. 6363.10  12
   5  -8  -2 188034. 5905.23  12
   8  -5  -2 186794. 5294.66  11
   3   5  -2 173847. 5429.46   2
   5  -8  -2 179431. 6150.81   4
  -5  -3  -2 163914. 5482.73   9
  -8   3  -2 149446. 5534.62   9
  -3   8  -2 178762. 5050.56   2
   3   5  -2 174539. 5317.09  14
   8  -5  -2 170708. 5058.21   3
  -5  -3   1 523.656 350.012  12
   5  -8   1 295.158 246.275  12
   8  -5   1 30.4489 152.515   3
   8  -5   1 930.807 332.872  11
  -5  -3   1 231.505 233.042   9
  -8   3   1 223.478 236.795   9
   5  -8   1-159.921 303.432   4
   3   5   1 134.120 209.637   2
  -3   8   1-67.6752 152.110   2
  -5  -3   4 267348. 8100.44  12
   5  -8   4 282058. 7792.39  12
   8  -5   4 290082. 7617.17  11
   3   5   4 270640. 7187.13   2
   5  -8   4 255375. 8484.85   4
  -5  -3   4 281323. 7928.14   9
  -8   3   4 284177. 7946.05   9
   8  -5   4 275147. 7379.29   4
  -3   8   4 290358. 7205.86   2
   5  -8   7-294.324 254.984  12
   8  -5   7 236.250 220.187  11
   5  -8   7-402.853 335.300   4
   8  -5   7 369.639 276.534   4
   3   5   7 215.866 146.565   2
  -5  -3   7 318.419 238.532   1
  -8   3   7 146.170 259.069   1
  -3   8   7 256.032 213.523   2
  -4  -4  -9-16.3425 250.432  12
   4  -8  -9-111.822 202.831  12
  -8   4  -9 41.1327 141.275  10
   4  -8  -9 333.015 257.740   4
  -4  -4  -9 90.5727 153.105   9
  -4   8  -9 40.9183 233.228   7
  -4  -4  -6 272933. 7852.63  12
   4  -8  -6 259905. 7033.09  12
   8  -4  -6 233505. 6554.45  11
   4   4  -6 258570. 7178.55   2
   4  -8  -6 254763. 7127.00   4
  -8   4  -6 200679. 6623.61  10
  -4  -4  -6 202282. 6237.58   9
  -8   4  -6 211763. 6585.35   9
  -4   8  -6 225304. 6306.10   2
  -4   8  -6 241039. 6305.65   7
   4   4  -6 239806. 6728.89   6
   4   4  -6 243227. 6773.77  14
   8  -4  -6 246879. 6542.09   3
  -4  -4  -3-288.565 332.091  12
   4  -8  -3 67.6883 224.800  12
   8  -4  -3 222.089 214.596   3
   8  -4  -3 187.878 237.862  11
  -8   4  -3 308.249 270.044  10
  -4  -4  -3-104.844 221.897   9
  -8   4  -3-578.655 353.641   9
   4  -8  -3-265.693 330.380   4
  -4   8  -3-63.7837 154.547   7
   4   4  -3 227.789 261.068   2
   4   4  -3 58.2508 240.787  14
   4   4  -3 83.5810 177.515   5
  -4   8  -3-19.6185 161.540   2
  -4  -4   0 247894. 7819.23  12
   4  -8   0 230202. 6693.26  12
   8  -4   0 240740. 6483.61  11
   4   4   0 224068. 6443.37   2
   4  -8   0 212976. 7555.06   4
  -4  -4   0 190878. 6141.80   9
  -8   4   0 194918. 6447.31   9
  -4   8   0 238302. 6042.52   2
   8  -4   0 219547. 6244.38   5
   4   4   0 230073. 6213.40   5
  -4  -4   3-347.562 314.854  12
   8  -4   3 371.197 251.609   5
   4   4   3 248.064 223.332   5
   4  -8   3 375.659 291.210  12
   8  -4   3 223.165 255.067  11
  -4  -4   3 195.619 247.893   9
  -8   4   3-64.2710 246.757   9
   4  -8   3-192.035 286.092   4
   8  -4   3-77.4101 140.166   4
  -8   4   3-503.719 362.645   1
   4   4   3 11.0270 190.032   2
  -4   8   3 177.533 170.580   2
  -4  -4   6 241690. 7418.35  12
   4  -8   6 230443. 6610.51  12
   8  -4   6 251732. 7019.68  11
   4   4   6 220618. 6307.02  11
  -8   4   6 242758. 7558.91   1
   4  -8   6 215806. 7701.95   4
  -4  -4   6 210066. 6640.05   9
  -8   4   6 257765. 6991.53   9
   8  -4   6 234957. 6600.06   4
  -4   8   6 247595. 6397.13   2
   8  -4   6 232150. 6560.91   5
   4   4   6 251695. 6420.89   5
  -4  -4   6 244739. 6887.61   1
   4   4   9 311.521 177.525   5
   4  -8   9 260.578 183.150  12
   8  -4   9-250.268 256.773  11
   4   4   9 362.196 206.548  11
  -4  -4   9 40.9163 228.531   1
  -8   4   9 197.954 221.976   1
  -3  -5  -7 1052.88 391.480  12
   3  -8  -7 370.898 223.559  12
   8  -3  -7 88.8159 208.610   3
   8  -3  -7 380.528 280.689  11
  -8   5  -7 77.8858 180.962  10
   3  -8  -7 291.146 254.039   4
  -5   8  -7 136.377 196.618   7
   5   3  -7 579.264 289.187   6
   5   3  -7-36.0152 154.542  14
   8  -3  -4 295463. 7769.34   3
  -3  -5  -4 323019. 8417.37  12
   3  -8  -4 296200. 7789.07  12
   8  -3  -4 292205. 7818.53  11
  -3  -5  -4 288727. 8065.54   4
   3  -8  -4 279538. 8407.70   4
  -8   5  -4 247754. 8002.98  10
  -5   8  -4 290778. 7312.79   2
  -5   8  -4 285724. 7361.80   7
   5   3  -4 304816. 8163.56  14
   5   3  -4 269009. 7708.15   5
   8  -3  -1-58.5249 195.166   5
   5   3  -1 438.232 288.854   5
  -3  -5  -1 245.090 312.057  12
   3  -8  -1 273.770 219.719  12
  -8   5  -1 191.097 301.537  10
  -3  -5  -1 722.008 326.660   4
   3  -8  -1 536.729 413.592   4
  -5   8  -1 50.5499 157.268   7
   5   3  -1-200.279 216.578   2
  -5   8  -1 225.776 215.746   2
  -3  -5   2 191757. 6309.85  12
   3  -8   2 176969. 5441.67  12
  -8   5   2 150961. 5700.93   1
   8  -3   2 199898. 5862.44  11
   5   3   2 183198. 5674.16  11
   5   3   2 178181. 5498.48   2
   3  -8   2 166877. 6566.01   4
  -5   8   2 182468. 5100.88   2
   8  -3   2 174907. 5713.98   5
   5   3   2 184727. 5598.62   5
  -5   8   5 535.009 232.832   2
  -3  -5   5 690.891 373.490  12
   8  -3   5 12.2210 160.554   5
   5   3   5 124.134 200.406   5
   3  -8   5 174.086 231.557  12
   8  -3   5 342.412 267.418  11
   5   3   5 109.495 227.480  11
   3  -8   5-292.117 387.525   4
  -8   5   5-583.776 366.874   1
  -3  -5   5 275.996 255.490   1
  -3  -5   8 224026. 7162.59  12
   3  -8   8 209653. 6250.04  12
  -3  -5   8 243321. 7235.70   1
   8  -3   8 243495. 7042.93  11
  -8   5   8 259893. 7707.82   1
   5   3   8 230774. 6500.70  11
   3  -8   8 225154. 7728.16   4
   8  -3   8 222933. 6713.27   5
   5   3   8 253677. 6537.49   5
  -2  -6  -5 459.282 276.058  12
   2  -8  -5 499.924 255.369  12
   8  -2  -5 362.835 259.066   3
   8  -2  -5 74.5930 211.288  11
  -8   6  -5 390.939 283.070  10
  -2  -6  -5 169.969 230.364   4
   2  -8  -5 411.279 362.727   4
  -6   8  -5 330.615 219.580   7
   6   2  -5 1863.40 496.483   6
   6   2  -5 2306.55 530.972  14
  -2  -6  -2 211034. 6139.41  12
   2  -8  -2 196173. 5738.70  12
   8  -2  -2 205777. 6147.49  11
  -2  -6  -2 195331. 5934.67   4
   2  -8  -2 191524. 6363.35   4
  -8   6  -2 189284. 6267.28  10
  -6   8  -2 202215. 5434.35   2
   8  -2  -2 205286. 6417.18   5
   6   2  -2 191698. 6339.06   5
  -6   8   1 593.512 241.289   2
   8  -2   1 115.339 244.445   5
   6   2   1 772.153 403.887   5
  -2  -6   1 985.496 351.015  12
   2  -8   1 543.995 270.126  12
   8  -2   1 395.158 351.811  11
   6   2   1 645.452 357.891  11
  -8   6   1 181.549 271.806  10
  -6   8   1 455.083 240.135  10
  -2  -6   1 370.998 239.265   4
   2  -8   1 439.400 328.971   4
  -2  -6   4 252772. 7391.17  12
   2  -8   4 228840. 6576.63  12
  -8   6   4 227393. 7324.63   1
   8  -2   4 256076. 7342.79  11
   6   2   4 232944. 7015.71  11
  -2  -6   4 245248. 6761.30   1
   2  -8   4 221072. 7642.67   4
  -6   8   4 249773. 6657.19   2
   8  -2   4 233463. 7329.15   5
   6   2   4 268115. 7326.15   5
  -2  -6   7 615.222 315.173  12
   2  -8   7 412.319 260.772  12
   6   2   7-44.7135 196.277  11
   2  -8   7 487.582 376.126   4
  -2  -6   7 125.462 241.258   1
   7   1   0 207639. 6718.38  11
  -1  -7   0 186836. 5812.92   4
  -7   8   0 205283. 5856.15  10
  -7   8   3 592.355 231.702   2
  -7   8   3 536.684 266.402  10
   0   0   0    0.00    0.00   0
TITL paper_1820_red_abscor in R3c
REM R3c (#161 in standard setting)
CELL 0.71073   5.147298   5.147298  13.797816  90.0000  90.0000 120.0000
ZERR    6.00   0.000145   0.000145   0.000447   0.0000   0.0000   0.0000
LATT -3
SYMM -y, x-y, z
SYMM -x+y,-x, z
SYMM -y,-x, z+1/2
SYMM -x+y, y, z+1/2
SYMM  x, x-y, z+1/2
SFAC Li O Nb Ta
UNIT 6.00 18.00 2.40 3.60
TREF
HKLF 4
END
;
_shelx_hkl_checksum              43138
_shelx_res_file
;
    paper_1820_red_abscor.res created by SHELXL-2014/7
TITL paper_1820_red_abscor in R3c
REM R3c (#161 in standard setting)
CELL 0.71073 5.147 5.147 13.798 90 90 120
ZERR 6 0.001 0.001 0.005 0 0 0
LATT -3
SYMM -Y,+X-Y,+Z
SYMM +Y-X,-X,+Z
SYMM -Y,-X,0.5+Z
SYMM +Y-X,+Y,0.5+Z
SYMM +X,+X-Y,0.5+Z
SFAC Li O Nb Ta
UNIT 6 18 2.4 3.6
EADP Ta Nb
EXYZ Ta Nb
L.S. 10
PLAN  25
LIST 3
fmap 2
acta
MERG 2
TWIN -1 0 0 0 -1 0 0 0 -1 2
REM <olex2.extras>
REM <HklSrc "%.\\paper_1820_red_abscor.hkl">
REM </olex2.extras>
WGHT    0.022500
EXTI    0.027749
BASF   0.28835
FVAR       4.14609
TA    4    0.000000    0.000000    0.001794    10.20000    0.00367    0.00367 =
         0.00351    0.00000    0.00000    0.00184
NB    3    0.000000    0.000000    0.001794    10.13333    0.00367    0.00367 =
         0.00351    0.00000    0.00000    0.00184
O     2    0.049148    0.343133    0.069467    11.00000    0.00713    0.00655 =
         0.00759   -0.00162   -0.00141    0.00343
LI    1    0.000000    0.000000    0.282746    10.33333    0.01388    0.01388 =
         0.01831    0.00000    0.00000    0.00694
HKLF 4
REM  paper_1820_red_abscor in R3c
REM R1 =  0.0144 for     365 Fo > 4sig(Fo)  and  0.0145 for all     372 data
REM     18 parameters refined using      1 restraints
END
WGHT      0.0225      0.0000
REM Highest difference peak  2.170,  deepest hole -0.790,  1-sigma level  0.318
Q1    1   0.0711 -0.0561  0.0285  11.00000  0.05    2.17
Q2    1  -0.0600 -0.1275 -0.0257  11.00000  0.05    2.17
Q3    1  -0.1864 -0.0874 -0.0361  11.00000  0.05    0.74
Q4    1  -0.0928 -0.1852  0.0392  11.00000  0.05    0.73
Q5    1   0.1587  0.4403  0.1133  11.00000  0.05    0.66
Q6    1   0.1328  0.2764  0.0577  11.00000  0.05    0.60
Q7    1   0.0945  0.2594  0.0096  11.00000  0.05    0.50
Q8    1   0.2600  0.1029 -0.0034  11.00000  0.05    0.48
Q9    1   0.1414  0.2738  0.1066  11.00000  0.05    0.43
Q10   1   0.1883  0.4025  0.0630  11.00000  0.05    0.41
Q11   1   0.0000  0.0000  0.3364  10.33333  0.05    0.21
Q12   1   0.0000  0.0000  0.1680  10.33333  0.05    0.21
Q13   1   0.0295  0.4179  0.1373  11.00000  0.05    0.19
Q14   1   0.2955  0.2471  0.0310  11.00000  0.05    0.18
Q15   1  -0.0565  0.3807  0.0585  11.00000  0.05    0.12
Q16   1   0.0042  0.5361  0.0024  11.00000  0.05    0.12
Q17   1  -0.1397  0.2739  0.1122  11.00000  0.05    0.11
Q18   1   0.0874  0.0449  0.2510  11.00000  0.05    0.08
Q19   1   0.0522  0.5234  0.0438  11.00000  0.05    0.08
Q20   1  -0.1297  0.1311  0.1290  11.00000  0.05    0.07
Q21   1  -0.0843  0.3317 -0.0337  11.00000  0.05    0.06
Q22   1  -0.0001  0.2524  0.1329  11.00000  0.05    0.04
Q23   1  -0.0233  0.2123  0.2297  11.00000  0.05    0.03
Q24   1   0.0463  0.2704  0.2773  11.00000  0.05    0.03
Q25   1  -0.1851  0.2754  0.0708  11.00000  0.05    0.02
;
_shelx_res_checksum              42940
loop_
_space_group_symop_operation_xyz
'x, y, z'
'-y, x-y, z'
'-x+y, -x, z'
'-y, -x, z+1/2'
'-x+y, y, z+1/2'
'x, x-y, z+1/2'
'x+2/3, y+1/3, z+1/3'
'-y+2/3, x-y+1/3, z+1/3'
'-x+y+2/3, -x+1/3, z+1/3'
'-y+2/3, -x+1/3, z+5/6'
'-x+y+2/3, y+1/3, z+5/6'
'x+2/3, x-y+1/3, z+5/6'
'x+1/3, y+2/3, z+2/3'
'-y+1/3, x-y+2/3, z+2/3'
'-x+y+1/3, -x+2/3, z+2/3'
'-y+1/3, -x+2/3, z+7/6'
'-x+y+1/3, y+2/3, z+7/6'
'x+1/3, x-y+2/3, z+7/6'
loop_
_atom_site_type_symbol
_atom_site_label
_atom_site_fract_x
_atom_site_fract_y
_atom_site_fract_z
_atom_site_U_iso_or_equiv
_atom_site_adp_type
_atom_site_calc_flag
_atom_site_occupancy
Ta Ta 0.0000 0.0000 0.0018(4) 0.00362(13) Uani d 0.6
Nb Nb 0.0000 0.0000 0.0018(4) 0.00362(13) Uani d 0.4
O O 0.0491(3) 0.3431(4) 0.0695(4) 0.0071(3) Uani d 1
Li Li 0.0000 0.0000 0.283(2) 0.015(4) Uani d 1
loop_
_atom_site_aniso_label
_atom_site_aniso_U_11
_atom_site_aniso_U_22
_atom_site_aniso_U_33
_atom_site_aniso_U_12
_atom_site_aniso_U_13
_atom_site_aniso_U_23
Ta 0.00367(15) 0.00367(15) 0.00351(16) 0.00184(7) 0.000 0.000
Nb 0.00367(15) 0.00367(15) 0.00351(16) 0.00184(7) 0.000 0.000
O 0.0071(8) 0.0065(5) 0.0076(4) 0.0034(8) -0.0014(7) -0.0016(3)
Li 0.014(6) 0.014(6) 0.018(9) 0.007(3) 0.000 0.000
loop_
_atom_type_symbol
_atom_type_description
_atom_type_scat_dispersion_real
_atom_type_scat_dispersion_imag
_atom_type_scat_source
Li Li -0.0003 0.0001 'International Tables Vol C Tables 4.2.6.8 and 6.1.1.4'
O O 0.0106 0.0060 'International Tables Vol C Tables 4.2.6.8 and 6.1.1.4'
Nb Nb -2.0727 0.6215 'International Tables Vol C Tables 4.2.6.8 and 6.1.1.4'
Ta Ta -0.7052 6.5227 'International Tables Vol C Tables 4.2.6.8 and 6.1.1.4'
loop_
_exptl_crystal_face_index_h
_exptl_crystal_face_index_k
_exptl_crystal_face_index_l
_exptl_crystal_face_perp_dist
5 0 -12 0.0660
0 -5 -10 0.0623
-5 0 12 0.0807
-5 5 -9 0.1037
1 5 9 0.0607
5 -5 10 0.0992
-1 6 9 0.0673
6 -2 -12 0.0706
-3 7 8 0.0712
-3 4 17 0.1048
-7 3 5 0.1000
-4 0 15 0.1010
-6 0 6 0.0968
-4 6 -5 0.0986
1 -6 -11 0.0607
-5 6 -8 0.0987
0 -5 -12 0.0685
loop_
_geom_angle_atom_site_label_1
_geom_angle_atom_site_label_2
_geom_angle_atom_site_label_3
_geom_angle_site_symmetry_1
_geom_angle_site_symmetry_3
_geom_angle
_geom_angle_publ_flag
O Ta O . 3 97.90(18) n
O Ta O 11_444 10_554 81.70(17) n
O Ta O 11_444 12_454 81.70(17) n
O Ta O 2 10_554 168.4(3) n
O Ta O 3 12_454 168.4(3) n
O Ta O 2 12_454 88.93(4) n
O Ta O . 11_444 168.4(3) n
O Ta O . 2 97.91(18) n
O Ta O 3 11_444 88.93(4) n
O Ta O . 12_454 90.31(5) n
O Ta O 2 11_444 90.31(5) n
O Ta O 3 2 97.90(18) n
O Ta O . 10_554 88.93(4) n
O Ta O 3 10_554 90.31(5) n
O Ta O 10_554 12_454 81.70(17) n
O Ta Li 10_554 13_554 41.8(4) n
O Ta Li 2 13_444 48.2(5) n
O Ta Li 3 13_554 103.2(3) n
O Ta Li 3 13_544 48.2(5) n
O Ta Li 12_454 13_444 41.8(4) n
O Ta Li 11_444 13_544 41.8(4) n
O Ta Li . 10_444 118.7(5) n
O Ta Li 11_444 4_554 49.05(11) n
O Ta Li 11_444 13_444 76.3(4) n
O Ta Li 10_554 4_554 49.05(11) n
O Ta Li 2 10_554 118.7(5) n
O Ta Li 12_454 4_554 49.05(11) n
O Ta Li 10_554 10_554 72.3(5) n
O Ta Li . 13_444 103.2(3) n
O Ta Li 3 13_444 141.9(3) n
O Ta Li . 4_554 119.44(14) n
O Ta Li 11_444 13_554 121.2(6) n
O Ta Li 3 4_554 119.44(14) n
O Ta Li 2 10_444 32.88(11) n
O Ta Li 12_454 13_544 121.2(6) n
O Ta Li . 13_554 48.2(5) n
O Ta Li 3 10_554 32.88(11) n
O Ta Li 12_454 13_554 76.3(4) n
O Ta Li 11_444 10_554 112.4(3) n
O Ta Li 10_554 13_444 121.2(6) n
O Ta Li 12_454 10_554 147.6(3) n
O Ta Li 2 13_544 103.2(3) n
O Ta Li 3 10_444 70.6(2) n
O Ta Li 2 13_554 141.9(3) n
O Ta Li 11_444 10_444 72.3(5) n
O Ta Li 10_554 13_544 76.3(4) n
O Ta Li 12_454 10_444 112.4(3) n
O Ta Li 10_554 10_444 147.6(3) n
O Ta Li . 13_544 141.9(3) n
O Ta Li . 10_554 70.6(2) n
O Ta Li 2 4_554 119.44(14) n
Li Ta Li 4_554 10_554 118.0(5) n
Li Ta Li 4_554 10_444 118.0(5) n
Li Ta Li 13_444 13_554 114.6(4) n
Li Ta Li 4_554 13_544 76.3(6) n
Li Ta Li 4_554 13_554 76.3(6) n
Li Ta Li 13_544 10_444 71.44(12) n
Li Ta Li 13_544 10_554 71.44(12) n
Li Ta Li 13_444 10_554 165.7(11) n
Li Ta Li 13_554 10_444 165.7(11) n
Li Ta Li 13_444 13_544 114.6(4) n
Li Ta Li 10_554 10_444 99.8(6) n
Li Ta Li 13_554 10_554 71.44(12) n
Li Ta Li 13_444 10_444 71.44(12) n
Li Ta Li 4_554 13_444 76.3(6) n
Li Ta Li 13_554 13_544 114.6(4) n
Ta O Ta . 16_554 141.18(9) n
Ta O Nb 16_554 16_554 0.0(2) n
Ta O Nb . 16_554 141.2 n
Ta O Li . 10_454 116.9(4) n
Ta O Li . 13_554 93.5(5) n
Ta O Li 16_554 13_554 87.4(6) n
Nb O Li 16_554 13_554 87.4(6) n
Li O Ta 10_454 16_554 95.5(6) n
Li O Nb 10_454 16_554 95.5(6) n
Li O Li 10_454 13_554 120.2(6) n
Ta Li Ta 7 7_445 114.6(4) n
Ta Li Ta 4 7 76.3(6) n
Ta Li Ta 4 7_445 76.3(6) n
Ta Li Nb 7 7_445 114.6(4) n
Ta Li Nb 4 7 76.3(6) n
Ta Li Nb 7 7 0.00(19) n
Ta Li Nb 4 7_445 76.3(6) n
Ta Li Nb 7_445 7_445 0.0 n
Ta Li Nb 4 4 0.0 n
Nb Li Ta 4 7 76.3 n
Nb Li Ta 7 7_445 114.6 n
Nb Li Ta 4 7_445 76.3 n
Nb Li Nb 7 7_445 114.6(4) n
Nb Li Nb 4 7 76.3(6) n
Nb Li Nb 4 7_445 76.3(6) n
O Li Ta 8 7 38.32(13) n
O Li Ta 7_445 7 111.6(10) n
O Li Ta 17_444 4 108.3(9) n
O Li Ta 9_455 7_445 111.6(10) n
O Li Ta 9_455 4 43.5(6) n
O Li Ta 8 7_445 84.4(6) n
O Li Ta 17_444 7 149.6(2) n
O Li Ta 7_445 4 43.5(6) n
O Li Ta 16_544 4 108.3(9) n
O Li Ta 18_554 7 42.7(2) n
O Li Ta 8 4 43.5(6) n
O Li Ta 18_554 4 108.3(9) n
O Li Ta 17_444 7_445 95.45(6) n
O Li Ta 7_445 7_445 38.32(13) n
O Li Ta 16_544 7_445 42.7(2) n
O Li Ta 9_455 7 84.4(6) n
O Li Ta 16_544 7 95.45(5) n
O Li Ta 18_554 7_445 149.6(2) n
O Li Nb 17_444 7 149.6(2) n
O Li Nb 18_554 4 108.3(9) n
O Li Nb 16_544 7_445 42.7(2) n
O Li Nb 9_455 7_445 111.6(10) n
O Li Nb 17_444 7_445 95.45(6) n
O Li Nb 18_554 7_445 149.6(2) n
O Li Nb 7_445 7_445 38.32(13) n
O Li Nb 18_554 7 42.7(2) n
O Li Nb 7_445 7 111.6(10) n
O Li Nb 9_455 4 43.5(6) n
O Li Nb 9_455 7 84.4(6) n
O Li Nb 16_544 7 95.45(5) n
O Li Nb 17_444 4 108.3(9) n
O Li Nb 8 7_445 84.4(6) n
O Li Nb 16_544 4 108.3(9) n
O Li Nb 8 7 38.32(13) n
O Li Nb 7_445 4 43.5(6) n
O Li Nb 8 4 43.5(6) n
O Li O 7_445 9_455 73.2(9) n
O Li O 18_554 9_455 88.8(4) n
O Li O 17_444 9_455 80.1(4) n
O Li O 16_544 9_455 151.1(14) n
O Li O 16_544 7_445 80.1(4) n
O Li O 8 7_445 73.2(9) n
O Li O 16_544 8 88.8(4) n
O Li O 17_444 18_554 110.6(8) n
O Li O 18_554 16_544 110.6(8) n
O Li O 18_554 7_445 151.1(14) n
O Li O 17_444 8 151.1(14) n
O Li O 17_444 16_544 110.6(8) n
O Li O 18_554 8 80.1(4) n
O Li O 8 9_455 73.2(9) n
O Li O 17_444 7_445 88.8(4) n
loop_
_geom_bond_atom_site_label_1
_geom_bond_atom_site_label_2
_geom_bond_site_symmetry_2
_geom_bond_distance
_geom_bond_publ_flag
Ta O . 1.900(3) n
Ta O 2 1.900(3) n
Ta O 3 1.900(3) n
Ta O 10_554 2.084(4) n
Ta O 11_444 2.084(4) n
Ta O 12_454 2.084(4) n
Ta Li 10_554 3.364(15) n
Ta Li 13_554 3.058(8) n
Ta Li 10_444 3.364(15) n
Ta Li 13_544 3.058(8) n
Ta Li 13_444 3.058(8) n
Ta Li 4_554 3.02(3) n
O Ta 16_554 2.084(4) n
O Nb 16_554 2.084(4) n
O Li 13_554 2.28(2) n
O Li 10_454 2.048(10) n
Li Ta 4 3.02(3) n
Li Ta 7_445 3.058(8) n
Li Ta 7 3.058(8) n
Li Nb 7 3.058(8) n
Li Nb 7_445 3.058(8) n
Li Nb 4 3.02(3) n
Li O 16_544 2.048(10) n
Li O 8 2.28(2) n
Li O 17_444 2.048(10) n
Li O 18_554 2.048(10) n
Li O 7_445 2.28(2) n
Li O 9_455 2.28(2) n
