#------------------------------------------------------------------------------
#$Date: 2019-12-26 21:24:38 +0200 (Thu, 26 Dec 2019) $
#$Revision: 246104 $
#$URL: file:///home/coder/svn-repositories/cod/cif/2/31/17/2311780.cif $
#------------------------------------------------------------------------------
#
# This file is available in the Crystallography Open Database (COD),
# http://www.crystallography.net/. The original data for this entry
# were provided by IUCr Journals, http://journals.iucr.org/.
#
# The file may be used within the scientific community so long as
# proper attribution is given to the journal article from which the
# data were obtained.
#
data_2311780
loop_
_publ_author_name
'Fulle, Kyle'
'Sanjeewa, Liurukara D.'
'McMillen, Colin D.'
'Kolis, Joseph W.'
_publ_section_title
;
 Crystal chemistry and the role of ionic radius in rare earth
 tetrasilicates:
 Ba<sub>2</sub>RE<sub>2</sub>Si<sub>4</sub>O<sub>12</sub>F<sub>2</sub> (RE
 = Er<sup>3+</sup>-Lu<sup>3+</sup>) and
 Ba<sub>2</sub>RE<sub>2</sub>Si<sub>4</sub>O<sub>13</sub> (RE =
 La<sup>3+</sup>-Ho<sup>3+</sup>).
;
_journal_issue                   'Pt 5'
_journal_name_full
'Acta crystallographica Section B, Structural science, crystal engineering and materials'
_journal_page_first              907
_journal_page_last               915
_journal_paper_doi               10.1107/S2052520617009544
_journal_volume                  73
_journal_year                    2017
_chemical_formula_sum            'Ba2 Eu2 O13 Si4'
_chemical_formula_weight         898.96
_space_group_crystal_system      monoclinic
_space_group_IT_number           15
_space_group_name_Hall           '-C 2yc'
_space_group_name_H-M_alt        'C 1 2/c 1'
_atom_sites_solution_primary     direct
_atom_sites_solution_secondary   difmap
_audit_creation_method           SHELXL-2014/7
_cell_angle_alpha                90
_cell_angle_beta                 104.23(2)
_cell_angle_gamma                90
_cell_formula_units_Z            4
_cell_length_a                   12.9545(13)
_cell_length_b                   5.2311(8)
_cell_length_c                   17.595(5)
_cell_measurement_reflns_used    2928
_cell_measurement_temperature    298(2)
_cell_measurement_theta_max      26.7299
_cell_measurement_theta_min      2.3885
_cell_volume                     1155.8(4)
_computing_cell_refinement       'CrystalClear (Rigaku/MSC, 2008)'
_computing_data_collection       'CrystalClear (Rigaku/MSC, 2008)'
_computing_data_reduction        'CrystalClear (Rigaku/MSC, 2008)'
_computing_molecular_graphics    'DIAMOND (Bradenburg, 1999)'
_computing_publication_material  'SHELXL-2014/7 (Sheldrick, 2014)'
_computing_structure_refinement  'SHELXL-2014/7 (Sheldrick, 2014)'
_computing_structure_solution    'SHELXL-2014/7 (Sheldrick, 2014)'
_diffrn_ambient_temperature      298(2)
_diffrn_detector_area_resol_mean 14.6199
_diffrn_measured_fraction_theta_full 0.999
_diffrn_measured_fraction_theta_max 0.995
_diffrn_measurement_device_type  'Rigaku AFC8S'
_diffrn_measurement_method       '\w scans'
_diffrn_radiation_type           MoK\a
_diffrn_radiation_wavelength     0.71073
_diffrn_reflns_av_R_equivalents  0.0797
_diffrn_reflns_av_unetI/netI     0.0482
_diffrn_reflns_Laue_measured_fraction_full 0.999
_diffrn_reflns_Laue_measured_fraction_max 0.995
_diffrn_reflns_limit_h_max       16
_diffrn_reflns_limit_h_min       -16
_diffrn_reflns_limit_k_max       5
_diffrn_reflns_limit_k_min       -6
_diffrn_reflns_limit_l_max       22
_diffrn_reflns_limit_l_min       -22
_diffrn_reflns_number            4857
_diffrn_reflns_point_group_measured_fraction_full 0.999
_diffrn_reflns_point_group_measured_fraction_max 0.995
_diffrn_reflns_theta_full        25.242
_diffrn_reflns_theta_max         26.489
_diffrn_reflns_theta_min         2.388
_diffrn_source                   'fine-focus sealed tube'
_exptl_absorpt_coefficient_mu    17.915
_exptl_absorpt_correction_T_max  1.0000
_exptl_absorpt_correction_T_min  0.3821
_exptl_absorpt_correction_type   multi-scan
_exptl_absorpt_process_details   'REQAB, CrystalClear'
_exptl_crystal_colour            colourless
_exptl_crystal_density_diffrn    5.166
_exptl_crystal_description       block
_exptl_crystal_F_000             1592
_exptl_crystal_size_max          0.180
_exptl_crystal_size_mid          0.160
_exptl_crystal_size_min          0.130
_refine_diff_density_max         2.824
_refine_diff_density_min         -3.042
_refine_diff_density_rms         0.484
_refine_ls_extinction_coef       0.00065(12)
_refine_ls_extinction_expression Fc^*^=kFc[1+0.001xFc^2^\l^3^/sin(2\q)]^-1/4^
_refine_ls_extinction_method     'SHELXL-2014/7 (Sheldrick 2014'
_refine_ls_goodness_of_fit_ref   1.111
_refine_ls_hydrogen_treatment    undef
_refine_ls_matrix_type           full
_refine_ls_number_parameters     97
_refine_ls_number_reflns         1196
_refine_ls_number_restraints     0
_refine_ls_restrained_S_all      1.111
_refine_ls_R_factor_all          0.0485
_refine_ls_R_factor_gt           0.0435
_refine_ls_shift/su_max          0.000
_refine_ls_shift/su_mean         0.000
_refine_ls_structure_factor_coef Fsqd
_refine_ls_weighting_details
'w=1/[\s^2^(Fo^2^)+(0.0790P)^2^+31.2028P] where P=(Fo^2^+2Fc^2^)/3'
_refine_ls_weighting_scheme      calc
_refine_ls_wR_factor_gt          0.1149
_refine_ls_wR_factor_ref         0.1191
_reflns_Friedel_coverage         0.000
_reflns_number_gt                1095
_reflns_number_total             1196
_reflns_threshold_expression     'I > 2\s(I)'
_cod_data_source_file            rm5005sup1.cif
_cod_data_source_block           Eu
_cod_original_cell_volume        1155.7(4)
_cod_original_sg_symbol_H-M      'C 2/c'
_cod_database_code               2311780
_shelx_shelxl_version_number     2014/7
_shelx_space_group_comment
;
The symmetry employed for this shelxl refinement is uniquely defined
by the following loop, which should always be used as a source of
symmetry information in preference to the above space-group names.
They are only intended as comments.
;
_shelx_estimated_absorpt_t_min   0.141
_shelx_estimated_absorpt_t_max   0.204
_shelx_res_file
;

    c2c.res created by SHELXL-2014/7


TITL c2c in C2/c
CELL 0.71073  12.9545   5.2311  17.5949  90.000 104.235  90.000
ZERR    4.00   0.0013   0.0008   0.0045   0.000   0.023   0.000
LATT  7
SYMM -X, Y, 0.5-Z
SFAC O SI BA EU
UNIT 52 16 8 8

L.S. 20
BOND
FMAP 2
PLAN 20
acta
omit -3 53
size 0.18 0.16 0.13
WGHT    0.060200   31.437799
EXTI    0.000649
FVAR       0.12337
EU1   4    0.885466    0.008680    0.415309    11.00000    0.01099    0.01105 =
         0.00860    0.00017    0.00398   -0.00005
BA1   3    0.662198    0.495207    0.332811    11.00000    0.01367    0.01219 =
         0.01098   -0.00098    0.00429   -0.00158
SI1   2    0.881527   -0.467131    0.544243    11.00000    0.01145    0.01092 =
         0.00851    0.00070    0.00342   -0.00022
SI2   2    1.062507   -0.543090    0.684453    11.00000    0.01186    0.01156 =
         0.00946    0.00084    0.00542    0.00017
O1    1    0.982304   -0.641728    0.600122    11.00000    0.01629    0.01139 =
         0.01641   -0.00207    0.00402   -0.00109
O2    1    0.794849   -0.460986    0.596664    11.00000    0.01153    0.01948 =
         0.01306    0.00181    0.00572    0.00197
O3    1    0.929079   -0.174908    0.538680    11.00000    0.01742    0.00974 =
         0.00683    0.00021    0.00212   -0.00120
O4    1    0.843136   -0.598004    0.460163    11.00000    0.01941    0.01466 =
         0.01408   -0.00430    0.00710    0.00219
O5    1    0.500000    0.144331    0.250000    10.50000    0.01768    0.01324 =
         0.00596    0.00000    0.00563    0.00000
O6    1    0.919203    0.243181    0.310688    11.00000    0.02488    0.01597 =
         0.01864   -0.00317    0.00799   -0.00475
O7    1    0.835418   -0.276561    0.306186    11.00000    0.01474    0.01711 =
         0.01039    0.00178    0.00285    0.00148

HKLF 4

REM  c2c in C2/c
REM R1 =  0.0435 for    1095 Fo > 4sig(Fo)  and  0.0485 for all    1196 data
REM     97 parameters refined using      0 restraints

END

WGHT      0.0598     31.7685

REM Highest difference peak  2.824,  deepest hole -3.042,  1-sigma level  0.484
Q1    1   0.9551  0.0184  0.4415  11.00000  0.05    2.82
Q2    1   0.7351  0.5023  0.3541  11.00000  0.05    2.45
Q3    1   0.5986  0.4950  0.3066  11.00000  0.05    2.32
Q4    1   0.8147  0.0015  0.3894  11.00000  0.05    1.92
Q5    1   0.9033  0.0134  0.4983  11.00000  0.05    1.50
Q6    1   0.8081  0.0777  0.4102  11.00000  0.05    1.48
Q7    1   0.5641  0.0061  0.2602  11.00000  0.05    1.33
Q8    1   1.0000  0.0000  0.5000  10.50000  0.05    1.24
Q9    1   0.7188  0.5076  0.4029  11.00000  0.05    1.18
Q10   1   0.9612 -0.1299  0.4118  11.00000  0.05    1.17
Q11   1   0.8836 -0.5000  0.4807  11.00000  0.05    1.16
Q12   1   0.7598 -0.4954  0.6491  11.00000  0.05    1.12
Q13   1   0.8608 -0.4997  0.6712  11.00000  0.05    1.12
Q14   1   0.8271 -0.4237  0.6611  11.00000  0.05    1.07
Q15   1   0.7854 -0.5451  0.4186  11.00000  0.05    1.05
Q16   1   0.4563  0.4284  0.2575  11.00000  0.05    1.01
Q17   1   0.8211 -0.4908  0.6108  11.00000  0.05    0.99
Q18   1   0.9591  0.1515  0.4011  11.00000  0.05    0.97
Q19   1   0.9668  0.2513  0.3493  11.00000  0.05    0.97
Q20   1   0.8788 -0.2178  0.5331  11.00000  0.05    0.96
;
_shelx_res_checksum              59443
_shelx_hkl_file
;
   0   0   2   74.97    5.23
   0   0   3   -0.51    1.39
   0   0  -4 2414.73   17.12
   0   0   4 2347.70   17.13
   0   0  -5    3.76    2.10
   0   0  -6   39.99    3.38
   0   0   6   36.20    3.58
   0   0  -8 4205.30   29.66
   0   0   8 4258.64   31.23
   0   0 -10  132.79    5.04
   0   0  10  122.65    5.20
   0   0  10  147.08    5.54
   0   0 -12 3823.80   82.04
   0   0  12 3833.50   83.12
   0   0  12 4337.35   92.80
   0   0 -14  560.92   15.43
   0   0  14  560.99   16.50
   0   0  14  620.82   17.01
   0   0 -16  847.14   20.81
   0   0  16  869.27   21.42
   0   0  17    6.99    2.11
   0   0  17    2.47    1.81
   0   0 -18   95.95    4.76
   0   0  18   96.35    5.59
   0   0  18   93.86    4.86
   0   0  19   10.77    3.18
   0   0 -20  134.40   13.29
   0   0  20  135.85    8.09
   0   0 -21    3.19    1.08
   2   0 -22   48.76   12.77
  -2   0  22   44.73    5.11
  -2   0  22   43.38   10.62
  -2   0  21    4.23    1.90
  -2   0  20 1284.84   48.40
  -2   0  20 1330.22   49.29
  -2   0  19   64.02    5.28
   2   0 -18  127.25   14.51
  -2   0  18  119.33    8.80
  -2   0  18  130.62   14.66
   2   0 -17    1.55    2.75
  -2   0  17    3.54    2.37
   2   0 -16 3819.92   23.09
  -2   0  16 3501.94  120.57
  -2   0  16 3689.20   25.01
  -2   0  15   18.26    3.37
   2   0 -14   68.89    5.47
  -2   0  14   61.06    3.93
  -2   0  14   63.67    3.91
   2   0 -13    0.38    0.72
  -2   0  13   -1.07    1.60
  -2   0  13    0.29    1.56
   2   0 -12   29.82    7.05
  -2   0  12   29.51    2.92
  -2   0  12   22.01    2.62
   2   0 -11    0.72    0.79
  -2   0  11    1.61    1.42
  -2   0  11    1.04    1.38
   2   0 -10   39.35    7.96
  -2   0  10   34.98    4.41
  -2   0  10   41.44    5.03
   2   0  -9    1.60    0.81
  -2   0   9    0.86    1.56
  -2   0   9   -3.55   10.84
  -2   0   8 5557.50   37.07
   2   0  -7   -0.01    0.99
  -2   0   7    1.19    1.36
  -2   0   7   -0.63    1.83
   2   0  -6  493.71    5.93
  -2   0   6  482.96    6.11
  -2   0   6  437.21    6.31
   2   0  -6  422.78    6.20
   2   0  -5    4.18    1.14
  -2   0   5   14.23    2.17
  -2   0   5    3.46    1.31
   2   0  -5   11.66    2.84
  -2   0   3    1.93    0.81
   2   0  -3    2.03    1.34
  -2   0   2  441.43    4.58
   2   0  -2  457.68    4.60
  -2   0   2  431.59    5.20
   2   0  -2  441.85    5.98
  -2   0   1   -0.99    0.74
   2   0  -1    0.70    1.02
  -2   0   1    0.71    0.33
   2   0  -1    2.17    0.47
  -2   0   0   10.73    1.30
   2   0   0   11.48    1.40
  -2   0  -1    5.29    1.24
   2   0   1    5.90    1.40
  -2   0  -2   56.73    4.62
   2   0   2   58.87    4.76
  -2   0  -3   11.01    2.60
   2   0   3   13.63    3.02
  -2   0  -4 1569.20   13.32
   2   0   4 1620.50   14.04
  -2   0  -5    1.47    1.30
   2   0   5    0.05    2.13
  -2   0  -6  608.24    8.05
   2   0   6  607.82    8.66
  -2   0  -7    0.02    1.36
  -2   0  -8 5042.80  118.47
   2   0   8 5069.00  249.20
  -2   0  -9   -0.32    1.38
  -2   0 -10  682.79   16.93
   2   0  10  695.86   17.81
  -2   0 -11   -1.21    1.16
  -2   0 -12  346.82   10.43
   2   0  12  352.82   11.42
  -2   0 -13    2.24    1.99
   2   0  13    0.69    2.14
  -2   0 -14   28.99    2.60
   2   0  14   25.36    3.05
  -2   0 -15    3.15    1.08
   2   0  15    3.75    2.21
  -2   0 -16 1687.60   33.02
   2   0  16 1816.47   34.53
  -2   0 -17    8.57    2.01
   2   0  17    5.22    1.65
  -2   0 -18  356.30   17.22
   2   0  18  315.67   16.39
   2   0  20 1556.20   86.26
   2   0  20 1506.32   82.30
   4   0 -22  905.09   50.27
  -4   0  22  757.23   43.18
  -4   0  22  766.65   43.66
   4   0 -20  384.10   15.72
  -4   0  20  340.30   15.17
  -4   0  20  345.25   19.41
   4   0 -19    0.67    1.64
  -4   0  19    1.64    1.58
  -4   0  19    6.40    2.59
   4   0 -18  529.39   12.71
  -4   0  18  465.52   12.71
  -4   0  18  493.26   14.58
  -4   0  17    6.91    2.22
  -4   0  17   -0.11    0.89
   4   0 -16  218.94   12.49
  -4   0  16  205.08    9.47
   4   0 -15   -1.99    1.50
  -4   0  15    2.48    2.01
   4   0 -14  892.60   22.92
  -4   0  14  798.72   21.20
  -4   0  14  849.19   24.15
   4   0 -13    0.22    0.49
  -4   0  13    2.07    1.59
  -4   0  13   -0.41    2.49
   4   0 -12 1221.56   27.70
  -4   0  12 1116.00   25.93
  -4   0  12 1128.76   29.77
   4   0 -11    1.18    0.55
  -4   0  11    0.39    1.40
  -4   0  11   -0.70    4.64
   4   0 -10 2903.61   68.65
  -4   0  10 2740.97   65.22
  -4   0  10 2482.99   60.76
   4   0 -10 2474.89   59.77
   4   0  -9    1.97    0.73
  -4   0   9    5.15    1.82
  -4   0   9    2.30    1.89
   4   0  -9    1.76    1.53
   4   0  -8 3108.30   73.01
  -4   0   8 3278.24   77.45
  -4   0   8 2683.29   64.72
   4   0  -8 2698.28   64.57
  -4   0   7   -0.75    0.93
  -4   0   7    1.03    1.41
   4   0  -7   -1.48    1.56
  -4   0   6   30.97    3.27
  -4   0   6   23.70    2.17
  -4   0   6   24.74    4.31
   4   0  -6   19.10    2.92
  -4   0   5    2.85    1.20
  -4   0   5   -1.09    1.03
  -4   0   5    1.91    0.83
   4   0  -5    3.23    1.37
  -4   0   4   89.76    2.69
   4   0  -4   97.95    2.99
  -4   0   4   97.77    5.36
   4   0  -4   95.83    4.27
  -4   0   3    2.83    1.65
   4   0  -3    1.78    1.98
  -4   0   3    2.09    0.85
   4   0  -3    2.97    1.07
  -4   0   2  621.63    7.16
   4   0  -2  644.94    7.24
   4   0  -2  603.60    7.31
  -4   0   1    4.55    2.10
   4   0  -1    1.30    1.36
   4   0  -1   -0.24    1.04
  -4   0   0 4953.74   32.46
   4   0   0 5286.04   33.95
  -4   0  -1    3.79    1.72
   4   0   1    3.53    1.51
  -4   0  -2 3192.69   23.38
   4   0   2 3204.12   23.32
  -4   0  -3    2.46    1.34
   4   0   3    1.38    1.57
  -4   0  -4 3098.32   23.94
   4   0   4 3125.88   24.27
  -4   0  -5    1.60    1.46
   4   0   5    0.49    1.44
  -4   0  -6  240.21    7.89
   4   0   6  241.56    8.16
  -4   0  -7    2.85    1.63
   4   0   7    0.57    1.92
  -4   0  -8 1001.69   23.81
   4   0   8 1069.99   25.78
  -4   0  -9    1.15    1.51
   4   0   9   -4.69    4.53
  -4   0 -10 1243.49   30.37
   4   0  10 1311.00   32.63
  -4   0 -11    0.19    1.29
   4   0  11   17.54    3.09
  -4   0 -12 2035.87   49.73
   4   0  12 2090.23   51.76
  -4   0 -13   -0.70    1.41
   4   0  13   -7.80    2.77
  -4   0 -14  600.51   16.30
   4   0  14  591.05   17.33
  -4   0 -15    2.07    1.42
   4   0  15    7.13    2.27
  -4   0 -16  986.96   25.95
   4   0  16  974.93   27.01
  -4   0 -17    0.73    1.36
   4   0  17    3.16    2.14
   4   0  17    1.14    1.11
  -4   0 -18   23.87    3.28
   4   0  18   20.65    3.63
   4   0  18   23.62    2.91
   4   0  19   -1.19    1.72
   6   0 -22   19.28    4.88
  -6   0  22   21.83    3.47
   6   0 -21   -0.48    1.07
  -6   0  21    3.65    2.50
  -6   0  21    0.43    0.88
   6   0 -20  265.30   10.64
  -6   0  20  234.12   10.63
  -6   0  20  230.09   13.84
   6   0 -19    4.57    0.88
  -6   0  19    2.54    1.45
   6   0 -18 1769.37   42.02
  -6   0  18 1535.47   37.96
   6   0 -17   -3.49    7.88
  -6   0  17    1.10    1.50
   6   0 -16 1592.84   36.00
  -6   0  16 1451.47   33.55
  -6   0  16 1441.84   37.29
   6   0 -15   -0.31    1.89
  -6   0  15    0.74    1.17
   6   0 -14 2656.36   62.31
  -6   0  14 2541.72   60.44
  -6   0  14 2455.89   59.96
  -6   0  13    2.13    2.07
  -6   0  13    1.90    2.05
   6   0 -13    2.68    1.98
  -6   0  12  188.02    6.40
  -6   0  12  199.35    6.63
  -6   0  12  172.47   13.52
   6   0 -12  178.75    7.38
  -6   0  11    3.79    1.64
  -6   0  11    3.42    1.64
  -6   0  11    2.34    0.86
   6   0 -11    0.85    1.61
  -6   0  10   20.91    4.29
  -6   0  10    6.53    1.61
  -6   0  10    3.77    1.56
   6   0 -10    4.36    1.82
  -6   0   9   -0.16    0.95
  -6   0   9    0.34    0.97
   6   0  -9   -0.39    1.50
  -6   0   8 2589.88   61.65
  -6   0   8 2266.84   54.01
  -6   0   8 2299.77   55.95
   6   0  -8 2299.71   56.15
  -6   0   7   12.38    4.15
  -6   0   7   -0.97    0.92
  -6   0   7   -0.91    1.32
   6   0  -7    0.09    1.62
  -6   0   6 2963.56   69.91
  -6   0   6 3013.76   71.96
   6   0  -6 3014.50   72.80
  -6   0   4 2777.94   21.23
   6   0  -4 2997.19   22.49
  -6   0   4 2852.13   23.37
   6   0  -4 2771.33   24.42
  -6   0   3    6.44    1.61
   6   0  -3    9.34    2.34
   6   0  -3   20.74    5.36
  -6   0   2 2828.20   22.27
   6   0  -2 2840.30   21.63
   6   0  -2 2655.54   21.50
  -6   0   1    1.99    1.21
   6   0  -1   -0.14    1.17
   6   0  -1    1.86    0.76
  -6   0   0  319.47    6.15
   6   0   0  327.63    6.15
  -6   0  -1    4.05    2.02
   6   0   1    2.59    1.74
  -6   0  -2   16.87    2.65
   6   0   2   17.44    2.74
  -6   0  -3    4.19    2.28
   6   0   3    1.99    1.45
  -6   0  -4  962.93   24.85
   6   0   4 1001.77   25.73
  -6   0  -5   -0.06    1.62
   6   0   5    0.38    1.59
  -6   0  -6  611.39   15.87
   6   0   6  663.81   17.21
  -6   0  -7    2.70    1.96
   6   0   7   -0.12    2.17
  -6   0  -8 1837.74   43.69
   6   0   8 1943.04   46.27
  -6   0  -9    1.42    1.43
   6   0   9   -2.51    5.13
  -6   0 -10 1400.78   35.57
   6   0  10 1457.88   37.44
  -6   0 -11   -0.71    1.31
   6   0  11   -3.88    3.35
  -6   0 -12  265.91    9.37
   6   0  12  282.22   10.50
  -6   0 -13    0.95    1.26
   6   0  13   -0.35    1.64
  -6   0 -14  163.90    7.39
   6   0  14  168.51    8.30
  -6   0 -15    1.32    1.55
   6   0  15    1.42    1.69
  -6   0 -16  318.66   13.41
   6   0  16  300.14   13.88
   6   0  17    0.85    2.34
  -8   0  20   42.31    4.24
  -8   0  20   35.45    9.79
  -8   0  19    1.72    2.11
  -8   0  19    0.54    5.37
  -8   0  19   -2.29    1.81
  -8   0  18  744.75   33.50
  -8   0  18  905.69   40.31
  -8   0  18  824.01   38.54
  -8   0  17    2.03    1.33
  -8   0  17    1.35    1.42
  -8   0  16  148.21    5.60
  -8   0  16  162.29    5.98
  -8   0  16  131.61   18.21
  -8   0  15    0.54    0.99
  -8   0  15    1.87    1.58
  -8   0  15   -0.21    1.78
   8   0 -15    0.58    1.70
  -8   0  14  429.02   16.25
  -8   0  14  434.03   16.59
  -8   0  14  428.06   18.76
   8   0 -14  423.72   17.52
  -8   0  13    0.51    0.99
  -8   0  13    0.40    1.07
  -8   0  13    1.92    1.08
   8   0 -13    1.74    1.76
  -8   0  12  236.78   11.29
  -8   0  12  214.92    7.23
  -8   0  12  221.66    8.69
   8   0 -12  220.10    8.88
  -8   0  11    0.59    0.42
  -8   0  11    1.00    1.09
  -8   0  11    1.94    1.72
   8   0 -11   -0.49    1.73
  -8   0  10 3148.50   70.83
  -8   0  10 2898.48   65.45
  -8   0  10 2936.58   67.64
   8   0 -10 2917.29   67.82
  -8   0   9    1.65    1.73
  -8   0   9   -0.08    1.20
   8   0  -9    1.40    1.71
  -8   0   8   20.37    4.54
  -8   0   8   17.29    2.21
  -8   0   8   21.04    3.19
   8   0  -8   24.62    5.36
  -8   0   7    2.71    1.70
   8   0  -7    1.37    1.69
  -8   0   7    0.92    0.47
   8   0  -7    1.13    1.15
  -8   0   6 1853.78   40.91
   8   0  -6 1943.37   42.84
   8   0  -6 1860.38   42.47
  -8   0   4   37.79    4.77
   8   0  -4   33.44    4.51
   8   0  -4   40.80    5.12
  -8   0   3    0.91    1.35
   8   0  -3    1.86    1.28
   8   0  -3    1.18    0.64
  -8   0   2  106.40    4.98
   8   0  -2   90.51    4.36
   8   0  -2   95.46    5.15
  -8   0   1   -0.68    1.41
   8   0  -1   -0.02    1.33
   8   0  -1    3.94    1.62
  -8   0   0  337.09   10.06
   8   0   0  337.89    9.69
   8   0   0  354.13   10.01
  -8   0  -1   11.54    2.86
   8   0   1    8.61    2.22
  -8   0  -2 4069.09   87.92
   8   0   2 4163.52   89.37
  -8   0  -3    4.42    1.89
  -8   0  -4  511.95   14.69
   8   0   4  489.43   13.90
  -8   0  -5    4.56    2.76
   8   0   5    0.57    1.65
  -8   0  -6 2498.64   58.48
   8   0   6 2546.61   59.34
  -8   0  -7   -1.76    1.46
  -8   0  -8    4.02    1.69
   8   0   8    4.78    2.52
  -8   0  -9   -0.32    1.45
   8   0   9    1.37    1.82
  -8   0 -10  608.05   17.28
   8   0  10  617.73   17.81
  -8   0 -11    3.95    2.10
   8   0  11   -4.77    2.11
  -8   0 -12  234.22    9.42
   8   0  12  246.39   10.28
  -8   0 -13    4.09    1.75
   8   0  13   -6.75    3.09
  -8   0 -14 1730.66   58.41
   8   0  14 1767.02   60.39
   8   0  15   -2.02    2.82
 -10   0  20   30.44    3.40
 -10   0  20   34.16    3.81
 -10   0  19   -0.03    1.41
 -10   0  18  848.74   29.17
 -10   0  18  923.24   31.82
 -10   0  18  929.36   34.45
 -10   0  17   -0.15    1.12
 -10   0  17    0.93    1.00
  10   0 -17    0.89    1.67
 -10   0  16    2.93    0.99
 -10   0  16    8.15    1.72
 -10   0  16    2.70    1.58
  10   0 -16    8.25    2.39
 -10   0  15    1.31    0.96
 -10   0  15    6.00    1.76
 -10   0  15   -0.19   10.91
  10   0 -15    1.18    2.48
 -10   0  14 3757.87   66.96
 -10   0  14 3716.28   66.41
 -10   0  14 3812.98  397.74
  10   0 -14 3415.62   64.83
 -10   0  13    0.32    0.45
 -10   0  13    2.31    1.34
 -10   0  13    1.85    1.26
  10   0 -13   -0.53    1.47
 -10   0  12    8.06    1.57
 -10   0  12    7.53    1.52
 -10   0  12   17.13    3.19
  10   0 -12    8.19    2.12
 -10   0  11    4.59    0.92
 -10   0  11    1.62    1.16
 -10   0  11    0.73    0.74
  10   0 -11    1.07    1.60
 -10   0  10  197.47    7.75
 -10   0  10  203.62    7.14
 -10   0  10  198.19    8.72
  10   0 -10  188.12    8.18
 -10   0   9   -1.11    0.68
 -10   0   9    0.72    1.22
 -10   0   9   -0.74    1.20
  10   0  -9    1.84    1.35
 -10   0   8   18.75    3.28
  10   0  -8    3.85    1.85
  10   0  -8    6.15    1.96
 -10   0   7   -0.03    1.35
  10   0  -7    2.03    1.88
  10   0  -7    3.00    1.55
 -10   0   6 3284.10   74.64
  10   0  -6 3247.42   73.67
  10   0  -6 3056.69   71.16
 -10   0   4   27.63    3.23
  10   0  -4   28.55    3.16
  10   0  -4   50.20    7.99
 -10   0   3    3.05    1.87
  10   0  -3    0.47    1.36
  10   0  -3    2.02    1.11
 -10   0   2 2667.14   61.84
  10   0  -2 2734.97   62.62
  10   0  -2 2806.48   64.39
 -10   0   1   90.22    5.23
  10   0  -1   83.28    4.40
  10   0  -1   70.99    4.79
 -10   0   0   -0.07    1.86
  10   0   0    4.13    2.01
  10   0   0    3.00    1.27
 -10   0  -1    2.78    2.04
  10   0   1    0.35    1.34
  10   0   1    0.63    0.37
 -10   0  -2   37.87    6.16
  10   0   2   32.63    5.25
 -10   0  -3    2.06    2.15
  10   0   3    0.11    1.47
 -10   0  -4   92.60    5.82
  10   0   4  110.10    6.11
 -10   0  -5   -1.25    1.63
  10   0   5    0.77    1.50
 -10   0  -6 1140.08   28.61
  10   0   6 1114.28   27.43
 -10   0  -7    0.45    1.56
  10   0   7    0.99    1.77
 -10   0  -8  157.19    7.24
  10   0   8  156.61    7.13
 -10   0  -9   -1.00    1.63
  10   0   9    1.71    2.30
 -10   0 -10 1622.81   71.66
  10   0  10 1679.64   74.14
 -10   0 -11    5.52    2.28
  10   0  11   -2.11    2.53
 -10   0 -12   20.99    4.58
  10   0  12   20.73    4.89
 -12   0  18  708.86   39.45
 -12   0  18  713.60   39.96
 -12   0  17    0.58    1.15
 -12   0  16  364.10   13.51
 -12   0  16  402.52   15.23
 -12   0  16  421.12   19.53
  12   0 -16  345.32   15.33
 -12   0  15    0.83    0.50
 -12   0  15    0.78    1.11
 -12   0  15    0.30    0.79
  12   0 -15    0.69    1.70
 -12   0  14   63.17    4.94
 -12   0  14   74.23    5.02
 -12   0  14   68.77   14.98
  12   0 -14   59.90    5.39
 -12   0  13   -0.27    0.67
 -12   0  13   -0.07    1.05
  12   0 -13    1.79    1.83
 -12   0  12    9.57    1.53
 -12   0  12    6.49    1.54
  12   0 -12    2.18    1.72
 -12   0  11    0.43    0.48
 -12   0  11    0.28    1.21
  12   0 -11    0.09    1.53
 -12   0  10 1544.18   29.36
 -12   0  10 1640.36   31.87
  12   0 -10 1397.06   30.07
 -12   0   9   -1.30    1.47
  12   0  -9    5.26    1.32
 -12   0   8  257.59    8.74
  12   0  -8  232.09    8.05
  12   0  -8  211.13   14.43
 -12   0   7    2.17    2.36
  12   0  -7    0.21    1.06
  12   0  -7    4.04    1.74
 -12   0   6 1675.47   38.55
  12   0  -6 1513.80   34.85
 -12   0   5   -0.27    1.45
  12   0  -5    2.42    1.72
 -12   0   4  219.48    8.40
  12   0  -4  204.53    7.38
 -12   0   3    1.28    2.16
  12   0  -3    2.39    1.32
  12   0  -3    7.33    1.55
 -12   0   2   94.00    5.58
  12   0  -2   95.47    4.92
  12   0  -2  101.14    8.72
 -12   0   1    3.13    1.79
  12   0  -1    5.77    2.28
  12   0  -1    0.50    0.74
 -12   0   0    5.37    1.54
  12   0   0    5.39    1.72
  12   0   0    6.85    1.41
 -12   0  -1   -0.47    2.01
  12   0   1   -0.11    0.87
  12   0   2 2072.60   39.36
  12   0   3   -0.31    1.41
 -12   0  -4  108.81    6.38
  12   0   4  146.41    6.81
  12   0   4   99.64    7.10
 -12   0  -5   -0.50    1.83
  12   0   5    0.40    1.46
 -12   0  -6 2082.01   91.18
  12   0   6 2083.03   90.70
 -12   0  -7    6.34    3.33
  12   0   7   -0.54    1.78
 -12   0  -8   57.60    5.52
  12   0   8   49.22    4.55
  12   0   9   -0.63    1.95
 -14   0  15    0.31    0.69
 -14   0  14 1976.38  106.85
 -14   0  14 2051.49  111.69
 -14   0  13    0.23    0.80
 -14   0  13    0.05    1.19
  14   0 -13    1.96    2.00
 -14   0  12  582.58   20.40
 -14   0  12  606.53   21.88
  14   0 -12  475.96   19.38
 -14   0  11    0.95    0.62
 -14   0  11    0.78    1.37
  14   0 -11   -0.93    1.62
 -14   0  10  738.44   27.63
 -14   0  10  763.84   29.36
  14   0 -10  652.66   26.96
 -14   0   9    0.05    1.31
  14   0  -9    1.34    1.24
  14   0  -9    0.87    1.18
 -14   0   8   84.79    5.99
  14   0  -8   65.38    4.93
  14   0  -8   74.47    7.21
 -14   0   7    0.71    1.52
  14   0  -7    0.77    1.11
  14   0  -7    0.07    0.97
 -14   0   6  706.11   32.39
  14   0  -6  616.21   28.32
  14   0  -6  678.48   31.72
 -14   0   5    5.95    2.97
  14   0  -5    2.16    1.32
  14   0  -5    1.50    0.70
 -14   0   4  478.35   22.99
  14   0  -4  471.90   22.27
  14   0  -4  502.88   23.90
 -14   0   3    3.41    3.44
  14   0  -3    1.03    1.49
  14   0  -3    1.62    0.82
 -14   0   2 1702.39   74.85
  14   0  -2 1876.92   81.65
  14   0  -2 1968.01   86.08
  14   0  -1    3.07    1.60
  14   0  -1    5.84    3.25
 -14   0   0  333.68   15.40
  14   0   0  324.41   14.23
  14   0   0  348.28   15.29
 -14   0  -1    0.44    2.10
  14   0   1    0.19    1.34
  14   0   1    2.14    1.21
 -14   0  -2  285.09   13.31
  14   0   2  266.51   11.63
  14   0   2  305.81   17.87
 -14   0  -3   -0.56    2.06
  14   0   3    0.64    1.55
  14   0   3    0.88    0.49
 -14   0  -4    2.73    2.30
  14   0   4    1.28    1.79
  14   0   4    3.25    1.47
 -14   0  -5    4.22    2.34
  14   0   5    1.71    1.94
  14   0   5    0.75    0.64
  14   0   6  110.92    8.63
  14   0   6  133.40   12.37
 -16   0   9    3.92    2.18
  16   0  -9    0.37    1.26
  16   0  -9   -1.83    1.89
 -16   0   8  908.34   50.92
  16   0  -8  792.77   44.65
  16   0  -8  853.20   48.83
  16   0  -7    0.17    1.33
  16   0  -7    0.56    1.16
 -16   0   6  465.94   27.49
  16   0  -6  394.22   23.37
  16   0  -6  468.93   27.83
 -16   0   5    0.00    1.64
  16   0  -5    0.47    1.43
  16   0  -5   -1.50    1.56
 -16   0   4  544.73   31.79
  16   0  -4  512.89   29.78
  16   0  -4  586.26   34.63
 -16   0   3    0.77    1.89
  16   0  -3    0.87    1.63
  16   0  -3    0.75    0.78
 -16   0   2    3.55    2.81
  16   0  -2    5.15    2.83
  16   0  -2   18.74    5.05
  16   0  -1    0.96    1.70
  15   1   2 1095.19   61.20
  15   1   2 1446.89   79.95
  15   1   1    1.67    2.07
  15   1   1   25.54    7.59
 -15  -1   0  581.16   33.76
  15   1   0  607.88   34.91
  15   1   0  807.42   45.54
 -15  -1   1    8.98    3.38
  15   1  -1    3.56    1.99
  15   1  -1   17.57    3.73
 -15  -1   2  324.89   20.02
  15   1  -2  299.69   18.45
  15   1  -2  341.02   25.24
 -15  -1   3    3.90    2.60
  15   1  -3   -0.36    1.87
  15   1  -3    1.88    1.68
 -15  -1   4   37.38    4.30
  15   1  -4   34.74    4.01
  15   1  -4   37.41    5.74
 -15  -1   5    3.53    2.36
  15   1  -5    3.20    1.75
 -15  -1   6  307.58   13.21
  15   1  -6  294.81   12.86
  15   1  -6  290.38   17.01
 -15  -1   7    1.37    1.52
  15   1  -7    5.45    1.98
  15   1  -7    0.82    1.75
 -15  -1   8  527.11   30.35
  15   1  -8  463.63   27.13
  15   1  -8  490.56   28.89
  15   1  -9    0.40    1.74
 -15  -1  10  618.32   34.69
 -15  -1  10  630.93   35.83
  15   1 -10  526.80   30.95
 -15  -1  11    2.38    1.54
  15   1 -11    2.34    2.12
 -15  -1  12  524.33   29.77
 -15  -1  12  533.71   30.75
  15   1 -12  412.44   25.14
  13   1   7    1.82    2.38
  13   1   7    2.53    1.77
  13   1   6 1297.36   71.83
  13   1   6 1502.84   81.89
 -13  -1  -5    4.88    2.93
  13   1   5    1.78    1.83
  13   1   5    0.15    0.51
 -13  -1  -4    0.89    1.86
  13   1   4    1.41    1.64
  13   1   4    3.97    1.15
 -13  -1  -3    4.35    2.55
  13   1   3    1.45    1.46
  13   1   3    1.49    1.14
 -13  -1  -2   55.65    5.17
  13   1   2   46.98    4.26
  13   1   2   64.40    9.86
 -13  -1  -1    2.00    1.87
  13   1   1    0.44    1.44
  13   1   1    3.17    1.24
 -13  -1   0   46.86    4.36
  13   1   0   49.94    3.99
  13   1   0   69.60    5.86
 -13  -1   1   33.20    4.83
  13   1  -1   45.41    3.72
  13   1  -1   46.21    9.19
 -13  -1   2  553.99   14.99
  13   1  -2  590.55   15.29
  13   1  -2  644.33   26.38
 -13  -1   3    6.31    2.28
  13   1  -3   13.33    2.81
  13   1  -3   10.47    2.60
 -13  -1   4  218.60    8.26
  13   1  -4  225.59   14.01
 -13  -1   5    3.12    1.73
  13   1  -5   28.68   11.56
 -13  -1   6 1959.98   38.59
  13   1  -6 1768.35   35.40
  13   1  -6 1813.43   37.00
 -13  -1   7    7.31    2.14
  13   1  -7    8.69    2.36
  13   1  -7    6.77    2.41
 -13  -1   8  113.67    5.75
  13   1  -8   99.48    5.30
  13   1  -8  110.59    6.50
 -13  -1   9   14.67    2.98
  13   1  -9    6.51    2.17
 -13  -1  10  410.91   23.27
 -13  -1  10  426.93   20.30
  13   1 -10  350.61   18.15
 -13  -1  11   -0.60    0.89
 -13  -1  11    3.29    1.95
  13   1 -11    1.50    1.89
 -13  -1  12   96.83    9.52
 -13  -1  12  116.24    6.60
 -13  -1  12  109.06   10.91
  13   1 -12   97.47    7.17
 -13  -1  13    1.20    0.77
 -13  -1  13    0.10    1.40
 -13  -1  13    0.20    0.77
  13   1 -13    3.08    2.59
 -13  -1  14  951.26   32.36
 -13  -1  14  931.02   32.27
 -13  -1  14  972.37   34.21
  13   1 -14  750.82   28.42
 -13  -1  15    4.55    1.46
 -13  -1  15    4.09    2.16
  13   1 -15    7.90    3.21
 -13  -1  16  232.35   21.08
  13   1 -16  243.14   16.53
  11   1  11   10.07    3.57
  11   1  10 1165.74   65.28
 -11  -1  -9   -2.46    1.84
  11   1   9   -0.63    2.30
 -11  -1  -8    5.68    2.36
  11   1   8    3.85    2.27
  11   1   8    6.70    1.54
 -11  -1  -7   -0.15    1.43
  11   1   7    0.81    0.35
 -11  -1  -6    0.62    1.71
  11   1   6   10.62    2.66
  11   1   6   10.25    2.20
 -11  -1  -5    4.32    2.81
  11   1   5    1.88    2.01
  11   1   5    2.26    1.14
 -11  -1  -4   69.07    4.82
  11   1   4   76.53    5.08
  11   1   4   87.46    8.31
 -11  -1  -3    9.70    2.28
 -11  -1  -2 3472.20   76.62
  11   1   2 3671.62  406.42
  11   1   2 3853.40  426.57
 -11  -1  -1    3.50    2.00
  11   1   1    6.57    2.42
  11   1   1    1.17    0.81
 -11  -1   0   38.71    3.61
  11   1   0   50.83    4.19
  11   1   0   54.71    8.97
 -11  -1   2 3006.71  103.98
  11   1  -2 3206.32  110.50
  11   1  -2 3174.28  109.56
 -11  -1   3    3.22    1.84
  11   1  -3    0.35    1.47
  11   1  -3    3.09    1.79
 -11  -1   4   49.25    3.63
  11   1  -4   40.45    3.25
  11   1  -4   47.17    9.48
 -11  -1   5    7.16    1.90
  11   1  -5   18.27    2.26
  11   1  -5   18.33    3.15
 -11  -1   6  326.32   13.50
  11   1  -6  296.20   12.52
  11   1  -6  316.26   13.75
 -11  -1   7   18.11    2.37
  11   1  -7   17.97    2.38
  11   1  -7   24.49    3.14
 -11  -1   8   77.06    4.84
  11   1  -8   63.80    4.34
 -11  -1   8   85.90   13.32
  11   1  -8   66.74    5.11
 -11  -1   9    6.99    3.14
 -11  -1   9    6.36    1.81
 -11  -1   9    9.96    1.98
  11   1  -9   13.33    2.68
 -11  -1  10 2680.43   58.07
 -11  -1  10 2712.69   59.49
 -11  -1  10 2709.02   59.75
  11   1 -10 2635.88   60.01
 -11  -1  11    7.02    1.16
 -11  -1  11    6.25    1.51
 -11  -1  11    8.38    1.72
  11   1 -11    6.24    2.09
 -11  -1  12  132.19    6.39
 -11  -1  12  127.82   14.25
 -11  -1  12  136.30   12.27
  11   1 -12  131.98   15.29
 -11  -1  13    1.14    0.76
 -11  -1  13    1.49    2.18
 -11  -1  13   -0.07    1.52
  11   1 -13    0.29    1.85
 -11  -1  14 1232.54   30.36
 -11  -1  14 1195.82   30.19
 -11  -1  14 1322.00   34.27
  11   1 -14 1231.21   33.38
 -11  -1  15    1.59    0.95
 -11  -1  15    2.06    2.03
 -11  -1  15   -0.14    0.78
  11   1 -15   -1.38    1.81
 -11  -1  16   30.20    3.83
 -11  -1  16   26.52    3.15
 -11  -1  16   27.51    7.77
 -11  -1  17    4.04    1.43
 -11  -1  17    7.26    2.18
 -11  -1  17    4.68    1.74
 -11  -1  18   12.14    2.74
 -11  -1  19    4.66    1.66
  -9  -1 -13   -0.91    1.76
   9   1  13   -0.47    2.37
  -9  -1 -12   37.27    4.17
   9   1  12   41.77    4.85
  -9  -1 -11    4.24    2.46
   9   1  11    3.07    2.39
  -9  -1 -10  813.39   22.95
   9   1  10  932.15   26.01
  -9  -1  -9   17.30    3.07
   9   1   9   19.10    3.20
  -9  -1  -8   12.13    2.57
   9   1   8   15.03    2.48
  -9  -1  -7    5.18    2.32
   9   1   7    2.88    2.03
  -9  -1  -6 2493.61   86.90
   9   1   6 2643.21   91.92
  -9  -1  -5   38.59    6.35
   9   1   5   31.94    5.39
   9   1   5   36.32    6.35
  -9  -1  -4  268.60    9.91
   9   1   4  266.45    9.76
   9   1   4  273.72    8.26
  -9  -1  -3    3.15    2.04
   9   1   3    2.98    1.88
   9   1   3    7.88    1.88
  -9  -1  -2  410.02   12.78
   9   1   2  383.87   11.81
   9   1   2  408.37   11.68
  -9  -1  -1   42.19    4.17
   9   1   1   41.39    4.12
   9   1   1   45.82    7.45
  -9  -1   0   18.02    2.91
   9   1   0   24.93    3.22
   9   1   0   25.66    4.43
  -9  -1   1    2.83    2.62
   9   1  -1    2.31    1.63
   9   1  -1    6.21    1.61
  -9  -1   2  563.76   15.28
   9   1  -2  550.55   14.95
   9   1  -2  563.40   15.36
  -9  -1   3    8.93    2.13
   9   1  -3    8.78    1.94
   9   1  -3   13.09    3.74
  -9  -1   4   28.56    3.21
   9   1  -4   29.46    3.34
   9   1  -4   32.33    5.23
  -9  -1   5   52.03    7.74
   9   1  -5   33.33    3.44
  -9  -1   5   41.08    6.19
  -9  -1   6 2609.73   59.92
   9   1  -6 2556.62   59.04
  -9  -1   6 2736.85   62.69
   9   1  -6 2694.61   62.88
  -9  -1   7   11.69    2.09
   9   1  -7   11.38    2.43
  -9  -1   7   12.34    2.35
   9   1  -7   12.46    2.63
  -9  -1   8  201.25    6.57
  -9  -1   8  194.66    7.02
  -9  -1   8  197.42    9.93
   9   1  -8  187.08    7.84
  -9  -1   9   65.81    5.08
  -9  -1   9   68.01    4.07
  -9  -1   9   72.97   11.18
   9   1  -9   71.89    5.20
  -9  -1  10 1544.09   37.61
  -9  -1  10 1477.94   36.60
  -9  -1  10 1517.37   38.40
   9   1 -10 1467.41   37.88
  -9  -1  11    0.97    0.58
  -9  -1  11   -0.90    1.35
  -9  -1  11    0.71    0.85
   9   1 -11   -0.37    1.82
  -9  -1  12  136.77    9.83
  -9  -1  12  126.57    6.56
  -9  -1  12  118.15    8.29
   9   1 -12  125.00    7.43
  -9  -1  13   -0.68    0.91
  -9  -1  13    0.37    1.35
  -9  -1  13    2.76    1.15
   9   1 -13   -1.18    1.58
  -9  -1  14  523.94   14.00
  -9  -1  14  527.83   14.62
  -9  -1  14  521.30   17.21
  -9  -1  15   17.48    2.53
  -9  -1  15   22.24    3.12
  -9  -1  15   20.58    4.61
  -9  -1  16   33.57    4.46
  -9  -1  16   35.55    5.02
  -9  -1  16   34.05    7.84
  -9  -1  17    9.48    1.83
  -9  -1  17    8.33    2.53
  -9  -1  17    0.57    5.51
  -9  -1  18 2480.61  155.26
  -9  -1  18 2635.11  165.02
  -9  -1  18 2238.37   82.09
  -9  -1  19   -0.49    1.53
  -9  -1  19   -1.29    1.91
  -9  -1  19   -1.18    1.98
   7   1  16   19.20    3.30
  -7  -1 -15    5.98    2.44
   7   1  15    2.78    2.46
  -7  -1 -14  640.45   25.66
   7   1  14  612.39   25.48
  -7  -1 -13    1.22    2.18
   7   1  13   -1.47    2.05
  -7  -1 -12 1018.58   22.78
   7   1  12  980.68   23.26
  -7  -1 -11   31.04    3.44
   7   1  11   20.63    5.19
  -7  -1 -10 1081.67   39.30
   7   1  10 1045.77   38.55
  -7  -1  -9    0.82    1.49
   7   1   9   -2.53    2.08
  -7  -1  -8  378.62   12.22
   7   1   8  372.34   12.39
  -7  -1  -7    8.71    2.58
   7   1   7    7.27    2.29
  -7  -1  -6  392.06   12.04
   7   1   6  417.48   12.69
  -7  -1  -5   11.47    2.60
   7   1   5    9.30    1.98
  -7  -1  -4  101.17    5.19
   7   1   4   96.71    4.83
  -7  -1  -3   20.34    2.74
   7   1   3   22.89    3.01
   7   1   3   26.38    3.72
  -7  -1  -2 1809.83   44.82
   7   1   2 1795.05   44.26
   7   1   2 1816.69   39.60
  -7  -1  -1   30.89    4.32
   7   1   1   31.75    4.52
   7   1   1   24.92    3.50
  -7  -1   0 1024.53   26.47
   7   1   0 1006.85   25.91
   7   1   0  989.45   25.02
  -7  -1   1   49.88    6.14
   7   1  -1   48.64    6.12
   7   1  -1   52.34    7.67
  -7  -1   2 4612.06  108.94
   7   1  -2 4701.67  111.07
   7   1  -2 4795.95  113.25
  -7  -1   3   23.44    3.73
   7   1  -3   27.41    3.90
  -7  -1   3   26.70    7.14
   7   1  -3   43.84    5.49
  -7  -1   4 1262.28   31.54
   7   1  -4 1291.25   32.44
  -7  -1   4 1376.82   33.80
   7   1  -4 1415.11   35.82
  -7  -1   5    7.86    1.91
   7   1  -5    8.91    2.18
  -7  -1   5   11.11    2.31
   7   1  -5    5.22    1.90
  -7  -1   6   14.11    2.48
   7   1  -6    8.09    1.87
  -7  -1   6   12.44    2.32
   7   1  -6   10.03    2.54
  -7  -1   7   16.67    4.02
  -7  -1   7   14.96    1.97
  -7  -1   7   16.03    3.68
   7   1  -7   13.44    2.89
  -7  -1   8  308.00    8.58
  -7  -1   8  298.67    9.03
  -7  -1   8  302.17   11.12
   7   1  -8  294.62    9.86
  -7  -1   9    3.66    0.67
  -7  -1   9    3.39    1.47
  -7  -1   9    7.26    2.31
   7   1  -9    5.75    2.28
  -7  -1  10 3468.95   78.17
  -7  -1  10 3151.69   71.66
  -7  -1  10 3304.97   76.16
   7   1 -10 3164.80   73.08
  -7  -1  11    9.33    1.70
  -7  -1  11    6.16    1.88
  -7  -1  11    7.50    1.94
   7   1 -11    2.60    1.98
  -7  -1  12 1200.74   30.28
  -7  -1  12 1152.08   29.29
  -7  -1  12 1193.75   31.19
  -7  -1  13    5.28    1.48
  -7  -1  13    4.32    1.39
  -7  -1  13    7.25    2.75
  -7  -1  14 2005.39   69.70
  -7  -1  14 2093.89   72.84
  -7  -1  14 2121.15   74.61
  -7  -1  15   33.67    2.78
  -7  -1  15   35.06    3.32
  -7  -1  15   37.36    7.64
  -7  -1  16   89.82    6.74
  -7  -1  16   91.62    6.89
  -7  -1  16   88.67   14.89
  -7  -1  17    4.47    1.96
  -7  -1  17    2.97    2.04
  -7  -1  17   -0.11    1.69
  -7  -1  18   72.96    5.41
  -7  -1  18   83.45    6.06
  -7  -1  18   79.33   16.99
  -7  -1  19    1.12    1.49
  -7  -1  19    2.38    1.77
  -7  -1  19    1.98    1.43
  -7  -1  20    1.07    1.71
  -7  -1  20    3.07    1.91
  -7  -1  21    1.26    1.82
   5   1  18  676.98   39.39
   5   1  17   -2.24    1.90
  -5  -1 -16 1256.28   46.89
   5   1  16 1006.47   36.40
  -5  -1 -15   16.76    3.66
   5   1  15   37.59    2.79
  -5  -1 -14  659.52   16.07
   5   1  14  615.62   16.57
   5   1  14  616.96   12.73
  -5  -1 -13    5.65    1.56
   5   1  13    4.55    2.94
   5   1  12  336.09   14.56
  -5  -1 -11    7.20    2.49
   5   1  11    2.49    2.29
  -5  -1 -10  432.31   13.17
   5   1  10  414.77   13.40
  -5  -1  -9   27.60    3.23
   5   1   9   24.70    3.27
  -5  -1  -8 1000.33   24.06
   5   1   8  958.85   23.83
  -5  -1  -7   11.72    2.06
   5   1   7   15.37    2.81
  -5  -1  -6 3149.15   75.35
   5   1   6 3055.92   73.47
  -5  -1  -5    6.25    2.08
   5   1   5    7.98    1.99
  -5  -1  -4 2925.08   69.96
   5   1   4 2940.45   70.40
  -5  -1  -3   74.21    4.06
   5   1   3   73.67    4.08
  -5  -1  -2 1061.83   12.44
   5   1   2 1015.55   12.09
   5   1   2  954.72    9.55
  -5  -1  -1  172.75    4.76
   5   1   1  158.09    4.55
   5   1   1  170.55    3.70
  -5  -1   0  714.58    9.54
   5   1   0  690.88    9.40
   5   1   0  754.23    9.23
  -5  -1   1   52.46    4.39
   5   1  -1   47.83    4.32
  -5  -1   1   55.50    4.50
   5   1  -1   62.86    6.10
  -5  -1   2  253.35    5.40
   5   1  -2  253.52    5.74
  -5  -1   2  254.72    4.52
   5   1  -2  261.28    5.55
  -5  -1   3   29.02    2.99
   5   1  -3   29.12    3.14
  -5  -1   3   36.69    3.68
   5   1  -3   30.18    3.07
  -5  -1   4  481.46    7.46
   5   1  -4  453.72    7.47
  -5  -1   4  456.77    6.80
   5   1  -4  476.98    7.70
  -5  -1   5   37.02    3.47
  -5  -1   5   65.61    5.22
   5   1  -5   36.61    3.76
  -5  -1   6 3340.27   78.84
  -5  -1   6 3152.90   74.89
  -5  -1   6 3249.53   77.33
   5   1  -6 3106.96   74.08
  -5  -1   7    3.30    2.33
  -5  -1   7    1.33    1.50
  -5  -1   7    2.12    1.14
   5   1  -7    0.86    1.63
  -5  -1   8 1915.00   46.50
  -5  -1   8 1877.54   45.73
  -5  -1   8 1962.16   48.00
   5   1  -8 1791.47   44.18
  -5  -1   9    1.64    0.62
  -5  -1   9    3.77    1.52
  -5  -1   9   -0.19    3.07
  -5  -1  10 1982.63   44.07
  -5  -1  10 1986.14   45.49
   5   1 -11   30.95    2.74
  -5  -1  11   28.42    2.75
   5   1 -12 1119.03   27.16
  -5  -1  12 1154.47   28.29
  -5  -1  12 1206.96   30.30
   5   1 -13    3.42    1.58
  -5  -1  13    1.87    2.12
  -5  -1  13    0.51    2.05
   5   1 -14   50.41    8.09
  -5  -1  14   41.61    6.40
  -5  -1  14   43.22    7.03
   5   1 -15    8.36    2.00
  -5  -1  15    3.46    1.37
  -5  -1  15    4.57    2.17
   5   1 -16  151.38    7.47
  -5  -1  16  152.32    6.65
  -5  -1  16  176.85    8.79
   5   1 -17   -1.92    1.17
  -5  -1  17   -0.16    1.36
   5   1 -18 1302.80   32.46
  -5  -1  18 1239.97   32.08
  -5  -1  18 1359.35   36.95
   5   1 -19    4.53    2.97
  -5  -1  19    5.09    1.73
  -5  -1  19    9.62    4.44
   5   1 -20 1248.61   42.18
  -5  -1  20 1090.50   38.22
  -5  -1  20 1238.11   44.60
   5   1 -21    2.24    2.69
  -5  -1  21    0.93    1.76
  -5  -1  21    2.64    1.88
  -3  -1 -19   12.01    3.02
  -3  -1 -18   11.31    2.31
   3   1  18   12.44    2.97
   3   1  18    8.37    1.61
  -3  -1 -17    1.41    1.56
   3   1  17    1.67    1.77
   3   1  17    1.43    0.99
  -3  -1 -16    8.31    1.84
   3   1  16   11.54    2.95
   3   1  16   18.62    2.63
  -3  -1 -15    3.20    2.23
   3   1  15    2.29    1.77
  -3  -1 -14  219.74    7.86
   3   1  14  209.75    6.27
  -3  -1 -13    1.06    1.31
  -3  -1 -12 2314.30   55.50
   3   1  12 2084.31   51.31
   3   1  12 2328.00   54.42
  -3  -1 -11   44.69    3.93
   3   1  11   38.34    4.49
  -3  -1 -10  192.05    6.67
   3   1  10  171.49    6.75
  -3  -1  -9    5.40    1.90
   3   1   9   -0.52    2.09
  -3  -1  -8 2687.71   64.31
   3   1   8 2538.99   61.46
  -3  -1  -7   11.55    2.18
   3   1   7   13.03    2.64
  -3  -1  -6  139.42    5.09
   3   1   6  136.68    5.46
  -3  -1  -5   92.45    3.24
   3   1   5   86.79    9.78
  -3  -1  -4   68.91    5.29
   3   1   4   67.39    5.47
  -3  -1  -3  237.23    4.82
   3   1   3  229.34    4.98
  -3  -1  -2   26.43    2.73
   3   1   2   64.83    5.10
   3   1   2   29.19    2.97
  -3  -1  -1    3.70    1.39
   3   1   1   -0.05    1.66
   3   1   1    2.11    0.79
  -3  -1   0 3455.85   24.26
   3   1   0 3620.95   25.56
  -3  -1   0 3463.08   21.78
   3   1   0 3680.96   23.36
  -3  -1   1    7.31    1.98
   3   1  -1    1.90    1.44
  -3  -1   1    4.10    0.85
   3   1  -1    3.50    1.64
  -3  -1   2 2237.92   17.45
   3   1  -2 2230.49   17.62
  -3  -1   2 2447.75   17.36
   3   1  -2 2404.45   17.34
  -3  -1   3    5.24    1.92
   3   1  -3    0.99    1.71
  -3  -1   3    7.92    2.28
   3   1  -3   24.52    4.18
  -3  -1   4 7522.20  793.02
  -3  -1   4 7505.08  791.28
  -3  -1   4 7452.80   46.57
  -3  -1   5   27.57    2.75
  -3  -1   5   38.51    3.54
  -3  -1   5   23.86    2.58
   3   1  -6  366.14    5.80
  -3  -1   6  383.02    8.33
  -3  -1   6  381.38    6.57
   3   1  -7  166.38    4.06
  -3  -1   7  180.43    9.54
  -3  -1   7  174.18    6.32
   3   1  -8   47.51    6.89
  -3  -1   8   48.76    6.39
  -3  -1   8   46.16    5.77
   3   1  -9   63.73    3.29
  -3  -1   9   63.24    3.48
  -3  -1   9   62.51    4.51
   3   1 -10  577.82   15.64
  -3  -1  10  579.09   16.07
  -3  -1  10  585.79   16.86
   3   1 -11   38.60    3.88
  -3  -1  11   45.34    3.97
  -3  -1  11   51.47   15.34
   3   1 -12 5011.37  106.99
  -3  -1  12 4874.94  104.64
  -3  -1  12 5144.82  110.36
   3   1 -13   18.99   10.71
  -3  -1  13   60.02    4.22
  -3  -1  13   46.04   12.42
   3   1 -14  941.56   24.46
  -3  -1  14  984.72   26.06
  -3  -1  14 1039.69   27.35
  -3  -1  15    7.94    2.08
  -3  -1  15   17.86    4.66
  -3  -1  16 1801.59   41.62
   3   1 -17    7.08    5.85
  -3  -1  17   11.47    2.44
  -3  -1  17   15.51    3.66
   3   1 -18  245.38   11.09
  -3  -1  18  270.31   10.44
  -3  -1  18  280.02   10.40
   3   1 -19    3.69    2.90
  -3  -1  19   11.83    2.81
  -3  -1  19    7.81    1.96
   3   1 -20    2.58    1.47
  -3  -1  20    3.41    1.80
  -3  -1  20   14.33    2.65
   3   1 -21    2.15    1.18
  -3  -1  21   -0.44    1.63
  -1  -1 -20  181.62   11.58
   1   1  20  133.25   10.04
   1   1  20  122.93    9.27
  -1  -1 -19    6.26    1.75
   1   1  19    6.45    2.99
  -1  -1 -18    4.33    1.46
   1   1  18    2.60    1.75
   1   1  18    3.40    1.38
  -1  -1 -17    4.62    1.76
  -1  -1 -16 2901.08   63.02
   1   1  16 2473.92   56.02
   1   1  16 2349.95   51.01
  -1  -1 -15    7.47    1.54
  -1  -1 -14  109.87    4.98
   1   1  14   89.39    5.06
   1   1  14   94.37    4.03
  -1  -1 -13    3.42    1.89
  -1  -1 -12 1907.58   44.12
   1   1  12 1707.38   40.84
   1   1  12 1812.22   41.45
  -1  -1 -11    2.53    1.25
  -1  -1 -10   12.47    1.78
   1   1  10   10.66    2.49
   1   1  10    8.75    1.43
  -1  -1  -9    4.86    1.18
   1   1   9    5.19    2.33
   1   1   9    3.96    1.67
  -1  -1  -8 1588.24   38.35
   1   1   8 1431.83   35.32
   1   1   8 1508.00   35.92
  -1  -1  -7  119.59    3.36
   1   1   7  107.95    3.82
  -1  -1  -6   59.44    4.61
   1   1   6   60.92    4.93
   1   1   6   71.01    5.07
  -1  -1  -5   11.51    1.87
   1   1   5    4.41    1.69
   1   1   5   10.28    1.13
   1   1   4 6194.01   38.93
  -1  -1  -3   56.20    4.52
   1   1   3   53.37    4.40
  -1  -1  -2   53.89    4.41
   1   1   2   62.25    5.05
  -1  -1  -1   13.89    1.95
   1   1   1   21.97    3.18
  -1  -1   0 1335.15   10.62
   1   1   0 1320.77   10.94
  -1  -1   1    5.23    1.21
   1   1  -1   12.78    2.17
   1   1  -2   94.70    2.96
  -1  -1   2   90.28    2.82
   1   1  -3   49.34    4.14
  -1  -1   3   47.74    5.12
   1   1  -4 2135.46   16.41
  -1  -1   4 2109.12   16.62
   1   1  -5  147.48    3.65
  -1  -1   5  136.45    3.62
   1   1  -6  559.95    8.03
  -1  -1   6  554.65    7.70
   1   1  -7  100.00    6.33
  -1  -1   7   96.54    3.34
   1   1  -8 6332.43   43.92
  -1  -1   8 6369.94   43.56
   1   1  -9   11.70    3.54
  -1  -1   9   10.56    2.18
   1   1 -10  220.61    7.46
  -1  -1  10  220.66    7.67
  -1  -1  11    1.05    1.80
  -1  -1  12 2355.07   52.64
  -1  -1  12 2723.39   59.89
   1   1 -13   42.39   11.49
  -1  -1  13   62.07    4.44
   1   1 -14  223.17   10.85
  -1  -1  14  230.28    8.87
  -1  -1  14  266.88    9.40
   1   1 -15    4.69    2.46
  -1  -1  15    5.17    2.66
  -1  -1  15    4.93    2.73
   1   1 -16  203.94   12.95
  -1  -1  17   12.26    2.85
  -1  -1  17    8.39    2.76
  -1  -1  18  298.29   11.37
  -1  -1  18  313.29   10.90
  -1  -1  19   25.30    3.28
   1   1 -20 2118.86  312.01
  -1  -1  20 1998.80   67.29
  -1  -1  20 2097.73  308.97
  -1  -1  21    7.61    2.94
  -1  -1  21    4.43    2.20
   1  -1 -21    4.39    3.62
  -1   1  21    3.44    2.33
  -1   1  21    1.95    0.99
   1  -1 -20 2087.78  307.30
  -1   1  20 1655.69   56.25
  -1   1  20 1415.93   47.38
   1  -1 -19   99.72    5.50
   1  -1 -18  137.37    5.56
  -1   1  18  220.33    9.12
  -1   1  18  210.47    9.58
   1  -1 -17   10.98    2.07
   1  -1 -16   94.60    4.18
  -1   1  16   88.14    5.05
  -1   1  16   71.52    6.81
   1  -1 -15    1.70    1.19
  -1   1  15    3.31    1.83
  -1   1  15    0.71    0.98
   1  -1 -14  211.79    6.96
  -1   1  14  183.29    7.19
  -1   1  14  169.22    9.63
  -1   1  13   34.48    9.47
  -1   1  13   39.24    9.63
   1  -1 -12 2161.81   46.96
  -1   1  12 1814.70   40.91
   1  -1 -11    4.07    1.68
   1  -1 -10  192.94    6.04
  -1   1  10  174.35    6.03
  -1   1   9   17.75    2.85
  -1   1   9   10.05    2.51
   1  -1  -7   76.61    5.62
  -1   1   7   67.11    5.16
  -1   1   7   75.49    7.13
   1  -1  -7   79.71    8.81
   1  -1  -6  441.50    5.18
  -1   1   6  396.06    5.45
  -1   1   6  390.59    5.93
   1  -1  -6  452.24    5.80
   1  -1  -5  113.83    2.28
  -1   1   5   93.41    2.54
  -1   1   5   96.95    2.73
   1  -1  -5  106.56    4.27
  -1   1   4 1318.42   10.77
   1  -1  -4 1409.41   11.96
   1  -1  -3   35.15    2.66
  -1   1   3   33.61    2.79
   1  -1  -3   32.47    3.29
   1  -1  -2   64.84    4.52
  -1   1   2   67.61    4.78
   1  -1  -1   10.06    1.56
  -1   1   0 1770.26   12.16
   1  -1   0 1690.33   11.33
  -1   1  -1   19.31    1.95
   1  -1   1   18.78    2.00
  -1   1  -2   72.40    5.45
   1  -1   2   97.36    3.20
  -1   1  -3   73.55    5.55
   1  -1   3   80.54    8.96
   1  -1   4 9999.98 1054.16
  -1   1  -5    8.33    8.86
   1  -1   5   12.80    2.18
  -1   1  -6   71.72    6.14
   1  -1   6   74.51    5.91
  -1   1  -7  147.30   10.69
   1  -1   7  146.54    4.60
   1  -1   8 1964.59   48.00
  -1   1  -9    6.38    3.10
   1  -1   9   -0.68    1.72
  -1   1 -10   14.52    2.40
   1  -1  10   14.24    2.58
  -1   1 -12 2275.99   52.87
  -1   1 -13    5.64    2.39
   1  -1  13    3.93    2.81
  -1   1 -14  129.18    5.84
   1  -1  14  144.96    6.69
   1  -1  15   40.09    3.59
  -1   1 -16 3112.21   68.19
   1  -1  16 3208.13   71.42
   1  -1  17    6.88    2.93
   1  -1  17    6.79    2.67
  -1   1 -18    4.34    1.06
   1  -1  18    3.99    1.52
   1  -1  18    5.73    1.70
   1  -1  19    8.13    2.76
   1  -1  19    5.96    2.42
  -1   1 -20  170.37   22.43
   1  -1  20  162.04   11.51
   3  -1 -21    2.23    1.31
  -3   1  21    8.35    4.01
  -3   1  21    0.37    0.75
   3  -1 -20    2.37    0.74
  -3   1  20    1.17    1.66
  -3   1  20    4.09    1.72
   3  -1 -19   10.72    2.35
  -3   1  19    4.29    1.70
  -3   1  19    4.33    1.63
   3  -1 -18  265.70    8.53
  -3   1  18  195.95    7.95
  -3   1  18  179.29    9.30
   3  -1 -17   14.06    3.55
  -3   1  17   10.60    2.97
  -3   1  16 1278.60   30.25
  -3   1  16 1203.42   30.17
   3  -1 -14  893.72   22.55
  -3   1  14  751.59   20.03
  -3   1  14  691.06   18.93
   3  -1 -13    0.72    2.36
  -3   1  13   36.17   10.32
   3  -1 -12 4567.66   96.60
  -3   1  12 3537.18   78.11
  -3   1  11   36.78    7.70
   3  -1 -11   34.36    3.23
   3  -1 -10  521.41   13.64
  -3   1  10  442.42   12.02
  -3   1  10  428.89   14.55
   3  -1 -10  460.03   12.87
   3  -1  -9   61.68    4.55
  -3   1   9   50.34    6.71
   3  -1  -9   48.29    5.91
   3  -1  -8   54.78    6.22
  -3   1   8   39.45    4.57
  -3   1   8   52.66    7.75
   3  -1  -8   55.59    6.50
  -3   1   7  135.70    2.92
  -3   1   7  133.01    4.51
   3  -1  -7  132.72    4.32
  -3   1   6  297.53    3.69
   3  -1  -6  290.90    6.47
  -3   1   5   40.99    2.93
  -3   1   5   24.74    5.34
   3  -1  -5   25.83    5.49
   3  -1  -4 5746.15   37.11
   3  -1  -3    5.69    0.78
   3  -1  -3    7.39    1.56
   3  -1  -2 1876.53   11.84
   3  -1   0 3408.38   21.80
   3  -1   1  201.35    4.11
  -3   1  -2   35.16    3.09
   3  -1   2   31.16    3.07
  -3   1  -3  287.90    5.25
   3  -1   3  301.16    5.67
  -3   1  -4   98.73    3.49
   3  -1   4   89.30   10.00
  -3   1  -5  118.37    3.88
   3  -1   5  117.32    4.16
  -3   1  -6  168.24    6.11
   3  -1   6  163.79    6.16
  -3   1  -7   43.21    5.58
   3  -1   7   20.07    4.28
  -3   1  -8 3088.82   74.01
   3  -1   8 3279.00   78.80
  -3   1  -9    3.52    2.01
  -3   1 -10  209.41    7.58
   3  -1  10  221.93    8.23
  -3   1 -12 2636.50   63.26
  -3   1 -13    1.99    1.44
  -3   1 -14  254.42    8.88
   3  -1  14  262.29    9.86
  -3   1 -15   10.14    2.53
   3  -1  15    5.34    1.73
  -3   1 -16   12.01    2.49
   3  -1  16    6.70    2.14
  -3   1 -17   -0.70    1.30
   3  -1  17    1.10    1.67
  -3   1 -18   10.11    2.36
   3  -1  18   18.82    2.92
   3  -1  19    1.90    1.59
   5  -1 -21   -1.20    1.09
  -5   1  21   -0.34    0.88
   5  -1 -20 1235.13   40.93
  -5   1  20  898.24   31.62
  -5   1  20  891.02   32.85
   5  -1 -19   -0.37    1.04
  -5   1  19    2.07    3.41
   5  -1 -18 1257.54   30.88
   5  -1 -17    5.63    1.33
   5  -1 -16  156.73   10.88
  -5   1  16  125.22    5.46
  -5   1  16  121.02    9.16
   5  -1 -15    3.25    0.98
  -5   1  15    0.97    1.66
  -5   1  15    2.97    1.49
   5  -1 -14   44.99    8.89
  -5   1  14   59.78    8.64
  -5   1  14   37.72    6.04
   5  -1 -14   45.94    7.03
   5  -1 -13    2.02    0.63
  -5   1  13    2.89    1.30
  -5   1  13    1.57    1.46
   5  -1 -13    1.98    1.71
   5  -1 -12 1072.00   24.84
  -5   1  12  945.67   22.77
  -5   1  12 1012.43   26.15
   5  -1 -12  972.34   24.54
   5  -1 -11   31.61    4.76
  -5   1  11   21.60    2.10
  -5   1  11   33.52    5.68
   5  -1 -11   24.75    3.03
  -5   1  10 1686.90   36.61
  -5   1  10 1699.37   39.12
   5  -1 -10 1653.14   37.61
  -5   1   9    5.08    1.21
  -5   1   9    3.32    1.05
  -5   1   9    4.62    1.34
   5  -1  -9    0.79    1.58
  -5   1   8 1790.60   42.25
  -5   1   8 1624.04   38.38
  -5   1   8 1637.41   40.44
   5  -1  -8 1684.72   41.91
  -5   1   7    2.79    1.21
  -5   1   7    1.22    0.81
  -5   1   7    2.66    1.20
   5  -1  -7    4.91    1.76
  -5   1   6 2699.82   63.02
   5  -1  -6 2745.15   66.10
  -5   1   4  391.86    4.71
   5  -1  -4  426.98    4.73
   5  -1  -4  392.03    6.69
  -5   1   3   36.25    2.94
   5  -1  -3   25.38    2.18
   5  -1  -3   35.76    5.14
  -5   1   2  229.73    3.93
   5  -1  -2  238.91    3.80
  -5   1   1   59.27    4.60
   5  -1  -1   48.76    3.86
  -5   1   0  726.13    8.45
   5  -1   0  689.44    7.55
  -5   1  -1  213.20    4.72
   5  -1   1  196.46    4.10
  -5   1  -2 1115.47   12.08
   5  -1   2 1085.33   11.19
  -5   1  -3   94.69    4.33
   5  -1   3  118.64    4.96
  -5   1  -4 3171.02   75.61
   5  -1   4 3278.89   77.83
  -5   1  -5   19.99    3.30
  -5   1  -6 3456.98   82.63
   5  -1   6 3684.35   87.85
  -5   1  -7   15.28    2.62
   5  -1   7   37.34   11.65
  -5   1  -8 1088.14   26.17
   5  -1   8 1139.75   27.85
  -5   1  -9   30.73    3.33
  -5   1 -10  471.95   14.27
   5  -1  10  468.19   14.67
   5  -1  11   -1.16    2.14
  -5   1 -12  408.24   16.60
   5  -1  12  425.50   17.68
   5  -1  13   14.45    3.44
  -5   1 -14  738.67   17.79
   5  -1  14  769.49   19.31
  -5   1 -15   38.48    3.86
  -5   1 -16 1314.93   49.07
   5  -1  16 1398.50   52.84
  -7   1  20    3.05    2.16
  -7   1  20    3.80    1.32
  -7   1  19    2.14    1.87
  -7   1  19   -0.35    1.27
  -7   1  19   -0.61    1.39
  -7   1  18   63.44    4.51
  -7   1  18   90.36    5.57
  -7   1  18   68.44   16.34
  -7   1  17    1.40    1.42
  -7   1  17    0.58    1.07
  -7   1  17    2.41    1.02
   7  -1 -17   -0.06    1.72
  -7   1  16   75.39    5.61
  -7   1  16   97.23    6.69
  -7   1  16   75.04    7.37
   7  -1 -16   74.16    6.29
  -7   1  15   24.37    2.06
  -7   1  15   33.33    2.39
   7  -1 -15   25.85    2.93
  -7   1  14 1746.33   60.37
  -7   1  14 2089.69   71.68
   7  -1 -14 1908.80   67.10
  -7   1  13    3.85    1.49
  -7   1  13    6.71    1.90
  -7   1  13    6.14    1.77
   7  -1 -13    2.75    1.72
  -7   1  12 1084.07   26.36
  -7   1  12 1124.33   27.17
  -7   1  12 1157.91   31.15
   7  -1 -12 1128.79   29.52
  -7   1  11    7.53    1.25
  -7   1  11    6.54    1.19
  -7   1  11    2.33    4.48
   7  -1 -11    3.79    1.86
  -7   1  10 3190.93   67.68
  -7   1  10 3095.50   68.85
  -7   1  10 3179.13   69.87
   7  -1 -10 3111.36   72.10
  -7   1   9    5.26    1.42
  -7   1   9    8.53    1.52
   7  -1  -9    6.27    2.06
  -7   1   8  319.81    7.89
  -7   1   8  277.87    7.26
   7  -1  -8  259.19   13.28
  -7   1   7   19.86    2.42
  -7   1   7   11.35    1.36
   7  -1  -7   16.59    3.19
  -7   1   6   10.13    1.73
   7  -1  -6   14.12    2.05
   7  -1  -6   10.54    2.68
  -7   1   5    4.21    1.15
   7  -1  -5    8.24    1.59
   7  -1  -5    7.49    2.31
  -7   1   4 1170.80   28.74
   7  -1  -4 1196.58   28.97
   7  -1  -4 1221.09   30.70
  -7   1   3   34.56    4.26
   7  -1  -3   56.37    6.42
   7  -1  -3   43.43    6.52
  -7   1   2 4110.98   96.76
   7  -1  -2 4781.55  111.77
  -7   1   1  220.60    7.21
   7  -1  -1  169.18    5.68
  -7   1   0 1019.46   25.90
   7  -1   0  996.45   24.82
  -7   1  -1   67.59    3.75
   7  -1   1   53.49    6.39
  -7   1  -2 1719.45   42.45
   7  -1   2 1710.80   41.64
  -7   1  -3   64.84    4.90
   7  -1   3   65.91    4.95
  -7   1  -4  104.86    4.92
   7  -1   4  102.26    4.75
  -7   1  -5   12.05    2.35
   7  -1   5    6.97    1.84
  -7   1  -6  401.18   12.35
   7  -1   6  421.26   12.45
  -7   1  -7    7.40    1.97
   7  -1   7    8.53    2.14
  -7   1  -8  387.77   12.56
   7  -1   8  405.52   13.39
  -7   1  -9   -1.39    1.55
   7  -1   9   -2.62    2.98
  -7   1 -10 1093.25   39.81
   7  -1  10 1182.58   43.03
  -7   1 -11   44.44    3.83
  -7   1 -12 1049.92   23.59
   7  -1  12 1168.51   26.36
  -7   1 -13    6.12    1.95
   7  -1  13   -1.17    4.58
  -7   1 -14  694.03   27.67
   7  -1  14  738.72   29.82
  -7   1 -15    3.62    1.79
   7  -1  15    0.31    2.23
   7  -1  16   26.46    4.94
  -9   1  20  160.33   10.29
  -9   1  19    4.83    1.69
  -9   1  19    0.52    1.30
  -9   1  19    1.41    0.87
  -9   1  18 2071.31   74.36
  -9   1  18 2319.10  145.54
   9  -1 -18 2462.50  154.78
  -9   1  17   18.10    3.33
  -9   1  17   14.54    2.00
  -9   1  17    9.59    2.46
   9  -1 -17   11.24    2.45
  -9   1  16   32.97    4.18
  -9   1  16   38.05    4.67
  -9   1  16   40.85    9.47
   9  -1 -16   37.35    5.37
  -9   1  15   15.16    2.28
  -9   1  15   16.31    1.83
  -9   1  15   22.65    5.97
   9  -1 -15   16.76    2.84
  -9   1  14  528.14   13.13
  -9   1  14  535.41   15.77
   9  -1 -14  503.02   15.14
  -9   1  13    0.22    0.70
  -9   1  13    1.68    1.22
  -9   1  13    0.28    1.17
   9  -1 -13    0.82    1.46
  -9   1  12  134.75    5.74
  -9   1  12  137.76    6.09
  -9   1  12  135.95    7.19
   9  -1 -12  124.32    7.38
  -9   1  11    0.30    0.29
  -9   1  11    9.09    2.27
   9  -1 -11    0.78    1.12
  -9   1  10 1646.74   38.84
  -9   1  10 1508.88   36.06
   9  -1 -10 1399.60   36.60
  -9   1   9   75.19    5.67
  -9   1   9   66.04    3.33
   9  -1  -9   63.16   12.45
  -9   1   8  193.27    7.27
  -9   1   8  170.19    5.85
   9  -1  -8  158.08   11.02
  -9   1   7    6.33    1.57
   9  -1  -7   10.97    1.60
   9  -1  -7   14.40    2.54
  -9   1   6 2354.51   53.81
   9  -1  -6 2524.76   57.04
   9  -1  -6 2262.34   53.26
  -9   1   5    0.03    1.30
   9  -1  -5    3.40    1.10
   9  -1  -5    1.75    1.28
  -9   1   4   26.76    2.83
   9  -1  -4   30.36    2.90
   9  -1  -4   31.42    8.02
  -9   1   3    7.45    1.64
   9  -1  -3    8.08    1.63
   9  -1  -3   12.04    2.06
  -9   1   2  589.29   15.49
   9  -1  -2  613.30   15.14
   9  -1  -2  633.37   16.97
  -9   1   1   22.74    2.75
   9  -1  -1    0.95    1.19
  -9   1   0   20.63    2.82
   9  -1   0   32.61    3.25
  -9   1  -1   43.78    4.33
   9  -1   1   39.08    3.53
  -9   1  -2  369.91   11.68
   9  -1   2  352.39   10.44
  -9   1  -3    6.68    2.28
   9  -1   3    2.61    1.44
  -9   1  -4  248.21    9.25
   9  -1   4  234.90    8.30
  -9   1  -5   31.44    5.35
   9  -1   5   29.74    4.97
   9  -1   6 2469.77   85.63
  -9   1  -7    4.50    2.13
   9  -1   7    1.76    1.91
  -9   1  -8   15.64    2.92
   9  -1   8    8.06    1.85
  -9   1  -9   19.57    2.92
   9  -1   9   13.33    5.71
  -9   1 -10  866.73   24.25
   9  -1  10  955.39   26.21
  -9   1 -11    2.19    1.93
   9  -1  11   -3.93    1.75
  -9   1 -12   34.21    3.80
   9  -1  12   37.29    4.24
 -11   1  19    9.63    1.85
  11  -1 -19    3.88    2.35
 -11   1  18    4.93    1.96
  11  -1 -18    6.04    3.18
 -11   1  17    3.48    1.01
  11  -1 -17    5.72    2.67
 -11   1  16   28.59    2.37
  11  -1 -16   28.14    3.79
 -11   1  15    1.92    1.27
 -11   1  15    0.32    0.79
  11  -1 -15    1.32    1.56
 -11   1  14 1196.53   28.41
 -11   1  14 1302.36   31.07
  11  -1 -14 1116.61   30.01
 -11   1  13    1.00    0.45
 -11   1  13    0.65    0.84
  11  -1 -13    2.94    1.66
 -11   1  12  135.89    5.05
 -11   1  12  138.33    4.89
  11  -1 -12  106.96    9.88
 -11   1  11   10.17    1.29
 -11   1  11    5.27    1.29
  11  -1 -11    3.87    2.43
 -11   1  10 2847.32   60.47
 -11   1  10 2650.91   57.31
  11  -1 -10 2418.03   55.34
 -11   1   9   10.26    1.71
 -11   1   9   14.76    1.99
  11  -1  -9    9.89    1.71
 -11   1   8   62.74    4.17
  11  -1  -8   67.56    3.99
  11  -1  -8   66.55   11.97
 -11   1   7   17.60    2.22
  11  -1  -7   18.86    2.14
  11  -1  -7   21.04    3.87
 -11   1   6  307.72   12.61
  11  -1  -6  300.26   11.91
  11  -1  -6  308.55   13.88
 -11   1   5    7.59    3.01
  11  -1  -5    0.18    0.97
  11  -1  -5    0.27    0.66
 -11   1   4   53.86    4.15
  11  -1  -4   80.33    4.46
  11  -1  -4   52.98    5.36
 -11   1   3    2.20    2.56
  11  -1  -3    2.51    1.24
  11  -1  -3    3.04    1.77
 -11   1   2 3116.09  107.51
  11  -1  -2 3358.03  114.84
  11  -1  -2 3332.60  114.45
  11  -1  -1    6.17    1.55
  11  -1  -1    9.57    2.25
 -11   1   0   42.79    3.78
  11  -1   0   47.20    3.20
 -11   1  -1    6.47    3.10
  11  -1   1    3.24    1.70
 -11   1  -2 3339.19   73.85
  11  -1   2 3316.37   71.82
 -11   1  -3   18.99    3.76
  11  -1   3    2.87    1.98
 -11   1  -4   70.38    5.12
 -11   1  -5    1.01    1.85
  11  -1   5    0.78    1.20
 -11   1  -6   19.93    3.52
  11  -1   6    6.39    2.02
 -11   1  -7    0.99    1.85
  11  -1   7    1.39    1.45
 -11   1  -8    7.38    2.59
  11  -1   8    5.66    2.01
 -11   1  -9   -0.57    1.94
  11  -1   9    0.03    5.16
 -11   1 -10  980.11   55.14
  11  -1  10 1042.73   58.34
  11  -1  11    9.39    3.56
 -13   1  16  230.80   13.34
 -13   1  16  255.58   14.93
  13  -1 -16  198.31   13.81
 -13   1  15    2.85    1.09
 -13   1  15    2.72    1.58
  13  -1 -15    3.35    2.87
 -13   1  14  914.91   30.22
  13  -1 -14  819.09   30.20
 -13   1  13    0.30    0.33
  13  -1 -13   -0.59    1.54
 -13   1  12  116.43    8.04
 -13   1  12  111.82    5.90
  13  -1 -12   77.65   15.41
 -13   1  11    0.18    0.35
 -13   1  11    2.80    1.62
  13  -1 -11    0.53    0.88
 -13   1  10  423.15   19.03
 -13   1  10  436.24   20.37
  13  -1 -10  329.31   23.26
 -13   1   9    6.89    2.00
  13  -1  -9    6.50    1.97
 -13   1   8  115.04    5.72
  13  -1  -8  125.33    5.54
  13  -1  -8  100.70   10.82
 -13   1   7    4.32    2.21
  13  -1  -7    8.34    1.88
  13  -1  -7    9.77    1.66
 -13   1   6 1908.63   37.45
  13  -1  -6 1827.63   34.94
  13  -1  -6 1954.61   38.86
 -13   1   5    0.98    1.67
  13  -1  -5    2.56    1.61
  13  -1  -5    3.14    0.91
 -13   1   4  276.19    9.62
  13  -1  -4  227.99    7.37
  13  -1  -4  267.96   12.50
 -13   1   3    1.15    1.94
  13  -1  -3    1.74    1.63
  13  -1  -3    0.65    0.57
 -13   1   2  608.81   16.04
  13  -1  -2  621.98   14.66
  13  -1  -2  615.79   15.34
 -13   1   1   34.20    5.16
  13  -1  -1   21.40    3.30
  13  -1  -1   23.91    5.60
 -13   1   0   51.86    4.61
  13  -1   0   60.23    3.84
  13  -1   0   47.94    7.39
 -13   1  -1    2.77    2.01
  13  -1   1    2.98    1.60
  13  -1   1    0.68    0.49
 -13   1  -2   67.24    5.94
  13  -1   2   44.97    3.86
  13  -1   2   54.52    4.20
 -13   1  -3    3.02    2.70
  13  -1   3   -0.98    1.30
 -13   1  -4   12.32    3.64
  13  -1   4    3.55    2.07
 -13   1  -5    0.40    2.05
  13  -1   5   -0.21    1.62
 -13   1  -6 1296.48   72.22
  13  -1   6 1182.70   65.33
 -13   1  -7    2.36    2.34
  13  -1   7    2.26    2.06
  13  -1   8  116.43    8.88
 -15   1  12  508.45   28.30
 -15   1  11    1.45    0.77
  15  -1 -11    3.95    1.71
 -15   1  10  618.01   34.10
  15  -1 -10  572.55   35.63
 -15   1   9    0.66    1.37
  15  -1  -9    3.72    1.38
 -15   1   8  596.10   33.85
  15  -1  -8  504.41   28.74
  15  -1  -8  490.36   33.13
 -15   1   7    1.90    1.70
  15  -1  -7    2.09    1.30
  15  -1  -7    4.97    2.04
 -15   1   6  327.96   13.84
  15  -1  -6  326.54   13.11
  15  -1  -6  314.85   15.35
 -15   1   5    1.35    1.77
  15  -1  -5    2.48    1.29
  15  -1  -5    3.61    1.06
 -15   1   4   41.84    4.37
  15  -1  -4   49.75    4.04
  15  -1  -4   35.72    8.79
  15  -1  -3    3.47    1.93
  15  -1  -3    1.86    1.84
 -15   1   2  325.21   20.26
  15  -1  -2  310.68   18.51
  15  -1  -2  314.31   19.63
 -15   1   1    1.13    2.18
  15  -1  -1   -0.75    1.28
  15  -1  -1    1.27    0.89
 -15   1   0  634.02   36.81
  15  -1   0  660.82   37.28
  15  -1   0  655.54   37.04
  15  -1   1    0.89    1.42
  15  -1   1    1.00    0.88
 -15   1  -2 1170.76   65.95
  15  -1   2 1104.62   61.31
  15  -1   2 1207.47   66.73
  15  -1   3   -0.31    1.63
  15  -1   3    0.40    1.45
  14   2   4   13.85    3.12
  14   2   3   12.95    3.66
  14   2   3   12.96    2.98
  14   2   2  247.73   15.96
  14   2   2  329.66   19.89
 -14  -2  -1   11.59    3.15
  14   2   1   27.47    5.71
  14   2   1   11.01    3.25
 -14  -2   0  382.91   16.15
  14   2   0  436.40   18.13
  14   2   0  471.58   18.53
 -14  -2   1   81.74    6.36
  14   2  -1  124.55    7.63
  14   2  -1  123.82    8.02
 -14  -2   2 1476.71   50.43
  14   2  -2 1656.16   56.32
  14   2  -2 1747.66   58.96
 -14  -2   3   10.90    2.69
  14   2  -3   27.79    4.07
 -14  -2   4  448.20   19.08
  14   2  -4  464.12   18.60
  14   2  -4  465.14   20.30
 -14  -2   5    9.23    2.57
  14   2  -5   23.67    3.71
  14   2  -5   13.53    3.54
 -14  -2   6  319.13   13.62
  14   2  -6  270.31   12.28
  14   2  -6  268.90   12.85
 -14  -2   7   -0.23    1.66
  14   2  -7    2.18    2.06
  14   2  -7    4.33    2.96
 -14  -2   8   56.11    4.45
  14   2  -8   47.22    4.44
  14   2  -8   43.90    4.90
 -14  -2   9   10.71    2.24
 -14  -2   9    8.93    2.17
  14   2  -9    5.63    2.98
 -14  -2  10  755.74   42.10
 -14  -2  10  773.88   43.50
  14   2 -10  708.60   41.15
 -14  -2  11    0.35    0.47
 -14  -2  11    3.12    2.27
 -14  -2  11    2.24    1.46
  14   2 -11    0.55    2.76
 -14  -2  12  538.70   30.64
 -14  -2  12  564.49   32.34
  14   2 -12  518.01   31.29
 -14  -2  13    4.52    1.34
 -14  -2  13    5.78    1.95
 -12  -2  -7    3.34    2.66
  12   2   7   -2.33    2.65
  12   2   7    0.54    1.23
 -12  -2  -6 1646.07   56.13
  12   2   6 1595.68   54.49
  12   2   6 1981.69   64.81
 -12  -2  -5    3.30    2.05
  12   2   5    6.51    3.16
  12   2   5    1.30    1.01
 -12  -2  -4  110.56    7.31
  12   2   4  110.20    7.17
  12   2   4  137.31   12.82
 -12  -2  -3    7.79    2.27
  12   2   3   26.48    3.50
  12   2   3   11.67    3.84
 -12  -2  -2 1381.77   35.80
  12   2   2 1565.17   39.74
  12   2   2 1519.65   37.74
 -12  -2  -1    6.25    3.00
  12   2   1    6.53    2.41
  12   2   1    7.38    1.74
 -12  -2   0   38.99    4.14
  12   2   0   47.78    4.86
  12   2   0   37.80    4.01
 -12  -2   1    7.64    2.98
  12   2  -1    7.27    2.37
  12   2  -1    3.68    1.57
 -12  -2   2   10.87    2.58
  12   2  -2    5.29    1.91
  12   2  -2    9.48    2.42
 -12  -2   3   30.53    3.49
  12   2  -3   31.89    3.97
  12   2  -3   40.22    4.80
 -12  -2   4   83.49    6.88
  12   2  -4   78.15    6.65
  12   2  -4   76.33    6.62
 -12  -2   5   35.54    4.06
  12   2  -5  101.89    8.15
  12   2  -5   66.49    5.99
 -12  -2   6 1198.34   25.64
  12   2  -6 1094.17   24.41
  12   2  -6 1141.08   26.09
 -12  -2   7    2.06    1.57
  12   2  -7    2.08    1.57
  12   2  -7    4.67    2.24
 -12  -2   8  149.55    6.63
 -12  -2   8  142.61   16.30
  12   2  -8  145.73    7.86
 -12  -2   9   15.73    3.37
 -12  -2   9   15.94    3.08
 -12  -2   9   17.96    3.78
  12   2  -9   12.50    3.31
 -12  -2  10 1751.13   42.67
 -12  -2  10 1762.17   43.22
 -12  -2  10 1739.57   42.24
  12   2 -10 1712.46   44.38
 -12  -2  11   42.35    8.70
 -12  -2  11   40.58    3.77
 -12  -2  11   46.29    6.70
  12   2 -11   32.16    4.33
 -12  -2  12   13.40    3.13
 -12  -2  12   13.40    3.07
 -12  -2  12   13.56    3.46
 -12  -2  13    6.76    2.42
 -12  -2  13    5.43    2.34
 -12  -2  13    6.70    1.74
 -12  -2  14  158.36   10.93
 -12  -2  14  162.86    8.64
 -12  -2  14  150.81   12.89
 -12  -2  15    6.68    1.59
 -12  -2  15    7.54    2.74
 -12  -2  15    8.61    2.52
 -12  -2  16  156.72   12.44
 -12  -2  17   10.33    1.72
  10   2  11   33.32    4.71
  10   2  11   32.16    5.58
 -10  -2 -10 1588.14   54.04
  10   2  10 1796.21   61.11
  10   2  10 2161.75  317.94
 -10  -2  -9   -0.20    1.64
  10   2   9   -2.66    2.09
  10   2   9    0.60    0.42
 -10  -2  -8  169.91   10.05
  10   2   8  191.47   11.21
  10   2   8  193.83   10.58
 -10  -2  -7   24.28    3.96
  10   2   7   27.65    4.65
  10   2   7   32.91    5.73
 -10  -2  -6  916.60   21.52
  10   2   6  990.72   22.97
  10   2   6  980.82   19.99
 -10  -2  -5    1.66    1.80
  10   2   5    1.60    1.91
  10   2   5    0.18    0.82
 -10  -2  -4    4.94    2.78
  10   2   4    2.56    1.68
  10   2   4    7.28    1.68
 -10  -2  -3   80.64    5.15
  10   2   3   78.18    4.86
  10   2   3   61.61    5.65
 -10  -2  -2   92.54    5.88
  10   2   2   95.17    6.08
  10   2   2   87.12    9.91
 -10  -2  -1   13.54    2.56
  10   2   1   14.55    2.27
  10   2   1   14.25    2.32
 -10  -2   0    3.25    2.07
  10   2   0    1.74    1.78
  10   2   0    0.97    1.26
 -10  -2   1   11.91    2.61
  10   2  -1   16.06    2.62
 -10  -2   2 2821.66   68.01
  10   2  -2 2915.25   70.38
 -10  -2   3   33.09    5.48
  10   2  -3   30.59    5.23
  10   2  -3   24.87    4.52
 -10  -2   4   16.66    3.71
  10   2  -4    4.81    1.99
  10   2  -4    3.35    1.87
 -10  -2   5   75.61    5.03
  10   2  -5   39.42    6.42
 -10  -2   5   53.09    4.45
 -10  -2   6 2369.51   82.32
  10   2  -6 2265.46   79.12
 -10  -2   6 2371.31   81.68
  10   2  -6 2263.38   79.44
 -10  -2   7    5.79    2.52
  10   2  -7    2.33    1.61
 -10  -2   7    0.59    0.68
  10   2  -7   -1.13    1.44
 -10  -2   8  104.40    5.46
 -10  -2   8   95.74    8.92
  10   2  -8   94.15    6.46
 -10  -2   9    6.76    1.47
 -10  -2   9   11.47    2.15
  10   2  -9    5.62    1.65
 -10  -2  10  338.40   19.31
 -10  -2  11    8.15    1.49
 -10  -2  11    9.68    1.95
 -10  -2  11    8.88    2.10
 -10  -2  12    3.13    1.35
 -10  -2  12    6.37    2.42
 -10  -2  12    2.86    1.71
 -10  -2  13    1.46    1.40
 -10  -2  13    5.15    2.59
 -10  -2  13    0.75    0.77
 -10  -2  14 2757.60   22.00
 -10  -2  14 2682.75   63.77
 -10  -2  14 2767.60   26.22
 -10  -2  15   13.47    2.18
 -10  -2  15   11.75    2.21
 -10  -2  15   13.22    2.92
 -10  -2  16    6.96    2.31
 -10  -2  16    7.36    2.48
 -10  -2  16    3.87    1.83
 -10  -2  17    8.09    1.85
 -10  -2  17    4.33    2.03
 -10  -2  17   12.12    2.48
 -10  -2  18  708.54   39.99
 -10  -2  19    2.08    1.48
   8   2  14 1188.68   66.90
  -8  -2 -13   12.83    2.59
   8   2  13   15.13    3.53
   8   2  13   12.84    1.40
  -8  -2 -12   98.79    6.43
   8   2  12   92.73    6.74
   8   2  12  108.10    4.63
  -8  -2 -11   13.20    2.67
   8   2  11   14.63    3.23
   8   2  11   12.00    2.38
  -8  -2 -10  370.18   12.52
   8   2  10  403.56   13.92
   8   2  10  438.14   11.02
  -8  -2  -9   16.90    2.97
   8   2   9   14.05    2.91
   8   2   9   18.09    2.90
  -8  -2  -8    3.19    1.74
   8   2   8    3.57    1.84
   8   2   8    5.74    1.09
  -8  -2  -7   38.57    3.49
   8   2   7   37.71    3.49
   8   2   7   37.72    4.60
   8   2   6 1350.27   48.56
   8   2   6 1016.43   35.55
  -8  -2  -5   19.13    3.82
   8   2   5   17.23    3.59
   8   2   5   15.37    3.15
  -8  -2  -4  334.17   11.32
   8   2   4  317.38   11.05
   8   2   4  275.23    8.34
  -8  -2  -3   -0.50    1.90
   8   2   3    1.32    1.82
   8   2   3    0.73    0.77
  -8  -2  -2 3411.36   78.44
   8   2   2 3399.84   78.08
   8   2   2 3125.84   70.67
  -8  -2  -1   26.92    3.51
   8   2   1   25.26    3.33
   8   2   1   19.00    2.72
  -8  -2   0  517.64   15.12
   8   2   0  502.08   14.84
   8   2   0  544.26   14.83
  -8  -2   1   32.41    3.53
   8   2  -1   32.26    3.79
   8   2  -1   38.95    3.89
  -8  -2   2   87.92    4.92
   8   2  -2   83.70    4.85
  -8  -2   2   84.42    4.84
   8   2  -2   88.47    4.68
  -8  -2   3   34.03    3.56
   8   2  -3   30.16    3.52
  -8  -2   3   34.88    5.17
   8   2  -3   29.53    3.09
  -8  -2   4   43.14    4.11
   8   2  -4   41.63    4.20
  -8  -2   4   45.57    4.31
   8   2  -4   50.97    7.64
  -8  -2   5   39.15    4.08
   8   2  -5   30.82    3.66
  -8  -2   5   37.39    4.17
   8   2  -5   36.60    3.97
  -8  -2   6 1617.68   38.76
   8   2  -6 1538.49   37.30
  -8  -2   6 1469.42   34.90
   8   2  -6 1594.92   38.80
  -8  -2   7  282.97    8.89
  -8  -2   7  279.33    9.54
  -8  -2   7  260.68    8.53
   8   2  -7  278.67    9.95
  -8  -2   8  353.93   10.64
  -8  -2   8  341.40   11.17
  -8  -2   8  330.77   13.98
  -8  -2   9    2.67    1.34
  -8  -2   9    1.80    1.80
  -8  -2   9    0.78    0.72
  -8  -2  10 2686.36   63.97
  -8  -2  10 2568.02   61.93
  -8  -2  10 2613.52   63.59
  -8  -2  11    9.48    1.42
  -8  -2  11   13.72    2.50
  -8  -2  11    8.53    1.88
  -8  -2  12   88.63   10.03
  -8  -2  12   85.95    6.16
  -8  -2  13    4.49    1.55
  -8  -2  14  375.44   14.51
  -8  -2  15   22.22    3.20
  -8  -2  15   20.59    3.17
  -8  -2  15   17.19    4.11
  -8  -2  16   99.35    6.35
  -8  -2  16   93.77    6.79
  -8  -2  16   99.07    9.27
  -8  -2  17    3.76    1.61
  -8  -2  17    2.00    2.57
  -8  -2  17    2.12    1.14
  -8  -2  18  805.41   28.69
  -8  -2  18  825.13   29.85
  -8  -2  18  837.27   31.29
  -8  -2  19    0.96    1.51
  -8  -2  19    1.87    2.17
  -8  -2  20   22.91    3.22
  -6  -2 -16  284.59   17.57
   6   2  16  270.25   17.75
  -6  -2 -15    4.16    2.56
   6   2  15    0.70    2.02
  -6  -2 -14   94.62    6.01
   6   2  14   97.70    6.85
  -6  -2 -13    8.12    2.79
   6   2  13    3.56    2.65
   6   2  13    3.47    0.83
  -6  -2 -12  141.18    6.24
   6   2  12  149.44    7.36
   6   2  12  124.06    7.57
  -6  -2 -11    2.22    1.45
   6   2  11    2.49    2.00
   6   2  11    1.63    0.77
   6   2  10 1259.27   26.68
  -6  -2  -9   -0.01    1.58
   6   2   9   -0.12    2.17
  -6  -2  -8 1731.77   42.83
   6   2   8 1750.17   43.87
   6   2   8 1645.88   37.98
  -6  -2  -7   25.10    3.14
   6   2   7   24.26    3.37
   6   2   7   20.13    2.56
  -6  -2  -6  779.54   20.47
   6   2   6  785.85   21.10
   6   2   6  703.99   16.20
  -6  -2  -5   22.74    2.77
   6   2   5   22.64    2.75
   6   2   5   21.15    1.63
  -6  -2  -4  642.01   16.76
   6   2   4  598.82   16.04
  -6  -2  -3   54.81    4.52
   6   2   3   49.28    4.19
   6   2   3   55.78    3.37
  -6  -2  -2   10.17    1.96
   6   2   2    7.25    1.93
   6   2   2   13.01    1.58
  -6  -2  -1   60.29    7.31
   6   2   1   57.93    7.08
   6   2   1   65.76    2.86
  -6  -2   0  175.33    6.83
   6   2   0  182.21    7.22
  -6  -2   0  177.61    5.46
   6   2   0  204.28    6.35
  -6  -2   1   11.73    2.34
   6   2  -1    8.80    2.53
  -6  -2   1   13.07    2.69
   6   2  -1   15.91    2.66
  -6  -2   2 1598.49   39.69
   6   2  -2 1798.68   44.66
  -6  -2   2 1702.66   40.86
   6   2  -2 1855.84   44.77
  -6  -2   3    2.22    1.65
   6   2  -3    0.69    1.77
  -6  -2   3    9.95    2.38
  -6  -2   4 1899.98   46.78
   6   2  -4 1950.40   48.10
  -6  -2   4 1892.70   45.74
  -6  -2   5   48.20    6.09
   6   2  -5   44.11    5.69
  -6  -2   5   50.02    6.51
  -6  -2   6 3595.09   77.47
  -6  -2   6 3578.46   77.72
  -6  -2   6 3557.40   76.57
  -6  -2   7  230.59    8.95
  -6  -2   7  225.38    8.01
  -6  -2   7  240.59    7.94
  -6  -2   8 1579.48   36.22
  -6  -2   8 1495.26   34.72
  -6  -2   8 1650.16   37.59
  -6  -2   9    0.27    0.88
  -6  -2   9    1.68    1.75
  -6  -2   9   -0.84    1.51
  -6  -2  10    8.27    1.58
  -6  -2  10   11.34    2.52
  -6  -2  10    3.83    2.11
  -6  -2  11    1.28    1.07
  -6  -2  11    2.43    1.85
  -6  -2  11    3.29    2.26
  -6  -2  12  129.37   10.16
  -6  -2  12  140.13    6.65
  -6  -2  12  152.13    6.92
  -6  -2  13    1.39    1.02
  -6  -2  13    1.44    1.81
  -6  -2  13    0.34    1.67
  -6  -2  14 2412.61   54.43
  -6  -2  15    0.61    2.53
  -6  -2  15  -10.15   10.54
  -6  -2  16 1496.66   30.96
  -6  -2  16 1590.07   33.00
  -6  -2  17    6.85    1.93
  -6  -2  17    3.37    3.03
   6   2 -18 1372.48   50.78
  -6  -2  18 1276.85   47.90
  -6  -2  18 1372.01   51.46
   6   2 -19    0.73    9.10
  -6  -2  19    1.90    1.70
  -6  -2  19    0.77    0.69
   6   2 -20  131.73    9.21
  -6  -2  20  118.32    9.04
  -4  -2 -18   43.28    4.35
   4   2  18   30.43    4.82
  -4  -2 -17    8.20    2.26
   4   2  17    3.43    3.22
  -4  -2 -16 1051.58   39.50
   4   2  16  768.74   31.00
   4   2  16  832.15   30.69
  -4  -2 -15    8.42    1.98
   4   2  15    4.21    2.25
  -4  -2 -14  471.72   12.43
   4   2  14  377.26   12.21
   4   2  14  374.27    9.50
  -4  -2 -13    1.81    1.42
   4   2  13    1.35    2.50
   4   2  13   -2.03    0.66
  -4  -2 -12 2174.74   75.54
   4   2  12 1912.60   67.64
   4   2  12 1710.26   58.59
  -4  -2 -11    4.74    2.16
   4   2  11   -1.15    2.13
   4   2  11   -0.57    0.64
  -4  -2 -10  730.21   19.64
   4   2  10  687.54   19.58
   4   2  10  631.44   15.49
  -4  -2  -9   21.44    2.69
   4   2   9   20.55    3.12
   4   2   9   21.92    3.16
  -4  -2  -8  202.24    7.28
   4   2   8  192.34    7.38
  -4  -2  -7    3.92    1.52
   4   2   7    6.47    2.85
  -4  -2  -6  273.49    8.46
   4   2   6  273.99    8.95
  -4  -2  -5   45.97    5.74
   4   2   5   38.00    4.98
  -4  -2  -4 1849.82   45.12
   4   2   4 1705.72   42.14
  -4  -2  -3    2.77    1.42
   4   2   3    0.80    1.65
  -4  -2  -2 3200.32   76.08
   4   2   2 3222.19   76.90
  -4  -2  -1    5.49    1.71
   4   2   1    2.36    1.75
  -4  -2  -1    8.11    1.54
  -4  -2   0 4014.05   94.77
   4   2   0 4292.40  101.51
  -4  -2   0 4137.77   96.33
  -4  -2   1   22.75    2.85
   4   2  -1   23.11    3.02
  -4  -2   1   29.78    3.71
  -4  -2   2  683.02    9.76
   4   2  -2  687.72   10.07
  -4  -2   3    2.83    1.56
   4   2  -3    2.30    2.26
  -4  -2   3    3.02    1.32
  -4  -2   4   86.24    3.92
  -4  -2   4   96.30    4.62
  -4  -2   4   91.89    3.85
  -4  -2   5   -0.24    1.23
  -4  -2   5    4.19    2.53
  -4  -2   5    0.32    1.12
  -4  -2   6  722.97   19.13
  -4  -2   6  702.43   19.23
  -4  -2   6  767.59   19.91
  -4  -2   7   28.77    6.52
  -4  -2   7   20.11    3.15
  -4  -2   7   23.35   15.05
  -4  -2   8 1822.51   40.91
  -4  -2   8 1835.30   41.55
  -4  -2   8 1858.89   41.54
  -4  -2   9  141.03    7.29
  -4  -2   9   77.61    7.11
   4   2 -10 1603.11   36.41
  -4  -2  10 1616.47   37.23
  -4  -2  10 1590.85   36.38
   4   2 -11    2.65    1.17
  -4  -2  11    6.83    2.47
  -4  -2  11   -1.04    3.46
   4   2 -12 1535.37   37.08
  -4  -2  12 1548.20   37.50
  -4  -2  12 1554.02   37.50
   4   2 -13    5.62    1.81
  -4  -2  13    5.11    2.45
  -4  -2  13    4.90    5.31
   4   2 -14  694.54   25.90
  -4  -2  14  699.13   26.43
  -4  -2  14  706.59   26.50
   4   2 -15  112.63   14.34
  -4  -2  15  103.21    5.59
  -4  -2  15   95.69    5.43
   4   2 -16  220.91   20.55
  -4  -2  16  217.76    8.32
  -4  -2  16  210.51    7.98
   4   2 -17   46.68    5.02
  -4  -2  17   43.52    3.80
  -4  -2  17   49.37    4.18
   4   2 -18  146.26   15.79
  -4  -2  18  150.39    9.57
  -4  -2  18  162.33    9.51
  -4  -2  19    2.42    1.82
   4   2 -20  251.06   15.54
  -4  -2  20  231.36   15.16
   2   2  19    9.68    3.96
  -2  -2 -18  160.27    7.76
   2   2  18   97.36    6.89
  -2  -2 -17    3.41    1.78
   2   2  17   -0.74    1.97
   2   2  17    2.63    1.27
   2   2  16  798.62   23.08
   2   2  16  845.70   21.81
  -2  -2 -15    5.40    1.59
   2   2  15    4.51    2.72
  -2  -2 -14   37.63    2.88
   2   2  14   18.12    2.55
   2   2  14   25.08    5.03
  -2  -2 -13   68.04    4.22
   2   2  13   50.82    4.46
   2   2  13   47.95    2.76
  -2  -2 -12  110.69    4.87
   2   2  12   92.49    5.40
   2   2  12   87.10    5.26
  -2  -2 -11   67.05    3.76
   2   2  11   51.94    8.06
   2   2  11   52.80    5.06
  -2  -2 -10  271.17    8.47
   2   2  10  214.72    8.04
   2   2  10  218.98    9.00
  -2  -2  -9   12.42    1.85
   2   2   9    9.41    1.86
   2   2   9   14.42    2.17
  -2  -2  -8 3183.37   68.37
   2   2   8 2760.91   60.46
   2   2   8 2586.09   54.42
  -2  -2  -7   24.12    3.27
   2   2   7   20.24    3.27
  -2  -2  -6   46.73    5.46
   2   2   6   47.92    5.81
  -2  -2  -5    3.96    1.31
   2   2   5    2.77    1.51
  -2  -2  -4 2612.40   20.56
   2   2   4 2691.87   22.05
  -2  -2  -3    5.60    1.37
   2   2   3    5.67    1.53
  -2  -2  -2    6.18    1.26
   2   2   2    9.19    2.22
  -2  -2  -1  209.21    4.52
   2   2   1  214.54    4.94
  -2  -2   0  199.47    4.64
   2   2   0  196.98    4.75
  -2  -2   1   63.75    5.14
   2   2  -1   58.47    4.88
  -2  -2   2   95.83    4.95
  -2  -2   2   84.46    9.57
  -2  -2   3  355.93    6.66
  -2  -2   3  346.05    6.85
  -2  -2   4 6533.15   43.49
  -2  -2   4 6385.43   44.12
   2   2  -5   27.56    2.87
  -2  -2   5   31.01    3.32
   2   2  -6  728.26   19.03
  -2  -2   6  744.37   19.55
   2   2  -7   23.61    6.76
  -2  -2   7   25.11    5.11
   2   2  -8 4437.86  105.38
  -2  -2   8 4550.11  107.78
   2   2  -9    0.90    1.12
  -2  -2   9    0.46    1.58
   2   2 -10   17.15    3.59
  -2  -2  10   11.78    2.31
   2   2 -11   85.36   14.44
  -2  -2  11   78.02    4.50
   2   2 -13   17.16    4.33
  -2  -2  13   20.82    4.02
  -2  -2  13   16.09    3.54
   2   2 -14  505.69   19.75
  -2  -2  14  529.82   20.83
   2   2 -15   11.39    3.08
  -2  -2  15   11.10    2.29
   2   2 -16 3021.67   56.52
  -2  -2  16 2950.81   56.42
  -2  -2  16 3065.45   57.15
   2   2 -17   -8.58    3.71
  -2  -2  17    1.04    1.66
  -2  -2  17    8.18    2.39
   2   2 -18  214.73   22.44
  -2  -2  18  192.76   11.23
  -2  -2  18  211.39   11.70
  -2  -2  19    6.21    2.10
  -2  -2  20 1161.51   64.89
   0  -2 -20  331.48   19.44
   0   2  20  183.72   13.15
   0  -2 -19    7.91    1.97
   0   2  19    5.84    3.76
   0  -2 -18    5.58    1.73
   0   2  18   -0.15    1.91
   0   2  18    9.30    2.25
   0  -2 -17   50.58    3.85
   0   2  17   20.08    4.67
   0   2  17   42.30    9.66
   0   2  16  700.93   17.02
   0  -2 -15    0.77    1.07
   0   2  15   -0.84    1.49
   0   2  15    2.77    3.01
   0  -2 -14   57.16    3.48
   0   2  14   39.55    3.38
   0   2  14   52.43    3.93
   0  -2 -13   36.34    5.42
   0   2  13   16.36    4.02
   0   2  13   40.03   11.32
   0  -2 -12 3558.53   79.68
   0   2  12 2697.75   62.45
   0   2  12 3313.71   77.64
   0  -2 -11    2.37    1.36
   0   2  11    2.12    1.67
   0   2  11    1.22    0.75
   0  -2 -10    2.86    1.09
   0   2  10   15.91    2.30
   0   2  10    1.44    0.88
   0  -2  -9   96.19    3.62
   0   2   9   69.50    5.20
   0   2   9   80.96    7.05
   0  -2  -8 1429.83   34.43
   0  -2  -7   43.95    5.08
   0   2   7   33.09    4.21
   0  -2  -7   45.85    5.16
   0  -2  -6   73.30    2.93
   0   2   6   67.30    3.24
   0  -2  -6   79.54    2.80
   0  -2  -5   -0.73    0.76
   0   2   5   -0.48    1.06
   0  -2  -5    0.28    0.26
   0   2   4 1784.55   14.57
   0  -2  -4 1749.11   12.34
   0  -2  -3   -0.46    0.94
   0   2   3   -0.50    0.89
   0  -2  -2  140.94    3.26
   0   2   2  141.53    3.32
   0  -2  -1   94.66    3.11
   0  -2   0 8028.29  846.39
   0  -2   1  132.86    4.42
   0  -2   1  115.77    3.69
   0   2  -2  202.37    4.32
   0  -2   2  206.39    4.38
   0   2  -3   -0.33    0.90
   0  -2   3   -0.43    1.11
   0   2  -4 2567.36   21.13
   0  -2   4 2584.77   21.50
   0   2  -5    0.54    0.61
   0  -2   5    1.04    1.56
   0   2  -6  107.76    7.65
   0  -2   6   99.63    4.40
   0   2  -7   55.38    7.40
   0  -2   7   47.30    5.79
   0   2  -8 1920.55   47.28
   0  -2   8 1835.01   45.11
   0   2  -9  138.61   28.53
   0  -2   9  131.72    5.57
   0   2 -10    5.90    1.55
   0  -2  10    7.97    1.83
   0  -2  11    2.76    1.92
   0   2 -12 4329.27  102.13
   0  -2  12 4403.13   29.16
   0   2 -13   32.09   10.24
   0  -2  13   41.60    6.51
   0   2 -14   80.07   10.43
   0  -2  14   63.99    4.72
   0  -2  15    1.96    1.84
   0  -2  16  963.60   22.70
   0   2 -17   58.98    5.92
   0  -2  17   50.28    4.78
   0   2 -18    4.00    1.97
   0  -2  18    4.52    2.70
   0  -2  18    2.38    1.79
   0  -2  19   16.76    3.36
   0  -2  19    4.12    1.98
   0  -2  20  325.44   20.47
   2  -2 -21    1.62    0.78
  -2   2  21    0.31    2.05
   2  -2 -20 1245.39   67.89
  -2   2  20 1005.86   55.49
  -2   2  19    0.09    1.13
   2  -2 -18  196.22    9.79
  -2   2  18  107.52    7.50
  -2   2  18  149.47    9.58
  -2   2  17   -2.01    1.59
  -2   2  17    0.13    0.82
  -2   2  15    4.89    2.64
  -2   2  15    3.90    2.11
   2  -2 -14  461.82   16.83
  -2   2  14  282.67   11.99
  -2   2  14  428.43   17.20
  -2   2  13    4.38    1.90
  -2   2  13   14.49    3.56
   2  -2 -12   39.71    3.09
  -2   2  12   31.96    3.37
  -2   2  12   38.21    5.55
   2  -2 -12   35.36    3.27
   2  -2 -11   62.64    2.72
  -2   2  11   42.90    3.74
  -2   2  11   53.78    6.40
   2  -2 -11   67.15    3.50
   2  -2 -10    7.84    1.19
  -2   2  10    4.91    1.48
  -2   2  10   13.90    2.75
   2  -2 -10    9.80    1.76
   2  -2  -9    5.48    1.07
   2  -2  -9   -1.08    0.99
   2  -2  -8 3412.99   79.53
  -2   2   8 2702.78   63.70
   2  -2  -8 3429.97   81.06
   2  -2  -7   13.79    1.77
  -2   2   7   11.66    1.70
   2  -2  -7   16.67    3.74
   2  -2  -6  532.06   12.84
  -2   2   6  466.08   11.59
   2  -2  -6  496.49   13.20
   2  -2  -5   19.99    1.62
  -2   2   5   25.20    2.07
   2  -2  -5   26.13    4.33
   2  -2  -2  107.69    2.08
   2  -2  -2   82.73    9.03
  -2   2   1   72.56    5.83
   2  -2  -1   75.11    5.36
  -2   2   0  276.55    5.18
   2  -2   0  271.24    4.12
  -2   2  -1  281.13    4.81
   2  -2   1  294.72    4.63
  -2   2  -2   14.43    3.23
   2  -2   2   13.15    1.69
  -2   2  -3   12.24    2.66
   2  -2   3    7.93    1.61
  -2   2  -4 3703.23   28.64
   2  -2   4 3827.28   28.26
   2  -2   5    1.76    1.40
  -2   2  -6   68.84    3.58
   2  -2   6   44.83    5.55
  -2   2  -8 3842.37   83.18
   2  -2   8 4055.35   87.66
  -2   2  -9   -6.68    6.59
   2  -2   9   23.69    3.13
  -2   2 -10  305.94    9.94
   2  -2  10  339.64   11.17
  -2   2 -11   66.89    4.34
   2  -2  11   90.51    5.32
  -2   2 -12  134.66    6.20
   2  -2  12  133.63    6.64
  -2   2 -13   81.00    7.42
   2  -2  13   81.97    5.55
  -2   2 -14   34.35    9.63
   2  -2  14   31.52    3.28
   2  -2  15   41.59    4.63
  -2   2 -16 1262.43   32.60
   2  -2  16 1343.67   35.29
  -2   2 -17    2.06    2.26
   2  -2  17    2.92    2.12
  -2   2 -18  200.07    9.66
   2  -2  18  179.86   10.27
   4  -2 -20  267.27   15.45
  -4   2  20  131.06    9.44
   4  -2 -19    8.59    1.85
  -4   2  19    3.05    1.77
  -4   2  19    0.62    2.84
   4  -2 -18  142.55   11.56
  -4   2  18   71.88    5.29
  -4   2  18  119.18    8.35
   4  -2 -17   43.04    2.71
  -4   2  17   23.23    3.58
  -4   2  17   44.34    9.72
   4  -2 -16  180.24    5.05
  -4   2  16  188.10    7.72
   4  -2 -15   66.42    3.69
  -4   2  15   81.00    4.50
   4  -2 -15   86.46    4.44
   4  -2 -14  646.61   22.79
  -4   2  14  619.95   25.23
   4  -2 -14  609.15   22.66
   4  -2 -13   -0.73    5.39
  -4   2  13    1.85    2.07
  -4   2  13    2.63    1.67
   4  -2 -13    4.09    2.02
  -4   2  12 1286.87   32.14
   4  -2 -12 1263.73   30.54
   4  -2 -11    0.93    0.66
  -4   2  11    3.01    1.76
   4  -2 -11    0.99    1.43
   4  -2 -10 1321.71   30.52
   4  -2  -9  112.36    6.88
   4  -2  -8 1364.61   32.39
   4  -2  -7   21.13    4.27
   4  -2  -6  504.94   13.66
   4  -2  -5    9.18    2.84
  -4   2   3    3.70    0.58
   4  -2  -3    4.80    0.75
  -4   2   1   49.53    3.76
   4  -2  -1   48.87    3.74
  -4   2   0 4311.72   28.60
   4  -2   0 4116.16   27.05
  -4   2  -2 3611.93   85.12
   4  -2   2 3576.50   84.24
  -4   2  -3  146.04   15.88
   4  -2   3   21.67    5.34
  -4   2  -4 2113.06   51.30
   4  -2   4 2203.75   53.23
  -4   2  -5   60.03    7.96
   4  -2   5   47.24    6.00
  -4   2  -6  325.53    9.66
   4  -2   6  342.29   10.35
  -4   2  -7    3.91    2.44
   4  -2   7    6.10    2.42
  -4   2  -8  253.27    8.91
   4  -2   8  268.35    9.48
  -4   2  -9   27.73    4.52
   4  -2   9   27.35    3.79
  -4   2 -10  885.05   23.85
   4  -2  10  918.34   24.88
  -4   2 -12 2602.42   90.48
   4  -2  12 2688.20   93.67
   4  -2  13    7.88    2.60
  -4   2 -14  562.40   14.89
   4  -2  14  559.23   15.52
  -4   2 -16 1163.61   43.93
   4  -2  16 1251.32   47.68
  -4   2 -17    9.39    2.78
   4  -2  17   12.71    3.81
   6  -2 -20  103.90    9.03
  -6   2  20   71.42    5.75
  -6   2  20  106.55    7.70
   6  -2 -19   -0.33    1.24
  -6   2  19   -0.93    1.12
  -6   2  19   -1.89    1.62
   6  -2 -17    2.60    0.58
  -6   2  17    1.54    1.98
  -6   2  17    4.73    1.91
   6  -2 -17    4.49    2.01
  -6   2  15   -0.81    1.45
  -6   2  15    1.35    1.08
  -6   2  15    1.25    0.73
   6  -2 -15    3.23    1.41
  -6   2  13   -0.07    0.79
  -6   2  13    0.14    0.41
   6  -2 -13    0.34    1.49
   6  -2 -12  123.99    6.01
  -6   2  11    2.61    0.61
   6  -2 -11    1.24    0.96
   6  -2 -10   11.93    2.22
   6  -2  -9    1.24    0.87
   6  -2  -8 1173.07   28.04
   6  -2  -7  176.93    7.01
   6  -2  -6 2707.16   59.28
   6  -2  -5   56.43    8.05
  -6   2   4 1864.64   43.68
   6  -2  -3   19.86    2.45
  -6   2   2 1656.02   39.58
   6  -2  -2 1511.42   35.89
  -6   2   1   17.18    3.37
   6  -2  -1   26.27    3.22
  -6   2   0  171.41    5.81
   6  -2   0  166.91    5.33
  -6   2  -1   69.95    3.59
   6  -2   1   56.15    6.42
  -6   2  -2   14.51    2.22
   6  -2   2   10.94    1.83
  -6   2  -3   57.40    4.27
   6  -2   3   56.29    4.09
  -6   2  -4  726.76   18.31
   6  -2   4  697.99   17.28
  -6   2  -5   25.00    2.97
   6  -2   5   21.46    6.06
  -6   2  -6  894.23   23.12
   6  -2   6  869.08   22.33
   6  -2   7   23.08    7.11
  -6   2  -8 1983.26   48.87
   6  -2   8 1977.43   48.62
   6  -2   9  -13.59    8.21
  -6   2 -10 1683.94   59.72
   6  -2  10 1730.77   61.32
  -6   2 -11    4.65    2.51
   6  -2  11    1.27    3.14
  -6   2 -12  166.29    7.18
   6  -2  12  165.14    7.39
  -6   2 -13   12.24    3.02
   6  -2  13    7.00    2.94
  -6   2 -14  127.35    7.50
   6  -2  14  122.86    7.74
  -6   2 -15    7.15    2.72
   6  -2  15    2.87    2.18
   6  -2  16  354.52   22.13
  -8   2  19    0.56    0.83
   8  -2 -19    0.08    1.75
   8  -2 -18  750.38   27.32
  -8   2  17    1.02    1.17
   8  -2 -17    3.56    1.69
   8  -2 -16   88.23    6.37
  -8   2  15    7.11    1.84
  -8   2  15   20.75    1.65
   8  -2 -15   21.40    3.12
  -8   2  14  364.13    8.30
   8  -2 -13    6.58    1.52
   8  -2 -12   77.72   14.27
   8  -2 -11   10.79    1.55
   8  -2 -10 2131.96   52.80
   8  -2  -9    1.93    0.91
   8  -2  -8  253.25   12.18
  -8   2   7  299.24    7.09
   8  -2  -7  205.63   12.35
  -8   2   6 1244.62   28.31
   8  -2  -6 1342.99   32.61
  -8   2   5   22.98    2.72
   8  -2  -5   31.30    2.45
   8  -2  -5   34.08    6.54
  -8   2   4   33.43    2.88
   8  -2  -4   37.72    2.80
   8  -2  -4   41.42    3.76
  -8   2   3   28.75    2.72
   8  -2  -3   32.69    2.57
  -8   2   2   83.47    4.02
   8  -2  -2   80.86    5.41
  -8   2   1   33.06    3.21
   8  -2  -1   33.92    2.99
   8  -2   0  496.74   12.90
   8  -2   1   18.44    2.33
  -8   2  -2 3310.44   75.75
   8  -2   2 3361.83   75.65
   8  -2   4  302.31    9.68
   8  -2   5   16.66    3.40
  -8   2  -6 1378.63   49.33
   8  -2   6 1320.94   46.85
  -8   2  -7   34.01    3.31
   8  -2   7   33.38    2.94
  -8   2  -8    5.21    1.79
   8  -2   8    3.90    1.91
  -8   2  -9   12.94    2.73
   8  -2   9   14.69    3.52
  -8   2 -10  416.06   14.08
   8  -2  10  418.94   13.76
  -8   2 -11   11.98    2.52
   8  -2  11    7.06    2.76
  -8   2 -12  129.28    7.78
   8  -2  12   95.47    6.78
  -8   2 -13   17.51    3.42
   8  -2  13    6.94    2.75
   8  -2  14 1226.79   68.74
  10  -2 -18  659.80   38.06
  10  -2 -17   10.72    2.83
  10  -2 -16    7.32    2.58
  10  -2 -15   14.96    2.95
  10  -2 -14 2449.25   59.39
  10  -2 -13    1.69    1.25
  10  -2 -12    2.49    1.18
  10  -2 -11    9.12    1.64
 -10   2  10  183.04    4.79
  10  -2 -10  255.32   14.84
 -10   2   9   10.05    1.00
  10  -2  -9    7.17    1.36
 -10   2   8   60.15    3.18
  10  -2  -8   72.99   12.23
 -10   2   7    0.71    0.95
  10  -2  -7    0.13    0.60
  10  -2  -7    2.76    1.13
 -10   2   6 1665.21   57.64
  10  -2  -6 2327.27   79.41
  10  -2  -6 2213.95   77.03
 -10   2   5   25.84    4.36
  10  -2  -5   23.89    3.75
  10  -2  -5   27.34    7.38
 -10   2   4   28.85    4.88
  10  -2  -4    2.40    1.30
  10  -2  -4    6.40    3.04
 -10   2   3   22.93    3.97
  10  -2  -3   34.14    5.16
  10  -2  -3   33.54    5.34
 -10   2   2 2681.23   64.29
  10  -2  -2 3257.99   75.95
  10  -2  -1    8.87    1.55
  10  -2   0   27.71    2.31
 -10   2  -1   13.34    2.23
  10  -2   1   11.79    1.79
 -10   2  -2   84.30    5.59
  10  -2   2   80.38    4.57
 -10   2  -3   72.97    4.99
  10  -2   3   70.25    3.79
 -10   2  -4    1.66    1.90
  10  -2   4    2.90    1.24
 -10   2  -5   -0.40    2.32
  10  -2   5   -0.41    1.18
 -10   2  -6  908.57   21.81
 -10   2  -7   30.46    5.19
  10  -2   7   22.46    3.70
 -10   2  -8  178.50   10.65
  10  -2   8  168.98    9.72
 -10   2  -9    1.19    2.13
  10  -2   9   -3.99    6.34
 -10   2 -10 1764.67   59.92
  10  -2  10 1742.44   58.77
 -10   2 -11   24.96    5.02
  10  -2  11   36.92    5.30
  10  -2  12    7.85    3.54
  12  -2 -17    5.20    2.23
  12  -2 -16  135.13   10.40
  12  -2 -15    4.34    2.05
  12  -2 -14  114.69   11.11
  12  -2 -13    4.04    1.62
 -12   2  12    6.09    0.81
  12  -2 -12   12.80    1.73
 -12   2  11   12.64    1.23
  12  -2 -11   32.87    6.08
  12  -2 -10 1484.36   38.54
 -12   2   9   17.45    2.95
 -12   2   9    5.13    1.52
  12  -2  -9   18.03    3.14
 -12   2   8   88.92    6.36
  12  -2  -8  122.24   16.11
 -12   2   7    3.58    2.44
  12  -2  -7    2.21    1.00
  12  -2  -7    0.17    0.58
  12  -2  -6 1148.54   22.42
  12  -2  -6 1124.56   24.26
 -12   2   5   12.33    2.61
  12  -2  -5   13.52    2.20
  12  -2  -5   18.60    4.21
 -12   2   4   88.33    6.97
  12  -2  -4  117.65    7.85
  12  -2  -4   93.34    8.18
 -12   2   3   26.44    3.10
  12  -2  -3   36.83    3.33
  12  -2  -3   35.46    9.13
  12  -2  -2    8.92    1.74
  12  -2  -2    7.85    2.87
 -12   2   1    3.67    2.72
  12  -2  -1    5.28    1.54
 -12   2   0   45.94    4.92
  12  -2   0   50.45    4.30
 -12   2  -1    5.09    3.54
  12  -2   1    6.29    1.61
 -12   2  -2 1341.93   35.38
  12  -2   2 1441.98   35.28
 -12   2  -3    6.62    3.12
  12  -2   3    7.82    1.50
 -12   2  -4   94.11    7.03
  12  -2   4  119.30    7.16
 -12   2  -5    1.29    2.10
  12  -2   5    0.40    1.43
 -12   2  -6 1483.47   51.42
  12  -2   6 1480.69   49.78
  12  -2   7    0.26    2.02
 -12   2  -8  197.94   13.82
  12  -2   8  158.96   11.06
  12  -2   9    1.09    1.95
  14  -2 -12  472.01   30.69
 -14   2  11    1.68    0.57
 -14   2  10  802.76   43.49
  14  -2 -10  660.09   37.85
 -14   2   9    9.25    1.33
 -14   2   9    5.30    2.15
  14  -2  -9    8.36    1.70
  14  -2  -8   55.24    3.61
  14  -2  -8   46.84    6.47
  14  -2  -7    2.62    1.68
  14  -2  -7    1.28    0.80
 -14   2   6  273.47   11.87
  14  -2  -6  341.43   13.01
  14  -2  -6  314.57   14.84
 -14   2   5    2.92    2.09
  14  -2  -5    6.08    1.81
  14  -2  -5    3.25    1.19
 -14   2   4  403.34   17.52
  14  -2  -4  530.51   20.67
  14  -2  -4  506.78   20.70
 -14   2   3    0.02    2.70
  14  -2  -3    3.43    1.91
  14  -2  -3    1.08    1.07
 -14   2   2 1491.52   51.20
  14  -2  -2 1876.06   61.55
  14  -2  -2 1710.00   57.04
 -14   2   1   35.16    4.67
  14  -2  -1   46.00    3.58
  14  -2  -1   34.16    6.77
 -14   2   0  461.12   19.16
  14  -2   0  497.52   18.42
  14  -2   0  477.36   18.09
 -14   2  -1   14.04    4.54
  14  -2   1    7.67    2.13
 -14   2  -2  262.80   17.20
  14  -2   2  280.85   16.92
 -14   2  -3    4.23    2.55
  14  -2   3    7.94    1.79
 -14   2  -4   13.78    3.18
  14  -2   4    8.96    2.28
  13   3   2   45.13    5.42
  13   3   1    1.09    2.34
  13   3   0   28.60    6.00
 -13  -3   1   71.57    5.57
  13   3  -1   78.66    6.17
 -13  -3   2  628.02   23.89
  13   3  -2  584.37   22.86
 -13  -3   3    3.58    2.17
  13   3  -3    3.76    2.27
 -13  -3   4  155.60    8.54
  13   3  -4  130.45    8.09
 -13  -3   5   44.01    4.63
  13   3  -5   54.29    5.25
 -13  -3   6 1389.95   47.64
  13   3  -6 1231.06   43.02
 -13  -3   7    3.74    3.02
  13   3  -7    2.77    2.16
 -13  -3   8   49.15    3.98
 -13  -3   8   57.62    4.92
 -13  -3   8   49.98    8.49
 -13  -3   9   43.43    9.53
 -13  -3   9   48.20    5.13
 -13  -3   9   42.81   10.14
 -13  -3  10  276.55   24.09
 -13  -3  10  279.60   16.73
 -13  -3  11    2.07    1.52
 -13  -3  12   73.54   10.15
 -13  -3  12   74.23    7.93
 -13  -3  13    2.13    1.49
 -13  -3  13    1.03    0.90
  11   3   8   -2.16    2.30
  11   3   7    7.73    3.73
 -11  -3  -6   24.80    4.14
  11   3   6   23.69    3.92
  11   3   5   16.18    3.48
 -11  -3  -4   10.57    3.16
  11   3   4    7.96    2.58
 -11  -3  -3   23.16    3.42
  11   3   3   21.61    4.57
 -11  -3  -2 1891.20   82.80
  11   3   2 2135.95   93.47
 -11  -3  -1    2.31    1.97
  11   3   1    4.21    2.82
 -11  -3   0   49.98    4.48
  11   3   0   34.41    5.22
 -11  -3   1    0.24    1.82
  11   3  -1    7.33    3.46
 -11  -3   2 1482.79   31.28
  11   3  -2 1595.43   33.92
 -11  -3   3    6.15    2.90
  11   3  -3    5.99    2.25
 -11  -3   4    4.77    2.78
  11   3  -4    5.41    2.81
 -11  -3   5    4.12    2.17
  11   3  -5    2.86    1.40
 -11  -3   5    5.09    1.19
 -11  -3   6   75.09    5.14
  11   3  -6   67.79    4.99
 -11  -3   6   65.97    5.77
 -11  -3   7   13.00    2.39
 -11  -3   7   12.84    3.22
 -11  -3   7    9.73    2.23
 -11  -3   8   43.83    9.16
 -11  -3   8   62.70    4.73
 -11  -3   8   35.97    9.29
 -11  -3   9   16.88    3.93
 -11  -3   9   18.09    3.83
 -11  -3   9   14.15    2.83
 -11  -3  10 2284.99  340.61
 -11  -3  10 2188.81   95.21
 -11  -3  10 2005.99   86.95
 -11  -3  11   72.35    8.37
 -11  -3  11   77.21    5.74
 -11  -3  11   65.84   12.55
 -11  -3  12   47.18   11.49
 -11  -3  12   52.61    4.74
 -11  -3  12   45.67    8.88
 -11  -3  13   17.06    3.22
 -11  -3  13   21.85    3.58
 -11  -3  13   16.02    3.71
 -11  -3  14  951.73   52.81
 -11  -3  14  944.82   52.91
 -11  -3  14  893.87   51.46
 -11  -3  15    9.16    2.68
 -11  -3  15    7.29    2.29
 -11  -3  15    9.33    2.00
 -11  -3  16    1.13    1.04
   9   3  12   82.37    7.82
  -9  -3 -11   -1.04    1.51
   9   3  11    4.57    3.06
  -9  -3 -10  611.65   35.07
   9   3  10  626.66   36.43
  -9  -3  -9   18.28    2.85
   9   3   9   13.95    3.41
  -9  -3  -8   40.16    4.05
   9   3   8   42.43    4.87
  -9  -3  -7    3.63    2.38
   9   3   7    1.31    1.65
  -9  -3  -6 2142.97   52.14
   9   3   6 2182.49   53.79
  -9  -3  -5    3.96    2.34
   9   3   5    0.38    1.66
  -9  -3  -4  122.27    9.25
   9   3   4  118.91    9.15
  -9  -3  -3    6.67    2.10
   9   3   3    7.41    2.60
  -9  -3  -2  420.28   13.22
   9   3   2  389.25   12.87
  -9  -3  -1   77.69    4.76
   9   3   1   81.44    5.20
  -9  -3   0   31.12    3.46
   9   3   0   30.68    3.28
  -9  -3   1   13.47    2.57
   9   3  -1   11.65    2.45
  -9  -3   2  344.89   14.61
   9   3  -2  360.79   15.52
  -9  -3   2  378.22   14.31
  -9  -3   3  114.29    6.62
   9   3  -3  110.39    6.98
  -9  -3   3  116.06    6.28
  -9  -3   4    2.67    1.80
   9   3  -4    1.95    1.86
  -9  -3   4   14.68    2.47
  -9  -3   5    1.85    1.91
   9   3  -5   -0.71    1.56
  -9  -3   5    0.08    0.58
  -9  -3   6 2519.89   87.26
  -9  -3   6 2640.12   91.95
  -9  -3   6 2344.47   80.84
  -9  -3   7   39.39    3.58
  -9  -3   7   39.65    4.14
  -9  -3   7   32.95    5.37
  -9  -3   8   59.11    8.18
  -9  -3   8   71.49    4.93
  -9  -3   8   49.98    3.18
  -9  -3   9   46.51    4.78
  -9  -3   9   47.95    4.36
  -9  -3   9   47.63    7.85
  -9  -3  10 1016.93   22.00
  -9  -3  10  948.29   21.87
  -9  -3  10  914.07   20.46
  -9  -3  11   98.22   11.18
  -9  -3  11  103.69    8.08
  -9  -3  11   98.80   14.60
  -9  -3  12   70.94    6.45
  -9  -3  12   69.25    5.00
  -9  -3  12   83.40    6.24
  -9  -3  13   49.56   10.92
  -9  -3  13   53.17    5.23
  -9  -3  13   49.73   11.60
  -9  -3  14  282.68   23.31
  -9  -3  14  299.49   14.15
  -9  -3  14  275.92   16.53
  -9  -3  15    1.30    0.68
  -9  -3  15    1.57    2.11
  -9  -3  15    0.67    0.84
  -9  -3  16   25.17    6.37
  -9  -3  16   31.15    4.44
  -9  -3  16   23.36    5.80
  -9  -3  17    1.55    1.41
  -7  -3 -14  392.10   23.34
   7   3  14  439.19   26.97
  -7  -3 -13   23.64    4.48
   7   3  13   25.88    5.62
  -7  -3 -12  608.02   22.57
   7   3  12  626.75   24.36
  -7  -3 -11   14.13    3.28
   7   3  11   12.24    3.75
  -7  -3 -10  993.16   44.47
   7   3  10 1007.57   45.83
  -7  -3  -9   57.44    5.26
   7   3   9   54.53    5.67
  -7  -3  -8  389.65   11.35
   7   3   8  376.81   11.92
  -7  -3  -7  130.89    6.09
   7   3   7  129.73    6.72
  -7  -3  -6   76.87    4.62
   7   3   6   72.91    5.12
  -7  -3  -5   76.86    5.29
   7   3   5   63.79    4.87
  -7  -3  -4   14.18    2.21
   7   3   4    6.82    2.39
  -7  -3  -3    0.26    1.76
   7   3   3    2.15    1.80
  -7  -3  -2 1524.39   38.41
   7   3   2 1529.18   39.12
  -7  -3  -1   50.68    7.82
   7   3   1   51.91    8.17
  -7  -3   0 1392.14   34.25
   7   3   0 1529.08   37.95
  -7  -3   0 1378.06   31.64
  -7  -3   1   25.16    3.39
   7   3  -1   25.81    3.78
  -7  -3   1   23.57    4.66
  -7  -3   2 3135.22   72.35
   7   3  -2 3406.66   78.75
  -7  -3   2 3114.45   69.73
  -7  -3   3    7.19    2.14
   7   3  -3    7.46    2.48
  -7  -3   3   14.46    4.51
  -7  -3   4  838.98   22.46
   7   3  -4  849.04   22.81
  -7  -3   4  830.21   21.36
  -7  -3   5   33.69    5.37
  -7  -3   5   34.33    5.77
  -7  -3   5   36.24    7.68
  -7  -3   6   43.17    6.91
  -7  -3   6   40.30    6.69
  -7  -3   6   40.23    7.85
  -7  -3   7   63.23    5.20
  -7  -3   7   57.90    8.87
  -7  -3   7   73.50   11.43
  -7  -3   8   86.41    5.40
  -7  -3   8   87.34    5.43
  -7  -3   8   84.64    7.34
  -7  -3   9    1.29    1.14
  -7  -3   9    0.96    2.05
  -7  -3   9    1.15    1.67
  -7  -3  10 2125.25   74.18
  -7  -3  10 2071.38   72.97
  -7  -3  10 2129.00   74.23
  -7  -3  11  114.67    6.67
  -7  -3  11  119.99    6.63
  -7  -3  11   89.22    8.21
  -7  -3  12  621.92   17.08
  -7  -3  12  588.85   17.05
  -7  -3  12  605.88   16.83
  -7  -3  13   40.16   10.98
  -7  -3  13   36.53    4.34
  -7  -3  13   20.84    2.90
  -7  -3  14 2375.99   57.06
  -7  -3  14 2408.66   58.62
  -7  -3  14 2292.84   55.24
  -7  -3  15    8.83    1.90
  -7  -3  15    6.65    2.52
  -7  -3  15    7.87    4.92
  -7  -3  16  129.23    7.43
  -7  -3  16  115.95    7.56
  -7  -3  16  117.45    7.36
  -7  -3  17    1.34    1.47
  -7  -3  17   -0.16    2.13
  -7  -3  17   -0.01    1.70
  -7  -3  18   31.14    3.83
  -7  -3  19   81.58    7.32
  -5  -3 -16  860.50   48.26
   5   3  16  787.93   45.83
  -5  -3 -15   12.03    2.89
   5   3  15    8.01    4.62
  -5  -3 -14  662.66   24.01
   5   3  14  591.97   23.50
  -5  -3 -13    1.31    1.32
   5   3  13   -0.41    1.88
  -5  -3 -12  220.26    8.43
   5   3  12  186.77    8.93
  -5  -3 -11    6.50    1.96
   5   3  11    9.65    2.74
   5   3  10  228.60    9.41
  -5  -3  -9    7.05    1.89
   5   3   9    4.93    2.56
  -5  -3  -8  752.07   27.72
   5   3   8  626.69   24.37
  -5  -3  -7   40.44    6.36
   5   3   7   24.85    4.33
  -5  -3  -6 1640.10   40.52
   5   3   6 1455.22   37.24
  -5  -3  -5  119.56    5.53
   5   3   5  107.96    5.72
  -5  -3  -4 1953.24   45.92
   5   3   4 1929.79   46.15
  -5  -3  -3    1.00    1.64
   5   3   3    5.24    3.15
  -5  -3  -2  472.06   13.12
   5   3   2  473.92   13.79
  -5  -3  -1   40.24    3.89
   5   3   1   41.64    4.18
  -5  -3  -1   43.41    5.30
  -5  -3   0  104.83    5.26
   5   3   0  102.13    5.46
  -5  -3   0  100.03    3.68
  -5  -3   1   47.99    4.39
   5   3  -1   51.48    4.79
  -5  -3   1   50.88    4.68
  -5  -3   2  236.67    8.50
   5   3  -2  221.92    8.14
  -5  -3   2  252.25    7.03
  -5  -3   3  386.46   11.70
   5   3  -3  357.82   11.05
  -5  -3   3  420.79   10.79
  -5  -3   4  401.15   12.76
  -5  -3   4  406.35   12.44
  -5  -3   4  414.11   10.88
  -5  -3   5    3.09    1.04
  -5  -3   5    2.76    2.18
  -5  -3   5    0.68    2.06
  -5  -3   6 1886.52   44.94
  -5  -3   6 1959.46   47.01
  -5  -3   6 1908.67   44.28
  -5  -3   7    2.17    1.17
  -5  -3   7    3.85    2.15
  -5  -3   7   -0.03    9.46
  -5  -3   8 1809.12   43.66
  -5  -3   8 1827.69   44.40
  -5  -3   8 1854.87   43.58
  -5  -3   9   45.68   11.00
  -5  -3   9   35.97    5.88
  -5  -3   9   32.73    5.52
  -5  -3  10 1243.66   32.22
  -5  -3  10 1266.93   33.20
  -5  -3  10 1261.26   31.92
  -5  -3  11  245.70   13.52
  -5  -3  11  235.92   11.15
  -5  -3  11  212.70    9.57
  -5  -3  12  834.05   30.97
  -5  -3  12  861.52   32.36
  -5  -3  12  814.74   29.99
  -5  -3  13   12.60    2.24
  -5  -3  13   10.92    2.95
  -5  -3  13    4.52    1.79
  -5  -3  14  139.47    6.63
  -5  -3  14  137.19    6.95
  -5  -3  14  127.93   14.48
  -5  -3  15   16.77    2.96
  -5  -3  15   21.63    4.19
  -5  -3  15   19.22    3.66
  -5  -3  16  183.64   10.62
  -5  -3  16  197.89   11.04
   5   3 -17    9.22    2.76
  -5  -3  17   15.65    3.87
  -5  -3  17   10.74    3.34
   5   3 -18  995.71   55.46
  -5  -3  18  910.02   51.23
  -5  -3  19   12.57    2.96
  -3  -3 -17   38.00    3.81
  -3  -3 -15   -0.01    1.60
   3   3  15    1.07    2.20
  -3  -3 -14  155.97    8.66
   3   3  14  129.41    8.80
  -3  -3 -13   52.98    4.66
   3   3  13   36.71    4.42
  -3  -3 -12 1299.73   30.28
   3   3  12 1055.96   27.27
  -3  -3 -11    2.13    1.37
   3   3  11    5.60    2.07
  -3  -3 -10  170.49    7.89
   3   3  10  131.61    7.32
  -3  -3  -9   97.41    4.67
   3   3   9   84.71    5.19
  -3  -3  -8 1824.02   44.08
   3   3   8 1645.65   41.25
  -3  -3  -7    9.06    1.91
   3   3   7    6.02    2.17
  -3  -3  -6  369.53   10.73
   3   3   6  359.90   11.52
  -3  -3  -5  407.70   11.15
   3   3   5  443.80   12.83
  -3  -3  -4  145.77    5.39
   3   3   4  175.15    6.85
  -3  -3  -3    4.09    1.81
   3   3   3    9.62    3.00
  -3  -3  -3    4.81    0.52
  -3  -3  -2  155.35    5.75
   3   3   2  155.12    6.24
  -3  -3  -2  198.12    4.92
  -3  -3  -1   37.84    3.24
   3   3   1   41.67    3.74
  -3  -3  -1   64.43    3.80
  -3  -3   0 2322.36   56.28
   3   3   0 2299.52   55.91
  -3  -3   1   91.27    4.61
   3   3  -1   87.17    4.29
  -3  -3   2 1343.48   33.53
  -3  -3   2 1265.35   32.41
  -3  -3   3  230.64   10.04
  -3  -3   3  221.74    8.23
  -3  -3   4 5070.87  109.13
  -3  -3   4 5114.53  110.10
  -3  -3   5   38.48    5.64
  -3  -3   5   37.81    4.24
  -3  -3   6  243.39    9.47
  -3  -3   6  243.77    8.90
  -3  -3   7    3.67    0.90
  -3  -3   7   -0.46    1.93
  -3  -3   8   52.67    4.25
  -3  -3   8   51.84    7.94
   3   3  -9    0.82    1.35
  -3  -3   9    1.58    1.05
   3   3 -10  201.04    7.74
  -3  -3  10  200.14   11.95
   3   3 -11   44.01   11.13
  -3  -3  11   36.82    5.92
   3   3 -12 2473.09   85.94
  -3  -3  12 2566.00   89.35
  -3  -3  12 2564.73   88.94
   3   3 -13  144.11    6.48
  -3  -3  13  164.67    7.36
  -3  -3  13  146.85    7.27
   3   3 -14  593.66   16.85
  -3  -3  14  595.33   17.15
  -3  -3  14  614.20   17.08
   3   3 -15   19.27    4.56
  -3  -3  15   21.08    3.11
  -3  -3  15   24.13    3.61
   3   3 -16 1231.55   54.74
  -3  -3  16 1265.42   56.56
  -3  -3  16 1297.15   57.42
   3   3 -17    9.57    9.86
  -3  -3  17   26.48    3.39
  -3  -3  17   27.11    3.32
   3   3 -18  173.51    8.99
  -3  -3  18  176.71    9.84
  -3  -3  18  193.78    9.74
  -3  -3  19   47.44    5.16
  -1  -3 -18    2.01    1.82
   1   3  18   -0.84    2.23
  -1  -3 -17   31.46    5.34
   1   3  17   18.21    4.97
  -1  -3 -16 2011.31   72.39
   1   3  16 1297.10   49.33
  -1  -3 -15   17.33    3.23
   1   3  15   12.14    7.17
  -1  -3 -14   42.94    3.75
   1   3  14   27.69    3.66
  -1  -3 -13    2.93    1.49
   1   3  13   -0.11    1.69
  -1  -3 -11    0.69    1.08
   1   3  11    0.08    1.65
  -1  -3 -10   22.37    3.60
   1   3  10   19.66    3.78
  -1  -3  -9    1.07    1.06
   1   3   9    5.67    2.49
  -1  -3  -8  743.48   18.31
   1   3   8  700.48   18.49
  -1  -3  -7   22.32    2.26
   1   3   7   24.00    2.91
  -1  -3  -7   27.60    1.71
  -1  -3  -6  341.48    9.16
   1   3   6  361.26   10.41
  -1  -3  -6  402.32    9.10
  -1  -3  -5   63.49    4.34
   1   3   5   69.66    5.28
  -1  -3  -5   63.00    4.12
  -1  -3  -4 5115.93  108.16
   1   3   4 5367.16  113.88
  -1  -3  -2    9.11    1.93
   1   3   2    9.96    2.13
  -1  -3  -1    2.11    0.97
  -1  -3  -1    1.29    1.15
  -1  -3   0 1907.80   46.26
  -1  -3   0 1689.00   41.42
  -1  -3   1   80.36    5.42
  -1  -3   1   70.55    3.99
  -1  -3   2   24.77    6.81
  -1  -3   2   19.75    3.36
  -1  -3   3  157.80    6.45
  -1  -3   3  152.09    6.21
  -1  -3   4  914.31   23.83
  -1  -3   4  846.68   22.66
   1   3  -5  167.68    5.96
  -1  -3   5  155.03    7.97
   1   3  -6  259.43   10.31
  -1  -3   6  263.41    9.53
   1   3  -7   16.23    4.59
  -1  -3   7   15.14    2.41
   1   3  -8 3180.35   72.60
  -1  -3   8 3305.62   75.42
   1   3  -9   13.84    3.20
  -1  -3   9   14.27    2.17
   1   3 -10  369.43   11.90
  -1  -3  10  377.17   12.12
   1   3 -11   16.53    4.21
  -1  -3  11   11.34    2.79
   1   3 -12 2227.51   77.81
  -1  -3  12 2299.28   80.40
   1   3 -13   83.99   17.47
  -1  -3  13   84.36    5.00
   1   3 -14   36.16    7.87
  -1  -3  14   30.44    3.75
   1   3 -15   47.00    4.74
  -1  -3  15   42.92    3.92
   1   3 -16   96.34   10.04
  -1  -3  16   87.95    6.64
  -1  -3  17    2.70    1.93
  -1  -3  17    1.73    1.92
  -1  -3  18  253.26   16.57
  -1   3  19   -0.47    2.09
  -1   3  18   82.39    7.12
   1  -3 -17    3.66    1.78
  -1   3  17    0.20    1.59
  -1   3  16   31.30    3.58
   1  -3 -15   40.91    4.93
  -1   3  15   17.11    3.08
   1  -3 -14   25.99    2.48
  -1   3  14   18.46    2.99
   1  -3 -13   73.64    3.34
  -1   3  13   44.43    3.32
   1  -3 -12 1869.28   64.13
  -1   3  12 1365.73   48.20
   1  -3 -11   10.09    1.99
  -1   3  11    3.16    2.03
   1  -3 -11   11.06    2.19
   1  -3 -10  287.09    8.10
  -1   3  10  231.10    7.75
   1  -3 -10  291.13    8.29
   1  -3  -9   11.21    1.55
  -1   3   9    7.69    1.62
   1  -3  -9    9.32    1.61
   1  -3  -8 2479.57   55.41
  -1   3   8 2380.85   53.88
   1  -3  -8 2528.75   56.79
   1  -3  -7   13.64    1.66
  -1   3   7    7.71    1.45
   1  -3  -7   14.23    2.18
   1  -3  -6  179.57    5.19
  -1   3   6  187.25    5.52
   1  -3  -6  189.77    6.03
   1  -3  -5  106.20    3.67
  -1   3   5  118.16    3.96
   1  -3  -4  703.48   17.35
   1  -3  -4  614.70   15.51
   1  -3  -3  163.98    5.38
   1  -3  -3  128.13    4.43
   1  -3  -2   25.91    4.70
   1  -3  -2   18.00    2.66
   1  -3  -1   79.18    5.37
   1  -3  -1   65.85    3.42
   1  -3   0 1939.78   46.27
   1  -3   0 1849.27   44.98
   1  -3   1    3.93    1.07
   1  -3   1   14.68    2.53
  -1   3  -2    6.57    1.96
   1  -3   2   15.39    3.90
  -1   3  -3  107.00    4.91
   1  -3   3  103.13    4.22
  -1   3  -4 7182.78  407.23
   1  -3   4 7066.35  149.08
  -1   3  -5   98.70    7.89
   1  -3   5   92.55    4.39
  -1   3  -6  513.36   13.80
   1  -3   6  515.39   13.74
  -1   3  -7   31.09    7.67
   1  -3   7   32.29    3.29
  -1   3  -8  991.28   25.05
   1  -3   8 1002.21   25.33
  -1   3  -9    2.64    0.72
   1  -3   9    3.86    2.29
  -1   3 -10   32.15    7.88
   1  -3  10   30.03    5.03
  -1   3 -11   -0.39    1.86
   1  -3  11    5.75    2.93
  -1   3 -12 1803.50   43.76
   1  -3  12 1900.39   44.05
  -1   3 -13    0.83    1.11
   1  -3  13    3.38    2.42
  -1   3 -14   72.87    9.53
   1  -3  14   59.58    5.59
   1  -3  15   70.24    5.73
  -1   3 -16 2254.56   82.34
   1  -3  16 2340.29  147.35
  -1   3 -17   31.38   10.69
   1  -3  17   32.83    3.93
   1  -3  18    4.41    2.58
   3  -3 -19   41.91    5.66
  -3   3  19   29.61    3.76
   3  -3 -18  168.68    8.23
  -3   3  18   96.84    5.88
   3  -3 -17   23.84    4.66
  -3   3  17   16.29    2.44
   3  -3 -16 1191.64   51.30
  -3   3  16  733.90   32.93
   3  -3 -15   17.25    2.66
  -3   3  15   10.86    2.24
   3  -3 -14  548.31   12.79
   3  -3 -14  516.01   13.50
   3  -3 -13  133.50    4.27
  -3   3  13  100.37    4.09
   3  -3 -13  136.40    5.31
  -3   3  12 1914.21   65.52
   3  -3 -12 2061.00   71.07
   3  -3 -11   31.54    4.45
  -3   3  11   30.14    4.45
   3  -3 -11   32.49    5.11
   3  -3 -10  189.24    5.06
  -3   3  10  169.89    4.94
   3  -3 -10  150.19    7.67
   3  -3  -9    2.44    0.75
  -3   3   9    1.09    0.68
   3  -3  -9    3.59    1.16
   3  -3  -8   49.89    6.80
   3  -3  -8   49.34    6.04
   3  -3  -7    1.15    0.28
   3  -3  -7    1.51    0.49
   3  -3  -7    2.08    0.84
   3  -3  -6  214.56    4.95
   3  -3  -6  182.71    4.34
   3  -3  -6  165.87    5.37
   3  -3  -5   19.14    1.41
   3  -3  -4 4413.70   92.26
   3  -3  -4 3533.32   74.13
   3  -3  -3  404.90    9.39
   3  -3  -3  437.27   10.39
   3  -3  -2 1299.35   31.04
   3  -3  -2 1282.34   31.16
   3  -3  -1  158.96    5.05
  -3   3   0 2700.10   64.12
   3  -3   0 2711.73   64.00
  -3   3  -2  202.57    8.56
   3  -3   2  212.02    6.48
  -3   3  -3    7.48    4.47
   3  -3   3    6.80    1.64
  -3   3  -4  205.71    6.74
   3  -3   4  196.54    6.66
  -3   3  -5  593.06   15.41
   3  -3   5  572.09   14.86
  -3   3  -6  517.11   14.50
   3  -3   6  512.36   14.26
  -3   3  -7    7.39    4.08
   3  -3   7   11.23    2.42
  -3   3  -8 2442.24   59.15
   3  -3   8 2483.71   59.94
  -3   3  -9  132.31   25.40
   3  -3   9  122.00    5.96
  -3   3 -10  190.64    9.53
   3  -3  10  211.61    9.87
  -3   3 -11    1.95    2.62
  -3   3 -12 1517.58   36.28
   3  -3  12 1630.93   38.87
  -3   3 -13   60.32   12.58
   3  -3  13   60.47    5.60
  -3   3 -14  187.46   10.73
   3  -3  14  192.61   11.18
  -3   3 -15    1.93    1.24
   3  -3  15    2.90    1.93
  -3   3 -16    2.87    2.28
   3  -3  16    5.82    2.93
   3  -3  17   46.63    6.01
   5  -3 -19    3.41    0.94
   5  -3 -18  861.49   46.52
  -5   3  18  844.63   46.05
   5  -3 -17    8.19    1.75
  -5   3  17    9.23    1.90
   5  -3 -17   10.42    2.49
   5  -3 -16  165.92    7.66
  -5   3  16  154.19    7.27
   5  -3 -16  160.76    8.89
  -5   3  15   18.03    2.19
   5  -3 -15   16.05    2.63
   5  -3 -14  112.39    8.11
   5  -3 -13    4.97    1.45
   5  -3 -12  709.20   26.19
   5  -3 -11  207.30    9.90
   5  -3 -10  977.14   26.17
   5  -3  -9   38.93    8.87
   5  -3  -8 1351.78   32.38
   5  -3  -7    2.38    1.34
   5  -3  -6 1308.70   31.53
   5  -3  -4  321.49    7.13
   5  -3  -4  329.93    7.42
   5  -3  -3  340.86    7.91
  -5   3   2  242.86    6.28
   5  -3  -2  220.17    5.74
  -5   3   1   58.16    4.89
   5  -3  -1   48.76    3.27
  -5   3   0  112.19    5.80
   5  -3   0  100.01    3.76
  -5   3  -1   51.23    4.69
   5  -3   1   37.19    2.84
  -5   3  -2  574.41   14.43
   5  -3   2  566.62   14.11
  -5   3  -3   27.37    5.92
   5  -3   3    5.03    2.56
  -5   3  -4 2388.05   56.45
   5  -3   4 2371.05   54.54
  -5   3  -5  150.46   34.51
   5  -3   5  109.62    7.68
  -5   3  -6 1832.79   46.36
   5  -3   6 2049.08   50.48
  -5   3  -7   28.69   16.31
   5  -3   7   36.39    9.10
  -5   3  -8  832.32   30.78
   5  -3   8  943.30   34.46
   5  -3   9    6.97    2.87
  -5   3 -10  284.31   10.42
   5  -3  10  315.00   10.82
  -5   3 -11    8.16    3.66
   5  -3  11   12.64    3.11
  -5   3 -12  246.79    9.81
   5  -3  12  248.65    9.83
  -5   3 -13   -1.08    1.62
   5  -3  13    2.71    2.02
  -5   3 -14  723.64   26.73
   5  -3  14  781.45   28.80
   5  -3  15    8.65    3.28
   7  -3 -19   64.40    5.77
   7  -3 -18   33.71    3.96
   7  -3 -17    0.38    1.29
   7  -3 -16  100.77    6.17
   7  -3 -15    8.92    2.00
   7  -3 -14 2162.65   52.09
   7  -3 -13   32.51    8.69
   7  -3 -12  512.99   14.61
   7  -3 -11   84.89    6.94
   7  -3 -10 1513.33   53.45
   7  -3  -9    0.80    0.75
   7  -3  -8   56.79    9.46
   7  -3  -7   41.85    7.55
   7  -3  -6   27.63    6.68
  -7   3   4  817.48   18.50
   7  -3  -4  717.43   16.33
  -7   3   3    5.60    1.79
   7  -3  -3    4.55    1.29
  -7   3   2 3300.97   73.50
   7  -3  -2 2904.30   64.60
   7  -3  -1   19.89    2.13
  -7   3   0 1539.72   35.94
   7  -3   0 1508.94   34.74
   7  -3   1   48.16    7.01
   7  -3   2 1670.66   40.19
  -7   3  -3    2.80    7.29
   7  -3   3    1.74    1.32
  -7   3  -4    9.33    2.62
   7  -3   4    9.58    1.89
  -7   3  -5   73.78    4.69
   7  -3   5   76.98    4.78
  -7   3  -6   72.68    4.29
   7  -3   6   76.84    4.31
  -7   3  -7  137.42    6.46
   7  -3   7  130.68    5.98
  -7   3  -8  470.93   13.15
  -7   3  -9   33.98    3.87
   7  -3   9   50.04    6.74
  -7   3 -10 1174.46   52.49
   7  -3  10 1151.51   51.30
  -7   3 -11    7.37    3.18
   7  -3  11    4.80    2.12
  -7   3 -12  720.42   26.75
   7  -3  12  690.28   25.81
  -7   3 -13   30.41    6.70
   7  -3  13   24.42    5.37
   7  -3  14  453.61   27.49
   9  -3 -18 1481.28   81.87
   9  -3 -17   -0.45    1.38
   9  -3 -16   21.56    4.42
   9  -3 -15    3.23    2.04
   9  -3 -14  255.28   16.14
   9  -3 -13   35.44    7.59
   9  -3 -12   54.98   11.63
   9  -3 -11   63.76   13.82
   9  -3 -10  697.58   16.82
   9  -3  -9   34.92    7.42
   9  -3  -8   40.69    4.95
   9  -3  -7   31.25    6.11
   9  -3  -6 2241.87   78.65
  -9   3   5    0.13    0.17
   9  -3  -5   -0.14    0.30
   9  -3  -5    1.03    0.63
  -9   3   4   11.48    2.33
   9  -3  -4    5.41    1.05
  -9   3   3  114.59    5.12
   9  -3  -3  119.22    5.23
  -9   3   2  375.40   14.28
   9  -3  -2  348.25   13.01
  -9   3   1   11.49    1.89
   9  -3  -1   10.79    1.48
  -9   3   0   36.28    2.84
   9  -3   0   29.59    2.41
  -9   3  -1   75.97    4.31
   9  -3   1   83.16    3.85
  -9   3  -2  426.29   12.73
   9  -3   2  435.85   11.73
  -9   3  -3    3.82    1.92
   9  -3   3    5.50    1.58
  -9   3  -4  160.06    7.00
   9  -3   4  133.58    5.48
  -9   3  -5    0.98    3.54
   9  -3   5   -0.58    1.48
  -9   3  -6 2317.75   56.32
   9  -3   6 2246.54   53.45
  -9   3  -7   -1.11    2.44
   9  -3   7   -1.36    1.60
  -9   3  -8   34.24    3.74
   9  -3   8   25.88    3.21
  -9   3  -9   14.51    4.51
   9  -3   9   10.52    2.76
  -9   3 -10  686.92   39.44
   9  -3  10  626.42   35.85
  -9   3 -11   -1.51    1.99
   9  -3  11   -3.16    2.17
   9  -3  12   55.97    5.53
  11  -3 -16   -0.08    1.62
  11  -3 -15    8.19    2.23
  11  -3 -14  769.19   44.37
  11  -3 -13   14.17    2.78
  11  -3 -12   29.81    7.25
  11  -3 -11   51.71   13.37
  11  -3 -10 1578.03   69.32
  11  -3  -9   13.08    3.47
  11  -3  -8   28.72    7.78
  11  -3  -7    8.70    2.02
 -11   3   6   75.94    4.10
  11  -3  -6   72.49    2.75
  11  -3  -6   60.94    6.26
 -11   3   5    4.67    1.09
  11  -3  -5    1.63    1.00
  11  -3  -5    3.49    0.66
 -11   3   4    8.74    1.74
  11  -3  -4    6.26    1.30
  11  -3  -4    5.28    2.21
 -11   3   3    4.69    1.93
  11  -3  -3    7.19    1.54
 -11   3   2 1404.34   28.14
  11  -3  -2 1753.83   32.55
 -11   3   1   -2.34    1.69
  11  -3  -1    3.12    1.68
 -11   3   0   58.62    4.66
  11  -3   0   64.63    3.61
 -11   3  -1    5.03    2.92
  11  -3   1    2.12    1.51
 -11   3  -2 1980.87   86.54
  11  -3   2 2005.50   86.44
 -11   3  -3   15.57    3.50
  11  -3   3   16.60    3.25
 -11   3  -4   15.45    3.87
  11  -3   4    8.37    2.18
 -11   3  -5   11.18    3.11
  11  -3   5    8.91    2.27
 -11   3  -6   12.03    2.74
  11  -3   6    7.36    1.98
 -11   3  -7   12.37    3.64
  11  -3   7   11.31    2.88
 -11   3  -8    9.58    3.84
  11  -3   8    1.74    1.65
  13  -3 -12   51.88    9.62
  13  -3 -11    3.27    1.56
  13  -3 -10  223.76   15.38
  13  -3  -9   35.09    7.53
  13  -3  -8   40.01    8.92
 -13   3   7    0.50    0.48
  13  -3  -7    3.50    1.88
 -13   3   6 1473.34   47.80
  13  -3  -6 1490.53   48.29
  13  -3  -6 1353.17   46.04
 -13   3   5   12.19    1.88
  13  -3  -5   13.68    1.78
  13  -3  -5   12.73    2.89
  13  -3  -4  232.11    9.16
  13  -3  -4  192.53   10.24
  13  -3  -3    3.13    1.35
  13  -3  -3    2.16    1.00
  13  -3  -2  767.46   26.33
  13  -3  -2  699.20   25.43
 -13   3   1   50.15    4.36
  13  -3  -1   84.76    4.87
  13  -3   0   31.95    3.27
 -13   3  -1    0.45    2.04
  13  -3   1    0.00    1.11
 -13   3  -2   33.86    4.40
  13  -3   2   45.34    4.13
 -13   3  -3   68.66    6.54
  13  -3   3   67.56    5.41
 -13   3  -4    1.41    2.37
  13  -3   4    1.83    1.89
  12   4   0    4.28    3.36
  12   4  -1   41.12    5.48
  12   4  -2   11.52    4.04
  12   4  -3   11.09    3.78
  12   4  -4   56.46    6.23
  12   4  -5   64.96    6.67
 -12  -4   6 1064.31   59.09
 -12  -4   6 1096.32   59.99
 -12  -4   7    6.21    2.99
 -12  -4   7    5.85    1.52
 -12  -4   8  187.23   25.29
 -12  -4   8  181.52   12.54
 -12  -4   9    4.04    1.13
 -12  -4   9    3.94    1.00
 -12  -4  10  816.96   46.49
  10   4   7   34.72    4.95
  10   4   6  377.25   23.40
 -10  -4  -5   27.98    5.53
  10   4   5   15.73    3.71
 -10  -4  -4   22.71    3.42
  10   4   4   30.74    6.06
 -10  -4  -3   44.28    4.60
  10   4   3   34.27    4.35
 -10  -4  -2   42.94    4.64
  10   4   2   37.30    4.42
 -10  -4  -1   10.66    3.05
  10   4   1   10.10    3.06
 -10  -4   0    3.50    1.96
  10   4   0    9.83    3.18
 -10  -4   1   20.43    4.59
  10   4  -1   31.86    4.09
 -10  -4   2 2058.87   90.11
  10   4  -2 2135.27   93.66
 -10  -4   3   10.36    3.16
  10   4  -3    9.32    2.93
 -10  -4   3    8.63    2.43
 -10  -4   4   37.13    4.34
  10   4  -4   30.69    4.00
 -10  -4   4   30.44    6.21
 -10  -4   5   84.28    6.01
 -10  -4   5   85.74    6.49
 -10  -4   5   75.12    8.67
 -10  -4   6 1651.08   72.36
 -10  -4   6 1654.34   73.12
 -10  -4   6 1477.91   64.15
 -10  -4   7   20.62    4.14
 -10  -4   7   18.93    3.16
 -10  -4   7   18.90    3.39
 -10  -4   8   46.94   10.06
 -10  -4   8   66.96    5.91
 -10  -4   8   47.16    3.57
 -10  -4   9   12.41    3.40
 -10  -4   9   10.30    2.97
 -10  -4   9   10.65    2.50
 -10  -4  10  184.67   23.19
 -10  -4  10  196.16   10.42
 -10  -4  10  146.36   20.33
 -10  -4  11    7.46    1.37
 -10  -4  11    1.00    1.05
 -10  -4  12    3.26    1.32
 -10  -4  13    2.66    0.89
 -10  -4  13    4.12    1.11
  -8  -4 -10  218.88   14.15
   8   4  10  198.59   14.04
   8   4   9   12.65    3.84
  -8  -4  -8    2.62    2.44
   8   4   8    6.59    3.83
  -8  -4  -7    1.91    2.21
   8   4   7    2.09    1.96
  -8  -4  -6  660.57   26.27
   8   4   6  550.17   23.31
  -8  -4  -5   10.74    2.40
   8   4   5    3.96    3.04
  -8  -4  -4  188.95    8.44
   8   4   4  161.06    8.32
  -8  -4  -3    4.12    2.48
   8   4   3    1.49    2.19
  -8  -4  -2 2115.03   41.79
   8   4   2 2213.15   44.94
  -8  -4  -1   15.51    3.02
   8   4   1   28.59    4.31
  -8  -4   0  193.75    8.10
   8   4   0  201.08    8.72
  -8  -4   1   22.72    3.43
   8   4  -1   22.96    3.78
  -8  -4   1   18.47    4.18
  -8  -4   2   54.96    4.55
   8   4  -2   56.43    4.43
  -8  -4   2   58.98   10.12
  -8  -4   3  112.38    6.61
   8   4  -3  111.84    6.37
  -8  -4   3   94.19    9.01
  -8  -4   4    6.89    2.11
  -8  -4   4    6.03    3.00
  -8  -4   4    7.28    1.58
  -8  -4   5    2.69    0.93
  -8  -4   5    6.26    2.93
  -8  -4   5    2.78    0.78
  -8  -4   6 1271.06   27.06
  -8  -4   6 1248.99   27.99
  -8  -4   6 1129.17   24.55
  -8  -4   7  185.80   12.20
  -8  -4   7  194.16    8.76
  -8  -4   7  168.62   13.98
  -8  -4   8  246.69   13.20
  -8  -4   8  257.65   10.71
  -8  -4   8  237.61   11.51
  -8  -4   9   10.59    2.59
  -8  -4   9    2.31    2.26
  -8  -4   9    8.15    1.66
  -8  -4  10 1752.69   76.78
  -8  -4  10 1680.59   74.28
  -8  -4  10 1638.41   71.78
  -8  -4  11    6.21    1.33
  -8  -4  11    7.91    3.14
  -8  -4  11    7.71    2.06
  -8  -4  12   94.78    9.88
  -8  -4  12   97.54    6.97
  -8  -4  12  108.08   18.27
  -8  -4  13    6.71    1.94
  -8  -4  13    1.89    2.23
  -8  -4  13    2.32    1.38
  -8  -4  14  168.92   19.44
  -8  -4  14  175.79   17.86
  -8  -4  15   91.21   16.34
  -8  -4  15   97.01   10.93
  -6  -4 -13   72.79    6.10
   6   4  13   50.10    6.45
  -6  -4 -12   76.86    6.19
   6   4  12   61.20    6.71
  -6  -4 -11   14.76    2.75
   6   4  11    7.68    3.01
  -6  -4 -10  822.65   31.68
   6   4  10  630.86   26.68
  -6  -4  -9   41.55    3.89
   6   4   9   31.13    4.23
  -6  -4  -8  957.55   42.80
   6   4   8  820.56   38.11
  -6  -4  -7    4.57    2.32
   6   4   7    1.26    2.03
  -6  -4  -6  625.83   15.43
   6   4   6  594.05   16.54
  -6  -4  -5   82.95    4.98
   6   4   5   70.86    5.19
  -6  -4  -4  267.62    9.46
  -6  -4  -3   23.10    2.77
  -6  -4  -2    2.72    2.42
  -6  -4  -1  168.33    8.52
  -6  -4  -1  169.00    6.55
  -6  -4   0   44.88    3.75
   6   4   0   46.93    4.13
  -6  -4   0   50.13    5.36
  -6  -4   1   10.92    2.24
   6   4  -1    9.12    2.16
  -6  -4   1   14.42    3.17
  -6  -4   2 1201.21   43.63
  -6  -4   2 1333.96   46.28
  -6  -4   3   31.85    3.04
  -6  -4   3   27.00    3.42
  -6  -4   3   27.63    2.14
  -6  -4   4 1223.54   43.94
  -6  -4   4 1110.82   40.92
  -6  -4   4 1198.94   42.06
  -6  -4   5    4.77    1.16
  -6  -4   5    8.76    3.04
  -6  -4   5    2.62    2.04
  -6  -4   6 2220.45   77.66
  -6  -4   6 2303.22   81.23
  -6  -4   6 2187.84   75.65
  -6  -4   7   51.45   10.03
  -6  -4   7   50.63    4.53
  -6  -4   7   46.51    5.83
  -6  -4   8  711.80   19.18
  -6  -4   8  720.25   20.38
  -6  -4   8  718.03   18.48
  -6  -4   9   29.91    6.33
  -6  -4   9   27.96    3.43
  -6  -4   9   19.14    2.18
  -6  -4  10    2.12    1.25
  -6  -4  10    4.00    3.02
  -6  -4  10    1.71    1.23
  -6  -4  11   -0.44    1.29
  -6  -4  11    0.99    2.12
  -6  -4  11   -0.25    1.20
  -6  -4  12   95.48    8.64
  -6  -4  12   99.84    7.64
  -6  -4  12  110.38    7.03
  -6  -4  13    0.02    1.03
  -6  -4  13    1.26    2.14
  -6  -4  13    1.65    1.47
  -6  -4  14  972.27   37.52
  -6  -4  14 1078.64   41.83
  -6  -4  14 1025.68   38.87
  -6  -4  15    2.30    2.62
  -6  -4  15    1.09    2.14
  -6  -4  15   -0.81    1.69
  -6  -4  16  737.73   42.05
   4   4  15    5.31    2.93
  -4  -4 -14  264.83   16.07
   4   4  14  145.46   11.49
  -4  -4 -13  112.98    6.20
   4   4  13   60.75    6.13
  -4  -4 -12 1459.12   53.52
   4   4  12 1034.69   40.71
  -4  -4 -11    7.61    1.68
   4   4  11   11.12    3.36
  -4  -4 -10  193.66    7.67
   4   4  10  150.79    8.00
  -4  -4  -9   40.71    3.98
   4   4   9   32.42    4.26
  -4  -4  -8  115.62    8.17
   4   4   8  109.52    8.69
  -4  -4  -7   36.94    2.90
   4   4   7   36.52    3.56
  -4  -4  -6  137.76    5.95
   4   4   6  139.67    6.76
  -4  -4  -5   16.00    2.31
   4   4   5   20.43    3.07
  -4  -4  -4 1053.79   37.80
   4   4   4 1057.77   38.71
  -4  -4  -3   12.44    2.89
  -4  -4  -2 1242.00   31.71
   4   4   2 1290.48   33.42
  -4  -4  -2 1453.66   33.82
   4   4   1   86.97    5.10
  -4  -4   0 2855.90   68.56
   4   4   0 2805.77   67.49
  -4  -4   0 3392.44   78.30
  -4  -4   2  631.58   18.20
  -4  -4   2  615.01   18.16
  -4  -4   2  761.86   19.39
  -4  -4   3   22.97    6.23
  -4  -4   3   22.81    4.46
  -4  -4   3   23.97    3.95
  -4  -4   4  117.14    8.74
  -4  -4   4  153.07    7.55
  -4  -4   4  123.47    4.98
  -4  -4   5   26.46    6.20
  -4  -4   5   27.77    5.01
  -4  -4   5   23.51    4.22
  -4  -4   6  384.33   15.77
  -4  -4   6  343.19   15.04
  -4  -4   6  359.91   14.20
  -4  -4   7  390.77   15.90
  -4  -4   7  344.21   15.11
  -4  -4   7  348.70   13.98
  -4  -4   8 1268.25   45.68
  -4  -4   8 1312.57   47.76
  -4  -4   8 1311.29   46.41
  -4  -4   9  180.27   11.52
  -4  -4   9  186.21    8.32
  -4  -4   9  149.21    6.21
  -4  -4  10 1330.11   33.08
  -4  -4  10 1253.95   31.55
  -4  -4  10 1367.85   32.21
  -4  -4  11    1.20    0.94
  -4  -4  11    1.08    2.17
  -4  -4  11    1.03    5.07
  -4  -4  12 1224.97   32.06
  -4  -4  12 1171.22   31.55
  -4  -4  12 1261.22   32.17
  -4  -4  13    0.99    1.56
  -4  -4  13    2.21    1.97
  -4  -4  13   -0.16    2.80
  -4  -4  14  446.40   19.15
  -4  -4  14  465.96   20.27
  -4  -4  14  479.19   19.85
  -4  -4  15  103.97    7.09
  -4  -4  15  118.00    8.25
  -4  -4  15  111.94    6.71
  -4  -4  16   60.60    6.10
  -4  -4  16   53.12    5.13
  -2  -4 -16  993.49   55.02
  -2  -4 -15   37.56    3.76
   2   4  15   14.99    4.03
  -2  -4 -14    3.61    1.92
   2   4  14    0.89    2.12
  -2  -4 -13   19.77    2.53
   2   4  13   12.79    3.47
  -2  -4 -12  187.37    9.70
   2   4  12  125.66    8.38
  -2  -4 -11   17.66    2.81
   2   4  11   14.98    2.97
  -2  -4 -10  185.08    6.25
   2   4  10  159.39    7.11
  -2  -4  -9  125.49    5.33
   2   4   9  111.98    5.90
  -2  -4  -8 2111.64   46.46
   2   4   8 2001.65   45.66
  -2  -4  -7    6.52    1.61
   2   4   7    2.64    1.06
  -2  -4  -6   53.82    3.62
   2   4   6   54.24    4.08
  -2  -4  -5   53.07    7.79
   2   4   5   52.75    7.90
  -2  -4  -5   48.65    7.05
  -2  -4  -4  958.02   24.49
   2   4   4  984.94   25.65
  -2  -4  -3   17.68    3.25
   2   4   3   46.64    7.18
  -2  -4  -2    3.09    2.13
  -2  -4  -1  481.76   14.49
  -2  -4  -1  444.07   13.02
  -2  -4   0  126.79    9.66
  -2  -4   0  107.79    5.40
  -2  -4   1  105.97    9.41
  -2  -4   1  102.12    5.68
  -2  -4   2  279.48    9.16
  -2  -4   2  259.79    9.91
  -2  -4   3    6.59    1.53
  -2  -4   3    5.24    3.14
  -2  -4   4 2387.77   57.31
  -2  -4   4 2217.25   54.70
  -2  -4   5    5.64    1.79
  -2  -4   5    4.81    2.27
  -2  -4   6  225.65    8.39
  -2  -4   6  228.03    9.45
  -2  -4   7  115.60    8.39
  -2  -4   7  119.02    6.54
  -2  -4   8 3095.10  106.98
  -2  -4   8 2910.62  101.17
  -2  -4   9    3.42    1.54
  -2  -4   9   -0.16    2.20
  -2  -4  10    5.92    1.73
   2   4 -11   55.41    5.12
  -2  -4  11   51.04    4.90
   2   4 -12    3.49    1.90
  -2  -4  12    6.98    2.09
   2   4 -13    4.34    1.26
  -2  -4  13    5.47    2.56
   2   4 -14  174.11   15.09
  -2  -4  14  207.58   11.88
   2   4 -15   25.03    6.38
  -2  -4  15   40.25    4.61
  -2  -4  16 1752.30   96.42
   0   4  17   86.50    7.26
   0  -4 -16  361.15   20.66
   0   4  16  244.06   15.51
   0  -4 -15   37.51    2.95
   0  -4 -14   10.06    2.09
   0   4  14   12.22    3.00
   0  -4 -13    9.00    1.38
   0   4  13   10.20    1.96
   0  -4 -12 2285.55   52.87
   0   4  12 1920.52   46.07
   0  -4 -11    4.74    1.41
   0   4  11    4.57    1.78
   0  -4 -10   50.82    2.66
   0   4  10   45.68    3.01
   0  -4 -10   54.18    1.94
   0  -4  -9  172.38    5.67
   0   4   9  169.48    6.27
   0  -4  -9  187.64    5.18
   0  -4  -8 1166.85   40.66
   0   4   8 1127.11   39.77
   0  -4  -8 1209.70   41.62
   0  -4  -7   46.20    2.65
   0   4   7   51.27    3.46
   0  -4  -7   45.27    3.43
   0  -4  -6    2.64    1.06
   0   4   6    0.42    1.05
   0  -4  -6    4.07    1.01
   0  -4  -5   16.30    2.93
   0  -4  -4  924.16   22.26
   0  -4  -4  846.27   20.77
   0  -4  -3    3.84    2.68
   0  -4  -3   28.95    2.99
   0  -4  -2   14.83    3.75
   0  -4  -2    6.28    2.15
   0  -4  -1    7.08    1.79
   0  -4  -1    3.40    1.88
   0  -4   0 5012.40  672.51
   0  -4   0 4925.28  110.72
   0  -4   1  204.80    6.65
   0  -4   2    2.93    1.19
   0  -4   2   15.89    2.63
   0  -4   3    5.53    0.88
   0  -4   3    8.33    2.74
   0  -4   4 1064.73   26.49
   0  -4   4 1077.35   27.64
   0  -4   5   24.11    4.07
   0  -4   5   68.91    5.10
   0   4  -6    4.22    1.56
   0  -4   6    8.08    2.10
   0   4  -7   57.43    5.83
   0  -4   7   61.74    4.11
   0  -4   8 1486.50   52.55
   0   4  -9  193.07   14.47
   0  -4   9  213.38    8.19
   0   4 -10   60.76    9.78
   0  -4  10   55.09    3.75
   0   4 -11    3.13    1.52
   0  -4  11    3.96    1.39
   0   4 -12 2470.80   59.46
   0  -4  12 2572.66   61.85
   0   4 -13   12.45    2.42
   0  -4  13   11.78    2.46
   0   4 -14   11.32    3.84
   0  -4  14   11.62    2.96
   0   4 -15   32.72    7.53
   0  -4  15   33.51    3.87
   0  -4  16  351.74   21.91
   2  -4 -17   18.81    2.09
  -2   4  17   13.40    2.24
   2  -4 -16 2004.15  107.89
  -2   4  16 1531.72   83.02
  -2   4  15   23.45    2.24
   2  -4 -14  207.78    9.80
  -2   4  14  156.12    7.96
   2  -4 -13    2.77    0.91
  -2   4  13    2.52    1.02
   2  -4 -13    0.36    0.77
  -2   4  12    8.48    1.70
   2  -4 -12    3.74    1.32
   2  -4 -11   46.33    3.37
  -2   4  11   46.67    3.57
   2  -4 -11   37.26    3.19
   2  -4 -10    7.93    1.05
  -2   4  10    5.53    1.09
   2  -4 -10   10.41    2.10
   2  -4  -9    2.20    1.15
   2  -4  -9    0.86    0.56
   2  -4  -8 2402.91   81.49
   2  -4  -8 2501.74   84.99
   2  -4  -8 2260.88   77.60
   2  -4  -7   95.41    4.00
   2  -4  -7   88.21    3.33
   2  -4  -7   79.68    4.27
   2  -4  -6  188.71    6.56
   2  -4  -6  160.94    5.11
   2  -4  -6  157.12    6.63
   2  -4  -5   10.42    2.49
   2  -4  -5    1.90    1.13
   2  -4  -4 2043.56   47.67
   2  -4  -4 1784.93   42.12
   2  -4  -3   24.44    3.81
   2  -4  -3   50.59    7.33
   2  -4  -2  250.99    7.42
   2  -4  -2  242.59    7.69
   2  -4  -1  103.52    4.64
   2  -4  -1  109.91    5.04
   2  -4   0  117.63    4.37
   2  -4   0  107.47    5.11
   2  -4   1  493.33   12.87
   2  -4   1  491.45   14.00
   2  -4   2    2.35    1.03
  -2   4  -3    7.23    1.87
   2  -4   3    7.65    1.62
  -2   4  -4 1195.08   31.01
   2  -4   4 1152.17   28.77
  -2   4  -5   57.75    9.14
   2  -4   5   64.32    3.54
  -2   4  -6   64.74   10.13
   2  -4   6   59.61    4.08
  -2   4  -7    8.74    2.08
   2  -4   7    6.05    1.68
  -2   4  -9  156.37    6.91
   2  -4   9  155.32    6.86
  -2   4 -10  223.61    8.86
   2  -4  10  226.99    8.15
  -2   4 -11   25.77    6.65
   2  -4  11   17.92    3.06
  -2   4 -12  207.34   11.62
   2  -4  12  244.30   13.01
  -2   4 -13   22.97    4.70
   2  -4  13   25.08    3.42
  -2   4 -14    1.12    0.83
   2  -4  14   11.69    2.98
   2  -4  15   32.22    4.08
   4  -4 -16   45.47    4.20
   4  -4 -15  100.38    5.46
   4  -4 -14  413.11   16.58
   4  -4 -13    4.30    1.51
   4  -4 -12 1017.63   25.65
   4  -4 -11    1.52    0.88
   4  -4 -10  980.61   23.52
   4  -4  -9  123.62    7.66
   4  -4  -8  917.98   32.72
   4  -4  -7  270.82   10.84
   4  -4  -6  318.47   11.02
   4  -4  -6  285.91    9.93
   4  -4  -5   22.32    3.19
   4  -4  -5   17.11    2.53
   4  -4  -4   99.64    3.30
   4  -4  -4   90.67    3.31
   4  -4  -3   17.55    2.82
   4  -4  -3   21.49    3.48
   4  -4  -2  601.30   15.11
   4  -4  -2  609.69   16.04
   4  -4  -1   41.53    7.17
   4  -4  -1   90.08    4.59
   4  -4   0 3029.41   70.56
  -4   4  -1  112.76    7.67
   4  -4   1   12.50    9.27
  -4   4  -2 1486.76   36.39
   4  -4   2 1482.91   36.10
  -4   4  -3   53.48    8.80
   4  -4   3   14.04    3.89
  -4   4  -4 1320.65   46.61
   4  -4   4 1301.18   45.77
  -4   4  -5   24.38    5.42
   4  -4   5   19.06    2.34
  -4   4  -6  173.94    9.42
   4  -4   6  165.44    6.54
  -4   4  -7   53.11   13.37
   4  -4   7   48.53    3.47
  -4   4  -8  139.17    6.31
  -4   4  -9   45.62   10.00
   4  -4   9   45.94    4.48
  -4   4 -10  234.65    9.36
   4  -4  10  226.21    8.91
  -4   4 -11    7.03    3.03
  -4   4 -12 1505.88   56.18
   4  -4  12 1720.49   63.58
  -4   4 -13  108.40   12.31
   4  -4  13  127.73    7.70
   4  -4  14  296.42   18.86
   6  -4 -17   33.29    3.68
   6  -4 -16  693.28   38.87
   6  -4 -15   -0.50    1.05
   6  -4 -14  906.77   34.30
   6  -4 -13   -0.96    1.03
   6  -4 -12   73.20    8.49
   6  -4 -11    0.36    0.76
   6  -4 -10    0.06    0.72
   6  -4  -9   21.86    4.56
   6  -4  -8  503.36   13.88
   6  -4  -7   45.39    9.46
   6  -4  -6 1619.97   56.65
   6  -4  -4  986.76   33.65
   6  -4  -4  987.77   33.79
   6  -4  -3   30.77    1.67
   6  -4  -3   29.46    1.97
   6  -4  -2 1265.34   43.53
   6  -4  -2 1201.42   41.77
  -6   4   1   14.41    2.90
   6  -4  -1   11.11    1.37
  -6   4   0   55.36    5.36
   6  -4   0   80.58    4.18
  -6   4  -1  199.04    8.42
   6  -4   1  192.75    8.13
  -6   4  -2    8.13    1.48
   6  -4   2    2.71    1.55
  -6   4  -3   37.53    7.27
   6  -4   3   26.09    2.24
  -6   4  -4  330.78   11.20
   6  -4   4  323.49    9.85
  -6   4  -5  111.16    5.74
   6  -4   5   81.37    4.13
  -6   4  -6  781.39   19.25
   6  -4   6  772.32   17.47
  -6   4  -7    5.44    1.61
   6  -4   7    1.96    2.21
  -6   4  -8 1119.84   50.04
   6  -4   8 1193.88   52.79
  -6   4  -9   30.05    6.89
   6  -4   9   34.23    3.88
  -6   4 -10  899.82   35.09
   6  -4  10  984.85   37.65
  -6   4 -11    9.93    3.93
   6  -4  11   12.93    2.63
  -6   4 -12   94.48   13.07
   6  -4  12   88.13    7.31
   6  -4  13   82.06    7.27
   8  -4 -16   24.85    3.46
   8  -4 -15   88.25    6.97
   8  -4 -14  131.42   17.32
   8  -4 -13    0.50    0.96
   8  -4 -12   55.73   12.52
   8  -4 -11    4.98    1.63
   8  -4 -10 1176.11   52.35
   8  -4  -9    4.80    1.68
   8  -4  -8  172.24   10.13
   8  -4  -4    3.73    0.89
  -8   4   3   91.92    4.39
   8  -4  -3   94.20    3.31
  -8   4   2   64.36    4.59
   8  -4  -2   58.69    6.93
  -8   4   1   25.49    5.49
   8  -4  -1   23.80    2.35
  -8   4   0  198.92    9.83
   8  -4   0  201.03    5.79
  -8   4  -1   25.22    5.92
   8  -4   1   31.52    3.31
  -8   4  -2 2489.03   47.63
   8  -4   2 2439.38   44.56
  -8   4  -3    3.85    1.31
   8  -4   3    5.05    3.01
  -8   4  -4  181.27    7.46
   8  -4   4  207.64    7.54
  -8   4  -5    6.81    1.72
   8  -4   5    3.92    1.86
  -8   4  -6  721.11   33.23
   8  -4   6  743.93   33.57
  -8   4  -7   -0.16    1.45
   8  -4   7   -1.84    1.52
  -8   4  -8    1.45    0.56
   8  -4   8    4.18    1.64
  -8   4  -9   10.29    3.39
   8  -4   9   18.50    4.11
  -8   4 -10  223.60   14.99
   8  -4  10  235.94   15.17
  10  -4 -14 1562.13   86.34
  10  -4 -13    3.09    1.43
  10  -4 -12    3.40    1.42
  10  -4 -11    2.01    1.51
  10  -4 -10  111.74   14.42
  10  -4  -9    6.91    2.40
  10  -4  -8   38.36    9.26
  10  -4  -7   19.88    4.08
  10  -4  -6 1338.95   58.99
  10  -4  -5   52.19   15.19
 -10   4   3    7.66    1.36
  10  -4  -3    8.52    1.40
 -10   4   2 2248.32  334.85
  10  -4  -2 2113.67   90.35
 -10   4   1   23.86    4.27
  10  -4  -1   23.20    2.15
 -10   4   0   48.51    7.39
  10  -4   0   30.87    2.74
 -10   4  -1   19.26    4.32
  10  -4   1    9.78    2.09
  10  -4   2   40.69    3.20
 -10   4  -3   42.14   10.53
  10  -4   3   45.26    3.33
 -10   4  -4   27.37    5.78
  10  -4   4   26.76    3.01
  10  -4   5   23.07    4.14
 -10   4  -6  386.42   23.41
  10  -4   6  407.72   23.69
 -10   4  -7   36.33    6.51
  10  -4   7   31.47    3.60
  12  -4 -10  689.54   39.56
  12  -4  -9    2.05    1.19
  12  -4  -8  165.95   11.89
  12  -4  -7    8.71    2.64
  12  -4  -6 1022.23   56.90
  12  -4  -5   46.71   12.81
 -12   4   4   81.41    6.09
  12  -4  -4  110.62    6.67
  12  -4  -4   49.94   14.26
 -12   4   3   14.93    3.71
  12  -4  -3   16.87    3.05
  12  -4  -2    5.08    1.54
 -12   4   1   42.00   10.25
  12  -4  -1   53.78    4.32
  12  -4   0    1.68    1.57
  12  -4   1    4.73    2.18
  12  -4   2 1261.50   69.27
   9   5   4  114.66    9.77
   9   5   3   22.28    3.90
  -9  -5  -2  183.93   12.85
   9   5   2  178.49   13.14
   9   5   1  110.07    9.18
  -9  -5   0    4.69    2.97
   9   5   0    0.46    1.82
  -9  -5   1  169.70   12.17
   9   5  -1  171.59   12.41
  -9  -5   2  264.78   16.62
  -9  -5   2  227.83   15.35
  -9  -5   2  252.91   14.52
  -9  -5   3   91.69   21.24
  -9  -5   3   91.37   10.15
  -9  -5   4   24.39    6.20
  -9  -5   4   26.22    5.84
  -9  -5   4   17.33    4.75
  -9  -5   5   17.94    4.33
  -9  -5   5   18.34    4.40
  -9  -5   5   13.46    2.85
  -9  -5   6 1531.96   84.30
  -9  -5   6 1336.15   72.89
  -9  -5   7   25.97    7.32
  -9  -5   7   14.45    4.21
  -9  -5   8   19.32    4.92
  -9  -5   8   27.41    5.75
  -9  -5   9   84.60   16.51
  -9  -5  10  692.09   39.22
  -7  -5  -8  194.12   13.00
  -7  -5  -7   53.84    4.99
   7   5   7   44.89    5.85
  -7  -5  -6   27.00    5.33
   7   5   6   25.24    5.61
  -7  -5  -5   94.65    7.54
   7   5   5   85.52    7.66
  -7  -5  -4   19.54    3.23
   7   5   4   29.49    6.25
  -7  -5  -3   27.68    3.40
   7   5   3   21.16    3.84
  -7  -5  -2  856.13   33.47
   7   5   2  851.13   34.09
  -7  -5  -1    1.94    1.91
  -7  -5   0  422.17   18.51
   7   5   0  415.25   18.49
  -7  -5   0  451.41   16.75
  -7  -5   1   59.92    5.23
  -7  -5   1   47.17    5.34
  -7  -5   1   35.86    5.89
  -7  -5   2 1707.73   74.85
  -7  -5   2 1554.44   68.98
  -7  -5   2 1581.30   68.07
  -7  -5   3    1.42    1.07
  -7  -5   3   -3.59    2.12
  -7  -5   3   -0.44    0.77
  -7  -5   4  332.41   24.94
  -7  -5   4  347.38   18.42
  -7  -5   4  336.99   16.94
  -7  -5   5    2.82    1.68
  -7  -5   5    5.41    3.09
  -7  -5   5    1.39    1.25
  -7  -5   6   17.35    3.77
  -7  -5   6   13.96    3.63
  -7  -5   6   16.97    2.24
  -7  -5   7   23.69    5.42
  -7  -5   7   27.39    3.70
  -7  -5   7   32.06    3.31
  -7  -5   8    3.10    0.74
  -7  -5   8   12.19    3.41
  -7  -5   8    6.96    1.98
  -7  -5   9   23.05    4.10
  -7  -5   9   18.08    3.11
  -7  -5  10 1037.21   58.05
  -7  -5  10  996.27   55.18
  -7  -5  11  122.62   15.01
  -7  -5  11  116.93    8.32
  -7  -5  12  294.56   18.07
  -5  -5 -10   45.00    4.75
   5   5   9   13.24    4.18
  -5  -5  -8  231.65   10.52
   5   5   8  170.32    9.85
  -5  -5  -7    4.34    2.16
   5   5   7    4.78    2.42
  -5  -5  -6  828.13   31.85
   5   5   6  770.21   31.09
  -5  -5  -5    6.79    2.28
   5   5   5    1.06    2.23
  -5  -5  -4 1317.74   58.16
   5   5   4 1383.09   61.75
  -5  -5  -3    7.96    2.36
  -5  -5  -2  358.27   12.44
   5   5   2  332.65   12.27
  -5  -5  -2  364.90    8.99
  -5  -5  -1   53.47    3.85
  -5  -5  -1   51.86    4.56
  -5  -5  -1   48.48    4.98
  -5  -5   0  182.87    9.13
  -5  -5   0  196.40    8.49
  -5  -5   0  213.47    6.41
  -5  -5   1    3.19    1.62
  -5  -5   1    3.90    2.10
  -5  -5   1    3.24    0.96
  -5  -5   2   54.34   11.15
  -5  -5   2   55.44    5.49
  -5  -5   2   63.29    4.71
  -5  -5   3  232.28   11.32
  -5  -5   3  253.53   10.58
  -5  -5   3  264.91    8.32
  -5  -5   4  561.80   17.38
  -5  -5   4  588.49   18.92
  -5  -5   4  583.73   15.73
  -5  -5   5   26.25    6.00
  -5  -5   5   32.63    5.42
  -5  -5   5   23.72    3.68
  -5  -5   6  933.13   25.41
  -5  -5   6  920.65   26.47
  -5  -5   6  893.78   23.08
  -5  -5   7   17.39    4.61
  -5  -5   7   18.50    4.40
  -5  -5   7   11.87    2.85
  -5  -5   8  921.39   41.84
  -5  -5   8  887.17   41.06
  -5  -5   8  919.94   40.99
  -5  -5   9    5.62    1.78
  -5  -5   9    2.93    2.13
  -5  -5   9   -2.90    1.82
  -5  -5  10  802.69   31.64
  -5  -5  10  796.72   32.21
  -5  -5  10  851.37   32.57
  -5  -5  11  177.57   14.91
  -5  -5  11  191.42   10.68
  -5  -5  11  183.68    8.83
  -5  -5  12  209.98   14.04
  -5  -5  12  211.12   13.37
  -5  -5  13   19.97    3.74
  -5  -5  13   15.97    2.58
  -3  -5 -12  895.67   49.80
   3   5  12  704.75   40.80
  -3  -5 -11    6.32    1.83
  -3  -5 -10  246.04   10.41
   3   5  10  203.80   10.39
  -3  -5  -9   43.62    3.66
   3   5   9   39.12    4.25
   3   5   8 1013.38   38.84
  -3  -5  -7    9.21    1.97
   3   5   7   11.44    2.56
  -3  -5  -6   44.97    3.40
   3   5   6   54.16    4.45
  -3  -5  -5  214.83    8.21
   3   5   5  218.72    8.70
  -3  -5  -4    5.93    1.61
  -3  -5  -4   11.97    1.54
  -3  -5  -3   31.86    3.35
  -3  -5  -3   26.81    3.33
  -3  -5  -3   38.12    2.75
  -3  -5  -2  182.48    7.92
  -3  -5  -2  189.33    7.50
  -3  -5  -1   10.76    4.53
  -3  -5  -1   19.46    3.20
  -3  -5   0 1404.64   28.53
  -3  -5   0 1374.15   28.98
  -3  -5   1   51.32    5.49
  -3  -5   1   38.02    3.50
  -3  -5   2  513.74   13.04
  -3  -5   3   97.73    8.34
  -3  -5   4 1922.25   39.69
  -3  -5   5    6.20    1.50
  -3  -5   6   70.03   12.97
  -3  -5   6   68.12    6.46
  -3  -5   7   18.48    5.09
  -3  -5   7   26.05    4.78
  -3  -5   8   11.03    2.02
  -3  -5   8   11.39    3.63
  -3  -5   9    0.24    0.82
  -3  -5   9    0.49    1.95
  -3  -5  10  147.89    8.23
  -3  -5  10  130.69    8.40
  -3  -5  11   33.05    3.51
  -3  -5  11   31.20    4.23
  -3  -5  12 1142.88   40.07
  -3  -5  12 1025.08   37.11
  -3  -5  13   33.54    4.40
  -3  -5  13   39.44    4.45
   1   5  13   52.45    4.94
   1   5  12  638.95   36.02
  -1  -5 -11   10.42    1.85
   1   5  11    4.94    1.56
  -1  -5 -10    2.98    1.45
   1   5  10    0.58    1.05
  -1  -5  -9    7.64    1.55
   1   5   9    7.85    1.84
  -1  -5  -8  215.82   10.79
   1   5   8  231.67   11.73
  -1  -5  -7   63.46    3.72
  -1  -5  -7   63.70    5.57
  -1  -5  -6   58.63   10.33
  -1  -5  -6   62.19    5.04
  -1  -5  -6   54.54    5.74
  -1  -5  -5   26.87    4.89
  -1  -5  -5   24.05    2.82
  -1  -5  -5   25.43    3.96
  -1  -5  -4 2651.59   48.26
  -1  -5  -4 2657.24   49.04
  -1  -5  -3   67.98    7.95
  -1  -5  -3  103.26    5.33
  -1  -5  -2   27.97    4.84
  -1  -5  -2   29.46    2.97
  -1  -5  -1    7.60    1.34
  -1  -5  -1    3.90    2.03
  -1  -5   0 1187.27   27.50
  -1  -5   0 1158.39   28.38
  -1  -5   1   46.30    6.73
  -1  -5   1   48.15    3.80
  -1  -5   2   18.42    4.23
  -1  -5   2   14.69    2.52
  -1  -5   3  165.39   12.75
  -1  -5   3  179.02    8.11
  -1  -5   4  424.90   12.14
  -1  -5   4  406.68   13.40
  -1  -5   5  176.69    8.67
  -1  -5   5  189.70    8.56
  -1  -5   6   68.17    6.22
  -1  -5   7   80.87    4.65
  -1  -5   7   64.39    4.86
  -1  -5   8 2019.34   48.98
  -1  -5   8 1885.30   47.33
  -1  -5   9    2.67    1.96
  -1  -5   9    0.89    2.09
  -1  -5  10   81.78    5.84
  -1  -5  10   63.33    5.15
  -1  -5  11   21.76    3.18
  -1  -5  11   30.34    4.11
  -1  -5  12  834.54   30.26
  -1  -5  13   51.30    5.67
   1  -5 -13   55.72    4.23
  -1   5  13   44.53    3.59
  -1   5  12  704.61   23.87
   1  -5 -11   28.99    2.51
   1  -5 -11   25.37    1.95
   1  -5 -10   52.39    6.26
   1  -5 -10   63.49    3.71
   1  -5 -10   67.26    3.64
   1  -5  -9    1.58    0.57
   1  -5  -9    1.91    1.35
   1  -5  -9    2.02    0.80
   1  -5  -8 1599.07   36.86
   1  -5  -8 1694.44   39.54
   1  -5  -8 1564.88   36.68
   1  -5  -7   60.50    6.08
   1  -5  -7   62.63    3.32
   1  -5  -7   57.05    6.23
   1  -5  -6   66.30    7.10
   1  -5  -6   57.33    4.48
   1  -5  -6   50.76    5.17
   1  -5  -5  161.14    5.68
   1  -5  -5  155.05    5.26
   1  -5  -4  383.08   10.10
   1  -5  -4  378.61   10.63
   1  -5  -3  161.51    6.44
   1  -5  -3  162.93    6.20
   1  -5  -2   16.36    3.41
   1  -5  -2   17.07    2.31
   1  -5  -1    2.17    0.89
   1  -5  -1    4.40    2.07
   1  -5   0 1049.44   24.07
   1  -5   0 1174.40   28.41
   1  -5   1   46.14    2.64
   1  -5   1   44.36    3.83
   1  -5   2   27.11    2.28
   1  -5   2   29.54    3.45
   1  -5   3   60.48    3.39
   1  -5   3   64.83    5.18
   1  -5   4 2894.13   52.80
   1  -5   4 2801.83   53.40
   1  -5   5   32.29    3.32
   1  -5   6   75.67    5.75
   1  -5   6   64.26    5.67
   1  -5   7   83.05    4.61
   1  -5   7   72.18    5.05
  -1   5  -8  269.83   13.97
   1  -5   8  282.39   14.25
  -1   5  -9   10.09    2.39
   1  -5   9    7.84    1.87
  -1   5 -10   -0.69    1.49
   1  -5  10    5.45    2.27
  -1   5 -11    9.12    2.04
   1  -5  11    7.50    1.77
   1  -5  12  704.11   40.02
   1  -5  13   64.80    6.28
   3  -5 -14  352.26   20.25
   3  -5 -13   37.27    3.41
   3  -5 -12  982.87   33.08
   3  -5 -11   26.58    6.31
   3  -5 -10  118.16    4.46
   3  -5 -10  147.12    5.58
   3  -5 -10  101.47    8.61
   3  -5  -9    1.48    0.65
   3  -5  -9    0.76    0.51
   3  -5  -8    7.82    1.07
   3  -5  -8    9.30    1.40
   3  -5  -8    8.48    2.05
   3  -5  -7   15.78    1.96
   3  -5  -7   14.74    2.00
   3  -5  -7   12.57    3.32
   3  -5  -6   65.25    4.28
   3  -5  -6   59.44    4.15
   3  -5  -6   61.70    9.67
   3  -5  -5    8.78    1.66
   3  -5  -4 1640.53   29.60
   3  -5  -4 1589.08   29.51
   3  -5  -3   64.10    4.72
   3  -5  -3   81.63    6.09
   3  -5  -2  476.22   11.49
   3  -5  -1   18.00    2.47
   3  -5   0 1329.32   25.29
   3  -5   0 1284.79   26.19
   3  -5   1   25.09    2.40
   3  -5   1   32.17    3.63
   3  -5   2  186.14    6.00
   3  -5   2  176.41    7.12
   3  -5   3   28.55    2.82
   3  -5   3   25.28    3.28
   3  -5   4   14.61    2.53
   3  -5   4    3.56    1.25
  -3   5  -5  249.85    9.09
   3  -5   5  241.65    8.41
  -3   5  -6   49.96   11.97
   3  -5   6   54.68    3.85
  -3   5  -7   12.69    4.15
   3  -5   7   11.45    2.10
  -3   5  -8 1309.99   48.89
   3  -5   8 1264.70   46.90
  -3   5  -9   53.43   12.65
   3  -5   9   51.17    4.42
  -3   5 -10  294.49   13.04
   3  -5  10  272.51   12.02
  -3   5 -11    9.01    2.74
   3  -5  11    6.80    2.51
   3  -5  12  929.76   52.37
   5  -5 -14   31.79    3.64
   5  -5 -13   13.09    2.58
   5  -5 -12  158.01   19.48
   5  -5 -11  135.43    9.60
   5  -5 -10  598.44   23.44
   5  -5  -9    6.65    1.72
   5  -5  -8  679.71   30.68
   5  -5  -7   13.15    3.61
   5  -5  -5   23.26    2.66
   5  -5  -5   22.43    2.65
   5  -5  -4  532.05   12.96
   5  -5  -4  481.47   12.13
   5  -5  -3  230.69    6.67
   5  -5  -3  227.70    7.13
   5  -5  -2   66.69    4.70
   5  -5  -2   66.55    5.14
   5  -5  -1    3.47    1.07
   5  -5  -1    1.44    1.58
   5  -5   0  184.23    6.23
   5  -5   0  173.49    6.80
   5  -5   1   29.41    4.02
   5  -5   1   39.59    5.10
   5  -5   2  369.99   10.89
  -5   5  -3    4.58    1.56
   5  -5   3   -0.88    5.06
  -5   5  -4 1525.29   66.46
   5  -5   4 1580.53   68.61
  -5   5  -5    6.57    1.45
   5  -5   5    2.76    3.54
  -5   5  -6  972.06   36.84
   5  -5   6  954.50   35.88
  -5   5  -7    5.82    1.99
   5  -5   7    3.24    1.86
  -5   5  -8  261.28   12.72
   5  -5   8  256.19   11.08
  -5   5  -9   21.64    5.23
   5  -5   9   23.33    4.55
   5  -5  10   50.65    5.21
   7  -5 -13   11.88    3.90
   7  -5 -12  230.08   14.64
   7  -5 -11   65.87   17.22
   7  -5 -10  685.65   40.38
   7  -5  -9   13.77    3.29
   7  -5  -8    4.54    1.10
   7  -5  -7   20.64    4.49
   7  -5  -6   11.84    3.42
   7  -5  -4  317.09   13.75
   7  -5  -3    4.08    1.08
   7  -5  -3    6.96    1.12
   7  -5  -2 1576.23   67.48
   7  -5  -2 1463.09   63.03
   7  -5  -1   40.53    2.89
   7  -5  -1   40.45    3.41
   7  -5   0  452.96   20.43
  -7   5  -1    0.81    0.84
   7  -5   1    0.03    1.63
  -7   5  -2  946.38   35.27
   7  -5   2  931.65   34.43
  -7   5  -3   27.72    5.38
   7  -5   3   21.35    2.26
   7  -5   4   22.36    2.73
  -7   5  -5  106.41   15.06
   7  -5   5  100.15    5.47
   7  -5   6   19.19    3.59
  -7   5  -7   67.50   13.74
   7  -5   7   56.35    4.94
   7  -5   8  175.00   11.51
   9  -5 -10  468.85   30.86
   9  -5  -9   36.10   10.07
   9  -5  -8   12.50    2.49
   9  -5  -7   22.38    6.04
   9  -5  -3   92.60    5.54
   9  -5  -3   86.32    5.33
   9  -5  -2  227.55   13.00
   9  -5  -2  190.44   11.13
   9  -5  -1  184.40   10.91
   9  -5   0    4.37    1.30
  -9   5  -1  114.89   12.98
   9  -5   1  118.52    7.71
  -9   5  -2  202.54   14.20
   9  -5   2  188.54   11.57
  -9   5  -3   34.74    7.92
   9  -5   3   29.70    2.98
   9  -5   4  139.63    9.14
  -6  -6  -2    1.44    0.79
  -6  -6  -1  161.46   11.06
  -6  -6   0   49.32   13.60
  -6  -6   0   63.72    6.60
  -6  -6   1    1.86    1.49
  -6  -6   1    1.95    2.12
  -6  -6   1    1.79    1.03
  -6  -6   2  906.52   51.09
  -6  -6   2  875.07   50.01
  -6  -6   2  986.61   54.06
  -6  -6   3   23.11    7.10
  -6  -6   3   22.50    4.16
  -6  -6   4  550.19   36.82
  -6  -6   4  621.75   34.78
  -6  -6   5    4.29    1.65
  -6  -6   5    3.07    1.05
  -6  -6   6  708.13   40.69
  -6  -6   6  800.93   44.67
  -4  -6  -6   79.33    6.96
  -4  -6  -5    5.59    1.88
  -4  -6  -5    5.26    1.98
  -4  -6  -4  439.80   27.21
  -4  -6  -4  486.07   28.39
  -4  -6  -3   22.35    5.41
  -4  -6  -3   27.56    5.36
  -4  -6  -2  427.35   27.23
  -4  -6  -2  483.23   28.36
  -4  -6  -2  553.16   30.21
  -4  -6  -1   10.23    3.43
  -4  -6  -1   16.65    4.70
  -4  -6  -1   27.19    4.58
  -4  -6   0  952.74   52.84
  -4  -6   0  920.33   51.83
  -4  -6   0 1064.43   57.84
  -4  -6   1   30.73   10.21
  -4  -6   1   51.15    3.96
  -4  -6   2   79.93   18.62
  -4  -6   2  106.91    8.89
  -4  -6   2  116.48    7.60
  -4  -6   3   22.46    5.16
  -4  -6   3   23.31    4.92
  -4  -6   3   26.03    4.73
  -4  -6   4   48.24   11.94
  -4  -6   4   64.61    6.70
  -4  -6   4   65.47    5.29
  -4  -6   5    3.46    0.99
  -4  -6   5    5.46    3.44
  -4  -6   5    3.96    1.75
  -4  -6   6   50.83   12.11
  -4  -6   6   65.34    6.85
  -4  -6   6   70.74    5.70
  -4  -6   7  151.96   13.73
  -4  -6   7  186.20   13.52
  -4  -6   7  198.17   12.61
  -4  -6   8  445.37   26.50
  -2  -6  -8 1259.59   69.33
  -2  -6  -7    6.50    1.40
  -2  -6  -7    8.73    2.02
  -2  -6  -6   22.33    4.82
  -2  -6  -6   34.75    3.86
  -2  -6  -5   14.02    3.55
  -2  -6  -5   16.83    3.54
  -2  -6  -5   13.83    3.10
  -2  -6  -5   25.13    3.96
  -2  -6  -4  736.66   41.20
  -2  -6  -4  799.14   44.70
  -2  -6  -3   11.10    2.30
  -2  -6  -3   17.29    3.10
  -2  -6  -2   27.79    5.54
  -2  -6  -2   30.25    5.56
  -2  -6  -1  347.38   15.44
  -2  -6  -1  372.97   15.31
  -2  -6   0   19.76    4.45
  -2  -6   0   18.83    3.53
  -2  -6   1  114.50    6.55
  -2  -6   1  115.15    7.33
  -2  -6   2   54.24   10.12
  -2  -6   2   58.22    5.04
  -2  -6   3   20.85    4.48
  -2  -6   3   21.49    3.47
  -2  -6   4 1334.46   45.03
  -2  -6   4 1281.80   44.94
  -2  -6   5    1.95    0.83
  -2  -6   5   30.32    6.22
  -2  -6   6  331.41   23.35
  -2  -6   6  373.10   23.08
  -2  -6   7  126.88    9.09
  -2  -6   7  124.07   10.00
  -2  -6   8  980.27   54.81
  -2  -6   8  899.80   51.30
  -2  -6   9    6.36    3.07
   0  -6  -9  103.30    9.66
   0  -6  -9  141.23    9.09
   0  -6  -8  182.81   14.16
   0  -6  -8  227.95   13.69
   0  -6  -7    1.14    0.72
   0  -6  -7    1.62    1.06
   0  -6  -6   18.87    4.74
   0  -6  -6   21.22    5.76
   0  -6  -5    1.76    0.84
   0  -6  -5    2.28    1.69
   0  -6  -4  370.84   16.17
   0  -6  -4  406.67   15.55
   0  -6  -3    2.45    0.93
   0  -6  -2   11.46    2.43
   0  -6  -2   20.29    3.12
   0  -6  -1   10.79    2.44
   0  -6  -1   17.39    3.01
   0  -6   0 1658.33   59.80
   0  -6   0 1761.21   64.64
   0  -6   1   62.80    7.04
   0  -6   1   26.84    4.00
   0  -6   2   14.79    2.02
   0  -6   2    9.90    2.55
   0  -6   3    0.02    0.97
   0  -6   3    5.23    2.49
   0  -6   4  436.17   16.30
   0  -6   5   -0.06    1.09
   0  -6   5   -0.27    1.98
   0  -6   6   24.94    4.57
   0  -6   6   25.71    5.11
   0  -6   7    6.11    1.83
   0  -6   8  239.36   15.05
   2  -6  -7  101.41    6.33
   2  -6  -7   99.48    9.97
   2  -6  -6  323.40   18.12
   2  -6  -6  319.91   18.28
   2  -6  -6  287.86   19.15
   2  -6  -5    4.22    2.03
   2  -6  -5    3.85    1.76
   2  -6  -4 1226.59   40.04
   2  -6  -4 1242.06   41.29
   2  -6  -3   20.30    2.23
   2  -6  -3   23.34    2.86
   2  -6  -2  100.63    4.91
   2  -6  -2   72.49    4.74
   2  -6  -1  117.59    5.57
   2  -6  -1  111.09    6.26
   2  -6   0    9.97    1.72
   2  -6   0   12.22    2.49
   2  -6   1  368.68   13.70
   2  -6   1  336.05   13.97
   2  -6   2   27.70    2.84
   2  -6   2   31.01    5.87
   2  -6   3   10.88    1.85
   2  -6   3   10.00    2.31
   2  -6   4  820.43   45.38
   2  -6   4  655.80   37.49
   2  -6   5   19.19    3.64
   2  -6   5   18.24    4.09
   2  -6   6   34.39    3.49
   2  -6   6   24.11    3.60
   2  -6   7    7.90    1.88
   4  -6  -8  347.48   22.71
   4  -6  -7  125.82   10.18
   4  -6  -6   56.23    3.52
   4  -6  -6   38.14   10.28
   4  -6  -5    3.95    1.03
   4  -6  -5    3.45    1.31
   4  -6  -4   53.33    3.66
   4  -6  -4   54.69    4.23
   4  -6  -3   13.26    2.37
   4  -6  -3   14.68    2.85
   4  -6  -2   93.51    6.06
   4  -6  -2   82.10    5.89
   4  -6  -1   14.56    3.15
   4  -6   0  871.29   47.72
   4  -6   0  873.37   48.40
   4  -6   1   -0.84    2.17
   4  -6   1    2.75    1.47
   4  -6   2  438.42   24.80
   4  -6   2  424.30   24.83
   4  -6   3   25.01    4.49
   4  -6   3   27.09    5.34
   4  -6   4  490.25   27.87
   4  -6   4  373.72   22.31
   4  -6   5    1.81    1.26
   4  -6   6   77.65    6.08
   6  -6  -6  664.07   37.74
   6  -6  -3    9.01    1.18
   6  -6  -3    8.66    1.45
   6  -6   0   62.17    4.56
   6  -6   2    1.73    1.51
   0   0   0    0.00    0.00
;
_shelx_hkl_checksum              42204
loop_
_space_group_symop_operation_xyz
'x, y, z'
'-x, y, -z+1/2'
'x+1/2, y+1/2, z'
'-x+1/2, y+1/2, -z+1/2'
'-x, -y, -z'
'x, -y, z-1/2'
'-x+1/2, -y+1/2, -z'
'x+1/2, -y+1/2, z-1/2'
loop_
_atom_site_label
_atom_site_type_symbol
_atom_site_fract_x
_atom_site_fract_y
_atom_site_fract_z
_atom_site_U_iso_or_equiv
_atom_site_adp_type
_atom_site_occupancy
_atom_site_site_symmetry_order
_atom_site_calc_flag
_atom_site_refinement_flags_posn
_atom_site_refinement_flags_adp
_atom_site_refinement_flags_occupancy
Eu1 Eu 0.88547(3) 0.00868(7) 0.41531(3) 0.0099(3) Uani 1 1 d . . .
Ba1 Ba 0.66220(4) 0.49521(8) 0.33281(3) 0.0121(3) Uani 1 1 d . . .
Si1 Si 0.8815(2) -0.4671(5) 0.54424(14) 0.0101(5) Uani 1 1 d . . .
Si2 Si 1.06251(19) -0.5431(5) 0.68445(14) 0.0105(5) Uani 1 1 d . . .
O1 O 0.9823(4) -0.6417(11) 0.6001(3) 0.0147(12) Uani 1 1 d . . .
O2 O 0.7948(5) -0.4610(12) 0.5967(4) 0.0142(12) Uani 1 1 d . . .
O3 O 0.9291(4) -0.1749(11) 0.5387(3) 0.0115(11) Uani 1 1 d . . .
O4 O 0.8431(5) -0.5980(12) 0.4602(3) 0.0155(12) Uani 1 1 d . . .
O5 O 0.5000 0.1443(16) 0.2500 0.0118(16) Uani 1 2 d S T P
O6 O 0.9192(5) 0.2432(12) 0.3107(4) 0.0194(13) Uani 1 1 d . . .
O7 O 0.8354(5) -0.2766(12) 0.3062(3) 0.0141(12) Uani 1 1 d . . .
loop_
_atom_site_aniso_label
_atom_site_aniso_U_11
_atom_site_aniso_U_22
_atom_site_aniso_U_33
_atom_site_aniso_U_23
_atom_site_aniso_U_13
_atom_site_aniso_U_12
Eu1 0.0110(3) 0.0110(3) 0.0086(4) 0.00017(12) 0.0040(2) -0.00005(13)
Ba1 0.0137(4) 0.0122(4) 0.0110(4) -0.00098(15) 0.0043(3) -0.00158(15)
Si1 0.0115(10) 0.0109(10) 0.0085(12) 0.0007(8) 0.0034(9) -0.0002(8)
Si2 0.0119(11) 0.0116(10) 0.0095(12) 0.0008(9) 0.0054(9) 0.0002(8)
O1 0.016(3) 0.011(3) 0.016(3) -0.002(2) 0.004(2) -0.001(2)
O2 0.012(3) 0.019(3) 0.013(3) 0.002(2) 0.006(2) 0.002(2)
O3 0.017(3) 0.010(3) 0.007(3) 0.000(2) 0.002(2) -0.001(2)
O4 0.019(3) 0.015(3) 0.014(3) -0.004(2) 0.007(2) 0.002(2)
O5 0.018(4) 0.013(4) 0.006(4) 0.000 0.006(3) 0.000
O6 0.025(3) 0.016(3) 0.019(3) -0.003(2) 0.008(3) -0.005(2)
O7 0.015(3) 0.017(3) 0.010(3) 0.002(2) 0.003(2) 0.001(2)
loop_
_atom_type_symbol
_atom_type_description
_atom_type_scat_dispersion_real
_atom_type_scat_dispersion_imag
_atom_type_scat_source
O O 0.0106 0.0060 'International Tables Vol C Tables 4.2.6.8 and 6.1.1.4'
Si Si 0.0817 0.0704 'International Tables Vol C Tables 4.2.6.8 and 6.1.1.4'
Ba Ba -0.3244 2.2819 'International Tables Vol C Tables 4.2.6.8 and 6.1.1.4'
Eu Eu -0.1578 3.6682 'International Tables Vol C Tables 4.2.6.8 and 6.1.1.4'
loop_
_geom_angle_atom_site_label_1
_geom_angle_atom_site_label_2
_geom_angle_atom_site_label_3
_geom_angle
_geom_angle_site_symmetry_1
_geom_angle_site_symmetry_3
O2 Eu1 O3 92.8(2) 7_646 .
O2 Eu1 O4 78.9(2) 7_646 1_565
O3 Eu1 O4 94.2(2) . 1_565
O2 Eu1 O6 111.4(2) 7_646 .
O3 Eu1 O6 154.9(2) . .
O4 Eu1 O6 84.7(2) 1_565 .
O2 Eu1 O7 77.9(2) 7_646 .
O3 Eu1 O7 116.7(2) . .
O4 Eu1 O7 141.9(2) 1_565 .
O6 Eu1 O7 76.2(2) . .
O2 Eu1 O3 160.0(2) 7_646 5_756
O3 Eu1 O3 81.2(2) . 5_756
O4 Eu1 O3 82.5(2) 1_565 5_756
O6 Eu1 O3 73.8(2) . 5_756
O7 Eu1 O3 121.81(19) . 5_756
O2 Eu1 O1 125.6(2) 7_646 5_746
O3 Eu1 O1 77.23(19) . 5_746
O4 Eu1 O1 153.8(2) 1_565 5_746
O6 Eu1 O1 92.8(2) . 5_746
O7 Eu1 O1 61.11(19) . 5_746
O3 Eu1 O1 71.84(18) 5_756 5_746
O2 Eu1 Si2 102.40(17) 7_646 5_746
O3 Eu1 Si2 99.47(15) . 5_746
O4 Eu1 Si2 166.19(15) 1_565 5_746
O6 Eu1 Si2 82.01(16) . 5_746
O7 Eu1 Si2 29.40(14) . 5_746
O3 Eu1 Si2 97.39(14) 5_756 5_746
O1 Eu1 Si2 31.77(13) 5_746 5_746
O2 Eu1 Si1 78.43(17) 7_646 .
O3 Eu1 Si1 26.36(15) . .
O4 Eu1 Si1 112.44(15) 1_565 .
O6 Eu1 Si1 162.02(16) . .
O7 Eu1 Si1 91.92(15) . .
O3 Eu1 Si1 102.20(14) 5_756 .
O1 Eu1 Si1 69.47(14) 5_746 .
Si2 Eu1 Si1 81.15(6) 5_746 .
O2 Eu1 Si2 111.15(17) 7_646 5_756
O3 Eu1 Si2 141.24(15) . 5_756
O4 Eu1 Si2 63.04(15) 1_565 5_756
O6 Eu1 Si2 22.90(16) . 5_756
O7 Eu1 Si2 98.35(15) . 5_756
O3 Eu1 Si2 65.81(14) 5_756 5_756
O1 Eu1 Si2 108.95(14) 5_746 5_756
Si2 Eu1 Si2 104.23(7) 5_746 5_756
Si1 Eu1 Si2 167.17(7) . 5_756
O2 Eu1 Si1 88.21(17) 7_646 1_565
O3 Eu1 Si1 76.16(15) . 1_565
O4 Eu1 Si1 19.83(15) 1_565 1_565
O6 Eu1 Si1 97.58(16) . 1_565
O7 Eu1 Si1 161.19(15) . 1_565
O3 Eu1 Si1 71.88(14) 5_756 1_565
O1 Eu1 Si1 137.56(13) 5_746 1_565
Si2 Eu1 Si1 168.80(7) 5_746 1_565
Si1 Eu1 Si1 97.73(6) . 1_565
Si2 Eu1 Si1 74.70(6) 5_756 1_565
O2 Eu1 Eu1 132.30(16) 7_646 5_756
O3 Eu1 Eu1 42.45(14) . 5_756
O4 Eu1 Eu1 87.54(15) 1_565 5_756
O6 Eu1 Eu1 112.54(16) . 5_756
O7 Eu1 Eu1 130.15(14) . 5_756
O3 Eu1 Eu1 38.73(13) 5_756 5_756
O1 Eu1 Eu1 69.34(13) 5_746 5_756
Si2 Eu1 Eu1 101.07(5) 5_746 5_756
Si1 Eu1 Eu1 64.98(5) . 5_756
Si2 Eu1 Eu1 102.35(5) 5_756 5_756
Si1 Eu1 Eu1 68.66(4) 1_565 5_756
O7 Ba1 O2 66.19(18) 1_565 7_656
O7 Ba1 O6 77.43(19) 1_565 4_655
O2 Ba1 O6 89.19(19) 7_656 4_655
O7 Ba1 O7 83.43(13) 1_565 4_655
O2 Ba1 O7 142.71(18) 7_656 4_655
O6 Ba1 O7 62.40(18) 4_655 4_655
O7 Ba1 O4 69.69(17) 1_565 1_565
O2 Ba1 O4 76.09(18) 7_656 1_565
O6 Ba1 O4 147.06(18) 4_655 1_565
O7 Ba1 O4 114.19(17) 4_655 1_565
O7 Ba1 O5 136.73(13) 1_565 .
O2 Ba1 O5 146.68(17) 7_656 .
O6 Ba1 O5 76.98(18) 4_655 .
O7 Ba1 O5 53.79(12) 4_655 .
O4 Ba1 O5 129.75(18) 1_565 .
O7 Ba1 O3 120.13(17) 1_565 7_656
O2 Ba1 O3 56.12(17) 7_656 7_656
O6 Ba1 O3 114.19(16) 4_655 7_656
O7 Ba1 O3 155.77(16) 4_655 7_656
O4 Ba1 O3 81.93(15) 1_565 7_656
O5 Ba1 O3 102.08(12) . 7_656
O7 Ba1 O2 113.68(17) 1_565 7_646
O2 Ba1 O2 129.5(2) 7_656 7_646
O6 Ba1 O2 141.28(19) 4_655 7_646
O7 Ba1 O2 81.49(17) 4_655 7_646
O4 Ba1 O2 59.52(18) 1_565 7_646
O5 Ba1 O2 70.23(18) . 7_646
O3 Ba1 O2 92.72(16) 7_656 7_646
O7 Ba1 O1 162.10(17) 1_565 7_646
O2 Ba1 O1 116.04(17) 7_656 7_646
O6 Ba1 O1 119.71(18) 4_655 7_646
O7 Ba1 O1 99.60(16) 4_655 7_646
O4 Ba1 O1 93.21(17) 1_565 7_646
O5 Ba1 O1 51.38(12) . 7_646
O3 Ba1 O1 59.98(16) 7_656 7_646
O2 Ba1 O1 50.14(16) 7_646 7_646
O7 Ba1 Si1 93.73(14) 1_565 7_656
O2 Ba1 Si1 27.73(13) 7_656 7_656
O6 Ba1 Si1 98.71(14) 4_655 7_656
O7 Ba1 Si1 161.09(13) 4_655 7_656
O4 Ba1 Si1 81.88(12) 1_565 7_656
O5 Ba1 Si1 124.24(9) . 7_656
O3 Ba1 Si1 29.03(12) 7_656 7_656
O2 Ba1 Si1 116.47(13) 7_646 7_656
O1 Ba1 Si1 88.86(12) 7_646 7_656
O7 Ba1 Si2 109.83(13) 1_565 8_445
O2 Ba1 Si2 158.87(14) 7_656 8_445
O6 Ba1 Si2 69.83(14) 4_655 8_445
O7 Ba1 Si2 26.41(12) 4_655 8_445
O4 Ba1 Si2 123.14(13) 1_565 8_445
O5 Ba1 Si2 27.66(5) . 8_445
O3 Ba1 Si2 129.68(12) 7_656 8_445
O2 Ba1 Si2 71.56(13) 7_646 8_445
O1 Ba1 Si2 74.52(12) 7_646 8_445
Si1 Ba1 Si2 149.93(7) 7_656 8_445
O7 Ba1 Si1 134.51(13) 1_565 7_646
O2 Ba1 Si1 116.86(14) 7_656 7_646
O6 Ba1 Si1 143.88(15) 4_655 7_646
O7 Ba1 Si1 99.70(13) 4_655 7_646
O4 Ba1 Si1 67.78(13) 1_565 7_646
O5 Ba1 Si1 67.57(10) . 7_646
O3 Ba1 Si1 68.65(12) 7_656 7_646
O2 Ba1 Si1 26.19(12) 7_646 7_646
O1 Ba1 Si1 27.65(12) 7_646 7_646
Si1 Ba1 Si1 95.61(6) 7_656 7_646
Si2 Ba1 Si1 81.29(6) 8_445 7_646
O4 Si1 O2 115.8(4) . .
O4 Si1 O3 112.1(3) . .
O2 Si1 O3 109.6(3) . .
O4 Si1 O1 109.1(3) . .
O2 Si1 O1 102.9(3) . .
O3 Si1 O1 106.6(3) . .
O4 Si1 Eu1 75.3(2) . .
O2 Si1 Eu1 119.7(3) . .
O3 Si1 Eu1 38.2(2) . .
O1 Si1 Eu1 130.5(2) . .
O4 Si1 Ba1 146.5(2) . 7_656
O2 Si1 Ba1 51.6(2) . 7_656
O3 Si1 Ba1 59.6(2) . 7_656
O1 Si1 Ba1 104.2(2) . 7_656
Eu1 Si1 Ba1 85.70(6) . 7_656
O4 Si1 Eu1 29.5(2) . 1_545
O2 Si1 Eu1 119.9(3) . 1_545
O3 Si1 Eu1 127.4(2) . 1_545
O1 Si1 Eu1 79.9(2) . 1_545
Eu1 Si1 Eu1 97.72(6) . 1_545
Ba1 Si1 Eu1 170.96(9) 7_656 1_545
O4 Si1 Ba1 99.6(3) . 7_646
O2 Si1 Ba1 56.3(2) . 7_646
O3 Si1 Ba1 148.1(2) . 7_646
O1 Si1 Ba1 57.1(2) . 7_646
Eu1 Si1 Ba1 171.71(9) . 7_646
Ba1 Si1 Ba1 95.61(6) 7_656 7_646
Eu1 Si1 Ba1 79.81(5) 1_545 7_646
O6 Si2 O7 118.0(4) 5_756 5_746
O6 Si2 O5 111.8(4) 5_756 7_646
O7 Si2 O5 105.9(3) 5_746 7_646
O6 Si2 O1 113.9(3) 5_756 .
O7 Si2 O1 103.1(3) 5_746 .
O5 Si2 O1 102.5(3) 7_646 .
O6 Si2 Eu1 137.8(3) 5_756 5_746
O7 Si2 Eu1 47.2(2) 5_746 5_746
O5 Si2 Eu1 110.4(3) 7_646 5_746
O1 Si2 Eu1 56.0(2) . 5_746
O6 Si2 Eu1 35.1(2) 5_756 5_756
O7 Si2 Eu1 105.7(2) 5_746 5_756
O5 Si2 Eu1 143.6(3) 7_646 5_756
O1 Si2 Eu1 87.4(2) . 5_756
Eu1 Si2 Eu1 104.23(7) 5_746 5_756
O6 Si2 Ba1 127.0(3) 5_756 8_546
O7 Si2 Ba1 52.0(2) 5_746 8_546
O5 Si2 Ba1 54.59(19) 7_646 8_546
O1 Si2 Ba1 119.0(2) . 8_546
Eu1 Si2 Ba1 78.78(6) 5_746 8_546
Eu1 Si2 Ba1 146.91(8) 5_756 8_546
O6 Si2 Ba1 78.5(3) 5_756 5_756
O7 Si2 Ba1 41.5(2) 5_746 5_756
O5 Si2 Ba1 137.30(14) 7_646 5_756
O1 Si2 Ba1 110.7(2) . 5_756
Eu1 Si2 Ba1 70.28(5) 5_746 5_756
Eu1 Si2 Ba1 65.59(4) 5_756 5_756
Ba1 Si2 Ba1 85.43(6) 8_546 5_756
O6 Si2 Ba1 137.7(3) 5_756 7_646
O7 Si2 Ba1 104.2(2) 5_746 7_646
O5 Si2 Ba1 48.85(18) 7_646 7_646
O1 Si2 Ba1 54.9(2) . 7_646
Eu1 Si2 Ba1 74.57(5) 5_746 7_646
Eu1 Si2 Ba1 136.27(8) 5_756 7_646
Ba1 Si2 Ba1 76.69(5) 8_546 7_646
Ba1 Si2 Ba1 143.00(7) 5_756 7_646
Si2 O1 Si1 124.8(4) . .
Si2 O1 Eu1 92.2(3) . 5_746
Si1 O1 Eu1 139.6(3) . 5_746
Si2 O1 Ba1 98.6(3) . 7_646
Si1 O1 Ba1 95.3(2) . 7_646
Eu1 O1 Ba1 94.26(18) 5_746 7_646
Si1 O2 Eu1 140.7(4) . 7_646
Si1 O2 Ba1 100.6(3) . 7_656
Eu1 O2 Ba1 103.1(2) 7_646 7_656
Si1 O2 Ba1 97.5(3) . 7_646
Eu1 O2 Ba1 91.0(2) 7_646 7_646
Ba1 O2 Ba1 129.5(2) 7_656 7_646
Si1 O3 Eu1 115.4(3) . .
Si1 O3 Eu1 130.0(3) . 5_756
Eu1 O3 Eu1 98.8(2) . 5_756
Si1 O3 Ba1 91.4(2) . 7_656
Eu1 O3 Ba1 122.4(2) . 7_656
Eu1 O3 Ba1 100.11(18) 5_756 7_656
Si1 O4 Eu1 130.6(3) . 1_545
Si1 O4 Ba1 131.5(3) . 1_545
Eu1 O4 Ba1 95.8(2) 1_545 1_545
Si2 O5 Si2 142.6(6) 8_445 7_646
Si2 O5 Ba1 97.75(16) 8_445 .
Si2 O5 Ba1 105.75(17) 7_646 .
Si2 O5 Ba1 105.75(17) 8_445 2_655
Si2 O5 Ba1 97.75(16) 7_646 2_655
Ba1 O5 Ba1 101.4(3) . 2_655
Si2 O6 Eu1 122.0(3) 5_756 .
Si2 O6 Ba1 121.6(3) 5_756 4_645
Eu1 O6 Ba1 111.4(2) . 4_645
Si2 O7 Eu1 103.4(3) 5_746 .
Si2 O7 Ba1 115.2(3) 5_746 1_545
Eu1 O7 Ba1 102.2(2) . 1_545
Si2 O7 Ba1 101.6(3) 5_746 4_645
Eu1 O7 Ba1 108.7(2) . 4_645
Ba1 O7 Ba1 124.1(2) 1_545 4_645
loop_
_geom_bond_atom_site_label_1
_geom_bond_atom_site_label_2
_geom_bond_distance
_geom_bond_site_symmetry_2
Eu1 O2 2.307(6) 7_646
Eu1 O3 2.313(5) .
Eu1 O4 2.317(6) 1_565
Eu1 O6 2.341(6) .
Eu1 O7 2.392(6) .
Eu1 O3 2.495(6) 5_756
Eu1 O1 2.631(6) 5_746
Eu1 Si2 3.170(2) 5_746
Eu1 Si1 3.377(2) .
Eu1 Si2 3.454(2) 5_756
Eu1 Si1 3.567(2) 1_565
Eu1 Eu1 3.6533(14) 5_756
Ba1 O7 2.683(6) 1_565
Ba1 O2 2.729(7) 7_656
Ba1 O6 2.804(6) 4_655
Ba1 O7 2.835(6) 4_655
Ba1 O4 2.858(6) 1_565
Ba1 O5 2.898(5) .
Ba1 O3 2.951(5) 7_656
Ba1 O2 3.053(6) 7_646
Ba1 O1 3.066(6) 7_646
Ba1 Si1 3.420(2) 7_656
Ba1 Si2 3.524(3) 8_445
Ba1 Si1 3.638(3) 7_646
Si1 O4 1.595(6) .
Si1 O2 1.619(6) .
Si1 O3 1.660(6) .
Si1 O1 1.695(6) .
Si1 Ba1 3.420(2) 7_656
Si1 Eu1 3.567(2) 1_545
Si1 Ba1 3.638(3) 7_646
Si2 O6 1.586(7) 5_756
Si2 O7 1.600(6) 5_746
Si2 O5 1.651(4) 7_646
Si2 O1 1.670(6) .
Si2 Eu1 3.170(2) 5_746
Si2 Eu1 3.454(2) 5_756
Si2 Ba1 3.524(3) 8_546
Si2 Ba1 3.661(2) 5_756
Si2 Ba1 3.705(2) 7_646
O1 Eu1 2.631(6) 5_746
O1 Ba1 3.066(6) 7_646
O2 Eu1 2.307(6) 7_646
O2 Ba1 2.729(7) 7_656
O2 Ba1 3.053(6) 7_646
O3 Eu1 2.495(6) 5_756
O3 Ba1 2.951(5) 7_656
O4 Eu1 2.317(6) 1_545
O4 Ba1 2.858(6) 1_545
O5 Si2 1.651(4) 8_445
O5 Si2 1.651(4) 7_646
O5 Ba1 2.899(5) 2_655
O6 Si2 1.586(7) 5_756
O6 Ba1 2.804(6) 4_645
O7 Si2 1.600(6) 5_746
O7 Ba1 2.683(6) 1_545
O7 Ba1 2.836(6) 4_645
