#------------------------------------------------------------------------------
#$Date: 2019-12-26 20:55:13 +0200 (Thu, 26 Dec 2019) $
#$Revision: 246091 $
#$URL: file:///home/coder/svn-repositories/cod/cif/2/31/17/2311709.cif $
#------------------------------------------------------------------------------
#
# This file is available in the Crystallography Open Database (COD),
# http://www.crystallography.net/. The original data for this entry
# were provided by IUCr Journals, http://journals.iucr.org/.
#
# The file may be used within the scientific community so long as
# proper attribution is given to the journal article from which the
# data were obtained.
#
data_2311709
loop_
_publ_author_name
'Huband, S.'
'Keeble, D. S.'
'Zhang, N.'
'Glazer, A. M.'
'Bartasyte, A.'
'Thomas, P. A.'
_publ_section_title
;
 Crystallographic and optical study of
 LiNb<sub>1&#x2005;-&#x2005;x</sub>Ta<sub>x</sub>O<sub>3</sub>.
;
_journal_issue                   'Pt 3'
_journal_name_full
'Acta crystallographica Section B, Structural science, crystal engineering and materials'
_journal_page_first              498
_journal_page_last               506
_journal_paper_doi               10.1107/S2052520617004711
_journal_volume                  73
_journal_year                    2017
_chemical_formula_moiety         'Li Nb0.11 O3 Ta0.89'
_chemical_formula_sum            'Li Nb0.11 O3 Ta0.89'
_chemical_formula_weight         226.21
_chemical_name_common            'lithium niobate tantalate'
_chemical_name_systematic        'lithium niobate tantalate'
_space_group_crystal_system      trigonal
_space_group_IT_number           161
_space_group_name_Hall           'R 3 -2"c'
_space_group_name_H-M_alt        'R 3 c :H'
_atom_sites_solution_primary     other
_atom_sites_solution_secondary   other
_audit_creation_method
;
Olex2 1.2
(compiled 2016.09.09 svn.r3337 for OlexSys, GUI svn.r5227)
Dolomanov, O.V., Bourhis, L.J., Gildea, R.J, Howard, J.A.K. & Puschmann, H.
 (2009), J. Appl. Cryst. 42, 339-341.
Sheldrick, G.M. (2015). Acta Cryst. C71, 3-8.
;
_cell_angle_alpha                90
_cell_angle_beta                 90
_cell_angle_gamma                120
_cell_formula_units_Z            6
_cell_length_a                   5.1510(10)
_cell_length_b                   5.1510(10)
_cell_length_c                   13.776(5)
_cell_measurement_reflns_used    3255
_cell_measurement_temperature    293(2)
_cell_measurement_theta_max      37.1890
_cell_measurement_theta_min      4.7770
_cell_volume                     316.55(14)
_computing_cell_refinement
;
CrysAlisPro, Agilent Technologies,
Version 1.171.37.35 (release 13-08-2014 CrysAlis171 .NET)
(compiled Aug 13 2014,18:06:01)
;
_computing_data_collection
;
CrysAlisPro, Agilent Technologies,
Version 1.171.37.35 (release 13-08-2014 CrysAlis171 .NET)
(compiled Aug 13 2014,18:06:01)
;
_computing_data_reduction
;
CrysAlisPro, Agilent Technologies,
Version 1.171.37.35 (release 13-08-2014 CrysAlis171 .NET)
(compiled Aug 13 2014,18:06:01)
;
_computing_molecular_graphics    'Olex2 (Dolomanov et al., 2009)'
_computing_publication_material  'Olex2 (Dolomanov et al., 2009)'
_computing_structure_refinement  'ShelXL (Sheldrick, 2015)'
_diffrn_ambient_temperature      293(2)
_diffrn_detector_area_resol_mean 10.2833
_diffrn_measured_fraction_theta_full 1.000
_diffrn_measured_fraction_theta_max 0.995
_diffrn_measurement_device       'four-circle diffractometer'
_diffrn_measurement_device_type  'Xcalibur, Ruby, Gemini'
_diffrn_measurement_method       '\w scans'
_diffrn_radiation_monochromator  graphite
_diffrn_radiation_type           MoK\a
_diffrn_radiation_wavelength     0.71073
_diffrn_reflns_av_R_equivalents  0.0531
_diffrn_reflns_limit_h_max       8
_diffrn_reflns_limit_h_min       -8
_diffrn_reflns_limit_k_max       8
_diffrn_reflns_limit_k_min       -8
_diffrn_reflns_limit_l_max       22
_diffrn_reflns_limit_l_min       -23
_diffrn_reflns_number            4378
_diffrn_reflns_theta_full        25.242
_diffrn_reflns_theta_max         37.618
_diffrn_reflns_theta_min         5.446
_exptl_absorpt_coefficient_mu    46.644
_exptl_absorpt_correction_T_max  0.043
_exptl_absorpt_correction_T_min  0.005
_exptl_absorpt_correction_type   analytical
_exptl_absorpt_process_details
;
CrysAlisPro, Agilent Technologies,
Version 1.171.37.35 (release 13-08-2014 CrysAlis171 .NET)
(compiled Aug 13 2014,18:06:01)
Analytical numeric absorption correction using a multifaceted crystal
   model based on expressions derived by R.C. Clark & J.S. Reid.
(Clark, R. C. & Reid, J. S. (1995). Acta Cryst. A51, 887-897)
Empirical absorption correction using spherical harmonics,
 implemented in SCALE3 ABSPACK scaling algorithm.
;
_exptl_crystal_colour            'clear green'
_exptl_crystal_density_diffrn    7.120
_exptl_crystal_description       block
_exptl_crystal_F_000             579
_exptl_crystal_size_max          0.2996
_exptl_crystal_size_mid          0.2388
_exptl_crystal_size_min          0.1898
_refine_diff_density_max         2.574
_refine_diff_density_min         -1.157
_refine_ls_abs_structure_details
;
 Refined as an inversion twin.
;
_refine_ls_abs_structure_Flack   0.53(12)
_refine_ls_extinction_coef       0.0193(12)
_refine_ls_extinction_expression Fc^*^=kFc[1+0.001xFc^2^\l^3^/sin(2\q)]^-1/4^
_refine_ls_extinction_method     'SHELXL-2014/7 (Sheldrick 2014'
_refine_ls_goodness_of_fit_ref   1.226
_refine_ls_hydrogen_treatment    undef
_refine_ls_matrix_type           full
_refine_ls_number_parameters     18
_refine_ls_number_reflns         375
_refine_ls_number_restraints     1
_refine_ls_restrained_S_all      1.224
_refine_ls_R_factor_all          0.0170
_refine_ls_R_factor_gt           0.0169
_refine_ls_shift/su_max          0.000
_refine_ls_shift/su_mean         0.000
_refine_ls_structure_factor_coef Fsqd
_refine_ls_weighting_details
'w=1/[\s^2^(Fo^2^)+(0.0270P)^2^] where P=(Fo^2^+2Fc^2^)/3'
_refine_ls_weighting_scheme      calc
_refine_ls_wR_factor_gt          0.0423
_refine_ls_wR_factor_ref         0.0424
_reflns_number_gt                371
_reflns_number_total             375
_reflns_threshold_expression     'I > 2\s(I)'
_cod_data_source_file            bp5094sup1.cif
_cod_data_source_block           LNT89
_cod_depositor_comments
;
The following automatic conversions were performed:

data item '_atom_sites_solution_primary' value 'Other' was changed to
'other' in accordance with the
/home/saulius/struct/COD-crude-data/automatic-downloads/DataCite-retrospective/IUCr/depositions/lib/dictionaries/cif_core.dic
dictionary named 'cif_core.dic' version 2.4.2 last updated on
2011-04-26.

data item '_atom_sites_solution_secondary' value 'Other' was changed
to 'other' in accordance with the
/home/saulius/struct/COD-crude-data/automatic-downloads/DataCite-retrospective/IUCr/depositions/lib/dictionaries/cif_core.dic
dictionary named 'cif_core.dic' version 2.4.2 last updated on
2011-04-26.

Automatic conversion script
Id: cif_fix_values 7556 2019-12-06 15:28:31Z antanas 
;
_cod_original_cell_volume        316.55(17)
_cod_original_sg_symbol_H-M      'R 3 c'
_cod_database_code               2311709
_shelx_space_group_comment
;
The symmetry employed for this shelxl refinement is uniquely defined
by the following loop, which should always be used as a source of
symmetry information in preference to the above space-group names.
They are only intended as comments.
;
_shelx_hkl_file
;
   0   0 -21-28.8272 176.346  11
   0   0 -21 8.69823 148.322  16
   0   0 -21 104.854 220.787   9
   0   0 -18 308782. 7200.31  16
   0   0 -18 302345. 7132.18  11
   0   0 -15 44.7454 129.716  16
   0   0 -15 37.5399 134.789  11
   0   0 -15 69.1305 106.646   5
   0   0 -15 59.5012 48.2175   2
   0   0 -12 474522. 9467.31   2
   0   0 -12 491188. 9912.72  16
   0   0 -12 473349. 9393.26  15
   0   0  -9 56.3120 84.9499  10
   0   0  -9-31.6165 64.0368   5
   0   0  -9 35.1327 47.0587   2
   0   0  -9 24.1159 39.4829  15
   0   0  -6 384479. 7909.42   2
   0   0  -6 411699. 7910.84  13
   0   0  -6 417424. 8002.26  10
   0   0  -6 377267. 7947.20   5
   0   0  -3 72.4408 40.0697   5
   0   0  -3 31.7113 33.4980  10
   0   0   3-10.7063 33.7362  13
   0   0   3 5.83181 28.0395  10
   0   0   3 12.1092 29.3346   6
   0   0   6 417322. 8563.98   6
   0   0   6 449712. 8624.39  13
   0   0   9 106.720 70.1175   6
   0   0   9 81.0387 78.1714  13
   0   0   9-5.48820 110.630   1
   0   0  12 518489. 10664.2   1
   0   0  12 502267. 10265.8   6
   0   0  12 514534. 10377.2  13
   0   0  15 39.0463 73.8608   6
   0   0  15 108.835 159.162   1
   0   0  15 111.375 134.484  13
   0   0  18 307566. 7156.91   1
   0   0  21 3.54693 247.931   1
   0   1 -22 204854. 5083.69   9
   1  -1 -22 194640. 5004.74  16
   0   1 -22 199335. 4862.43  11
  -1   0 -22 184980. 4887.32  16
   0   1 -22 199907. 4899.26  16
   1  -1 -22 220694. 5314.26   9
   1  -1 -22 199601. 5030.89  11
  -1   0 -22 183567. 5009.72   9
  -1   0 -22 181073. 4835.71  11
   1  -1 -19 103.198 163.142  16
   0   1 -19-127.896 207.585   9
   0   1 -19 509.123 204.304  11
  -1   0 -19 397.077 218.803  16
  -1   0 -19 105.243 181.896   9
   0   1 -19 69.7696 145.410  16
  -1   0 -19 185.203 175.364  11
   1  -1 -19 82.3228 136.259  11
   0   1 -16 290081. 6909.20   5
   1  -1 -16 326925. 7151.06  11
   1  -1 -16 313343. 6848.62   5
   1  -1 -16 321995. 7157.68  16
  -1   0 -16 338579. 7227.60   9
   0   1 -16 335516. 7288.72   9
  -1   0 -16 301960. 7011.76  11
  -1   0 -16 333362. 6743.68   2
   0   1 -16 308707. 7066.88  11
   0   1 -16 334065. 7228.69  16
  -1   0 -16 298595. 7040.62  16
   1  -1 -13 55.7739 50.4310   2
   0   1 -13 118.507 156.943   9
   0   1 -13-96.8550 150.022  16
  -1   0 -13-30.9651 80.2908   2
   1  -1 -13 54.9115 90.5493   5
   0   1 -13 100.107 119.215   5
  -1   0 -13 26.8348 111.789  16
   1  -1 -13 12.5532 62.3233  15
   0   1 -13 118.285 124.199  10
   1  -1 -13 71.1254 120.558  16
   1  -1 -13 35.3102 100.008  11
   0   1 -13 41.7416 130.069  11
  -1   0 -13 27.7802 119.866  11
   0   1 -13 67.2414 53.3622   2
   1  -1 -10 519852. 10419.1  11
   0   1 -10 559496. 10667.9  16
   1  -1 -10 531959. 10598.0   8
   0   1 -10 488798. 9957.95  15
   0   1 -10 517543. 10101.4   2
  -1   0 -10 483377. 10247.8   2
   1  -1 -10 526353. 10453.0  16
  -1   0 -10 513401. 10388.1  11
  -1   0 -10 509446. 10422.1  16
  -1   0 -10 502462. 10166.4  10
   1  -1 -10 480386. 10216.8  15
   1  -1 -10 495064. 10345.1   5
   0   1 -10 515853. 10387.9  10
   0   1 -10 525959. 10579.2  11
   0   1 -10 463482. 10304.5   5
   0   1  -7-25.6455 68.7075   5
   0   1  -7 186.850 41.6904  15
  -1   0  -7 183.833 48.5876  13
   0   1  -7 79.6962 96.5845   9
   1  -1  -7 102.749 130.283   8
  -1   0  -7 109.914 88.7214  16
   1  -1  -7 18.0541 81.5734   5
  -1   0  -7 89.3109 49.1024  10
   0   1  -7 12.9584 43.4584   2
   1  -1  -7-4.81024 57.2611  15
   0   1  -7 205.825 88.2997  10
  -1   0  -7 1.86000 74.2816  11
   0   1  -7 129.630 99.6616  14
   0   1  -4 565128. 11236.2  15
   0   1  -4 557380. 11300.8   2
  -1   0  -4 579777. 11375.7  13
   0   1  -4 597766. 11443.1   9
  -1   0  -4 491546. 11287.3   4
   1  -1  -4 615525. 11325.7   2
   0   1  -4 596210. 11476.9  14
   1  -1  -4 514970. 11268.2   3
   1  -1  -4 631502. 11293.3  12
  -1   0  -4 582575. 11308.4  15
   0   1  -4 586513. 11276.3   4
  -1   0  -4 545621. 11377.3   3
   0   1  -4 498098. 11338.9   5
   1  -1  -4 645235. 11628.7   8
  -1   0  -4 616574. 11277.9  10
   1  -1  -1 213.916 176.676   7
   0   1  -1 106.159 51.5960   5
   0   1  -1 53.0968 53.8805   4
  -1   0  -1 44.1893 54.8538  15
  -1   0  -1 47.0115 60.9763   3
   1  -1   2 730698. 13935.0  11
   1  -1   2 668633. 13905.6   1
   0   1   2 655029. 13990.5  13
   1  -1   2 593755. 13789.1  15
   0   1   2 670851. 13831.9   1
  -1   0   2 884661. 14037.6   7
  -1   0   2 918537. 13941.0  11
   0   1   2 705477. 14019.0   6
   1  -1   2 544381. 13826.7  14
  -1   0   2 796877. 13867.2   3
  -1   0   2 902994. 13923.0  16
  -1   0   2 845816. 13960.3   8
  -1   0   2 685828. 13892.8   6
   1  -1   2 555275. 13853.3   6
   1  -1   2 771439. 13964.2  16
  -1   0   2 873526. 13868.4  12
   1  -1   2 610848. 13755.3  13
   1  -1   5 362.306 71.9729   6
  -1   0   5 141.571 92.3606  13
  -1   0   5 70.2384 39.9414  12
   1  -1   5-39.5042 81.2522   1
   0   1   5 99.4385 106.407  13
   0   1   5 18.1544 85.5273   6
   0   1   5 466.173 51.3947  10
   0   1   5 43.8440 74.3205   1
  -1   0   5 13.5999 53.7095   6
   0   1   8 596090. 10686.7  13
  -1   0   8 445693. 10367.3   6
   1  -1   8 561540. 10610.2   1
   1  -1   8 515199. 10272.1   6
   0   1   8 573287. 10607.1   1
   0   1   8 497442. 10377.1   6
  -1   0   8 528076. 10496.1  13
   0   1  11 76.6042 133.694   1
  -1   0  11 3.94726 96.7707  13
   0   1  11 109.429 122.284  13
   1  -1  11 40.5428 39.1154  13
   1  -1  11-52.3529 65.6820   6
   1  -1  11 211.277 168.351   1
  -1   0  11 28.0791 110.229   6
  -1   0  14 437112. 8629.61   6
   0   1  14 415493. 8856.33   1
   1  -1  14 408100. 8798.60   1
   0   1  14 390799. 8312.27   6
  -1   0  14 388406. 8506.21  13
  -1   0  14 413915. 8851.18   1
   0   1  14 421738. 8432.92   4
   0   1  14 411030. 8608.51  13
  -1   0  17-134.007 196.853   1
  -1   0  17 136.825 137.171  13
   1  -1  17-66.0677 185.884   1
   0   1  17-83.2275 175.271   1
  -1   0  17 177.791 143.492   6
   1  -1  20 241701. 5999.96   1
   0   1  20 242307. 6057.05   1
   0  -1 -23-76.8969 201.859   9
   0  -1 -20 228479. 5640.03  16
   0  -1 -20 227319. 5592.58  11
   1   0 -20 241612. 5693.08  11
   1   0 -20 251772. 5809.32   9
  -1   1 -20 240676. 5783.36   9
  -1   1 -20 222067. 5455.98  11
   1   0 -20 222267. 5374.91   5
  -1   1 -20 225146. 5522.35  16
   1   0 -20 251233. 5800.21  16
   1   0 -17-15.8666 137.698   5
   1   0 -17-27.2042 143.986  11
   1   0 -17-43.6407 149.711  16
   0  -1 -17 261.173 184.947  16
  -1   1 -17 269.579 182.875  16
   0  -1 -17-23.5953 133.711  11
  -1   1 -17 432.528 193.284  11
  -1   1 -17-22.3196 180.807   9
   0  -1 -14 391822. 8059.25   2
   0  -1 -14 377544. 8377.03  11
   1   0 -14 376784. 8309.35   5
  -1   1 -14 400636. 8263.79  10
  -1   1 -14 404063. 8569.88   9
   1   0 -14 389530. 8440.27  11
   1   0 -14 428146. 8023.50  15
   0  -1 -14 356736. 7976.90   5
   0  -1 -14 378085. 8404.71  16
  -1   1 -14 398287. 8480.16  16
  -1   1 -14 391731. 8022.87   2
  -1   1 -14 405488. 8486.64  11
   1   0 -14 409063. 8506.96  16
   0  -1 -14 380400. 8023.95  15
  -1   1 -11 3.44957 94.4285  10
   0  -1 -11 158.629 133.681  16
  -1   1 -11 55.9931 129.498   9
  -1   1 -11 24.9468 135.581  11
   1   0 -11 177.373 120.776  16
  -1   1 -11 58.1970 68.6087   2
   1   0 -11 117.668 132.415   5
   1   0 -11 47.0036 107.998  11
   0  -1 -11 119.166 66.9420   5
   0  -1 -11 0.69662 105.761  11
   1   0 -11 28.2564 71.7122  15
  -1   1 -11-9.79621 125.384  16
  -1   1  -8 583381. 10795.0  16
   1   0  -8 540925. 10651.0   5
   1   0  -8 520683. 10464.5  15
   0  -1  -8 536049. 10687.5   8
  -1   1  -8 525868. 10649.7   9
  -1   1  -8 506182. 10464.3   2
   1   0  -8 525200. 10644.1  16
  -1   1  -8 587364. 10788.0  11
   1   0  -8 523694. 10623.6  11
   0  -1  -8 488679. 10542.5   3
   0  -1  -8 484443. 10327.5   5
  -1   1  -8 516012. 10488.8  10
   1   0  -5 48.4640 61.8912  15
   1   0  -5-13.4593 69.6245  16
  -1   1  -5 109.679 69.8876   2
  -1   1  -5 12.3585 53.9812  10
   1   0  -5 20.4737 83.8895   5
   1   0  -5 35.8068 64.9782   8
   0  -1  -5 151.489 89.8242   8
   1   0  -5-7.34028 66.1495  14
   0  -1  -5-9.24587 75.0468   3
   1   0  -5-27.5210 68.2600  11
  -1   1  -5 165.732 71.7779   9
   1   0  -2 770650. 12387.8  11
  -1   1  -2 591874. 12266.2   2
   1   0  -2 586845. 12224.1   8
  -1   1  -2 590089. 12156.7  13
   1   0  -2 760937. 12345.6  16
   1   0  -2 668429. 12371.3   4
   1   0  -2 768085. 12309.8  12
   0  -1  -2 656842. 12466.1   3
   0  -1  -2 587685. 12418.4  12
  -1   1  -2 545206. 12190.6  14
   1   0  -2 630455. 12277.2  14
  -1   1  -2 505106. 12290.2   6
   1   0  -2 581187. 12284.2   5
   0  -1   1 21.1594 58.3773   9
  -1   1   1-42.3645 50.5130   3
   0  -1   1 60.8763 102.415   3
   1   0   1 29.5127 34.2884   9
   1   0   1-41.5249 50.6343   4
   1   0   1 174.844 122.436   1
   0  -1   1 67.8773 46.0292  15
  -1   1   1-17.9389 49.8301  13
   0  -1   1 71.3678 49.6816  10
  -1   1   1-11.3476 45.5996   2
  -1   1   1 60.7837 66.3797   6
   1   0   4 607530. 11382.6  15
   0  -1   4 551168. 11298.1   4
  -1   1   4 574733. 11335.9  12
   0  -1   4 572771. 11367.2  15
   0  -1   4 529152. 11361.0   2
   1   0   4 567710. 11534.1   1
   1   0   4 556970. 11351.1   4
  -1   1   4 607542. 11486.3  13
  -1   1   4 560913. 11408.0   6
  -1   1   7 90.3782 104.461  13
   1   0   7 11.7492 42.2979   4
  -1   1   7 141.933 56.6518  12
   1   0   7 169.188 117.976   1
  -1   1   7-16.5601 66.8594   6
   0  -1   7 117.937 33.2438  15
   0  -1   7 53.4029 27.2063   4
   1   0  10 517665. 10306.6  13
  -1   1  10 521223. 10529.6  13
   1   0  10 495005. 10221.6   4
  -1   1  10 497866. 10392.8   6
   0  -1  10 548069. 10386.4   6
   0  -1  10 507689. 10272.6  13
   0  -1  10 527327. 10543.2   1
   1   0  10 553828. 10727.9   1
   1   0  13 210.189 186.000   1
   0  -1  13-25.0065 68.5399  13
   0  -1  13 95.1225 82.1354   6
   1   0  13 26.1887 59.4452  13
   1   0  13 21.2268 44.2845   4
   0  -1  13 153.370 143.499   1
  -1   1  13 10.7332 107.489   6
  -1   1  13 104.964 122.911  13
  -1   1  16 330107. 6967.72  13
  -1   1  16 301727. 6678.46   6
   1   0  16 319066. 7211.56   1
   0  -1  16 315698. 7153.61   1
  -1   1  16 344186. 7312.24   1
  -1   1  19-82.7489 235.807   1
   1   0  19-60.5881 233.580   1
   0  -1  19-32.7305 183.848   1
   0  -1  22 205705. 5324.31   1
   1   0  22 199231. 5197.40   1
  -1   1  22 203156. 5339.58   1
  -2   0 -20 196796. 4965.82   9
   2  -2 -20 215302. 5226.87  11
  -2   0 -20 187473. 4950.11  11
   0   2 -20 217506. 5008.39  16
   0   2 -20 213044. 5079.51   9
   0   2 -20 221540. 5012.20  11
   2  -2 -20 220933. 5313.42  16
  -2   0 -20 188158. 4984.59  16
  -2   0 -17 70.9336 144.135  16
   2  -2 -17 318.159 108.982  15
   0   2 -17-16.0766 126.480  16
   0   2 -17 8.18350 155.136   9
   2  -2 -17-90.8743 121.958  11
   0   2 -17-16.8156 150.535  10
  -2   0 -17 48.3140 103.739   2
   2  -2 -17-26.2710 135.424  16
   0   2 -17 57.4038 154.537  11
  -2   0 -17 339.482 185.005  11
  -2   0 -17 174.381 142.071   9
   2  -2 -17-16.2632 99.6780   5
   2  -2 -14 390172. 8108.26   8
   0   2 -14 373103. 7885.97  16
   0   2 -14 370413. 7902.08  10
   0   2 -14 361752. 7922.01   9
  -2   0 -14 345330. 7624.86   2
   2  -2 -14 359577. 7866.58  11
   2  -2 -14 363869. 7909.06  16
  -2   0 -14 335483. 7776.72  16
  -2   0 -14 340256. 7764.55  11
  -2   0 -14 357625. 7774.41   9
   0   2 -14 368014. 7858.81  11
   0   2 -14 335282. 7800.42   5
   2  -2 -14 356278. 7667.63  15
  -2   0 -11 5.62301 49.1131  10
   0   2 -11 213.650 137.271  14
   2  -2 -11 22.9966 109.581  16
   2  -2 -11 40.3072 106.873   5
   2  -2 -11 71.1681 88.2129  15
   2  -2 -11 159.528 101.917  11
   2  -2 -11 209.064 167.072   8
   0   2 -11 74.4787 68.1809   2
   0   2 -11 66.6723 144.423  11
   0   2 -11 172.250 138.042  10
  -2   0 -11 39.1983 91.2311   9
  -2   0 -11-3.62593 108.211  16
  -2   0 -11 7.35970 95.9813  11
   0   2 -11 66.4538 123.118  16
   0   2 -11 82.9517 130.698   9
   0   2 -11 10.2882 112.731   5
  -2   0 -11 41.2079 101.928   2
   2  -2  -8 464182. 10013.2   3
  -2   0  -8 524906. 10197.8  11
  -2   0  -8 472746. 10104.9   9
   2  -2  -8 541115. 10576.9   8
   0   2  -8 516176. 10316.6   9
   0   2  -8 494556. 10273.0  10
   2  -2  -8 499350. 10307.6  15
   0   2  -8 555958. 10457.3  16
   0   2  -8 517963. 10437.7  14
  -2   0  -8 499939. 9914.19  10
   0   2  -8 647462. 10053.8   4
   0   2  -8 464004. 10232.9   5
  -2   0  -8 523088. 10217.0  16
   0   2  -8 582451. 10527.5  11
   2  -2  -5 2.91843 67.6355  12
  -2   0  -5-8.16843 52.8337   9
   0   2  -5 16.2549 46.5783   4
   2  -2  -5 128.502 66.7369   3
  -2   0  -5-56.4291 92.0015   3
   0   2  -5 31.7667 97.9190  14
   0   2  -5-23.0407 76.6264   5
   0   2  -5 50.8937 101.255   9
  -2   0  -5 37.8474 33.5196   6
   2  -2  -5 4.69986 131.602   8
   2  -2  -2 625391. 11286.6   7
   0   2  -2 611996. 11055.1  14
  -2   0  -2 495445. 10562.2   6
   2  -2  -2 577315. 10797.7   3
   0   2  -2 426527. 10560.0   4
  -2   0  -2 507474. 10662.5   3
  -2   0   1 90.5160 64.3341   3
   0   2   1 119.189 25.3772   1
   2  -2   1 143.286 112.946   1
  -2   0   1 211.098 81.7597   6
   0   2   1 15.4975 48.9388  10
   0   2   1 1.49209 60.0167   4
   0   2   1 37.5144 113.185  14
  -2   0   1 29.0444 43.5948  11
  -2   0   1 19.0152 43.5190  16
   0   2   4 707166. 13875.2   6
   2  -2   4 642020. 13522.8  13
  -2   0   4 740575. 13765.2   6
  -2   0   4 844839. 13890.0  13
   0   2   4 693201. 13937.7  13
   0   2   4 677534. 13688.6   1
   2  -2   4 681164. 13747.5   1
   2  -2   4 646531. 13613.6  15
   0   2   4 664404. 13585.6  10
  -2   0   4 775683. 13646.4   3
   0   2   4 658784. 13824.9   4
   0   2   7 44.4656 86.6232   1
  -2   0   7-66.0994 61.6059   3
   0   2   7 105.293 36.6469  10
   0   2   7 74.8983 127.167   6
  -2   0   7 4.71820 96.8216  13
   2  -2   7 140.717 148.438   1
   2  -2   7 67.8198 37.1195  15
   0   2   7 31.7762 123.626  13
   0   2  10 451049. 9042.44   6
   0   2  10 430908. 9063.78   1
   0   2  10 443612. 9036.87   4
   0   2  10 447517. 9136.85  13
  -2   0  10 433102. 8907.74   6
   2  -2  10 440059. 9159.05   1
  -2   0  13 121.962 110.564   6
   0   2  13-14.1189 107.440  13
  -2   0  13 82.1003 136.364  13
   0   2  13 497.491 149.766   1
   2  -2  13-75.0330 155.572   1
   0   2  13 311.342 118.598   6
   0   2  13 258.903 108.724   4
  -2   0  16 314430. 6703.68  13
  -2   0  16 289421. 6485.29   6
   2  -2  16 289236. 6775.71   1
   0   2  16 318680. 6612.87  13
   0   2  16 292830. 6753.09   1
   0   2  16 313577. 6487.59   4
  -2   0  19-75.8708 237.355   1
   0   2  19-100.871 186.892   1
   2  -2  19 171.010 192.340   1
   0   2  22 176461. 4608.58   1
   2  -2  22 175738. 4630.68   1
  -2   1 -21 2410.84 361.706  16
  -1   2 -21 3069.06 437.820   9
   1  -2 -21 2464.29 391.859  16
   1   1 -21 2790.09 370.310  11
   1   1 -21 2770.23 395.864   9
   1  -2 -21 2733.20 407.122  11
  -1  -1 -21 2318.74 366.486  11
  -1  -1 -21 2830.17 413.784   9
   2  -1 -21 2675.10 406.242  11
  -2   1 -21 2367.02 337.702  11
   1   1 -21 2566.90 377.520  16
  -1  -1 -21 2643.62 400.010  16
  -1   2 -21 2069.19 311.639  16
   2  -1 -21 2727.65 411.006  16
  -2   1 -21 2780.92 384.101   9
  -1   2 -21 2788.69 355.465  11
  -1   2 -18 295046. 6261.49  16
   1  -2 -18 247448. 6243.67  16
   1   1 -18 265170. 6161.90  11
   2  -1 -18 270750. 6284.99  11
   2  -1 -18 272189. 6339.77  16
   2  -1 -18 269188. 6207.10   5
  -1   2 -18 258736. 6013.53  10
  -1   2 -18 291796. 6406.82   9
   1   1 -18 266347. 6244.16   9
   1   1 -18 278747. 6273.87  16
  -2   1 -18 262259. 6162.88   9
   1  -2 -18 255537. 6224.64  11
  -1  -1 -18 277885. 6309.99   9
  -2   1 -18 261939. 6171.30  16
  -2   1 -18 287199. 5853.31   2
  -1  -1 -18 254682. 6178.82  11
   1   1 -18 268063. 6261.81   5
  -1  -1 -18 243877. 6176.87  16
  -2   1 -18 259264. 6134.12  11
  -1   2 -18 282789. 6181.41  11
   1  -2 -15 5408.49 325.361   5
  -2   1 -15 5462.72 390.292   2
  -1  -1 -15 5193.63 457.553  11
  -1   2 -15 5497.63 423.948  10
   2  -1 -15 5699.03 483.774  16
   1   1 -15 5845.32 487.118  16
   2  -1 -15 7315.02 561.059   5
  -1  -1 -15 5916.43 406.984   2
  -1   2 -15 5797.03 489.630  11
   1   1 -15 5538.32 480.780   5
  -2   1 -15 6463.79 402.198  10
  -1   2 -15 5292.94 307.274   2
  -1   2 -15 6710.62 531.751  16
   1  -2 -15 6711.61 529.195  11
  -1  -1 -15 5042.80 458.157  16
  -2   1 -15 6237.85 485.184  11
   1  -2 -15 5623.15 396.612  15
  -2   1 -15 6274.74 495.739  16
   2  -1 -15 5706.67 474.418  11
  -2   1 -15 5887.45 466.028   9
   1   1 -15 5887.33 489.900   9
   1   1 -15 5267.45 454.990  11
  -1   2 -15 5868.60 514.406   9
   2  -1 -15 5857.83 398.227  15
   1  -2 -15 5313.45 481.118  16
  -1   2 -12 352615. 8122.17  10
  -2   1 -12 381738. 8289.84  16
  -1   2 -12 447996. 8513.48  16
   2  -1 -12 433556. 8423.01   5
   2  -1 -12 374941. 8255.70  16
   1  -2 -12 430183. 8621.58   8
  -1  -1 -12 375488. 8295.01  16
   2  -1 -12 398218. 8385.09   8
   1   1 -12 402691. 7882.93  15
  -2   1 -12 357559. 8177.96   9
   1   1 -12 370508. 8281.00  11
  -1  -1 -12 372855. 8258.06  11
  -1   2 -12 430507. 8436.42  11
   1  -2 -12 396710. 8063.10   5
   1  -2 -12 377315. 8356.69  16
   1   1 -12 377027. 8340.00  16
   1   1 -12 378117. 8284.08  10
   1   1 -12 390514. 8320.83   5
   2  -1 -12 389462. 8256.73  11
  -2   1 -12 379447. 7991.14  10
  -1   2 -12 380054. 7952.87   2
  -1   2 -12 397148. 8352.80   9
  -2   1 -12 394678. 8126.20   2
  -2   1 -12 396417. 8302.87  11
   2  -1 -12 393134. 8111.39  15
   1   1  -9 16664.4 727.897   5
  -1   2  -9 16542.8 586.249   2
   1  -2  -9 20942.4 905.018   8
   2  -1  -9 17994.7 677.232  11
   2  -1  -9 17307.4 656.641  15
   1  -2  -9 16297.7 654.568   3
   2  -1  -9 18335.4 697.371  16
  -1   2  -9 16007.7 707.222   9
   1   1  -9 19097.8 809.441  14
  -2   1  -9 16591.8 687.959  11
  -1   2  -9 17957.1 756.305  11
  -1   2  -9 16275.0 655.866  14
   2  -1  -9 18658.7 784.758   8
  -2   1  -9 16429.5 560.117  10
  -2   1  -9 15853.2 647.954   9
  -1  -1  -9 16592.4 722.456   3
   1  -2  -9 21112.2 725.292   5
   1   1  -9 17192.4 726.084  10
  -1   2  -9 18497.7 766.040  16
  -2   1  -9 17098.2 660.977   2
  -2   1  -9 15680.4 677.704  16
   2  -1  -9 18219.6 732.258   5
  -1   2  -9 15618.9 645.345  10
  -1  -1  -9 17523.1 477.386   6
   1   1  -9 17045.2 766.475  16
  -2   1  -9 19723.1 504.816  15
   1   1  -9 17275.1 563.984  15
   1   1  -9 17195.1 750.388  11
   2  -1  -6 590267. 11884.9   8
   1  -2  -6 557940. 11774.3   3
  -1   2  -6 663530. 11869.2   9
  -1   2  -6 549288. 11710.8  10
   2  -1  -6 627434. 11919.3   5
  -2   1  -6 583440. 11697.2  16
   1   1  -6 760193. 12189.8  16
  -1   2  -6 563618. 11666.6   2
   2  -1  -6 575239. 11736.9  15
  -2   1  -6 597113. 11725.1  11
   1   1  -6 737052. 12158.1  11
   1  -2  -6 619100. 12054.2   8
  -2   1  -6 630640. 11790.6   2
   2  -1  -6 523950. 11409.9   2
   2  -1  -6 571432. 11661.5  16
   2  -1  -6 575971. 11648.5  11
   1   1  -6 621589. 11930.5  14
   1   1  -6 578012. 11779.5   5
  -1   2  -6 600780. 11788.1  14
  -1   2  -6 561205. 11411.2   4
   1   1  -6 744632. 11880.4   4
  -2   1  -6 622463. 11742.8   9
   1   1  -6 546104. 11608.7  15
   1  -2  -6 576917. 11790.4  12
  -1  -1  -6 618541. 11911.9   3
  -2   1  -6 553160. 11416.1  13
  -2   1  -6 541880. 11481.7  13
  -1  -1  -3 58100.5 1485.39   3
   1  -2  -3 57304.2 1392.55  12
   2  -1  -3 55867.1 1184.60  16
  -1   2  -3 44927.4 1174.68   1
   2  -1  -3 55855.4 1403.35   8
   1   1  -3 47441.4 1246.31   4
  -2   1  -3 50136.2 1181.20  11
   2  -1  -3 51225.6 1153.05   2
   1   1  -3 46521.6 1304.69  16
   2  -1  -3 44848.0 1371.61   7
  -2   1  -3 51316.0 1162.40   6
  -2   1  -3 53596.2 1334.47   2
   2  -1  -3 54263.6 1142.89  14
  -1   2  -3 46618.3 1264.65  14
   2  -1  -3 54669.4 1164.24  11
   1   1  -3 59465.4 1453.46  14
   1   1  -3 53364.9 1278.81  15
   1  -2  -3 52822.3 1346.97   3
  -1   2  -3 49643.0 1274.35   2
  -2   1  -3 55538.6 1206.91  16
   1  -2  -3 60980.9 1536.19   7
  -1  -1  -3 53012.7 1072.90  10
   1   1  -3 49726.9 1219.92   9
   1   1  -3 53501.9 1292.21   5
  -2   1  -3 52030.7 1168.70  13
  -1  -1  -3 47380.1 1109.51   8
   1   1   0 472472. 9744.28   1
   1  -2   0 461950. 9824.74  12
  -1   2   0 432262. 9634.21   1
  -2   1   0 485934. 9725.98   6
   2  -1   0 492924. 9933.26   1
   1  -2   0 495010. 9678.94   1
   1  -2   0 451773. 9906.53   3
  -1   2   0 504680. 9867.88   2
   1   1   0 427750. 9681.91  10
   1   1   0 537128. 10021.8  14
  -1   2   0 639025. 10106.8  14
   2  -1   0 425365. 9612.20   3
  -1  -1   0 488733. 9798.45   1
  -2   1   0 507455. 9841.14   2
  -1   2   0 554568. 10116.1   6
   1   1   0 489615. 9693.78   5
  -1   2   0 577206. 10046.7  13
   1   1   0 471022. 9763.70   4
  -1  -1   0 410110. 9883.99   3
  -1  -1   0 620371. 10058.4  12
  -2   1   0 480721. 9753.84  13
   2  -1   3 48973.0 1330.53  15
   1   1   3 50366.5 1353.79   1
  -1  -1   3 58389.2 1367.31   3
   2  -1   3 51105.7 1451.91   1
   2  -1   3 51779.2 1248.62   4
   2  -1   3 64907.4 1183.55  16
   1   1   3 45960.3 1059.15   5
   1  -2   3 48253.0 1195.08   1
   2  -1   3 49218.4 1128.59   6
  -2   1   3 46905.1 1183.76   2
  -2   1   3 51554.2 1128.25  14
   1   1   3 51878.2 1266.36   4
  -1   2   3 54225.1 1454.85   6
  -2   1   3 53994.9 1288.94   6
   2  -1   3 63032.2 1159.01  11
  -2   1   3 56206.9 1340.75  13
  -1   2   3 52802.8 1439.30  13
  -1  -1   3 48895.8 1311.30  12
   1  -2   6 629762. 11965.1   1
  -1  -1   6 561133. 11947.2  12
  -1  -1   6 584324. 11921.1   3
   1   1   6 568046. 11845.2   4
  -2   1   6 516174. 11684.2   3
  -2   1   6 626062. 12076.7  13
  -1   2   6 680154. 12101.5   6
   2  -1   6 673580. 12112.0   1
  -1  -1   6 652595. 11784.4   2
   1  -2   6 586735. 11759.4  13
   1  -2   6 597751. 11706.6  15
  -2   1   6 601571. 11980.0   6
  -1   2   6 721836. 12262.1  13
   2  -1   6 562213. 11807.9   4
   1   1   6 579478. 11996.1   1
   2  -1   6 634198. 11840.3  15
  -1   2   9 16035.5 728.368  13
   2  -1   9 16352.3 719.943   1
  -1  -1   9 13923.6 544.519  13
  -1  -1   9 17154.1 668.437   6
   2  -1   9 17264.7 479.713   4
   1  -2   9 14623.5 427.374  13
   1  -2   9 16485.0 657.374   1
   1  -2   9 16431.7 409.527  13
  -2   1   9 17606.6 683.438   6
  -2   1   9 18186.0 743.400  13
   1   1   9 14883.1 526.474   4
   1   1   9 15949.7 710.972   1
  -1   2   9 16766.3 664.704   6
  -1  -1   9 18195.3 643.622  12
  -2   1  12 415095. 8229.02   6
  -1  -1  12 411197. 8018.54  12
  -1   2  12 402301. 8308.19  13
  -2   1  12 395529. 8213.31  13
   2  -1  12 372458. 8213.45   1
  -1   2  12 376078. 8130.06   1
  -1  -1  12 404052. 8030.10  13
   1   1  12 355110. 7839.71   4
   1  -2  12 414663. 7975.71   6
  -1   2  12 342975. 8006.93   6
   1   1  12 411745. 8357.63   1
  -1  -1  12 374471. 7934.36   6
   1  -2  12 385803. 8184.81   1
  -2   1  15 5556.64 455.475   6
  -1   2  15 5662.54 468.106  13
  -1   2  15 5737.95 384.098   6
   1  -2  15 4803.79 452.355   1
  -1   2  15 5399.46 449.428   1
   1   1  15 5504.70 292.803   4
  -1  -1  15 5916.29 379.446  13
   1   1  15 5852.22 516.336   1
  -2   1  15 5340.98 439.650  13
  -1  -1  15 5873.59 500.971   1
   2  -1  15 4379.51 427.600   1
  -1  -1  15 5760.19 359.205   6
  -2   1  18 260377. 5957.67   6
  -2   1  18 273966. 6077.11  13
   2  -1  18 259967. 6190.29   1
  -1   2  18 260112. 6154.57   1
  -1   2  18 273598. 6054.87  13
  -1  -1  18 278545. 6381.24   1
  -2   1  18 282495. 6468.25   1
   1  -2  18 257317. 6172.03   1
   1   1  18 255572. 6186.56   1
   1  -2  21 2583.78 411.139   1
  -1   2  21 2398.22 384.298   1
  -2   1  21 2846.91 462.242   1
  -1  -1  21 2827.06 456.937   1
   1   1  21 1887.77 339.804   1
   2  -1  21 2250.09 385.898   1
  -2   2 -22 180968. 4497.72  16
  -2   2 -22 184914. 4520.49  11
   2   0 -22 188443. 4712.76  11
   0  -2 -22 180385. 4772.05  11
   2   0 -22 195342. 4815.34   9
   0  -2 -22 194299. 5061.36   9
   2   0 -22 200319. 4849.40  16
   0  -2 -22 176508. 4797.92  16
   2   0 -19 47.2411 142.705  16
   2   0 -19 72.7791 133.307  11
   0  -2 -19-94.3023 156.854  11
  -2   2 -19-127.311 150.995   9
   0  -2 -19-59.5395 161.940  16
   2   0 -19 62.2298 175.740   5
  -2   2 -19 162.317 161.264  16
  -2   2 -19 37.3569 131.133  11
  -2   2 -16 302369. 6386.44   2
   0  -2 -16 276127. 6818.82  16
  -2   2 -16 305534. 6718.29  11
   2   0 -16 287932. 6772.71  11
  -2   2 -16 314469. 6817.25   9
   2   0 -16 292540. 6832.13  16
  -2   2 -16 311272. 6548.18  10
   2   0 -16 341200. 7053.64   5
  -2   2 -16 311073. 6750.68  16
   0  -2 -16 283493. 6806.46  11
   0  -2 -13-111.200 138.129   3
  -2   2 -13 64.6476 82.4412   2
   2   0 -13 93.3907 128.801  11
  -2   2 -13 27.3170 74.2995  10
  -2   2 -13 36.5166 134.568   9
  -2   2 -13 61.2711 129.497  16
  -2   2 -13 74.9252 129.695  11
   2   0 -13 92.6141 121.828  16
   2   0 -13-87.8253 125.746   5
   2   0 -13 74.6163 89.3991  15
  -2   2 -10 420315. 8810.05  16
   0  -2 -10 405655. 8848.68   3
  -2   2 -10 439402. 8840.23  11
  -2   2 -10 412175. 8640.30  10
  -2   2 -10 425242. 8790.30   9
   2   0 -10 421962. 8845.48  16
   2   0 -10 412924. 8684.46  15
  -2   2 -10 411967. 8608.31   2
   2   0 -10 459960. 8875.67  14
   0  -2 -10 410547. 8859.41   8
   2   0 -10 431067. 8862.21  11
   0  -2 -10 360914. 8319.78   5
   2   0 -10 429904. 8856.45   5
   0  -2  -7 165.801 149.455   8
  -2   2  -7 34.7095 101.302  16
   2   0  -7 135.532 121.702  11
   2   0  -7 125.873 111.125  16
  -2   2  -7 17.6920 91.2623  11
   2   0  -7 104.675 112.886  14
  -2   2  -7 19.0284 67.9219   2
   0  -2  -7-1.10628 29.4286   5
  -2   2  -7 101.280 91.7193  10
   0  -2  -7-35.2231 134.242   3
  -2   2  -7 12.1519 18.2837   4
   2   0  -7-14.7297 87.7788  15
   2   0  -7 120.476 115.567   5
  -2   2  -4 613243. 12203.9   2
  -2   2  -4 527092. 12037.8  13
   2   0  -4 782093. 12441.5  16
   2   0  -4 716439. 12463.4   4
   2   0  -4 760494. 12460.6  11
   2   0  -4 798360. 12277.9  12
   2   0  -4 610686. 12260.0   5
  -2   2  -4 552738. 12226.2   6
   2   0  -4 611824. 12153.8   8
   0  -2  -4 621934. 12281.2   8
   0  -2  -4 593419. 12377.0   3
   2   0  -4 691118. 12308.7  14
   0  -2  -4 587740. 12518.2  12
   2   0  -4 596802. 12314.3  15
   2   0  -1 92.6092 79.2044   3
   0  -2  -1 138.391 209.986   3
   2   0  -1 55.2489 90.2779   1
   2   0  -1 48.9943 80.0824  14
   0  -2  -1-65.9927 95.1324  12
  -2   2  -1 86.7000 98.6965   6
  -2   2  -1 196.102 65.7796  13
   2   0  -1 7.95510 36.9688   8
  -2   2  -1-5.73619 28.8421  14
   2   0  -1 144.543 95.7306   4
  -2   2  -1 65.5087 83.4908   2
  -2   2   2 358916. 8747.86  14
   0  -2   2 465663. 9114.98   3
  -2   2   2 469404. 9030.77   6
   2   0   2 441736. 8973.46   4
   2   0   2 536903. 9346.40   1
   2   0   2 421734. 8778.36   9
   2   0   2 456505. 9037.25  15
  -2   2   2 478147. 9010.83  13
   0  -2   2 519924. 9258.88  12
  -2   2   2 445155. 8981.01   2
   2   0   5 55.1027 74.5658  15
   0  -2   5 417.724 109.343  12
  -2   2   5 88.7041 106.524  13
  -2   2   5 160.890 103.951   6
   2   0   5-36.6192 107.116   1
   0  -2   5 43.4901 97.1758   3
   2   0   5 163.036 70.3383   4
  -2   2   8 508712. 10178.3   6
   0  -2   8 498719. 10072.9   1
   2   0   8 523532. 10263.1   1
   0  -2  11-19.1906 100.418   1
   0  -2  11 19.5643 61.5985  13
   2   0  11 38.8958 54.8406   4
  -2   2  11 77.1045 132.741  13
  -2   2  11-15.9224 124.724   6
  -2   2  14 354944. 7853.57   6
  -2   2  14 357598. 7962.84  13
   2   0  14 359842. 8023.15   1
   0  -2  14 357577. 7885.38   1
  -2   2  17-117.996 187.394   1
   2   0  17-11.5436 170.123   1
  -2   2  17-21.7168 132.038   6
   0  -2  17 186.220 192.776   1
  -2   2  17 99.4785 169.671  13
  -2   2  20 200411. 5075.08   1
   0  -2  20 210008. 5153.69   1
   2   0  20 204945. 5092.61   1
  -3   0 -21 69.7278 157.335  16
   3  -3 -21-64.4178 174.120  16
   3  -3 -21-170.797 157.480  11
   0   3 -21 194.654 145.158  11
   0   3 -21 137.485 157.275  16
  -3   0 -21 33.6705 136.706  11
   3  -3 -18 231730. 5681.45  16
   3  -3 -18 232794. 5618.46  11
  -3   0 -18 216814. 5445.36  11
   0   3 -18 246895. 5501.79   9
   0   3 -18 235352. 5493.47  10
   0   3 -18 237288. 5385.79  11
  -3   0 -18 224132. 5308.38   2
   0   3 -18 239466. 5399.34  16
  -3   0 -18 224006. 5482.63  16
  -3   0 -18 250321. 5331.95   9
   3  -3 -15 228.996 152.663  16
   0   3 -15 159.250 137.804  16
   0   3 -15 62.1147 139.262  10
   3  -3 -15 29.9798 96.3372   5
  -3   0 -15 101.480 143.997  16
  -3   0 -15 5.67659 130.278  11
  -3   0 -15 35.1818 114.504   2
   0   3 -15 107.000 145.801   9
   3  -3 -15 158.612 181.824   8
  -3   0 -15 164.580 108.039   9
   3  -3 -15 14.3582 107.925  11
   3  -3 -15-114.223 152.202  15
   0   3 -15 192.428 132.412  11
   3  -3 -12 339047. 7511.37   5
  -3   0 -12 314903. 7441.27  11
  -3   0 -12 362352. 7662.50   2
   0   3 -12 348392. 7706.87  10
   3  -3 -12 349924. 7706.54  16
  -3   0 -12 318173. 7483.36  16
   0   3 -12 386278. 7667.67   9
   3  -3 -12 383307. 8016.00   8
   0   3 -12 367535. 7759.64  14
   0   3 -12 360706. 7639.76  11
   3  -3 -12 344847. 7627.39  11
  -3   0 -12 383111. 7410.01   9
   0   3 -12 367218. 7639.64  16
   3  -3 -12 349196. 7725.51  15
   3  -3  -9 29.4263 59.9452   3
  -3   0  -9-43.4013 90.5188  16
  -3   0  -9-3.18425 76.8811  11
  -3   0  -9 57.6078 39.5052  10
   0   3  -9 59.1089 59.1386   4
   3  -3  -9-36.7787 112.225  15
   0   3  -9-15.0408 118.314  10
  -3   0  -9 232.181 141.910   2
   0   3  -9 121.925 149.156  14
   3  -3  -9 14.6198 151.345   8
   0   3  -6 362104. 7467.94  14
   3  -3  -6 343799. 7035.56   3
   0   3  -6 354194. 7042.38   4
  -3   0  -6 308689. 6984.52  11
   0   3  -6 321029. 7226.78  10
  -3   0  -6 350617. 6937.24   6
  -3   0  -6 324637. 6977.60  16
  -3   0  -6 375666. 7333.64   3
   3  -3  -6 333504. 7292.31   8
   3  -3  -6 368530. 7392.29  15
   0   3  -3 111.749 165.667  14
   3  -3  -3-72.6938 167.799   7
   0   3  -3 115.798 87.1956  10
  -3   0  -3 52.4389 101.778   3
   0   3  -3-69.1161 72.1271   4
   3  -3  -3 87.9769 120.758   3
   3  -3  -3 40.3908 107.154  15
  -3   0  -3 50.2569 66.1525   6
   0   3   0 583741. 11736.1  10
   0   3   0 565096. 11787.2   4
   3  -3   0 565372. 11853.7   1
  -3   0   0 541385. 11506.1  16
  -3   0   0 609139. 11563.8  11
  -3   0   0 528132. 11642.8   3
   0   3   0 619259. 11892.9  14
  -3   0   0 698236. 11791.5   6
   3  -3   0 635040. 11922.1   3
   3  -3   0 638680. 11864.0  15
   3  -3   3 29.9528 67.2655  15
   0   3   3 346.469 51.8817   1
  -3   0   3 119.964 66.8072   3
   0   3   3-3.50733 48.8427  10
   0   3   3 110.682 108.615   4
   0   3   3-1.48221 138.811  14
   3  -3   3 205.384 156.231   1
  -3   0   3 192.289 102.636   6
  -3   0   6 397180. 7737.22  13
   0   3   6 356014. 7400.91  10
  -3   0   6 382747. 7412.13   2
   0   3   6 361429. 7767.27   4
  -3   0   6 360413. 7623.74   6
  -3   0   6 398832. 7445.33   3
   3  -3   6 371826. 7535.21  15
   3  -3   6 370208. 7650.68   1
   0   3   6 356592. 7542.55   1
  -3   0   9 3.42817 93.1564  13
   0   3   9-60.4430 103.549   1
   0   3   9-30.2297 109.795  13
   3  -3   9 48.0743 112.803   1
   3  -3   9 45.9807 24.8618  15
   0   3   9 105.152 110.690   4
  -3   0   9 157.522 67.8945   3
  -3   0   9 187.503 114.697   6
   0   3  12 368979. 7871.53   4
   0   3  12 352474. 7812.34   1
  -3   0  12 374767. 7827.19  13
   0   3  12 357369. 7871.76  13
  -3   0  12 375628. 7766.80   6
   3  -3  15-38.1643 143.912   1
   0   3  15-87.2723 90.9799   4
  -3   0  15-48.8746 100.043   6
   0   3  15-45.5864 142.037   1
  -3   0  15-8.74847 104.353  13
   0   3  18 206282. 5013.94   1
  -3   0  18 214118. 4860.68   6
   3  -3  18 219377. 5058.18   1
   3  -3  21 150.371 150.156   1
  -3   0  21-137.303 223.463   1
   0   3  21 135.651 147.397   1
  -3   1 -22 150601. 3818.04  16
  -3   1 -22 142809. 3749.14  11
  -2  -1 -22 156163. 4090.17  16
   3  -2 -19 491.047 182.333   5
  -1   3 -19 712.089 183.318  16
  -1   3 -19 526.230 199.646  11
  -1   3 -19 608.827 186.816  10
   1   2 -19 744.380 207.661  16
  -2  -1 -19 691.005 236.535  16
   1   2 -19 973.686 245.858   9
  -2  -1 -19 787.192 194.842   2
   2  -3 -19 903.534 250.138  11
   3  -2 -19 747.139 230.171  11
  -3   1 -19 659.616 205.212  16
  -3   1 -19 521.051 150.293   2
   1   2 -19 955.030 215.805  11
  -3   1 -19 703.088 201.776  11
  -2  -1 -19 684.331 201.032   9
   3  -2 -19 856.094 227.409  16
   2  -3 -19 724.264 250.677  16
  -2  -1 -19 651.321 226.829  11
   1   2 -16 274579. 6118.75  11
   2  -3 -16 271825. 6330.43  11
   3  -2 -16 295783. 6189.41   5
  -3   1 -16 276609. 6028.62   9
  -1   3 -16 270757. 6085.92  10
   1   2 -16 266866. 6137.82   9
  -2  -1 -16 248793. 6179.81  16
   3  -2 -16 267055. 6189.65  11
  -3   1 -16 252109. 6057.19  16
   2  -3 -16 259931. 6312.36  16
  -1   3 -16 297011. 6308.48   9
   2  -3 -16 285789. 6431.16   8
  -2  -1 -16 287867. 6098.45   9
  -2  -1 -16 263277. 6063.46   2
   3  -2 -16 275308. 6073.43  15
   3  -2 -16 268690. 6238.21  16
   1   2 -16 266552. 6103.54  16
   2  -3 -16 254133. 6066.83  15
  -3   1 -16 257438. 6072.87  11
  -3   1 -16 274696. 6006.46   2
   1   2 -16 287103. 6405.67   5
  -1   3 -16 295371. 6158.07  11
  -2  -1 -16 251877. 6137.72  11
  -1   3 -16 283592. 6139.91  16
  -1   3 -13 1803.34 262.253  11
   3  -2 -13 1277.04 214.427  15
  -2  -1 -13 1388.85 197.619   9
   2  -3 -13 1357.10 194.649   5
  -3   1 -13 1201.16 207.241   2
  -1   3 -13 1502.24 180.004   2
  -2  -1 -13 1512.82 255.599  11
  -3   1 -13 1206.41 212.473  16
   2  -3 -13 1285.14 246.465  15
  -3   1 -13 1241.86 212.678  11
   1   2 -13 1764.20 258.404  16
  -1   3 -13 1284.19 208.855  10
   1   2 -13 1771.73 303.866   5
   1   2 -13 1713.13 277.517  10
  -1   3 -13 1722.12 276.206   9
  -2  -1 -13 1797.37 278.090  16
   1   2 -13 1347.18 234.756   9
   1   2 -13 1490.68 251.090  11
   2  -3 -13 1466.43 306.642   8
   3  -2 -13 1660.16 296.294   8
  -3   1 -13 1910.01 181.527  10
   3  -2 -13 1518.35 234.772  16
   3  -2 -13 1540.16 235.544   5
   1   2 -13 1416.05 250.094  14
   3  -2 -13 1510.13 229.749  11
  -1   3 -13 1502.83 239.024  16
  -2  -1 -10 408179. 8660.52   3
   1   2 -10 445983. 8835.57  14
  -3   1 -10 370330. 8384.73  11
   1   2 -10 408287. 8642.46  10
   3  -2 -10 427524. 8684.84   5
   1   2 -10 423590. 8679.82   5
   1   2 -10 432494. 8651.58  16
   1   2 -10 431748. 8666.56  11
   3  -2 -10 407683. 8459.35  11
   3  -2 -10 395939. 8551.17  15
  -3   1 -10 439570. 8265.02  10
   1   2 -10 396809. 8501.74   9
  -3   1 -10 373209. 8368.32  16
   3  -2 -10 424037. 8818.25   8
   2  -3 -10 383964. 8676.52   8
  -1   3 -10 396434. 8527.12  14
  -1   3 -10 384574. 8493.07  10
   2  -3 -10 380543. 8410.34   3
  -2  -1 -10 396669. 8306.13   9
  -1   3 -10 400753. 8382.87   2
  -3   1 -10 433388. 8549.01   2
  -2  -1 -10 406701. 8574.86  16
  -1   3 -10 404011. 8542.93  11
  -1   3 -10 409982. 8536.75  16
   1   2 -10 441706. 8307.58  15
   3  -2 -10 395887. 8468.97  16
  -3   1 -10 387216. 7995.45  13
  -2  -1  -7 3005.47 334.777   3
   1   2  -7 3247.89 299.560   5
  -3   1  -7 1984.29 115.546   6
  -3   1  -7 3174.46 219.164  16
   1   2  -7 3683.08 254.803  15
  -3   1  -7 3026.77 226.824  11
   1   2  -7 3369.95 330.536  14
   2  -3  -7 3395.68 318.978   8
  -1   3  -7 3394.13 170.240   4
  -1   3  -7 2783.09 260.398  10
   3  -2  -7 3993.68 377.783   8
  -1   3  -7 2798.57 284.552  14
   1   2  -7 3066.04 258.753   9
  -2  -1  -7 3297.69 193.530   9
  -3   1  -7 3581.41 306.270   2
   3  -2  -7 3723.63 262.488  16
   2  -3  -7 3884.21 253.254  12
   1   2  -7 3587.73 368.548  16
  -1   3  -7 3609.54 285.829   2
   3  -2  -7 3024.78 294.234  15
   2  -3  -7 3777.61 279.696   3
   3  -2  -7 3618.54 246.750  11
   1   2  -7 3421.24 306.009  10
   1   2  -7 3434.62 247.467   4
  -3   1  -4 489124. 10141.8  16
   1   2  -4 520285. 10431.5   5
  -3   1  -4 511293. 10226.1   6
   3  -2  -4 526018. 10700.7   8
  -3   1  -4 485654. 10164.8  11
  -3   1  -4 469180. 10375.9   2
   1   2  -4 481963. 10393.8  10
  -1   3  -4 488912. 10281.5   4
   1   2  -4 540254. 10414.9   9
   1   2  -4 496174. 10324.1   4
  -3   1  -4 519654. 10258.6  13
  -2  -1  -4 601380. 10785.6   3
   1   2  -4 599341. 10740.1  14
   1   2  -4 543984. 10402.7  15
   2  -3  -4 528023. 10420.8   3
   3  -2  -4 466654. 10587.7   7
  -2  -1  -4 518331. 10154.7  10
  -1   3  -4 477762. 10497.9  14
  -2  -1  -1 6302.99 385.077   3
  -3   1  -1 6249.60 301.375  13
   2  -3  -1 6838.74 383.496  12
  -3   1  -1 5774.67 309.704   2
   2  -3  -1 6072.79 382.029   3
   3  -2  -1 5745.69 366.696   1
   1   2  -1 6472.41 309.041   5
   1   2  -1 5919.63 331.598   4
  -3   1  -1 7063.39 325.623   6
   1   2  -1 6205.17 300.987  10
   2  -3  -1 7472.67 473.414   7
  -1   3  -1 7239.44 378.710  10
   3  -2  -1 6374.77 359.889  15
   1   2  -1 6113.96 362.499  14
  -2  -1   2 438929. 9775.87   3
   2  -3   2 479556. 10044.5   3
  -3   1   2 498407. 9860.52   6
  -1   3   2 563802. 10122.4   6
  -1   3   2 482004. 9914.53  14
   1   2   2 498317. 9851.17   4
   3  -2   2 488702. 9887.76  15
  -1   3   2 431057. 9567.51   1
  -3   1   2 480069. 9797.11  13
   2  -3   2 484836. 9787.19   1
   3  -2   2 525023. 10101.2   1
   1   2   2 464424. 9691.48   1
  -3   1   2 500003. 9719.75   2
   3  -2   2 598164. 9698.45  16
   3  -2   2 563196. 9639.82  11
  -2  -1   2 650406. 9732.60   8
   1   2   2 440396. 9631.17  10
  -1   3   2 561395. 10090.8  13
   1   2   5 4348.76 276.929   4
   3  -2   5 4575.24 288.723  15
  -2  -1   5 4584.31 292.814  12
   2  -3   5 4339.47 250.045   1
   1   2   5 4039.71 251.868   1
  -3   1   5 4003.21 302.280  13
  -1   3   5 4775.99 390.956  13
  -3   1   5 4148.05 192.414   2
   3  -2   5 4088.20 305.310   1
  -3   1   5 3999.08 291.585   6
  -2  -1   5 5198.99 324.202   3
  -1   3   5 4169.66 368.529   6
   3  -2   8 473669. 9090.54  15
  -3   1   8 409310. 9255.58   6
  -3   1   8 414090. 9418.05  13
   3  -2   8 483376. 9364.64   1
   2  -3   8 462884. 9336.23   1
  -1   3   8 467325. 9537.54   6
   2  -3   8 466603. 8940.02  15
  -2  -1   8 563407. 9397.94   3
   1   2   8 424285. 9208.88   4
  -1   3   8 426417. 9162.74   1
  -2  -1   8 417392. 8916.25   2
   2  -3   8 397615. 8940.50  15
  -2  -1   8 482096. 9411.72   6
  -1   3   8 490681. 9637.40  13
  -2  -1   8 415673. 9152.78  12
   2  -3   8 438870. 8928.75  13
  -2  -1   8 527066. 9411.54  13
   1   2   8 444708. 9294.80   1
  -2  -1  11 1564.66 203.996   3
  -3   1  11 1327.60 200.475   6
  -2  -1  11 1334.72 192.434   6
  -2  -1  11 1334.71 168.866  13
   3  -2  11 1676.05 232.653   1
   1   2  11 1302.40 202.338   1
  -2  -1  11 1789.94 163.692  12
   1   2  11 1559.19 179.896   4
  -1   3  11 1372.34 264.494  13
   2  -3  11 2152.63 290.679   1
  -3   1  11 1328.41 119.095   3
  -1   3  11 1644.46 255.595   6
  -3   1  11 1499.14 272.834  13
  -1   3  11 1459.12 192.953   1
  -1   3  14 339891. 7351.72  13
   1   2  14 314144. 7174.23   1
  -3   1  14 340413. 7455.15  13
  -1   3  14 322628. 7129.73   1
  -2  -1  14 350962. 7137.23   3
   1   2  14 336973. 6968.39   4
  -1   3  14 341893. 7225.48   6
   3  -2  14 326705. 7189.79   1
  -2  -1  14 341846. 6978.78  13
  -3   1  14 307062. 7083.54   6
  -2  -1  14 336477. 7018.77   6
   2  -3  14 338781. 7320.53   1
   2  -3  17 758.996 234.461   1
   1   2  17 839.663 225.743   1
  -1   3  17 455.409 177.581   1
  -1   3  17 642.994 203.339  13
  -3   1  17 833.476 242.965  13
  -2  -1  17 569.472 276.335   1
  -1   3  17 896.152 200.921   4
   3  -2  17 567.787 214.421   1
  -3   1  17 678.949 198.642   6
  -2  -1  17 857.106 176.645  13
  -2  -1  17 507.436 147.137   6
   1   2  20 179326. 4623.02   1
   3  -2  20 186771. 4592.46   1
  -3   1  20 253470. 5480.51   1
   2  -3  20 178513. 4687.79   1
  -2  -1  20 231698. 5321.75   1
  -1   3  20 178457. 4622.36   1
  -1  -2 -20 176374. 4832.31  16
  -2   3 -20 217505. 4650.05  10
   2   1 -20 194494. 4714.78  16
  -2   3 -20 190551. 4560.19  16
   3  -1 -20 183593. 4761.83  11
   3  -1 -20 204312. 4840.74   5
   1  -3 -20 189490. 4942.89  16
   3  -1 -20 200362. 4937.91  16
  -3   2 -20 172645. 4497.07  16
   2   1 -20 199141. 4719.60  11
   2   1 -20 202843. 4802.14   9
  -1  -2 -20 181040. 4811.41  11
  -1  -2 -20 211698. 4917.34   9
   1  -3 -20 190312. 4896.48  11
  -3   2 -20 178427. 4534.47  11
  -2   3 -20 192580. 4576.41  11
   2   1 -20 230006. 5252.71   5
  -1  -2 -17 707.102 239.504  16
  -2   3 -17 535.078 168.963  10
   3  -1 -17 810.318 228.077  16
  -1  -2 -17 462.552 208.439  11
   3  -1 -17 519.966 184.504   5
   2   1 -17 388.332 208.301   5
   1  -3 -17 656.104 227.776  11
   3  -1 -17 861.781 227.569  11
   2   1 -17 409.322 153.643  16
   2   1 -17 581.445 193.380  11
  -2   3 -17 755.074 205.510  11
  -1  -2 -17 791.301 198.965   2
   2   1 -17 538.575 190.809   9
  -2   3 -17 389.130 164.052  16
  -3   2 -17 627.490 187.310  16
   1  -3 -17 708.928 219.928  16
   1  -3 -17 763.544 161.387  15
  -3   2 -17 477.712 146.205   2
  -3   2 -17 575.807 180.949  11
  -3   2 -14 323396. 7212.63  11
  -2   3 -14 345971. 7305.50  11
   3  -1 -14 337525. 7422.92  16
  -1  -2 -14 312845. 7427.74  11
  -2   3 -14 330626. 7244.45  16
   2   1 -14 342766. 7437.89  16
  -2   3 -14 335292. 7225.91  10
  -1  -2 -14 329350. 7520.89  16
  -2   3 -14 337993. 7049.88   2
   3  -1 -14 352267. 7380.06   5
   1  -3 -14 356724. 7753.48   8
  -3   2 -14 335337. 7187.46   2
   1  -3 -14 315348. 7316.97   3
  -3   2 -14 332230. 7239.14  16
   3  -1 -14 322625. 7228.59  15
   2   1 -14 326537. 7348.11  11
  -3   2 -14 378462. 7146.82  10
   2   1 -14 374073. 7611.44   5
   3  -1 -14 322999. 7351.95  11
  -2   3 -11 1600.18 228.530  11
   2   1 -11 1559.93 241.810  16
   2   1 -11 1467.40 234.566  11
   1  -3 -11 1239.59 211.407   3
  -3   2 -11 1957.47 222.258  11
   3  -1 -11 1738.76 229.366  15
   2   1 -11 1510.29 246.491   5
  -3   2 -11 1399.95 172.389  10
   3  -1 -11 1652.79 237.050   5
   3  -1 -11 1694.77 227.260  11
  -2   3 -11 1591.15 209.711  10
   1  -3 -11 1745.38 157.844   5
  -2   3 -11 1358.01 171.307   2
   2   1 -11 1881.49 289.983  14
  -3   2 -11 1699.40 225.736   2
   2   1 -11 1650.27 194.889  15
   3  -1 -11 1702.15 245.625   8
   1  -3 -11 1427.99 267.481   8
  -1  -2 -11 1545.74 278.099   3
   3  -1 -11 1310.64 202.838  16
  -3   2 -11 1476.73 196.082  16
  -2   3 -11 1358.62 207.019  16
   2   1  -8 513954. 9438.46  14
   2   1  -8 445259. 9042.02  15
   3  -1  -8 412857. 9153.83  15
   2   1  -8 511152. 9226.42   4
   3  -1  -8 436250. 9060.79  11
   2   1  -8 499166. 9393.16  11
   3  -1  -8 455296. 9263.87   5
  -3   2  -8 409076. 8921.13  16
  -3   2  -8 511468. 9364.70  10
  -2   3  -8 455300. 9182.70  10
  -1  -2  -8 458105. 9433.37   3
  -2   3  -8 424279. 9004.55   2
  -1  -2  -8 405204. 8935.38   8
   2   1  -8 443432. 9164.71   5
   1  -3  -8 416758. 9206.46   8
  -3   2  -8 446991. 9163.47   2
  -2   3  -8 416294. 9007.44  14
   2   1  -8 496506. 9345.85  16
   3  -1  -8 430562. 9055.05  16
   1  -3  -8 391024. 9111.92   3
   3  -1  -8 434049. 9182.81   8
  -3   2  -8 431203. 8961.24  11
   2   1  -5 4465.74 313.081   4
   1  -3  -5 4546.54 321.766  12
  -3   2  -5 4782.35 199.340  13
  -2   3  -5 4255.10 342.524  10
  -1  -2  -5 5616.10 496.455   3
  -3   2  -5 4162.60 242.576  11
   2   1  -5 5279.92 365.082  14
   3  -1  -5 4733.99 357.730  15
  -2   3  -5 4804.69 326.985   2
   2   1  -5 4208.57 293.529  15
   2   1  -5 5374.77 331.992   5
  -1  -2  -5 4268.67 234.511   8
   3  -1  -5 5382.40 343.042   8
   3  -1  -5 4449.11 264.636  14
  -3   2  -5 4547.17 338.401   2
   1  -3  -5 4467.40 307.545   8
   3  -1  -5 4852.86 271.843  16
   2   1  -5 4244.38 324.946  16
   1  -3  -5 4504.75 319.286   3
   3  -1  -5 5145.23 282.272  11
  -2   3  -5 4410.10 286.925  14
   3  -1  -5 4267.34 195.231  12
  -3   2  -5 4533.98 297.196   6
   2   1  -2 454741. 10097.3   5
  -3   2  -2 457174. 10028.9  13
   1  -3  -2 631645. 10581.0  12
   3  -1  -2 481931. 10373.3   1
  -2   3  -2 487119. 10210.0  13
   3  -1  -2 470277. 10249.8   7
   1  -3  -2 638830. 10683.9   7
   3  -1  -2 469329. 9925.17  11
   2   1  -2 467406. 10166.4   4
  -2   3  -2 481442. 10316.4   6
  -1  -2  -2 565710. 10574.2  12
   2   1  -2 449045. 9960.04   9
  -1  -2  -2 499457. 10436.7   3
  -3   2  -2 503158. 10275.7   2
   3  -1  -2 483488. 10186.9   8
   3  -1  -2 518199. 10037.0  14
  -3   2  -2 470311. 10128.0   6
   3  -1  -2 447852. 9944.29   3
   2   1  -2 486867. 10234.1  14
   3  -1  -2 517098. 9962.18  16
  -2   3  -2 429217. 10056.2  14
   1  -3  -2 547063. 10610.5   3
  -2   3  -2 460251. 10207.8   2
   3  -1   1 7623.71 485.638  15
   1  -3   1 6651.52 386.318  12
  -1  -2   1 5814.65 405.135  12
   2   1   1 6694.52 280.493   5
   2   1   1 6589.87 347.910   4
  -2   3   1 8079.14 424.149   2
   3  -1   1 6941.56 390.755   4
   2   1   1 5442.44 326.524   1
   3  -1   1 7186.94 469.495   1
  -2   3   1 6458.43 395.238  13
   2   1   1 6164.74 409.061  14
  -1  -2   1 5331.50 371.517   3
  -2   3   1 6476.90 323.921  14
  -3   2   1 7087.38 358.928   6
  -3   2   1 6355.27 388.725   2
  -3   2   1 6957.82 345.429  13
   1  -3   1 5737.70 404.615   3
  -2   3   1 6506.39 438.011   6
   1  -3   4 610361. 10755.1   3
   2   1   4 554269. 10495.4  15
   2   1   4 495465. 10130.5   5
  -3   2   4 538805. 10387.3   2
  -1  -2   4 456849. 10448.4  12
   1  -3   4 505510. 10536.0  12
   2   1   4 540271. 10426.6   4
  -3   2   4 536487. 10514.4  13
   3  -1   4 572983. 10519.9   4
   3  -1   4 576651. 10849.6   1
   2   1   4 578432. 10639.3   1
  -2   3   4 594768. 10688.8  13
  -2   3   4 584698. 10700.1   6
   3  -1   4 515177. 10509.7  15
   1  -3   4 544828. 10231.1   1
  -1  -2   4 660874. 10631.5   3
  -3   2   4 504801. 10447.2   6
  -3   2   7 3518.99 333.246  13
   1  -3   7 2969.45 244.988   1
   3  -1   7 3368.12 296.389   1
  -1  -2   7 3454.65 317.411  12
   3  -1   7 3377.39 252.551   4
  -2   3   7 3254.58 342.567  13
   2   1   7 3507.02 253.495   4
  -2   3   7 3342.76 322.855   6
  -3   2   7 3455.98 316.597   6
   2   1   7 3018.67 251.675   1
  -1  -2   7 3562.15 313.615   3
   3  -1   7 3938.73 279.747  15
  -2   3  10 405972. 8892.70  13
  -1  -2  10 428961. 8730.41   3
  -1  -2  10 437151. 8519.07  13
  -2   3  10 415755. 8783.98   6
   3  -1  10 431354. 8480.56   4
  -3   2  10 425109. 8935.78  13
  -1  -2  10 403070. 8702.12  12
   3  -1  10 414233. 8631.86   1
   2   1  10 385936. 8458.64   4
  -3   2  10 412953. 8765.91   6
   1  -3  10 430009. 8669.98   1
   2   1  10 399192. 8631.80   1
  -1  -2  13 1323.78 212.484   6
  -1  -2  13 1581.54 161.793  13
   3  -1  13 1495.24 239.216   1
  -2   3  13 1828.96 295.040  13
  -3   2  13 1328.54 272.097  13
  -1  -2  13 1464.77 220.404   3
  -1  -2  13 1296.13 214.249   1
   2   1  13 1596.04 167.676   4
   1  -3  13 1368.38 226.036   1
  -1  -2  13 1495.27 235.108  12
  -3   2  13 1281.37 269.574   6
   2   1  13 1107.11 226.354   1
  -2   3  13 1726.84 274.493   6
   1  -3  16 264831. 5963.38   1
  -2   3  16 263011. 6093.18  13
  -1  -2  16 262615. 5943.56   3
  -3   2  16 270326. 6138.98  13
  -3   2  16 273319. 6107.01   6
  -1  -2  16 260446. 5988.03   1
  -2   3  16 247960. 5838.16   1
  -2   3  16 268015. 5913.96   6
   3  -1  16 257564. 5862.37   1
   2   1  16 246575. 5892.01   1
  -1  -2  16 275884. 5697.08   6
   1  -3  19 596.358 201.114   1
  -1  -2  19 1089.81 285.154   1
  -3   2  19 515.577 217.448   1
  -2   3  19 593.083 208.846   1
  -3   2  19 702.989 231.128  13
   3  -1  19 812.070 234.467   1
  -1  -2  19 1307.04 235.974   3
   2   1  19 639.101 201.669   1
  -2   3  19 521.585 190.271  13
  -3   2  19 872.631 273.975   6
  -3   3 -21 39.0736 118.513  11
   3   0 -21 251.622 222.951   5
   0  -3 -21 3.66777 147.858  11
   3   0 -21 457.203 222.084   9
   0  -3 -21-8.65728 146.471  16
   3   0 -21 233.679 148.098  16
  -3   3 -21 129.892 131.702  16
   3   0 -21 60.4427 130.521  11
   3   0 -18 223449. 5476.49  11
   0  -3 -18 222137. 5672.04  16
   3   0 -18 249743. 5598.06   5
   0  -3 -18 222001. 5631.87  11
  -3   3 -18 221598. 5263.04  11
  -3   3 -18 260642. 5322.58  10
  -3   3 -18 248756. 5195.46   2
  -3   3 -18 221932. 5251.75  16
   3   0 -18 234641. 5568.01  16
   0  -3 -15 323.459 216.692  16
  -3   3 -15 73.7338 104.926  11
  -3   3 -15 44.8433 93.4506  10
   3   0 -15-35.4772 115.756  11
   3   0 -15 45.7312 112.307  16
  -3   3 -15-52.8540 102.352  16
   0  -3 -15-87.0569 195.224   3
   3   0 -15 25.0386 125.634   5
   3   0 -15-58.3872 107.972  15
  -3   3 -15-12.9750 76.5474   2
   3   0 -12 379716. 7715.66  15
   3   0 -12 366501. 7786.22   5
   3   0 -12 361790. 7808.50  16
   3   0 -12 353224. 7763.14  11
  -3   3 -12 377064. 7662.68  10
  -3   3 -12 350026. 7573.98  16
  -3   3 -12 378877. 7636.08  11
  -3   3 -12 355976. 7573.88   2
   0  -3 -12 342308. 7811.27   8
   0  -3 -12 350900. 7918.42   3
   3   0  -9 18.7391 96.5440  16
  -3   3  -9 167.026 103.858  16
  -3   3  -9 10.2990 91.9234  10
   3   0  -9 93.8051 109.379   5
   0  -3  -9-110.191 135.846   8
   3   0  -9 20.7841 95.6682  11
   3   0  -9 183.707 128.680  14
   0  -3  -9-77.7871 138.351   3
  -3   3  -9 30.2787 78.1981   2
   3   0  -9 23.3740 96.0496  15
  -3   3  -9 59.3844 86.5740  11
  -3   3  -6 305396. 6965.98  13
   0  -3  -6 333981. 7365.05   3
   3   0  -6 334171. 7287.63   5
   3   0  -6 395304. 7520.62   4
   3   0  -6 376129. 7333.53  11
   3   0  -6 388949. 7423.65  16
  -3   3  -6 355023. 7282.03   2
   0  -3  -6 321332. 7255.86   8
   3   0  -6 361532. 7420.83  15
   0  -3  -6 297195. 7362.69  12
   3   0  -6 401828. 7435.48  14
  -3   3  -6 319844. 7183.77   6
  -3   3  -3-21.6585 64.5947  13
   0  -3  -3 329.652 201.865   3
   0  -3  -3-43.6098 136.296  12
   3   0  -3-28.7100 90.7669   5
   3   0  -3 138.053 80.9652  14
   3   0  -3 37.0990 130.791   4
   3   0  -3 61.1122 56.0521   8
   3   0  -3 185.836 74.0992   7
  -3   3  -3 360.784 133.707   2
   3   0  -3 230.190 141.241  15
  -3   3  -3-31.0546 128.959   6
   0  -3   0 666675. 12641.3  12
  -3   3   0 608874. 12545.8   2
   3   0   0 686199. 12736.8   1
  -3   3   0 641129. 12606.9   6
   3   0   0 596559. 12172.6   8
  -3   3   0 643886. 12451.4  13
   0  -3   0 672833. 12386.6   7
   3   0   0 678325. 12615.1  14
   0  -3   0 597555. 12781.3   3
   3   0   0 603307. 12569.6  15
   3   0   0 628517. 12522.5   4
  -3   3   3 85.5584 120.533   2
  -3   3   3 212.900 127.136  13
   0  -3   3 191.714 134.951  12
   0  -3   3-160.785 137.820   3
   0  -3   3 18.7538 36.3802   1
   3   0   3 55.5405 93.2488   4
   3   0   3 385.699 200.830   1
  -3   3   3-162.554 156.892   6
   0  -3   3 19.6388 26.2595   1
  -3   3   6 359743. 7757.56   6
   0  -3   6 349681. 7724.12  12
   3   0   6 334584. 7573.37   4
   0  -3   6 359715. 7454.62   1
   3   0   6 379087. 7751.10  15
  -3   3   6 369751. 7800.05  13
  -3   3   9 144.156 156.467   6
  -3   3   9-53.2188 150.174  13
   0  -3   9-15.5933 92.5289  12
   0  -3   9-5.83408 113.942   3
   0  -3   9 66.9953 76.4265   1
   3   0   9 127.916 126.900   1
   3   0   9 2.04452 64.7851   4
  -3   3  12 359783. 7887.86  13
   0  -3  12 362631. 7222.60  13
   0  -3  12 360468. 7536.02   1
   0  -3  12 338935. 7598.04  12
   0  -3  12 360440. 7768.04   3
   3   0  12 357717. 7531.40   1
   3   0  12 351961. 7358.60   4
  -3   3  12 356265. 7722.14   6
   0  -3  15-96.8899 124.154   3
   0  -3  15 80.7915 109.862   1
   0  -3  15-26.1008 94.5053  12
  -3   3  15 16.0294 185.169   6
   0  -3  15-16.2622 109.725   6
  -3   3  15 87.4050 173.209  13
  -3   3  18 222134. 5311.97  13
   0  -3  18 219889. 5122.44   1
  -3   3  18 225210. 5206.34   6
   0  -3  18 202025. 4927.65   3
  -3   3  18 202828. 5024.73   1
   3   0  18 221511. 4969.26   1
   0  -3  21-62.0914 108.445   3
   3   0  21 223.220 175.953   1
  -3   3  21 180.928 179.767   1
   4  -4 -19 90.9362 136.791  16
   4  -4 -19 58.9389 134.184  11
  -4   0 -19 129.329 142.585   2
   0   4 -19 22.9475 116.403  10
   4  -4 -16 193627. 4893.95  16
   4  -4 -16 184069. 4807.51  11
   4  -4 -16 188581. 4891.55  15
   0   4 -16 210606. 4874.88  10
  -4   0 -16 198375. 4781.90   2
   4  -4 -16 203994. 4830.92   8
   4  -4 -16 212164. 4482.60   5
   4  -4 -13-39.1987 97.0041   5
   0   4 -13-122.305 151.488  10
   4  -4 -13-76.1623 103.459  11
  -4   0 -13-123.933 117.214  11
  -4   0 -13 48.1271 135.195   2
   4  -4 -13 30.9056 113.442  16
   4  -4 -13 76.0028 159.463  15
   4  -4 -13-9.24936 105.279   8
   0   4 -13 21.8249 133.038  14
   0   4 -10 308252. 7195.95  10
   4  -4 -10 324325. 7201.29   8
  -4   0 -10 331928. 6915.01  16
   4  -4 -10 323055. 7317.20  15
  -4   0 -10 302903. 7109.90   2
   0   4 -10 333571. 7387.04  14
  -4   0  -7-12.7984 111.744   2
  -4   0  -7 351.910 86.9596   6
   4  -4  -7-8.11336 55.7419   3
   4  -4  -7 110.267 128.763  15
   0   4  -7-59.0634 108.128  10
  -4   0  -7-33.8971 59.0719  11
   0   4  -7 30.8853 55.5862   4
   4  -4  -7 137.081 120.836   8
  -4   0  -7 46.1009 55.8302  16
   4  -4  -7-18.1256 70.3249  12
   0   4  -7 226.826 151.997  14
  -4   0  -4 376763. 7155.49  16
   0   4  -4 406950. 7850.53  14
   4  -4  -4 327130. 7745.36   7
   4  -4  -4 340032. 7530.82  12
  -4   0  -4 299476. 7305.88   6
  -4   0  -4 382374. 7617.72   2
  -4   0  -4 381999. 7193.17  11
   0   4  -4 326798. 7561.55  10
   4  -4  -4 357737. 7684.18  15
   0   4  -4 362780. 7510.08   4
  -4   0  -4 313531. 7422.78   3
   4  -4  -4 406953. 7432.99   3
   4  -4  -1 9.73314 85.0626   3
   4  -4  -1 115.048 162.880   7
  -4   0  -1-11.2556 81.4957   6
  -4   0  -1 128.736 84.2887   3
  -4   0  -1 140.068 102.524   2
   4  -4  -1-34.0146 97.0234  15
   0   4  -1 8.19138 65.7484  10
   0   4  -1 14.0377 97.2193  14
   0   4  -1 104.489 86.5253   4
   0   4   2 396460. 8054.15  10
   4  -4   2 386129. 8312.78   1
   4  -4   2 392501. 8385.17   3
  -4   0   2 441869. 8187.44   6
   0   4   2 384150. 8193.65   4
  -4   0   2 444758. 7973.55   3
   0   4   2 395758. 8252.93  14
   4  -4   2 399346. 8182.91  15
  -4   0   2 438294. 8097.67   2
  -4   0   5 82.1421 90.4306   6
  -4   0   5 10.2563 34.6179   3
   0   4   5 19.0266 29.1272   1
   4  -4   5 24.2694 67.9258  15
   0   4   5-7.04475 42.9334  10
  -4   0   5 265.674 121.079  13
   0   4   5-24.6206 88.5459   4
   4  -4   5 94.9088 115.130   1
  -4   0   5-16.0983 48.9214   2
   0   4   5 278.849 155.601  14
  -4   0   8 350932. 7174.71  13
   4  -4   8 341116. 6926.09  15
   0   4   8 329796. 7215.02   4
   4  -4   8 344759. 7108.55   1
   0   4   8 336069. 6927.97   1
  -4   0   8 342669. 7125.77   6
  -4   0  11-50.3418 122.420   6
  -4   0  11 60.7948 96.1424  13
   4  -4  11 119.834 125.496   1
   0   4  11 3.91916 94.1723   4
   0   4  11 61.4111 86.5257   1
   0   4  14 242000. 5444.09   4
  -4   0  14 244128. 5391.82   6
   4  -4  14 256569. 5481.31   1
  -4   0  14 237920. 5386.72  13
   0   4  14 256999. 5408.00   1
  -4   0  17 21.0604 89.9302  13
   0   4  17 151.168 107.778   1
   4  -4  17 74.1485 135.183   1
   0   4  17 91.5826 105.140   4
  -4   0  17 124.884 131.327   6
   4  -3 -20 170255. 4501.05  16
   1   3 -20 186804. 4260.89   9
   3  -4 -20 185545. 4593.25  16
   3  -4 -20 182362. 4511.54  11
  -3  -1 -20 161034. 4323.62  11
   4  -3 -20 163890. 4420.62  11
  -1   4 -20 193272. 4336.93  10
  -4   1 -20 164928. 4085.36   2
  -3  -1 -20 155896. 4122.34   2
  -3  -1 -20 165337. 4358.06  16
  -4   1 -17 1058.57 225.666   2
   3  -4 -17 1172.34 250.795  11
   3  -4 -17 1056.02 222.781  15
  -3  -1 -17 1310.89 261.125   2
   4  -3 -17 1048.62 250.177  15
   4  -3 -17 1302.19 210.097   5
  -3  -1 -17 1163.83 253.224  11
   4  -3 -17 1169.24 241.333  11
  -4   1 -17 1213.29 221.270  11
  -1   4 -17 1383.05 269.801  10
   1   3 -17 1248.49 235.075   9
   4  -3 -17 1067.77 274.515   8
   3  -4 -17 877.174 218.694   8
   3  -4 -17 1723.92 329.698  16
  -3  -1 -17 1260.11 269.457  16
   4  -3 -17 1115.31 248.300  16
   3  -4 -14 300401. 5908.90   5
  -4   1 -14 271191. 5977.42  16
   3  -4 -14 291025. 6444.96  15
   4  -3 -14 273818. 6199.43  11
   4  -3 -14 269343. 6319.36  15
  -4   1 -14 275000. 6029.81  11
  -1   4 -14 264625. 6118.38  14
  -3  -1 -14 269077. 6331.81   2
   1   3 -14 298836. 6495.64   5
  -1   4 -14 278013. 6211.61  10
   1   3 -14 300588. 6480.54  10
   1   3 -14 276215. 6108.75   9
   4  -3 -14 295543. 6558.35   8
   3  -4 -14 274751. 6204.29   8
  -3  -1 -14 260821. 6177.83  11
   3  -4 -14 286065. 6499.25  16
  -3  -1 -14 253652. 6155.69  16
   4  -3 -14 261931. 6210.69  16
  -4   1 -14 280733. 6177.10   2
   4  -3 -14 255179. 6056.78   5
   1   3 -14 300931. 6390.25  14
   1   3 -11 2297.07 315.909   5
  -1   4 -11 2389.88 287.311  10
  -3  -1 -11 2322.50 329.174   3
  -3  -1 -11 2382.03 287.434  11
   4  -3 -11 2483.25 269.363  11
   1   3 -11 2462.90 206.369   4
   4  -3 -11 2279.57 264.841  16
  -4   1 -11 2472.20 237.613  11
   4  -3 -11 2211.61 343.899   8
   4  -3 -11 2275.09 317.698   5
   1   3 -11 2944.86 350.159  10
   1   3 -11 2149.34 252.222   9
   3  -4 -11 2159.16 280.680   8
   3  -4 -11 2405.35 237.085   3
   4  -3 -11 2682.43 331.761  15
  -4   1 -11 2319.10 282.570   2
   1   3 -11 2193.26 319.504  14
  -4   1 -11 2329.61 217.638  16
  -3  -1 -11 2008.28 253.284  16
   3  -4 -11 2433.66 345.027  15
  -1   4 -11 2022.27 276.771  14
   1   3  -8 383389. 7655.26   5
  -4   1  -8 328983. 7125.37  13
   3  -4  -8 397344. 7254.47  12
   4  -3  -8 373024. 7384.95  11
  -4   1  -8 346153. 7194.38  11
   3  -4  -8 349248. 7276.72   3
   1   3  -8 342287. 7255.97   4
  -1   4  -8 371202. 7159.21   4
  -1   4  -8 339202. 7503.70  10
  -1   4  -8 323466. 7575.14  14
   1   3  -8 361486. 7679.79  14
   4  -3  -8 344859. 7745.16   8
   3  -4  -8 354263. 7490.38   8
  -3  -1  -8 405313. 7887.70   3
  -4   1  -8 325942. 7120.92  16
   4  -3  -8 338893. 7624.00  15
  -4   1  -8 315026. 7391.09   2
   1   3  -8 342282. 7540.13  10
  -3  -1  -8 383946. 7185.83   6
   4  -3  -8 360843. 7427.14  16
  -1   4  -5 5119.93 415.334  14
  -4   1  -5 4100.82 249.692  13
  -4   1  -5 5013.23 262.134   6
   3  -4  -5 4888.24 298.921   3
   3  -4  -5 5762.70 374.770  12
  -4   1  -5 3855.24 156.213  11
   1   3  -5 3736.10 267.369   4
  -1   4  -5 4055.58 314.489  10
  -1   4  -5 4168.35 278.565   4
   1   3  -5 4941.45 357.221   5
   4  -3  -5 4690.42 375.742   8
   3  -4  -5 5460.38 456.401   7
   4  -3  -5 4408.34 397.401   7
  -3  -1  -5 4305.88 377.082   3
  -4   1  -5 3930.68 297.391   2
   4  -3  -5 4862.29 375.143  15
   1   3  -5 4624.07 332.746  10
   1   3  -5 4175.89 375.777  14
   1   3  -2 437705. 8710.96   5
  -4   1  -2 476830. 8657.20  13
   3  -4  -2 403152. 8804.71  12
  -1   4  -2 421114. 8717.19  10
   1   3  -2 439651. 8757.49   4
   3  -4  -2 413322. 8995.34   7
   1   3  -2 407887. 8665.05  10
  -4   1  -2 467143. 8707.18   6
  -1   4  -2 421935. 8656.58   4
  -3  -1  -2 406755. 8736.51   3
   4  -3  -2 391396. 8903.34   7
  -4   1  -2 493325. 8725.00   2
   4  -3  -2 439079. 8819.64  15
  -1   4  -2 491173. 9060.54  14
   3  -4  -2 380861. 8731.91   3
   1   3  -2 432585. 8777.08  14
   4  -3  -2 357587. 8468.27   3
   3  -4   1 5727.91 438.014   3
  -4   1   1 4647.27 308.204   6
  -4   1   1 5882.75 325.327  13
   3  -4   1 5669.01 332.585   1
  -1   4   1 5267.93 312.834  10
   1   3   1 5611.11 351.307   4
  -1   4   1 5864.49 363.175   4
   1   3   1 5149.31 278.550  10
  -1   4   1 5139.67 344.589  14
  -4   1   1 5549.02 294.669   2
   1   3   1 4982.04 367.879  14
   4  -3   1 5736.23 354.621  15
   4  -3   1 5016.42 186.022  14
   4  -3   1 5345.63 412.325   1
  -3  -1   1 5168.36 316.077   3
  -1   4   4 430457. 8441.31  13
   3  -4   4 364357. 8508.33   3
  -1   4   4 369722. 7907.31   1
   3  -4   4 398894. 8216.44  15
  -1   4   4 425789. 8172.97  10
  -4   1   4 407868. 8228.09  13
  -4   1   4 377365. 8192.23   6
   3  -4   4 416423. 8267.35   1
   4  -3   4 418537. 8472.01   1
   1   3   4 386639. 7995.96  10
   1   3   4 383759. 8248.54   4
   1   3   4 369437. 8007.46   1
  -1   4   4 409417. 8440.71  14
  -4   1   4 419145. 8081.19   2
   4  -3   4 384734. 8209.54  15
  -1   4   4 417595. 8382.41   6
  -3  -1   4 436624. 8173.51   3
  -3  -1   4 357814. 8272.31   6
  -4   1   7 3593.72 288.561  13
  -3  -1   7 3951.33 345.450  13
  -1   4   7 3426.52 318.359   6
  -3  -1   7 3953.38 260.293   3
  -1   4   7 3402.69 218.248   1
   4  -3   7 3519.26 233.849  15
   1   3   7 3342.75 281.184   4
  -4   1   7 3286.67 147.874   2
   4  -3   7 3879.66 304.002   1
   3  -4   7 3827.95 258.614   1
  -3  -1   7 3702.69 318.998   6
  -1   4   7 3338.01 330.265  13
  -4   1   7 3414.07 276.082   6
   1   3   7 3218.33 220.977   1
   3  -4   7 4001.53 225.231  15
  -4   1  10 375091. 8078.80  13
  -3  -1  10 361328. 7982.58   6
  -1   4  10 379612. 8233.28  13
  -1   4  10 372116. 7916.17   1
  -3  -1  10 396430. 8041.69  13
   1   3  10 364154. 8001.02   4
   1   3  10 361333. 7881.97   1
   4  -3  10 379749. 8030.56   1
   3  -4  10 398812. 7989.58   1
  -1   4  10 388321. 8146.24   6
  -4   1  10 360666. 7973.56   6
  -3  -1  13 1821.18 210.045  13
  -1   4  13 1942.01 275.101  13
  -4   1  13 2008.82 261.402  13
   1   3  13 1769.66 220.675   4
   4  -3  13 1811.80 242.757   1
   3  -4  13 1745.36 239.084   1
  -1   4  13 1627.49 240.777   4
  -3  -1  13 1930.58 234.168   6
   1   3  13 1652.03 215.982   1
  -4   1  13 1861.00 236.898   6
  -1   4  13 1862.45 237.033   6
  -1   4  13 1706.01 223.289   1
  -1   4  16 208449. 4879.19  13
  -4   1  16 209499. 4826.50  13
   3  -4  16 226039. 4908.29   1
  -1   4  16 203202. 4769.77   4
  -3  -1  16 211289. 4707.39   6
  -1   4  16 208161. 4795.36   1
   1   3  16 222219. 4712.50   4
   4  -3  16 228009. 4844.68   1
  -3  -1  16 213977. 4622.58  13
   1   3  16 194196. 4714.73   1
  -4   1  16 204829. 4740.86   6
  -3  -1  19 979.199 190.371   6
  -4   1  19 869.139 204.161  13
  -1   4  19 753.827 197.739   1
   1   3  19 847.354 197.654   1
   4  -3  19 1238.64 233.427   1
  -3  -1  19 693.561 254.622   1
   3  -4  19 1065.79 223.649   1
  -4   1  19 1125.53 222.319   6
   4  -2 -21 1544.24 285.969  11
  -2  -2 -21 938.053 254.520  16
   2  -4 -18 219300. 4730.41  15
  -2  -2 -18 195783. 5045.08  16
   4  -2 -18 198316. 4765.82   5
  -4   2 -18 208074. 4638.96  16
   2  -4 -18 202060. 4979.60  11
  -2  -2 -18 185408. 4942.00  11
   4  -2 -18 200804. 5000.60  11
   2   2 -18 200202. 4763.36  11
  -4   2 -18 204605. 4659.12  11
  -2   4 -18 221030. 4863.86  10
   2   2 -18 205439. 4825.06   9
  -4   2 -18 200597. 4682.59   2
   4  -2 -18 200503. 5013.46  16
  -2  -2 -18 193672. 4861.63   2
   2  -4 -18 195178. 4979.25  16
   2   2 -18 242755. 5290.24   5
   2   2 -18 204250. 4782.05  16
  -4   2 -15 2582.99 256.708  16
   2  -4 -15 2642.03 303.291  15
   2   2 -15 2447.21 337.694  14
  -2  -2 -15 2686.08 374.912  11
   4  -2 -15 2167.48 302.293  11
  -4   2 -15 2797.66 281.344  11
   2   2 -15 2067.75 282.103  11
   4  -2 -15 2613.81 332.637  15
  -2   4 -15 2536.16 253.707   2
  -2   4 -15 2760.78 309.868  10
   4  -2 -15 2379.27 321.767  16
   2   2 -15 2580.03 305.994  16
   4  -2 -15 2254.29 304.533   5
   2   2 -15 2600.79 308.525   9
   2  -4 -15 2634.19 322.063   8
  -4   2 -15 2332.87 289.249   2
   2  -4 -15 2166.48 278.617   3
   2   2 -15 2247.53 346.743   5
  -2  -2 -15 2205.93 344.901  16
   2   2 -12 308381. 6751.95   5
   4  -2 -12 293126. 6601.98  16
   4  -2 -12 289655. 6688.35   5
   2  -4 -12 320728. 6299.01   5
   4  -2 -12 300230. 6595.61  11
  -4   2 -12 278920. 6308.09  16
  -4   2 -12 284363. 6348.34  11
   2   2 -12 297466. 6636.41  11
  -2   4 -12 302010. 6461.11   2
  -4   2 -12 327794. 6394.01  10
  -2   4 -12 308203. 6649.06  10
   2   2 -12 288607. 6557.32   9
   2   2 -12 323999. 6398.16  15
  -2  -2 -12 318398. 6398.30   9
   2  -4 -12 288177. 6499.99   3
   4  -2 -12 313763. 6851.23   8
   2  -4 -12 290066. 6602.44   8
  -4   2 -12 321792. 6686.44   2
   2   2 -12 346887. 6990.28  14
   2   2 -12 298452. 6623.91  16
   4  -2 -12 294191. 6728.47  15
  -2  -2 -12 293145. 6892.43   3
   2   2  -9 4839.43 397.978   5
   4  -2  -9 5576.47 469.219   5
   2  -4  -9 5438.27 319.572  12
  -4   2  -9 5132.08 263.499  16
   2   2  -9 5439.76 447.576  14
   4  -2  -9 5485.23 352.192  11
   2   2  -9 5676.88 361.136   4
  -4   2  -9 5060.94 272.493  11
  -2   4  -9 5013.70 357.971   2
  -4   2  -9 5566.21 424.640   2
  -2   4  -9 4680.07 374.103  10
   2   2  -9 4511.07 332.150   9
   4  -2  -9 5161.29 441.452   8
   2  -4  -9 4858.77 364.151   8
  -2  -2  -9 5698.67 530.390   3
   2   2  -9 5181.25 333.923  15
   2  -4  -9 5611.87 361.136   3
   4  -2  -9 5125.80 437.789  15
   4  -2  -9 5345.90 355.005  16
  -2   4  -9 3967.44 333.846  14
   4  -2  -6 424860. 9056.42  15
   2   2  -6 454566. 8869.84   5
  -4   2  -6 451888. 8545.03  13
   2  -4  -6 468540. 8812.97  12
  -2   4  -6 423569. 8868.12   2
   4  -2  -6 445700. 8630.18  11
   2   2  -6 422327. 8712.58   4
  -2   4  -6 415259. 8825.98  10
   2   2  -6 455497. 8959.06  14
  -2   4  -6 409668. 8547.83   4
   2   2  -6 373099. 8609.85   9
  -2  -2  -6 408420. 8406.37   9
   4  -2  -6 410057. 8973.00   8
   2  -4  -6 431918. 8791.75   8
   4  -2  -6 433039. 8642.33  16
  -4   2  -6 453270. 8933.06   2
   4  -2  -6 401421. 8752.09   7
  -2  -2  -6 498907. 9417.06   3
   2  -4  -6 416716. 8721.00   3
  -2   4  -6 379782. 8765.59  14
  -4   2  -6 429211. 8649.73   6
   2   2  -6 430065. 8760.43  15
  -4   2  -3 9665.94 421.988  13
   2   2  -3 9590.51 454.914   5
  -2  -2  -3 8070.57 548.094   3
   4  -2  -3 9083.25 563.639  15
   2  -4  -3 10082.8 524.708  12
   4  -2  -3 8824.24 295.739  11
   2   2  -3 8116.38 426.135   4
  -2   4  -3 9185.18 486.085  10
   2   2  -3 9140.83 473.016  15
   4  -2  -3 9738.35 544.496   8
  -4   2  -3 7740.89 435.640   2
   4  -2  -3 9966.57 328.609  16
   2  -4  -3 10912.3 616.900   7
   4  -2  -3 8728.49 527.999   7
   2  -4  -3 10662.5 584.788   3
  -2   4  -3 7850.54 444.495  14
  -4   2  -3 9455.95 423.243   6
   2   2  -3 8157.49 461.370  14
  -4   2   0 419778. 8457.60   6
  -2   4   0 402365. 8502.15  14
   2   2   0 458358. 8372.96   5
  -2  -2   0 537151. 8877.92  12
   2   2   0 418013. 8355.54   1
   2   2   0 432915. 8515.91   4
   2  -4   0 392263. 8541.56  12
  -4   2   0 450660. 8522.05  13
  -2   4   0 439929. 8542.77  13
   2   2   0 459231. 8601.36  15
   4  -2   0 405159. 8665.75   1
  -2  -2   0 336205. 8391.61   3
   4  -2   0 370509. 8139.97  14
  -2   4   0 367850. 8127.40   1
  -4   2   0 386248. 8370.29   2
   2   2   0 401105. 8539.31  14
   2  -4   0 401189. 8650.12   7
  -2   4   0 435685. 8618.88   6
   4  -2   0 391178. 8608.59  15
   2  -4   0 364420. 8582.25   3
   2  -4   3 8980.18 597.131   3
  -2   4   3 8790.07 526.415  13
  -4   2   3 10210.8 542.581  13
   4  -2   3 9068.29 594.137   1
  -2   4   3 8362.46 529.774   6
  -2  -2   3 9118.57 512.817  12
   2  -4   3 9328.12 543.540  12
   2  -4   3 8560.84 348.988   1
   2   2   3 8680.18 412.238   1
   2   2   3 9960.86 492.970   4
  -2   4   3 8891.94 444.904  14
  -4   2   3 7492.27 369.760   2
   4  -2   3 9631.81 521.662  15
   2   2   3 9158.51 333.702   5
  -2  -2   3 9698.19 490.749   3
  -4   2   3 10288.4 528.815   6
  -2   4   6 467243. 9622.39  13
   2  -4   6 475077. 9706.43   3
  -2  -2   6 412204. 9336.66  12
  -4   2   6 433563. 9047.95   2
   2   2   6 431765. 9254.70   4
   4  -2   6 445323. 9381.60   1
   2   2   6 413534. 9201.05   1
   2  -4   6 451910. 9106.42   1
  -4   2   6 426017. 9489.38  13
  -2   4   6 451781. 9585.41   6
   4  -2   6 438858. 9247.96  15
  -4   2   6 509467. 9608.47   6
  -2   4   9 4642.46 430.545  13
  -4   2   9 4874.08 452.521  13
  -2  -2   9 4757.00 343.563  12
   2   2   9 5055.45 323.150   4
   4  -2   9 4958.10 366.156   1
   2   2   9 4864.11 318.333   1
  -4   2   9 4663.82 393.912   6
   4  -2   9 5396.10 288.472  15
   2  -4   9 5149.74 327.580   1
  -2   4   9 4706.25 428.950   6
  -2  -2   9 5629.33 374.515   3
  -4   2  12 280415. 6605.53  13
  -2  -2  12 290825. 6067.48  13
   2  -4  12 308589. 6325.99   1
  -2   4  12 289390. 6550.97  13
  -2  -2  12 341259. 6350.13   3
  -2  -2  12 292074. 6141.08  12
   2   2  12 280248. 6125.84   1
  -4   2  12 249159. 6246.81   6
   2   2  12 285950. 6080.92   4
  -2   4  12 265869. 6113.88   1
   4  -2  12 296926. 6229.64   1
  -2   4  12 281843. 6467.16   6
  -2  -2  12 318000. 6418.61   6
  -2  -2  15 2415.27 262.025   6
  -4   2  15 2426.11 385.380  13
  -2   4  15 2424.41 274.105   1
   2   2  15 2270.56 223.574   4
   2   2  15 2738.74 287.733   1
  -2  -2  15 2640.49 220.421  13
  -2   4  15 2516.79 353.857  13
   2  -4  15 2777.01 340.089   1
   4  -2  15 2658.42 289.780   1
  -2  -2  15 2703.73 313.531   3
  -4   2  15 2356.14 321.367   6
  -2   4  15 2572.51 331.438   6
  -2   4  18 187897. 4690.45  13
  -4   2  18 199327. 4888.27  13
  -2   4  18 178166. 4522.27   1
   4  -2  18 203720. 4535.79   1
  -2  -2  18 233686. 5085.53   1
  -2   4  18 198487. 4546.80   4
  -2  -2  18 206100. 4419.82   6
   2   2  18 186236. 4449.95   1
  -4   2  18 174366. 4555.83   6
   2  -4  18 203115. 4724.54   1
  -2   4  21 1324.05 252.003   1
  -3   4 -19 869.990 186.757  10
   3   1 -19 858.030 243.453   5
   3   1 -19 1210.96 238.435  11
   4  -1 -19 1061.41 284.368   5
   1  -4 -19 1115.11 245.953  11
  -1  -3 -19 1089.69 275.721  11
   4  -1 -19 1495.10 306.188  11
  -4   3 -19 1122.92 205.104  11
   3   1 -19 567.113 182.761   9
  -1  -3 -19 949.134 266.748  16
   4  -1 -19 1155.97 334.016  16
  -4   3 -19 870.631 181.890  16
   3   1 -19 1146.06 230.576  16
  -4   3 -19 872.848 182.531   2
   1  -4 -19 891.596 237.997  16
   3   1 -16 236600. 5225.45   5
  -4   3 -16 214093. 4840.62  16
  -1  -3 -16 217636. 5397.31  16
  -4   3 -16 221814. 4872.55  11
  -1  -3 -16 203310. 5246.33  11
   3   1 -16 213250. 5061.78  16
   4  -1 -16 209741. 5108.94  11
   3   1 -16 209480. 5035.89  11
  -4   3 -16 255573. 4941.45  10
  -3   4 -16 227910. 4884.32   2
  -3   4 -16 242370. 5090.86  10
   4  -1 -16 222482. 5133.55   5
   3   1 -16 217731. 5078.65   9
  -4   3 -16 218126. 4953.71   2
   1  -4 -16 199370. 5042.08   8
   1  -4 -16 193190. 4942.93   3
   4  -1 -16 216586. 5175.59  16
   4  -1 -16 239465. 5135.61  15
   3   1 -13 1969.56 275.905   5
   1  -4 -13 1630.38 243.930   3
  -1  -3 -13 2514.84 359.898   3
   4  -1 -13 1913.90 277.302   5
   3   1 -13 2558.33 296.802  11
  -4   3 -13 1976.81 212.257  11
   4  -1 -13 1853.49 254.181  11
  -4   3 -13 1949.51 224.555  10
  -3   4 -13 1966.06 250.839  10
  -3   4 -13 1707.20 212.825   2
   3   1 -13 2302.73 277.728   9
  -4   3 -13 1908.54 244.928   2
   1  -4 -13 1789.29 253.640   8
   3   1 -13 2391.75 327.668  14
   4  -1 -13 2132.79 288.311  16
  -4   3 -13 1887.21 202.141  16
   3   1 -13 1831.40 219.143  15
   4  -1 -13 1634.49 261.786  15
   3   1 -13 1606.56 246.821  16
   4  -1 -10 350257. 7937.19  15
   3   1 -10 367097. 7856.18   5
   4  -1 -10 372216. 7837.67  11
   4  -1 -10 357145. 7904.12   5
   3   1 -10 370098. 7932.34  11
  -4   3 -10 398474. 7925.16  10
  -3   4 -10 374746. 7873.46  10
  -3   4 -10 363462. 7742.81   2
  -4   3 -10 375146. 7832.33   2
   4  -1 -10 368098. 7874.58   8
   1  -4 -10 351422. 7779.69   8
   3   1 -10 374832. 7924.49  16
  -1  -3 -10 346782. 8067.83   3
   1  -4 -10 349926. 7789.68   3
   3   1 -10 367335. 7754.92  15
   4  -1 -10 376751. 7873.92  16
  -4   3  -7 4011.18 198.392  13
   3   1  -7 3762.03 318.810   4
   3   1  -7 3464.54 298.120   5
   1  -4  -7 3636.57 302.488  12
   4  -1  -7 3932.87 353.464   5
   1  -4  -7 3307.15 291.153   3
   4  -1  -7 4158.48 305.107  11
  -4   3  -7 3556.70 244.765   6
  -3   4  -7 3418.60 310.109  10
  -3   4  -7 3747.41 310.221   2
  -3   4  -7 3282.79 245.329  14
  -4   3  -7 3557.17 311.321   2
   4  -1  -7 4296.56 323.206   8
  -1  -3  -7 3551.66 244.569   8
   3   1  -7 4568.07 364.745  14
   1  -4  -7 3947.84 303.481   8
   4  -1  -7 5577.60 350.644  16
  -1  -3  -7 3757.13 398.900   3
   4  -1  -7 3717.63 362.965  15
   3   1  -7 3658.92 309.090  15
   4  -1  -7 4648.65 312.367  14
  -4   3  -4 366549. 7645.49  13
   1  -4  -4 417104. 7995.66   3
   3   1  -4 370544. 7783.75   5
  -1  -3  -4 363238. 8060.70  12
   1  -4  -4 394008. 7918.07  12
  -3   4  -4 353574. 7679.45  13
  -3   4  -4 339806. 7650.46  14
   4  -1  -4 399201. 7584.98  16
   3   1  -4 362584. 7821.32   4
  -3   4  -4 383469. 7963.01   2
   3   1  -4 359519. 7587.14   9
  -4   3  -4 386029. 7918.01   2
   4  -1  -4 377179. 7778.11   8
  -1  -3  -4 364991. 7621.91   8
   3   1  -4 365642. 7788.96  14
  -3   4  -4 367912. 7861.06   6
   4  -1  -4 369186. 7801.77   7
   4  -1  -4 435304. 7762.25  14
   4  -1  -4 375606. 8078.87  15
   3   1  -4 369810. 7874.31  15
  -1  -3  -4 395023. 8052.70   3
  -4   3  -4 412956. 7976.77   6
  -4   3  -1 5743.90 326.573  13
   3   1  -1 5402.49 308.926   5
  -1  -3  -1 5318.64 415.350  12
   4  -1  -1 5874.47 455.040   1
   1  -4  -1 6116.44 418.739  12
   4  -1  -1 6298.26 480.757  15
  -3   4  -1 4918.24 395.218   6
   4  -1  -1 5785.04 403.588   4
   3   1  -1 4979.16 340.627   4
  -3   4  -1 5467.82 396.138   2
  -4   3  -1 6330.02 428.653   2
  -3   4  -1 5206.09 267.675  14
   4  -1  -1 5914.21 319.891   8
   1  -4  -1 6582.74 409.560   7
   1  -4  -1 5326.69 425.451   3
   3   1  -1 5870.38 384.236  15
  -4   3  -1 5126.33 366.450   6
  -1  -3  -1 5178.68 388.561   3
  -3   4  -1 5832.65 378.604  13
   4  -1  -1 4926.78 265.311  14
   3   1  -1 5085.02 348.535  14
  -3   4   2 479448. 9189.40  13
  -4   3   2 422001. 9002.79  13
   3   1   2 446021. 9086.81  15
   3   1   2 414074. 8785.60   5
   1  -4   2 406440. 9054.20  12
   4  -1   2 500544. 9175.20   4
   3   1   2 458348. 9109.65   1
   4  -1   2 525832. 9534.71   1
   3   1   2 438145. 8995.23   4
  -4   3   2 459113. 9102.55   6
   1  -4   2 368152. 9069.75   3
  -4   3   2 408914. 9000.66   2
  -1  -3   2 408550. 9074.39  12
  -3   4   2 465304. 8843.17  14
   1  -4   2 377907. 8926.13   7
   4  -1   2 465971. 9302.91  15
  -3   4   2 473793. 9336.01   6
  -1  -3   2 497949. 9205.78   3
   3   1   2 458431. 9296.13  14
   1  -4   5 4781.12 421.145   3
  -4   3   5 4189.20 365.363  13
  -1  -3   5 3696.50 326.826  12
   1  -4   5 4220.45 349.683  12
   4  -1   5 4492.13 349.099  15
   4  -1   5 4775.97 346.717   4
   3   1   5 4353.34 306.661   4
  -4   3   5 4032.39 269.196   2
   4  -1   5 4347.34 457.717   1
   3   1   5 3735.84 315.428   1
  -3   4   5 4279.02 389.649  13
   1  -4   5 4530.35 191.254   1
  -1  -3   5 4775.53 163.131   7
   3   1   5 3852.26 180.963   5
  -3   4   5 4419.49 403.786   6
   3   1   5 4418.14 352.743  15
  -4   3   5 4355.09 377.609   6
  -3   4   5 2800.14 186.075  14
  -1  -3   5 4370.85 344.614   3
   1  -4   8 401628. 8102.03   3
  -3   4   8 347525. 7958.80  13
  -1  -3   8 367201. 7872.63  12
   1  -4   8 328784. 7825.01  12
   4  -1   8 418389. 7819.71   4
   3   1   8 369805. 7691.11   4
  -3   4   8 362858. 7960.76   6
   4  -1   8 368788. 7779.87   1
   3   1   8 335339. 7689.97   1
   4  -1   8 364452. 7697.17  15
  -4   3   8 370115. 8004.41  13
  -4   3   8 348864. 7885.83   6
   1  -4   8 403768. 7662.57   1
  -1  -3   8 380675. 7817.02   3
  -1  -3  11 2762.98 321.581   3
  -4   3  11 2063.12 316.266   6
   1  -4  11 2679.49 338.572   3
   1  -4  11 2271.85 255.315   1
  -4   3  11 2915.66 396.282  13
  -3   4  11 2082.38 331.580  13
   1  -4  11 1988.77 277.414  12
   4  -1  11 2293.21 225.603   4
   3   1  11 1865.94 200.881   4
  -1  -3  11 2064.31 221.449   1
   4  -1  11 2465.81 257.516   1
   3   1  11 1928.36 218.688   1
  -3   4  11 2409.55 333.053   6
  -1  -3  11 2437.93 302.644  12
  -1  -3  14 316744. 6387.15   3
  -3   4  14 255516. 6368.91  13
   1  -4  14 273613. 6175.83   3
  -1  -3  14 261397. 5730.22  13
  -4   3  14 286217. 6605.69  13
   1  -4  14 271650. 6272.69  12
   3   1  14 269612. 5983.37   1
   3   1  14 285004. 5873.27   4
  -1  -3  14 274200. 6088.89   1
  -1  -3  14 305505. 6322.84  12
   4  -1  14 271937. 6011.35   1
  -4   3  14 280281. 6431.41   6
   1  -4  14 296640. 6190.56   1
  -3   4  14 273747. 6368.81   6
  -1  -3  14 287171. 6276.18   6
  -3   4  17 945.175 274.128   6
  -1  -3  17 1026.57 169.251   6
   1  -4  17 1207.16 252.131   1
  -3   4  17 764.490 253.384  13
  -4   3  17 1519.46 321.579  13
  -4   3  17 1461.85 352.171   6
  -1  -3  17 1289.51 252.701   1
   1  -4  17 1015.53 232.891  12
  -3   4  17 984.678 211.269   1
  -1  -3  17 1221.15 243.196   3
   1  -4  17 1138.37 224.202   3
   4  -1  17 1031.25 218.178   1
   3   1  17 1373.95 228.719   1
  -3   4  20 153921. 4161.88  13
  -4   3  20 163901. 4371.11  13
   1  -4  20 158227. 3930.01   3
  -1  -3  20 171572. 4218.98   1
  -3   4  20 150265. 3954.04   1
   3   1  20 163650. 3843.14   1
   4  -1  20 169237. 3899.98   1
   4   0 -20 153213. 3859.52  16
   4   0 -17 107.405 133.502  16
   4   0 -17 163.558 136.289   5
   4   0 -17 93.0640 126.847  11
   0  -4 -17-26.0882 122.610  16
  -4   4 -17-25.9926 89.5115   2
   4   0 -14 258712. 5587.22  15
   4   0 -14 252040. 5685.94   5
   4   0 -14 248456. 5670.38  11
  -4   4 -14 266747. 5618.58  10
  -4   4 -14 243487. 5518.97   2
   0  -4 -14 247097. 5706.11   3
   4   0 -14 243319. 5649.76  16
   0  -4 -11 18.6637 139.306   3
   4   0 -11-44.5402 92.0574  11
   4   0 -11 209.831 133.055  14
  -4   4 -11 79.6670 105.302  10
   4   0 -11 154.862 117.277  15
   0  -4 -11 90.1604 93.7635   8
   4   0 -11 156.711 130.978   5
   4   0 -11 329.175 138.333  16
  -4   4 -11 3.91637 110.205   2
   0  -4  -8 333406. 7136.31   3
   4   0  -8 320121. 7080.12   5
  -4   4  -8 330681. 7166.98  10
  -4   4  -8 339278. 7094.09   2
   4   0  -8 344349. 7011.36  16
   4   0  -8 328227. 7167.75  15
  -4   4  -5-1.32297 52.2674  13
   0  -4  -5 11.3636 149.228   3
   0  -4  -5 1.99687 116.821  12
   4   0  -5 36.9457 91.4264   5
   4   0  -5 114.172 123.748   4
   0  -4  -5 140.613 93.7818   8
   4   0  -5 296.411 145.964  15
  -4   4  -5 22.8587 115.805   2
  -4   4  -5 8.99922 101.653   6
   4   0  -5 146.969 83.6997  14
  -4   4  -2 395950. 8575.66   6
   0  -4  -2 407320. 8460.97  12
   4   0  -2 392949. 8372.41   5
   4   0  -2 427097. 8487.28   4
  -4   4  -2 428353. 8614.43   2
   4   0  -2 395522. 8193.28   7
  -4   4  -2 387945. 8349.96  13
   4   0  -2 372988. 8242.91  14
   4   0  -2 410557. 8562.28  15
   4   0   1 125.584 124.506  14
  -4   4   1 187.372 179.817   6
  -4   4   1 147.086 110.599  13
   0  -4   1 26.0926 158.720   3
   0  -4   1 135.431 154.693  12
   4   0   1 70.7214 95.5302   5
   4   0   1-0.30670 93.6936   4
   4   0   1-61.3497 133.861   1
   4   0   1 132.692 125.115  15
  -4   4   1-76.7283 111.776   2
   4   0   4 343371. 7798.46   4
  -4   4   4 405127. 8029.57   2
   4   0   4 395563. 8208.60   1
   0  -4   4 436128. 7689.98   7
  -4   4   4 344692. 7976.62   6
   4   0   4 336560. 7891.85  15
   0  -4   4 380821. 7966.61  12
  -4   4   4 347588. 7910.12  13
   0  -4   4 364208. 7923.56   3
  -4   4   7 92.3774 165.171   6
  -4   4   7 120.694 143.861  13
   4   0   7-123.244 160.308   1
   0  -4   7 134.122 128.605  12
   0  -4   7 119.799 143.369   3
   0  -4   7 405.291 80.8222   1
   4   0   7 214.541 100.611   4
   4   0   7-43.4364 105.027  15
   0  -4  10 394198. 7663.37   3
  -4   4  10 345692. 7618.69  13
   0  -4  10 368126. 7161.64   1
   0  -4  10 307417. 7296.55  12
   4   0  10 332489. 7174.40   4
   4   0  10 333260. 7220.66   1
  -4   4  10 335013. 7539.45   6
  -4   4  13-27.5441 196.175   6
  -4   4  13-47.4901 205.070  13
   0  -4  13 483.975 156.751  12
   0  -4  13 126.326 168.505   3
   4   0  13 137.223 117.640   1
   4   0  13 129.906 90.4155   4
   0  -4  13 54.4948 112.069   1
  -4   4  16 197877. 4960.67  13
   4   0  16 187906. 4343.87   1
  -4   4  16 192163. 4855.70   6
   0  -4  16 185070. 4327.89   6
  -4   4  19 50.6319 190.294  13
   0  -4  19-119.119 105.476   3
   4   0  19 26.0120 113.098   1
  -4   4  19-172.719 184.675   1
  -5   0 -17 51.4199 140.467   2
   5  -5 -17-192.423 152.885  16
   5  -5 -17 155.076 120.919  11
   0   5 -17 494.365 201.857  10
   5  -5 -17-4.74062 128.583   8
   5  -5 -17 132.010 158.061  15
   5  -5 -14 194228. 4874.43  15
   5  -5 -14 196112. 4360.20   5
   5  -5 -14 196929. 4676.75  11
  -5   0 -14 170492. 4503.57   2
   0   5 -14 209947. 4759.64  10
   5  -5 -14 204561. 4614.69   8
   5  -5 -14 183250. 4647.17  16
   0   5 -14 197510. 4713.92  14
  -5   0 -11-48.6202 122.892   2
   0   5 -11 113.594 133.422  10
   5  -5 -11-16.6727 125.185   8
   5  -5 -11-87.0504 171.936  15
   0   5 -11 16.3968 140.507  14
   5  -5  -8 298808. 6984.24  15
   0   5  -8 333327. 6595.56   4
   0   5  -8 288343. 6846.35  10
   5  -5  -8 310327. 6807.70   8
  -5   0  -8 317735. 6834.13   2
   0   5  -8 327103. 7011.73  14
   5  -5  -5 36.0413 126.597  15
  -5   0  -5-53.7482 89.8419   6
  -5   0  -5 160.330 120.962   2
   5  -5  -5 105.640 98.6343  12
   0   5  -5-31.9814 96.9854  10
   0   5  -5 267.031 109.654   4
   5  -5  -5 428.885 186.512   8
   5  -5  -5 72.2539 132.069   7
   0   5  -5-116.556 117.789  14
   0   5  -2 224160. 5006.04  10
   0   5  -2 219100. 4948.79   4
  -5   0  -2 247266. 4876.45   3
   5  -5  -2 209697. 5249.12   7
   5  -5  -2 232409. 5166.65  15
  -5   0  -2 241244. 5021.80   2
  -5   0  -2 231649. 4902.90   6
   5  -5  -2 215970. 4904.13   3
   0   5  -2 239679. 5041.81  14
  -5   0   1 98.8831 103.615   6
  -5   0   1 127.881 82.4240   2
  -5   0   1-75.2395 96.6337  13
   5  -5   1 43.9210 105.981   3
   0   5   1 80.2359 82.7466  10
   0   5   1 388.082 115.493   4
   0   5   1-5.06002 82.2272  14
  -5   0   1 0.76243 48.3479   3
   5  -5   1-11.5178 89.8168  15
   5  -5   4 365986. 8013.88   3
  -5   0   4 368027. 7894.01  13
   5  -5   4 387463. 8011.43   1
   0   5   4 365505. 8010.23  14
   0   5   4 368174. 7957.17   4
  -5   0   4 402600. 7741.35   2
   5  -5   4 365403. 7898.85  15
  -5   0   4 392329. 7909.87   6
   0   5   7 23.2059 128.494  14
  -5   0   7-22.3100 93.0968   6
  -5   0   7 60.4691 104.350  13
   5  -5   7 16.1436 70.7348  15
   0   5   7 83.9627 100.712   4
   5  -5   7 121.824 114.415   1
  -5   0  10 220672. 4787.70  13
  -5   0  10 219615. 4757.30   6
   5  -5  10 216038. 4699.15   1
   0   5  10 213513. 4812.91   4
   0   5  10 206367. 4883.07  14
  -5   0  13 72.9251 100.225   6
  -5   0  13 113.042 113.912  13
   5  -5  13 17.5965 97.1308   1
   0   5  13 51.7996 110.163   4
  -5   0  16 166105. 3870.69  13
   0   5  16 168532. 3927.60   4
   5  -5  16 170508. 3908.68   1
  -5   0  16 168183. 3885.88   6
   4  -5 -18 166117. 4167.10  11
   4  -5 -18 167573. 4141.12  15
  -1   5 -18 190267. 4321.03  10
   5  -4 -18 167357. 4268.66   8
   4  -5 -18 171128. 4086.04   8
   4  -5 -18 168492. 4219.23  16
  -5   1 -18 169897. 4156.43   2
   5  -4 -18 149886. 4213.19  16
  -4  -1 -18 170533. 4279.62   2
   5  -4 -18 157477. 4316.55  15
  -5   1 -15 515.157 199.716   2
  -4  -1 -15 501.111 194.505   2
   5  -4 -15 558.127 144.585   5
   4  -5 -15 666.823 188.606  11
   5  -4 -15 651.879 189.139  11
  -1   5 -15 869.154 224.365  10
   1   4 -15 1230.87 275.637  10
   5  -4 -15 1016.33 256.540  15
   5  -4 -15 580.983 212.107   8
   4  -5 -15 910.868 201.802   8
   4  -5 -15 659.010 197.436  16
   5  -4 -15 489.808 178.732  16
   4  -5 -15 578.966 205.871  15
   1   4 -15 602.851 206.339  14
  -1   5 -15 744.507 193.030  14
   4  -5 -12 248323. 5417.59  15
   5  -4 -12 231499. 5242.30  16
   5  -4 -12 238339. 5256.82   5
   5  -4 -12 238432. 5223.76  11
  -1   5 -12 224729. 5243.69  10
   1   4 -12 242098. 5421.67  10
   5  -4 -12 229985. 5369.87   8
   4  -5 -12 235412. 5167.56   8
  -1   5 -12 227917. 5354.91  14
  -5   1 -12 198549. 5098.38   2
   5  -4 -12 234274. 5571.93  15
  -4  -1 -12 211212. 5272.63   2
   1   4 -12 229938. 5378.55  14
  -5   1  -9 1165.37 217.844   2
  -4  -1  -9 1226.71 238.168   3
   1   4  -9 1193.57 224.136  14
  -4  -1  -9 1081.43 159.524  11
   5  -4  -9 1422.24 197.048  11
   1   4  -9 1594.21 177.235   4
  -1   5  -9 937.298 183.300  10
   1   4  -9 1496.15 256.965  10
   5  -4  -9 1330.77 233.201   8
   4  -5  -9 1461.53 229.689   8
   5  -4  -9 1440.01 211.163  16
   4  -5  -9 2059.80 318.724  15
   5  -4  -9 1683.11 286.496  15
  -1   5  -9 1104.81 251.456  14
  -5   1  -6 334719. 7053.37  13
   4  -5  -6 394027. 7236.80  12
   1   4  -6 332944. 7176.86   4
  -1   5  -6 303281. 7243.76  10
  -1   5  -6 360346. 7195.72   4
   1   4  -6 320123. 7324.43  10
   4  -5  -6 342753. 7590.41  15
   5  -4  -6 318302. 7322.18   8
   4  -5  -6 353317. 7353.19   8
   4  -5  -6 359592. 7423.13   7
  -4  -1  -6 315802. 7314.64   3
   5  -4  -6 369854. 7560.10   7
  -5   1  -6 328173. 7234.72   2
   5  -4  -6 319528. 7423.18  15
   4  -5  -6 369535. 7096.74   3
  -5   1  -6 369444. 7094.41   6
  -1   5  -6 340797. 7526.98  14
   1   4  -6 328760. 7334.42  14
  -4  -1  -6 342100. 7055.09   6
  -5   1  -3 1976.09 191.307  13
   4  -5  -3 1995.05 251.617  12
   1   4  -3 1779.36 216.351   4
  -1   5  -3 1588.33 199.224  10
   1   4  -3 2234.61 236.155  10
  -1   5  -3 1596.19 182.142   4
  -4  -1  -3 1931.66 227.843   3
   4  -5  -3 2432.04 320.945   7
  -5   1  -3 1900.10 208.941   2
   5  -4  -3 1629.77 251.084   7
   5  -4  -3 2409.24 278.612  15
   4  -5  -3 2005.16 282.958  15
  -5   1  -3 2073.59 217.972   6
   4  -5  -3 1965.89 227.395   3
  -1   5  -3 2055.23 268.320  14
   1   4  -3 1873.21 216.913  14
  -4  -1  -3 1979.50 217.683   6
   5  -4   0 310843. 6763.15   3
  -5   1   0 330115. 6748.17  13
   5  -4   0 290740. 6935.40   1
   4  -5   0 338267. 7183.92  12
  -1   5   0 314192. 6757.18  10
   1   4   0 318154. 6853.37   4
  -4  -1   0 365298. 6943.89   6
   1   4   0 331442. 6777.62  10
  -1   5   0 323278. 6799.34   4
  -5   1   0 335168. 6722.93   2
   4  -5   0 307682. 7175.69   7
  -4  -1   0 361330. 6785.17   3
   4  -5   0 328449. 6992.27  15
   5  -4   0 316911. 6891.05  15
  -5   1   0 300842. 6738.05   6
  -1   5   0 346789. 6918.88  14
   1   4   0 330070. 6872.49  14
   4  -5   0 283888. 6891.61   3
  -5   1   3 2213.10 214.076  13
   5  -4   3 1838.80 278.260   1
   4  -5   3 2183.67 319.342   3
  -1   5   3 1983.59 189.678  10
   1   4   3 1684.13 212.631   4
   1   4   3 2090.33 260.498  14
   1   4   3 2467.44 193.748  10
   4  -5   3 1929.55 224.474   1
  -1   5   3 1682.78 211.483   4
  -5   1   3 2015.02 175.949   2
   4  -5   3 1981.24 232.449  15
  -4  -1   3 2063.83 187.664   3
   5  -4   3 2019.14 229.729  15
  -4  -1   3 2451.24 266.132   6
  -5   1   3 1685.15 202.749   6
  -1   5   3 1675.79 218.037  14
   5  -4   6 335491. 7218.65  15
   4  -5   6 320171. 7439.21   3
  -4  -1   6 351537. 7465.75  13
  -5   1   6 327266. 7277.51  13
   4  -5   6 358947. 7237.09   1
   5  -4   6 330511. 7314.12   1
  -1   5   6 354821. 7102.19  10
   1   4   6 343753. 7368.06   4
   1   4   6 309469. 7438.87  14
  -1   5   6 348170. 7403.42   4
  -5   1   6 346965. 7030.21   2
   4  -5   6 360974. 7233.51  15
  -4  -1   6 381897. 7109.38   3
  -4  -1   6 367900. 7124.15   2
  -5   1   6 337337. 7278.70   6
  -4  -1   6 357477. 7367.31   6
  -1   5   6 331089. 7455.33  14
  -1   5   9 1324.87 228.129  14
  -4  -1   9 1440.81 200.897   6
  -5   1   9 1527.79 215.788  13
   5  -4   9 1474.73 203.003   1
  -4  -1   9 1416.10 214.634  13
   4  -5   9 1370.63 216.339   3
   4  -5   9 1446.01 173.826   1
   1   4   9 1546.34 216.457   4
  -1   5   9 1564.69 223.911   4
  -5   1   9 1872.15 223.991   6
  -5   1  12 230809. 5082.33  13
  -4  -1  12 233428. 5050.92  13
   1   4  12 229402. 5050.19   4
  -1   5  12 214872. 5060.04   4
   5  -4  12 232990. 5055.77   1
   4  -5  12 242352. 4986.08   1
  -5   1  12 220509. 4989.59   6
  -4  -1  12 223433. 5024.69   6
  -5   1  15 923.349 185.106   6
  -4  -1  15 908.281 181.434   6
  -5   1  15 787.548 187.874  13
   5  -4  15 903.351 202.992   1
   4  -5  15 784.281 176.889   1
  -4  -1  15 882.737 161.275  13
   1   4  15 771.057 163.884   4
  -1   5  15 695.320 178.254   4
  -5   1  18 152783. 3660.35  13
  -1   5  18 150808. 3654.74   4
  -5   1  18 149971. 3640.65   6
   4  -5  18 151733. 3645.08   1
  -4  -1  18 156845. 3638.76   6
  -5   2 -19 116.486 122.188   2
  -3  -2 -19 415.494 210.848   2
   5  -3 -19 165.979 93.4297   5
  -2   5 -19 426.866 182.579  10
   2   3 -19 249.597 125.595   9
   2   3 -16 217583. 5013.89   5
   5  -3 -16 188541. 4709.46   5
  -3  -2 -16 198577. 4996.07  11
   5  -3 -16 214400. 4941.57  11
  -2   5 -16 231356. 4950.55  10
   2   3 -16 195974. 4673.79   9
   5  -3 -16 211456. 4985.40  16
   5  -3 -16 218049. 5187.86   8
   3  -5 -16 201009. 4717.06   8
  -5   2 -16 205074. 4801.92   2
   2   3 -16 219033. 4938.96  14
   3  -5 -16 209303. 4898.95  16
  -3  -2 -16 191068. 4894.03  16
   3  -5 -16 207256. 4767.26  15
   5  -3 -16 197097. 5007.61  15
  -3  -2 -16 190468. 5037.01   2
  -5   2 -13 352.493 167.239   2
  -3  -2 -13 183.103 208.117   3
   2   3 -13 255.384 146.652   5
   5  -3 -13 378.744 159.749   5
  -3  -2 -13 577.946 208.267  11
   5  -3 -13 318.474 128.443  11
  -2   5 -13 387.540 154.451  10
   2   3 -13 853.299 175.568   9
   5  -3 -13 242.373 157.042   8
   3  -5 -13 339.183 152.575   8
  -3  -2 -13 352.707 182.961  16
   5  -3 -13 281.373 175.185  15
   3  -5 -13 337.365 147.819  15
   5  -3 -13 394.074 146.363  16
  -2   5 -13 402.367 154.698  14
   2   3 -13 251.797 150.350  14
  -2   5 -10 242396. 5940.47  14
   2   3 -10 298146. 6144.38   5
   3  -5 -10 263709. 5623.83  12
  -3  -2 -10 305699. 6571.12   3
   5  -3 -10 291703. 6401.75   5
   5  -3 -10 298124. 5911.56  11
   2   3 -10 266836. 5716.98   4
  -5   2 -10 252508. 5748.79  10
  -2   5 -10 251005. 5906.59  10
   5  -3 -10 269701. 6277.97   8
   3  -5 -10 267418. 5866.27   8
  -5   2 -10 251389. 5922.97   2
   5  -3 -10 300783. 5948.53  16
   5  -3 -10 269844. 6309.16  15
   3  -5 -10 281634. 5767.02   3
   2   3 -10 273931. 6091.51  14
  -5   2  -7 300.842 122.998   2
  -3  -2  -7 522.978 211.171   3
  -5   2  -7 629.112 107.565  13
   3  -5  -7 446.923 123.293   3
   2   3  -7 811.657 186.337   5
   3  -5  -7 477.071 129.368  12
   5  -3  -7 743.792 125.790  11
   5  -3  -7 535.243 185.772  15
  -2   5  -7 294.349 110.446  10
   2   3  -7 977.279 194.103  10
   2   3  -7 350.954 109.905   4
  -2   5  -7 503.571 100.226   4
   5  -3  -7 375.603 156.599   8
   3  -5  -7 537.229 158.721   8
   5  -3  -7 690.148 129.103  16
  -2   5  -7 610.998 170.481  14
   2   3  -7 634.366 159.621  14
  -5   2  -4 398268. 8336.73  13
   2   3  -4 451827. 8573.53   5
   3  -5  -4 431220. 8595.70  12
  -5   2  -4 412747. 8386.29   6
   2   3  -4 384158. 8423.10   4
  -2   5  -4 405327. 8487.81  10
   2   3  -4 391463. 8480.44  10
  -2   5  -4 395996. 8316.00   4
   5  -3  -4 388375. 8669.52   8
   5  -3  -4 462751. 8251.78  16
  -5   2  -4 405285. 8446.31   2
   3  -5  -4 475939. 8827.25   7
   5  -3  -4 391702. 8724.16   7
  -3  -2  -4 357162. 8573.14   3
   5  -3  -4 378921. 8657.11  15
  -2   5  -4 380967. 8583.44  14
   2   3  -4 378934. 8453.88  14
   3  -5  -4 402516. 8477.79   3
   2   3  -1 475.599 132.067  14
  -5   2  -1 732.883 175.371   6
  -3  -2  -1 679.920 177.939   3
  -5   2  -1 381.238 114.781  13
   5  -3  -1 459.381 158.791   1
   2   3  -1 486.505 120.657   5
   3  -5  -1 346.814 161.783   3
   3  -5  -1 353.254 139.696  12
   5  -3  -1 466.386 78.4341   3
  -2   5  -1 422.275 120.310  10
   3  -5  -1 592.102 189.574   7
   2   3  -1 389.407 126.452   4
   5  -3  -1 401.840 171.045   7
   5  -3  -1 437.234 149.549  15
  -5   2  -1 539.999 126.052   2
  -2   5  -1 883.495 176.204  14
  -2   5   2 309165. 6523.23  13
  -5   2   2 291168. 6403.45  13
   2   3   2 331155. 6294.61   1
  -3  -2   2 301504. 6438.57   3
   5  -3   2 289722. 6497.93  15
   3  -5   2 287160. 6671.82  12
   5  -3   2 316115. 6789.81   1
  -2   5   2 311190. 6441.58  10
   2   3   2 323804. 6541.86   4
  -5   2   2 304735. 6312.43   2
   2   3   2 320211. 6659.72  14
  -2   5   2 299696. 6530.22   6
  -5   2   2 307559. 6546.19   6
  -2   5   2 323656. 6527.73  14
  -2   5   5 358.014 124.325  14
   2   3   5 459.895 151.624  14
  -5   2   5 524.069 159.736   6
  -2   5   5 361.406 141.671  13
  -5   2   5 500.088 139.681  13
  -3  -2   5 303.143 111.149   3
   3  -5   5 176.785 177.228   3
   2   3   5 363.547 112.430   4
   5  -3   5 437.276 119.573  15
   3  -5   5 466.245 110.121   1
   5  -3   5 899.607 211.226   1
  -5   2   5 385.665 79.7522   2
  -2   5   5 325.979 137.065   6
   2   3   5 422.384 84.7333   1
  -2   5   8 340038. 7497.88  13
   3  -5   8 358739. 7566.12   3
  -3  -2   8 404969. 7328.85   3
  -3  -2   8 393295. 7326.00  12
  -5   2   8 325039. 7311.08   6
  -2   5   8 349527. 7062.55   1
   2   3   8 350425. 7287.19   4
   5  -3   8 331317. 7295.88   1
   3  -5   8 361865. 7098.02   1
   2   3   8 332557. 7108.63   1
  -2   5   8 309251. 7360.63  14
  -5   2   8 332390. 7340.25  13
   5  -3   8 335935. 7111.44  15
  -2   5   8 345598. 7496.33   6
  -3  -2   8 317602. 7443.24   6
  -5   2  11 486.065 174.186   6
  -3  -2  11 338.441 152.221   6
  -2   5  11 203.509 154.718  13
  -5   2  11 288.075 146.014  13
  -3  -2  11 248.101 120.271  13
   5  -3  11 338.113 155.152   1
  -2   5  11 157.115 87.2001   1
   3  -5  11 79.5459 112.270   3
   3  -5  11 204.239 97.4241   1
   2   3  11 229.706 116.984   1
   2   3  11 184.979 108.014   4
  -2   5  11 298.993 158.862   6
  -2   5  14 218502. 5205.05  13
  -2   5  14 219933. 5114.17   6
  -5   2  14 219040. 5026.54   6
  -5   2  14 225977. 5157.74  13
   3  -5  14 220130. 5077.43   3
  -3  -2  14 215877. 4840.28  13
   2   3  14 223356. 4927.51   4
   5  -3  14 229947. 5019.92   1
   2   3  14 220600. 4869.69   1
  -3  -2  14 225213. 5056.01   6
  -5   2  17 111.841 124.431   6
  -3  -2  17 150.393 107.293   6
  -2   5  17 25.3491 122.862  13
  -5   2  17 200.459 161.577  13
   5  -3  17 168.390 133.162   1
   3  -5  17 42.1239 109.582   3
   2   3  17 72.4409 99.2208   1
  -2   5  17 13.0111 115.145   4
   3   2 -17 91.2302 142.144   5
   5  -2 -17 248.568 150.323   5
  -2  -3 -17 50.7113 152.817  11
  -3   5 -17 248.185 134.115  10
   3   2 -17 135.653 116.926   9
   2  -5 -17 150.766 124.589   8
   2  -5 -17 349.968 169.680  16
  -2  -3 -17 117.978 163.954  16
   2  -5 -17 112.329 119.056  15
   5  -2 -17 183.292 121.108  15
  -5   3 -17 11.6878 122.519   2
   3   2 -14 240407. 5400.18   5
   5  -2 -14 232033. 5453.00   5
   5  -2 -14 244060. 5456.81  16
  -3   5 -14 230873. 5193.78   2
  -3   5 -14 260631. 5449.80  10
   3   2 -14 216575. 5183.09   9
  -5   3 -14 238912. 5328.79   2
   2  -5 -14 232588. 5233.54   8
  -2  -3 -14 216146. 5570.11   3
   2  -5 -14 231157. 5169.71   3
   5  -2 -14 232088. 5539.24  15
   3   2 -14 258366. 5536.58  14
  -5   3 -11 304.693 154.176   2
  -2  -3 -11 60.2733 208.870   3
   2  -5 -11 224.751 120.603   3
   3   2 -11 163.724 148.345   5
   5  -2 -11 131.848 126.032   5
   5  -2 -11 108.198 98.6390  11
  -5   3 -11 252.354 113.877  10
  -3   5 -11 303.437 117.663  10
   3   2 -11 323.236 121.407   9
   5  -2 -11 277.765 155.183   8
   2  -5 -11 184.481 107.145   8
   5  -2 -11 291.020 117.803  16
   5  -2 -11 114.777 134.915  15
  -3   5 -11 187.011 116.678   2
   3   2 -11 300.594 120.927  15
   3   2 -11 167.212 133.468  14
   3   2  -8 357626. 7212.84   5
   2  -5  -8 328896. 7021.79  12
   5  -2  -8 349913. 7500.99   5
   3   2  -8 326545. 7059.15   4
   5  -2  -8 315675. 7423.89  15
  -3   5  -8 340113. 7206.60   2
  -3   5  -8 321126. 7132.46  10
   3   2  -8 327576. 6964.65   9
  -3   5  -8 312486. 7056.39  14
   5  -2  -8 341534. 7309.73   8
  -5   3  -8 382820. 7379.86   2
   2  -5  -8 344761. 7105.87   8
   5  -2  -8 362474. 7055.08  16
  -2  -3  -8 342976. 7588.75   3
   2  -5  -8 327512. 7054.72   3
   3   2  -8 332444. 7105.66  15
   3   2  -8 329463. 7182.48  14
  -5   3  -5 622.706 149.675   6
  -5   3  -5 343.358 134.785   2
  -5   3  -5 544.036 112.337  13
  -2  -3  -5 645.420 207.678   3
   2  -5  -5 693.251 175.562   3
   3   2  -5 324.259 109.922   5
   2  -5  -5 511.904 157.391  12
  -3   5  -5 345.859 122.652  10
   3   2  -5 301.919 107.151   4
  -3   5  -5 441.888 125.170  14
   5  -2  -5 363.938 131.878   8
   5  -2  -5 371.055 129.714   7
  -3   5  -5 524.321 166.893   2
   5  -2  -5 485.660 181.266  15
   3   2  -5 248.642 117.712  15
   3   2  -5 355.472 109.452  14
  -3   5  -2 285472. 6107.07  13
   3   2  -2 299871. 6083.10   5
   2  -5  -2 311565. 6295.44  12
  -3   5  -2 285580. 6104.05  14
   3   2  -2 280191. 6169.25   4
  -5   3  -2 273563. 6092.45   2
   5  -2  -2 308201. 6270.49   8
  -5   3  -2 324606. 6163.82  13
   2  -5  -2 316815. 6326.59   7
   5  -2  -2 308258. 6410.65   7
  -3   5  -2 298118. 6246.61   6
   5  -2  -2 289079. 6493.87  15
  -2  -3  -2 238856. 6104.61   3
   3   2  -2 291138. 6226.70  15
  -5   3  -2 296957. 6198.78   6
   2  -5  -2 271408. 6267.92   3
   3   2  -2 271788. 6134.24  14
   5  -2   1 459.500 90.3150  14
   3   2   1 412.615 131.246  14
  -5   3   1 295.599 171.649   6
  -3   5   1 493.926 138.896  13
  -5   3   1 652.392 157.654  13
  -2  -3   1 600.687 162.529   3
   5  -2   1 448.460 167.915  15
  -2  -3   1 612.107 208.942  12
   3   2   1 473.817 98.7731   5
   2  -5   1 400.035 164.369   3
   2  -5   1 492.545 158.844  12
   3   2   1 426.032 139.305   4
   3   2   1 450.210 115.074   1
   5  -2   1 387.954 175.682   1
   2  -5   1 1047.75 195.208   7
  -3   5   1 375.921 152.806   6
   3   2   1 387.664 127.054  15
  -5   3   1 398.966 114.728   2
  -3   5   1 449.823 106.854  14
  -3   5   4 416987. 8718.74  13
  -5   3   4 408905. 8706.01  13
   3   2   4 481981. 8266.37   5
  -2  -3   4 419938. 8761.14  12
   2  -5   4 375020. 8637.12  12
   3   2   4 396267. 8427.11   1
   5  -2   4 458774. 9068.54   1
   3   2   4 452181. 8617.71   4
  -5   3   4 401587. 8342.13   2
  -3   5   4 413302. 8796.74   6
   5  -2   4 396450. 8589.63  15
  -5   3   4 439860. 8742.75   6
  -2  -3   4 490871. 8691.89   3
  -3   5   4 372281. 8298.13  14
   3   2   4 427749. 8752.82  14
   2  -5   4 342988. 8656.36   3
  -5   3   7 451.338 232.798   6
   5  -2   7 563.089 192.792   1
  -3   5   7 621.513 196.009  13
   3   2   7 320.038 104.767   1
  -5   3   7 443.426 201.839  13
  -2  -3   7 617.838 165.462   3
  -2  -3   7 698.638 178.733  12
   2  -5   7 499.347 186.417  12
   2  -5   7 746.486 231.579   3
   3   2   7 481.732 132.862   4
  -5   3   7 465.629 83.7218   2
   5  -2   7 620.898 131.465  15
  -3   5   7 401.808 101.756  14
  -3   5   7 432.594 181.203   6
  -3   5  10 253613. 6051.18  13
   2  -5  10 288620. 6085.25   3
  -5   3  10 254466. 6084.38  13
  -2  -3  10 254786. 5818.30  12
  -3   5  10 248113. 6004.70   6
   2  -5  10 257474. 6036.06  12
   3   2  10 260623. 5655.23   4
   5  -2  10 263966. 5749.47   1
   3   2  10 255972. 5676.91   1
   5  -2  10 275923. 5567.97  15
  -5   3  10 257743. 5981.91   6
  -2  -3  10 302578. 5861.98   3
  -5   3  13 534.389 227.979   6
  -2  -3  13 217.320 160.663   6
  -3   5  13 113.402 143.641  13
  -5   3  13 396.068 221.506  13
  -2  -3  13 485.529 111.919  13
  -2  -3  13 257.876 139.417   3
   2  -5  13 480.171 191.407  12
   5  -2  13 360.403 147.894   1
  -3   5  13 277.758 112.606   1
   2  -5  13 343.684 158.313   3
   3   2  13 381.358 133.783   1
   3   2  13 241.048 104.683   4
  -3   5  13 4.07475 173.899   6
  -3   5  16 192593. 4769.78  13
   2  -5  16 204774. 4569.07   3
  -5   3  16 192189. 4802.80  13
   2  -5  16 202889. 4647.00  12
  -3   5  16 188916. 4383.71   1
  -2  -3  16 221278. 4692.85   1
   5  -2  16 199565. 4389.01   1
   3   2  16 180005. 4263.02   1
  -3   5  16 190431. 4688.28   6
  -5   3  16 168650. 4503.20   6
  -2  -3  16 187478. 4437.46   6
  -5   3  19 345.703 174.140   6
  -3   5  19 114.305 153.456  13
  -5   3  19 218.930 149.293  13
   3   2  19 82.6242 100.988   1
   4   1 -18 171829. 4108.02   5
   5  -1 -18 173640. 4128.26   5
   1  -5 -18 171615. 4048.34  11
  -1  -4 -18 152106. 4029.83  11
  -4   5 -18 174210. 3997.76  10
  -5   4 -18 168309. 3957.98   2
   4   1 -18 163019. 4000.43   9
   1  -5 -18 172976. 4102.00  16
  -1  -4 -18 154484. 4095.33  16
   4   1 -18 151468. 3915.22  16
  -1  -4 -15 891.521 222.526   3
   1  -5 -15 1117.43 219.907   3
   4   1 -15 837.306 195.724   5
   5  -1 -15 869.793 202.278   5
  -5   4 -15 952.413 161.649  10
  -4   5 -15 1015.41 202.925  10
   4   1 -15 861.574 177.230   9
   1  -5 -15 973.544 178.693   8
  -4   5 -15 807.124 166.962   2
   5  -1 -15 1127.07 228.840  15
  -5   4 -15 1029.79 202.970   2
   4   1 -12 226880. 5184.70   5
   5  -1 -12 236108. 5302.18   5
   4   1 -12 237376. 5128.39  15
  -5   4 -12 220993. 5060.74  10
  -4   5 -12 224502. 5132.27  10
  -4   5 -12 224574. 5105.18   2
  -5   4 -12 233388. 5192.41   2
   4   1 -12 229957. 5072.08   9
   5  -1 -12 224008. 5306.89  15
   1  -5 -12 224994. 5031.44   8
  -1  -4 -12 229478. 5340.46   3
   1  -5 -12 223732. 5104.29   3
  -1  -4  -9 1544.78 259.719   3
   4   1  -9 1412.89 213.458   5
   5  -1  -9 1427.35 244.836   5
  -5   4  -9 1206.40 200.360  10
  -4   5  -9 1324.03 211.531  10
   4   1  -9 1209.87 164.482   9
   1  -5  -9 1534.99 197.944   8
   1  -5  -9 1665.76 236.248   3
  -4   5  -9 1372.83 214.002   2
   4   1  -9 1756.42 245.985  14
   5  -1  -9 1460.56 252.357  15
  -5   4  -9 1429.54 226.224   2
   4   1  -6 320508. 7063.34   5
   1  -5  -6 323818. 7099.76  12
   5  -1  -6 330163. 7268.72   5
   4   1  -6 306690. 7057.27   4
  -4   5  -6 318091. 7192.31  10
  -4   5  -6 346504. 7218.71   2
  -5   4  -6 337980. 7206.52   2
   4   1  -6 341604. 6866.73   9
   5  -1  -6 334650. 7007.22   8
   1  -5  -6 340203. 6985.56   8
  -5   4  -6 322753. 7051.84   6
  -1  -4  -6 349142. 7275.08   3
   5  -1  -6 321233. 7341.41  15
   4   1  -6 329851. 7167.06  15
   1  -5  -6 346479. 7148.83   3
   5  -1  -6 382806. 6987.06  14
   4   1  -6 324700. 7029.87  14
  -4   5  -3 1710.36 197.917  13
  -5   4  -3 1923.66 204.833  13
   4   1  -3 1518.61 184.303  14
   4   1  -3 1941.78 208.629   5
  -1  -4  -3 1984.87 267.384  12
  -1  -4  -3 1898.53 248.230   3
   1  -5  -3 2146.06 249.809  12
   1  -5  -3 2103.07 265.499   3
   5  -1  -3 2069.91 260.968   5
   4   1  -3 1970.39 228.761   4
   5  -1  -3 2333.01 321.052  15
  -5   4  -3 1947.25 263.756   2
   5  -1  -3 2117.92 185.895   8
  -1  -4  -3 2128.53 144.470   8
   5  -1  -3 1817.47 203.876   7
  -4   5  -3 1980.63 242.791   6
  -5   4  -3 2013.61 275.629   6
   4   1  -3 1842.01 247.031  15
  -4   5  -3 1487.28 240.910   2
  -4   5  -3 1762.17 151.151  14
   5  -1  -3 2094.17 177.168  14
  -4   5   0 321156. 6912.58  13
  -5   4   0 316242. 6812.25  13
   4   1   0 325333. 6684.62   5
   4   1   0 334038. 6917.15   1
  -1  -4   0 318912. 6916.00  12
   1  -5   0 331545. 6883.01  12
   5  -1   0 325942. 7123.17   1
   5  -1   0 348604. 6979.63   4
   4   1   0 318527. 6831.94   4
  -4   5   0 328390. 7038.05   2
  -5   4   0 298733. 6859.55   2
   5  -1   0 327996. 6562.13   8
   1  -5   0 341974. 6700.48   7
  -4   5   0 318299. 7040.13   6
   5  -1   0 330924. 7127.57  15
   4   1   0 300526. 6847.26  15
  -5   4   0 339694. 7041.40   6
  -1  -4   0 330272. 6881.19   3
  -4   5   0 310736. 6490.84  14
   1  -5   0 278182. 6915.29   3
   5  -1   0 326094. 6667.39  14
   4   1   0 320088. 6846.22  14
  -5   4   3 2038.52 298.702   6
  -4   5   3 1853.31 260.077  13
  -5   4   3 1962.44 260.972  13
   4   1   3 1959.97 169.336   5
  -1  -4   3 2033.43 260.178  12
   1  -5   3 2058.86 265.096  12
   1  -5   3 1872.80 277.974   3
   5  -1   3 2334.63 271.692   4
  -5   4   3 1754.44 210.576   2
   4   1   3 1543.50 205.908   4
   1  -5   3 2296.46 227.017   7
   4   1   3 2444.18 310.522  14
   5  -1   3 1893.67 268.377  15
   4   1   3 1912.49 259.680   1
   5  -1   3 1828.48 321.251   1
   4   1   3 1687.26 235.442  15
  -1  -4   3 1933.53 250.437   3
  -4   5   3 1493.90 270.561   6
  -4   5   6 326604. 7244.29  13
  -5   4   6 323792. 7231.16  13
  -1  -4   6 330761. 7132.61  12
   1  -5   6 294416. 7060.87  12
   5  -1   6 366355. 7127.12   4
   4   1   6 321480. 6991.72   4
   4   1   6 306538. 7007.35   1
   4   1   6 339212. 7163.78  15
  -4   5   6 345961. 7407.00   6
   5  -1   6 312555. 7011.70  15
  -5   4   6 316568. 7233.31   6
  -1  -4   6 337907. 7064.63   3
   1  -5   6 355827. 7295.31   3
  -4   5   9 1037.70 266.909   6
  -5   4   9 1684.07 315.434   6
  -4   5   9 1839.85 300.598  13
  -5   4   9 1814.26 329.468  13
   5  -1   9 1283.55 214.111   1
   4   1   9 1088.26 196.669   1
  -1  -4   9 1238.00 209.674  12
  -1  -4   9 1393.95 220.236   3
   1  -5   9 1223.30 228.580  12
   1  -5   9 1283.44 246.467   3
   5  -1   9 1977.30 245.398   4
   4   1   9 1445.09 205.533   4
   5  -1   9 1270.69 178.115  15
  -4   5  12 217549. 5460.04  13
  -5   4  12 242944. 5670.97  13
  -1  -4  12 221270. 5184.03  12
   1  -5  12 218535. 5264.74  12
   4   1  12 231450. 4990.52   4
   5  -1  12 217787. 5021.51   1
   4   1  12 221529. 5004.13   1
  -4   5  12 233205. 5525.29   6
  -5   4  12 232901. 5511.37   6
  -1  -4  12 244326. 5267.09   3
  -5   4  15 872.368 323.121   6
  -1  -4  15 556.677 174.293   6
  -4   5  15 817.739 253.596  13
  -5   4  15 885.010 324.392  13
  -4   5  15 607.630 266.975   6
   5  -1  15 701.552 177.326   1
   1  -5  15 653.501 185.684  12
  -1  -4  15 869.227 206.120   3
   4   1  15 703.067 159.836   1
   1  -5  15 595.193 192.428   3
   1  -5  18 170982. 3893.09   3
  -4   5  18 155761. 4140.55  13
  -5   4  18 170218. 4434.24  13
  -4   5  18 139964. 3653.31   1
   5  -1  18 162123. 3638.55   1
   4   1  18 152170. 3553.23   1
  -4   5  18 131632. 3964.99   6
  -5   4  18 138952. 4036.46   6
   5   0 -16 184760. 4290.00   5
  -5   5 -16 167535. 4042.65  10
  -5   5 -16 168363. 4096.86   2
   5   0 -16 177294. 4169.20   9
   0  -5 -16 183072. 4188.85   3
   0  -5 -13-78.3387 148.646   3
   5   0 -13 39.5807 127.872   5
  -5   5 -13 147.222 116.040  10
   5   0 -13 8.72061 98.2072  15
  -5   5 -13-13.4419 107.372   2
   5   0 -10 209835. 4812.86   5
   0  -5 -10 217377. 4815.95   3
  -5   5 -10 209478. 4757.59  10
  -5   5 -10 207759. 4783.99   2
   5   0 -10 212378. 4849.94  15
   0  -5  -7 302.465 159.547   3
   0  -5  -7-26.5729 111.371  12
   5   0  -7 107.831 120.656   5
   0  -5  -7-26.1646 81.1303   8
   5   0  -7 142.930 134.305  15
  -5   5  -7 213.713 132.661   2
   5   0  -7 34.5728 81.6282  14
  -5   5  -4 370091. 7760.66  13
   0  -5  -4 355135. 7837.21  12
   5   0  -4 348203. 7816.86   5
   5   0  -4 341655. 7838.63   4
  -5   5  -4 377435. 8018.31   2
   0  -5  -4 426633. 7700.64   8
   0  -5  -4 393866. 7990.29   3
  -5   5  -4 381843. 7989.66   6
   5   0  -4 351995. 7960.18  15
   5   0  -4 364295. 7660.57  14
  -5   5  -1 11.7692 107.611  13
   0  -5  -1 20.5273 126.937  12
   5   0  -1 65.7630 85.7656   5
   5   0  -1 1.03877 97.3746   4
   5   0  -1-5.93707 107.646  15
  -5   5  -1-66.9999 151.260   2
  -5   5  -1-51.8837 130.481   6
   5   0  -1 255.428 91.5871  14
  -5   5   2 221856. 5090.10  13
   5   0   2 224834. 4871.52   5
   0  -5   2 236513. 5058.81  12
   5   0   2 232638. 5262.80   1
   5   0   2 233912. 5037.85   4
  -5   5   2 219312. 5113.56   2
  -5   5   2 232049. 5290.90   6
   5   0   2 221945. 5126.56  15
   0  -5   2 204196. 4979.31   3
   5   0   2 250957. 5158.98  14
  -5   5   5 138.693 175.693   6
  -5   5   5 40.8518 131.395  13
   0  -5   5-69.9651 130.594   3
   0  -5   5-1.08154 114.955  12
   5   0   5-29.2416 60.4412   5
   5   0   5 110.554 101.338   4
   5   0   5 29.9255 132.825   1
   5   0   5 74.6233 111.167  15
  -5   5   8 303403. 6760.85  13
   0  -5   8 291829. 6483.68  12
   5   0   8 293436. 6382.14   4
   5   0   8 292872. 6553.19   1
  -5   5   8 296618. 6755.48   6
   5   0   8 292469. 6447.21  15
  -5   5  11 28.4215 203.220   6
   5   0  11 11.5305 103.676   1
  -5   5  11 27.0078 179.048  13
   0  -5  11 134.424 129.292  12
   0  -5  11-66.1264 169.681   3
   5   0  11 7.65662 85.3563   4
  -5   5  14 200975. 4961.22  13
   0  -5  14 193616. 4475.02  12
   5   0  14 182883. 4241.41   1
  -5   5  14 194035. 4854.81   6
   0  -5  14 186957. 4536.73   3
  -5   5  17 344.820 195.102   6
  -5   5  17 26.9594 194.278  13
   5   0  17 51.6180 109.752   1
   0  -5  17 543.384 183.129   3
   0   6 -12 173790. 4235.59  10
   6  -6 -12 176361. 4146.36   8
  -6   0 -12 167611. 4153.50   2
   6  -6 -12 182562. 4450.21  15
   0   6 -12 176359. 4270.85  14
  -6   0  -9 84.4358 118.270   2
   0   6  -9-10.5229 123.308  10
   6  -6  -9 125.659 128.895   8
   6  -6  -9-148.895 180.042  15
   0   6  -9 51.3334 112.255  14
  -6   0  -6 212550. 4609.77  13
   0   6  -6 222762. 4634.33   4
   0   6  -6 205850. 4792.67  10
   6  -6  -6 213406. 4772.46   8
   6  -6  -6 197566. 4748.76   7
   6  -6  -6 201234. 4924.41  15
  -6   0  -6 208522. 4722.19   2
   0   6  -6 205573. 4711.63  14
  -6   0  -3 69.1478 97.2490   6
  -6   0  -3 101.473 113.591   2
  -6   0  -3 23.5783 94.2462  13
   6  -6  -3 19.3418 122.419  12
   0   6  -3 3.24700 88.3475  10
   0   6  -3-62.2622 75.1047   4
   6  -6  -3 189.334 166.388   7
   6  -6  -3 249.108 138.798  15
   0   6  -3-31.2648 91.1947  14
  -6   0   0 246635. 5437.61  13
   0   6   0 266414. 5433.82  10
   0   6   0 243149. 5412.73   4
   6  -6   0 228274. 5779.16   7
  -6   0   0 252400. 5392.19   2
   6  -6   0 255474. 5640.41  15
  -6   0   0 264062. 5447.48   6
   0   6   0 250227. 5456.55  14
  -6   0   3-40.8771 102.854   6
  -6   0   3 24.4200 66.7239   2
   6  -6   3 126.770 109.002   3
   0   6   3 87.7384 89.3493   4
   6  -6   3-15.5487 103.340  15
   0   6   3 25.7312 88.3234  14
   6  -6   6 177744. 4219.17   3
  -6   0   6 184478. 4205.79  13
   6  -6   6 192312. 4185.23   1
   0   6   6 197697. 4301.58   4
  -6   0   6 194919. 4249.13   6
   0   6   6 183812. 4261.95  14
   0   6   9-65.8801 110.966  14
  -6   0   9-38.5040 110.967   6
  -6   0   9-16.6811 92.5720  13
   6  -6   9-2.20363 101.692   3
   0   6   9-27.5522 91.3437   4
   6  -6   9 73.7860 85.1735   1
   6  -6  12 161987. 4009.81   3
  -6   0  12 187491. 4070.44  13
   0   6  12 180456. 4058.80   4
  -6   0  12 177868. 4010.31   6
   0   6  12 168023. 4085.32  14
   5  -6 -16 152406. 3760.64  16
  -6   1 -13 903.929 206.888   2
  -5  -1 -13 663.440 212.638   2
   6  -5 -13 865.516 186.557   5
  -1   6 -13 724.340 197.446  10
   1   5 -13 730.506 214.498  10
   6  -5 -13 887.187 211.391   8
   5  -6 -13 623.247 187.883   8
   5  -6 -13 636.065 193.879  15
   6  -5 -13 1030.96 253.557  15
  -1   6 -13 884.031 236.160  14
   1   5 -13 743.190 207.792  14
  -1   6 -10 202424. 4802.97  10
   1   5 -10 219512. 5027.08  10
   6  -5 -10 209627. 4873.38   8
   5  -6 -10 217400. 4789.86   8
  -6   1 -10 202013. 4763.62   2
   5  -6 -10 229039. 4991.47  15
   6  -5 -10 205866. 5059.11  15
  -5  -1 -10 210105. 4939.00   2
  -1   6 -10 211712. 5030.76  14
   1   5 -10 202103. 4833.74  14
  -6   1  -7 814.514 173.009   2
  -5  -1  -7 680.770 168.513   3
  -5  -1  -7 1067.21 233.439   2
  -1   6  -7 995.854 187.326  10
   1   5  -7 861.294 202.811  10
   1   5  -7 858.881 157.332   4
   6  -5  -7 908.685 203.053   8
   5  -6  -7 1030.16 205.150   8
   5  -6  -7 991.581 234.955  15
   6  -5  -7 1076.22 232.326  15
  -1   6  -7 1443.84 258.748  14
   1   5  -7 793.556 158.265  14
   1   5  -4 259920. 5793.75  14
  -6   1  -4 268880. 5664.13  13
   5  -6  -4 281405. 5902.20  12
   5  -6  -4 245092. 5945.90  15
   1   5  -4 285260. 5881.16   4
  -1   6  -4 255499. 5795.02  10
  -1   6  -4 253613. 5652.87   4
   1   5  -4 270732. 5901.57  10
   6  -5  -4 275371. 5953.86   8
  -1   6  -4 282029. 5971.85  14
  -5  -1  -4 287530. 5822.88   3
   5  -6  -4 268919. 6075.12   7
   6  -5  -4 224417. 5888.06   7
  -6   1  -4 261992. 5745.16   2
   6  -5  -4 260944. 5986.72  15
  -6   1  -4 282601. 5767.78   6
  -5  -1  -4 290352. 5718.95   6
  -6   1  -1 927.679 165.022   6
  -6   1  -1 1167.83 159.764   2
  -5  -1  -1 634.423 147.240   6
  -6   1  -1 1196.88 167.793  13
  -5  -1  -1 1038.25 155.636   3
   5  -6  -1 801.450 182.848   3
   5  -6  -1 710.679 205.965  12
  -1   6  -1 888.601 155.172  10
   1   5  -1 1228.08 190.626  10
   1   5  -1 697.886 150.276   4
  -1   6  -1 800.490 143.732   4
   5  -6  -1 966.247 249.274   7
   6  -5  -1 1270.24 269.548   7
   5  -6  -1 827.479 183.813  15
   6  -5  -1 1070.54 202.366  15
  -1   6  -1 729.292 162.070  14
   1   5  -1 1050.68 175.609  14
   6  -5   2 251670. 5441.88   3
  -6   1   2 249045. 5363.70  13
   6  -5   2 241828. 5624.30   1
  -1   6   2 259579. 5346.26  10
   1   5   2 247529. 5461.56   4
  -1   6   2 248097. 5416.66   4
  -6   1   2 261157. 5296.04   2
   5  -6   2 233196. 5860.18   7
   5  -6   2 254527. 5565.91  15
   6  -5   2 249621. 5527.27  15
  -5  -1   2 268272. 5433.54   2
  -6   1   2 260265. 5425.06   6
  -1   6   2 260600. 5481.39  14
  -5  -1   2 245352. 5415.25   6
   1   5   2 262278. 5534.21  14
  -1   6   5 801.832 167.328  14
   1   5   5 584.056 164.549  14
  -6   1   5 605.807 150.822   6
  -5  -1   5 605.442 154.478   6
  -6   1   5 778.076 156.029  13
  -5  -1   5 685.006 169.115  13
   5  -6   5 785.995 194.387   3
   6  -5   5 504.714 125.754   3
   1   5   5 797.110 165.539   4
  -1   6   5 736.116 158.046   4
   5  -6   5 708.360 147.172   1
   6  -5   5 608.152 154.364   1
   5  -6   5 1044.99 180.096  15
   6  -5   5 744.666 154.680  15
   5  -6   8 194222. 4719.72   3
  -6   1   8 219087. 4691.86  13
  -5  -1   8 215954. 4755.36  13
   6  -5   8 208388. 4650.45   1
   1   5   8 220109. 4746.66   4
  -1   6   8 222309. 4785.70   4
  -6   1   8 216641. 4681.22   6
  -5  -1   8 214150. 4729.66   6
  -1   6   8 193691. 4688.86  14
   1   5   8 215146. 4826.19  14
   6  -5  11 508.749 151.340   1
  -1   6  11 380.288 145.763  14
   1   5  11 427.408 178.130  14
  -6   1  11 347.667 136.285   6
  -5  -1  11 592.559 167.802   6
  -6   1  11 369.672 133.746  13
  -5  -1  11 518.573 148.646  13
   5  -6  11 536.591 153.631   3
   1   5  11 357.253 131.768   4
  -1   6  11 459.221 147.577   4
   5  -6  14 179782. 4147.72   3
  -6   1  14 180539. 4068.83  13
  -5  -1  14 163830. 3989.77  13
   1   5  14 184406. 4071.58   4
   6  -5  14 177212. 4025.83   1
  -1   6  14 173640. 4063.19   4
  -6   1  14 173226. 4016.90   6
  -5  -1  14 181841. 4072.82   6
  -1   6  14 165125. 4111.86  14
   6  -4 -14 194528. 4651.06   5
  -2   6 -14 215593. 4717.44  10
   6  -4 -14 209141. 4991.71   8
   4  -6 -14 207174. 4576.54   8
  -6   2 -14 184366. 4617.53   2
   4  -6 -14 204389. 4560.10  15
   6  -4 -14 198282. 5100.07  15
  -4  -2 -14 186415. 4822.83   2
  -2   6 -14 197036. 4673.91  14
   2   4 -14 192415. 4666.95  14
   2   4 -11 2273.18 310.616   5
  -4  -2 -11 1834.16 320.997   3
   6  -4 -11 2344.77 337.284   5
  -2   6 -11 2343.49 279.367  10
   4  -6 -11 2559.63 282.538   8
  -6   2 -11 2233.82 280.432   2
   6  -4 -11 2125.77 330.064   8
   4  -6 -11 2152.64 255.726  15
   6  -4 -11 2624.83 393.279  15
  -2   6 -11 2452.15 319.262  14
   2   4 -11 1622.11 248.463  14
   2   4  -8 244135. 5163.25   5
   2   4  -8 213739. 4853.17   4
  -2   6  -8 222335. 4998.67  10
   6  -4  -8 219227. 5238.19   8
   4  -6  -8 227442. 4977.27   8
  -6   2  -8 214547. 4981.92   2
  -4  -2  -8 212475. 5181.96   3
   4  -6  -8 229336. 5011.08  15
   6  -4  -8 224615. 5342.96  15
   4  -6  -8 254667. 4866.10   3
  -2   6  -8 222050. 5190.71  14
   2   4  -8 210765. 5002.32  14
  -6   2  -5 3080.38 239.466  13
   4  -6  -5 3762.51 311.959  12
   2   4  -5 2837.43 271.033   4
  -2   6  -5 3838.11 310.662  10
  -2   6  -5 3628.66 254.948   4
   6  -4  -5 3603.32 358.392   8
  -6   2  -5 2790.73 271.273   2
   4  -6  -5 3744.57 346.967   7
   6  -4  -5 3301.47 354.604   7
  -4  -2  -5 3403.50 345.347   3
   6  -4  -5 2744.75 336.463  15
   4  -6  -5 3298.70 269.043   3
  -2   6  -5 2840.61 312.346  14
   2   4  -5 3259.98 291.229  14
  -4  -2  -5 2817.13 265.441   6
  -6   2  -2 290508. 6069.79  13
   4  -6  -2 280419. 6336.98  12
  -6   2  -2 330383. 6324.60   6
   2   4  -2 303149. 6278.22   4
  -2   6  -2 292538. 6145.04  10
  -2   6  -2 290528. 6074.46   4
  -6   2  -2 302345. 6125.08   2
   4  -6  -2 281662. 6443.62   7
   6  -4  -2 251038. 6307.33   7
  -4  -2  -2 314750. 6276.28   3
   6  -4  -2 290907. 6367.79  15
   4  -6  -2 266782. 6208.64   3
  -2   6  -2 290747. 6291.43  14
   2   4  -2 301684. 6231.87  14
  -4  -2  -2 250410. 6154.72   6
  -6   2   1 3567.32 278.251  13
   6  -4   1 2793.76 327.130   1
   4  -6   1 3711.58 389.283  12
  -2   6   1 3513.47 269.757  10
   2   4   1 3714.50 332.767   4
  -2   6   1 3274.36 275.217   4
  -6   2   1 3746.08 257.783   2
   4  -6   1 3426.89 403.545   7
   4  -6   1 3220.46 305.310  15
  -4  -2   1 4422.37 322.496   3
   6  -4   1 3751.35 331.545  15
  -6   2   1 3370.87 306.813   6
  -2   6   1 4347.92 350.728  14
   2   4   1 3602.57 317.561  14
   4  -6   1 3315.59 368.881   3
  -4  -2   1 2911.18 308.102   6
  -6   2   4 264745. 5619.10  13
   4  -6   4 274946. 6102.94  12
   6  -4   4 263011. 5837.77   1
  -2   6   4 266926. 5533.63  10
   2   4   4 265996. 5705.22   4
  -2   6   4 261843. 5689.90   4
  -6   2   4 264999. 5451.40   2
   4  -6   4 244008. 5634.52  15
   6  -4   4 258895. 5667.16  15
  -4  -2   4 285212. 5581.34   3
  -6   2   4 253216. 5653.96   6
  -2   6   4 275478. 5685.56  14
   2   4   4 258489. 5767.57  14
  -4  -2   4 250857. 5799.35   6
   4  -6   4 220765. 5869.68   3
   4  -6   7 2913.68 352.097   3
  -6   2   7 3179.11 297.342  13
   6  -4   7 3275.85 314.572   1
   2   4   7 2931.75 286.394   4
  -2   6   7 2818.88 298.580   4
   6  -4   7 3470.14 264.078  15
  -6   2   7 3279.15 308.339   6
  -2   6   7 2779.68 282.671  14
  -4  -2   7 2492.44 316.561   6
   2   4   7 3053.65 330.671  14
  -2   6  10 229057. 5267.57  13
   4  -6  10 236543. 5287.80   3
  -6   2  10 238096. 5188.04  13
  -4  -2  10 237723. 5255.44  13
   2   4  10 233842. 5156.98   4
   6  -4  10 231384. 5142.75   1
  -2   6  10 235071. 5266.27   4
  -6   2  10 238656. 5168.65   6
  -4  -2  10 232243. 5239.69   6
  -2   6  10 225880. 5182.00  14
   4  -6  13 1910.18 276.551   3
  -6   2  13 2010.61 263.470  13
  -4  -2  13 1955.63 232.867  13
   2   4  13 2158.63 253.155   4
   6  -4  13 2351.13 270.554   1
  -2   6  13 2162.60 281.444   4
  -6   2  13 2310.36 274.114   6
  -4  -2  13 2234.22 283.214   6
  -2   6  13 2158.53 278.758  14
   4  -6  16 158680. 3775.22   3
  -6   2  16 159320. 3725.45  13
   2   4  16 158995. 3638.52   4
   6  -4  16 162650. 3671.96   1
  -2   6  16 150566. 3697.21   4
  -6   2  16 157048. 3683.61   6
  -4  -2  16 154297. 3670.71   6
   3   3 -15 143.921 145.291   5
   6  -3 -15 126.171 130.299   5
  -3  -3 -15 158.806 169.064  11
  -3   6 -15 11.6856 103.104  10
   6  -3 -15 133.458 142.520   8
   3  -6 -15 165.474 116.306   8
   3  -6 -15 215.654 112.780  15
   6  -3 -15 82.5146 131.868  15
   3   3 -15 242.142 147.296  14
  -6   3 -15 139.140 141.959   2
   3   3 -12 233861. 5151.07   5
   6  -3 -12 224266. 5364.64   5
  -3   6 -12 224574. 5048.29  10
   6  -3 -12 214723. 5290.80   8
  -6   3 -12 223103. 5101.71   2
   3  -6 -12 219509. 4942.41   8
  -3  -3 -12 232367. 5591.94   3
   3  -6 -12 236845. 4893.04   3
   6  -3 -12 214938. 5435.64  15
   3   3 -12 204199. 5037.12  14
  -6   3  -9 109.708 123.161   2
  -3  -3  -9-16.7373 193.338   3
   3  -6  -9 301.141 129.778   3
   3   3  -9 90.1818 113.333   5
   3  -6  -9 217.798 104.764  12
   6  -3  -9 55.3505 160.737   5
  -3   6  -9 104.957 85.0493  10
   3   3  -9 191.687 94.6633   4
   6  -3  -9 218.490 138.169   8
   3  -6  -9 311.439 136.110   8
   6  -3  -9 209.337 172.288  15
  -3   6  -9 343.804 136.830  14
   3   3  -9 165.829 114.515  14
   3   3  -6 244237. 5179.12   5
   3   3  -6 246688. 5184.96  15
   3  -6  -6 254919. 5109.60  12
   3   3  -6 214722. 5029.14   4
  -3   6  -6 232882. 5128.09  10
  -3   6  -6 248765. 4912.41   4
  -6   3  -6 234810. 5123.79   2
   6  -3  -6 226638. 5340.86   8
   3  -6  -6 237499. 5102.96   8
   6  -3  -6 228025. 5155.75   7
  -3  -3  -6 195976. 5226.73   3
   6  -3  -6 230509. 5487.55  15
   3  -6  -6 234443. 5056.74   3
  -3   6  -6 240327. 5241.86  14
   3   3  -6 225239. 5130.36  14
  -6   3  -3 232.783 112.159   2
  -6   3  -3 245.334 137.707   6
  -3  -3  -3 309.189 159.906   3
  -6   3  -3 366.242 135.885  13
   3  -6  -3 348.094 162.313   3
   3   3  -3 205.279 97.0670   5
   3  -6  -3 121.879 113.740  12
  -3   6  -3 151.540 108.410  10
   3   3  -3 150.950 117.588   4
  -3   6  -3 132.816 71.7666   4
   6  -3  -3 253.774 138.217   8
   3  -6  -3 499.988 152.258   7
   6  -3  -3 513.703 180.664   7
   6  -3  -3 236.101 147.191  15
  -3   6  -3 283.463 115.364  14
   3   3  -3 182.662 105.569  14
  -6   3   0 333009. 6911.45  13
   3   3   0 372733. 6791.52   5
   6  -3   0 285015. 7009.98   1
   3  -6   0 306857. 7000.36  12
   3   3   0 354186. 7015.10   4
  -3   6   0 331362. 6878.93  10
  -6   3   0 337024. 6768.58   2
   3  -6   0 313537. 7069.88   7
   6  -3   0 298163. 6996.87   7
   6  -3   0 316526. 7014.10  15
  -3  -3   0 306663. 6825.32   3
  -6   3   0 349388. 7024.32   6
  -3   6   0 317920. 6793.10  14
   3  -6   0 275583. 6962.91   3
   3   3   0 327135. 6908.17  14
   3   3   3 205.166 115.139  14
  -6   3   3 101.805 164.978   6
  -3   6   3 465.793 136.894  13
  -6   3   3 118.605 111.378  13
  -3  -3   3 204.327 112.062   3
   3  -6   3 98.5510 171.160   3
   3  -6   3 104.017 144.516  12
   3   3   3 209.410 115.532   4
   3   3   3 170.710 68.2307   1
   6  -3   3-35.2345 174.948   1
   3  -6   3 134.589 150.072   7
   6  -3   3 237.643 133.664  15
  -6   3   3 254.394 86.0905   2
  -3   6   3 76.7828 110.084   6
  -3   6   3 174.269 90.4884  14
   3  -6   6 222545. 5526.35   3
  -3   6   6 237225. 5340.64  13
  -6   3   6 225158. 5232.82  13
  -3  -3   6 261915. 5361.03  12
   3  -6   6 240957. 5520.20  12
   3   3   6 235970. 4989.00   1
   6  -3   6 236661. 5312.37   1
   3   3   6 242133. 5185.97   4
  -3   6   6 240675. 5369.50   6
   6  -3   6 226777. 5108.16  15
  -3  -3   6 250703. 5149.69   3
  -6   3   6 220344. 5274.90   6
  -3   6   6 234927. 5053.05  14
   3   3   6 247050. 5377.99  14
   6  -3   9 366.777 147.304   1
  -6   3   9 440.956 182.883   6
   3   3   9 244.889 92.9156   1
  -3  -3   9 123.944 163.768   6
  -3   6   9 223.286 151.700  13
  -6   3   9 165.058 150.930  13
  -3  -3   9 249.854 127.264   3
  -3  -3   9 165.746 116.843  12
   3  -6   9 91.1448 145.131  12
   3  -6   9 121.914 158.162   3
   3   3   9 133.584 102.189   4
  -3   6   9 252.040 148.566   6
  -3   6  12 205626. 4974.34  13
   3  -6  12 224636. 4960.35   3
  -6   3  12 204397. 4865.25  13
  -3  -3  12 198604. 4674.16  13
   3  -6  12 229938. 5061.92  12
   3   3  12 207012. 4663.77   4
   6  -3  12 222430. 4787.60   1
  -3   6  12 198292. 4910.61   6
  -6   3  12 211379. 4847.18   6
  -3  -3  12 234250. 5118.84   6
  -6   3  15 548.068 173.405   6
  -3  -3  15 266.118 146.001   6
  -3   6  15 162.467 156.902  13
  -6   3  15 256.216 167.712  13
  -3  -3  15 330.072 104.860  13
   6  -3  15 176.866 132.712   1
   3  -6  15 184.125 136.713  12
   3  -6  15 259.961 141.694   3
   3   3  15 126.737 101.279   4
  -3   6  15 162.514 128.672   6
   4   2 -16 164852. 4004.30   5
   6  -2 -16 166169. 4096.45   5
  -4   6 -16 158950. 3834.06   2
  -6   4 -16 169335. 3953.56   2
   2  -6 -16 161386. 3790.33   8
  -2  -4 -16 150720. 4024.34  16
  -2  -4 -16 154156. 4035.10   3
   6  -2 -16 163826. 4155.26  15
  -2  -4 -13 2152.91 340.629   3
   4   2 -13 2054.59 277.257   5
   6  -2 -13 2339.33 322.269   5
  -4   6 -13 2354.53 279.056   2
  -6   4 -13 1855.45 225.503  10
  -4   6 -13 2438.14 284.086  10
  -6   4 -13 2598.58 318.203   2
   2  -6 -13 2136.07 240.336   8
   2  -6 -13 2205.37 261.680   3
   6  -2 -13 1646.78 292.823  15
   4   2 -13 2052.18 269.465  14
   4   2 -10 240043. 5269.50   5
   6  -2 -10 231287. 5470.15   5
  -4   6 -10 238419. 5297.06   2
  -6   4 -10 200042. 5116.53  10
  -4   6 -10 237263. 5230.44  10
  -6   4 -10 267380. 5476.43   2
   6  -2 -10 243129. 5339.82   8
   2  -6 -10 236274. 5130.62   8
  -2  -4 -10 242584. 5532.23   3
   2  -6 -10 243415. 5176.18   3
   6  -2 -10 234522. 5592.45  15
   4   2 -10 237089. 5206.03  15
   4   2 -10 227591. 5227.31  14
   4   2  -7 3025.06 293.477   5
   2  -6  -7 2978.30 277.386  12
   6  -2  -7 2769.98 344.438   5
   4   2  -7 2495.61 252.262   4
  -4   6  -7 2746.12 312.865   2
  -4   6  -7 3070.59 296.857  10
  -6   4  -7 2930.07 303.684   2
   6  -2  -7 3433.98 314.029   8
   2  -6  -7 2962.11 258.941   8
  -2  -4  -7 2637.71 337.479   3
   6  -2  -7 2869.81 374.212  15
   2  -6  -7 3463.16 297.060   3
   4   2  -7 3341.36 318.668  15
  -4   6  -7 3221.43 261.934  14
   4   2  -7 3129.05 281.054  14
  -6   4  -4 285304. 5497.50  13
   4   2  -4 262930. 5505.83   5
   2  -6  -4 259068. 5545.57  12
   4   2  -4 230846. 5485.49   4
  -4   6  -4 261183. 5645.90  10
  -6   4  -4 237174. 5501.13   2
   6  -2  -4 266601. 5536.28   8
   4   2  -4 243629. 5498.35  14
   6  -2  -4 277693. 5642.96   7
  -2  -4  -4 220190. 5508.15   3
   6  -2  -4 266831. 6007.11  15
  -6   4  -4 266808. 5648.63   6
   4   2  -4 247794. 5589.61  15
   2  -6  -4 246336. 5532.34   3
  -4   6  -4 268131. 5429.27  14
  -4   6  -1 3209.72 285.054  13
  -6   4  -1 4126.93 342.385  13
   4   2  -1 3491.85 261.157   5
  -2  -4  -1 3523.55 360.975  12
   2  -6  -1 4276.84 352.684  12
   4   2  -1 3375.59 308.972   4
  -6   4  -1 3547.61 297.534   2
   6  -2  -1 4068.49 296.002   8
   2  -6  -1 3605.36 284.448   7
   6  -2  -1 3794.86 366.712   7
  -4   6  -1 3695.87 340.370   6
   6  -2  -1 3825.65 394.237  15
  -2  -4  -1 3693.01 316.775   3
   4   2  -1 3480.66 318.426  15
  -6   4  -1 3160.41 328.297   6
   2  -6  -1 3466.97 350.774   3
   4   2  -1 3720.74 303.737  14
  -4   6   2 287551. 6462.17  13
  -6   4   2 306478. 6528.88  13
   4   2   2 308499. 6136.89   5
  -2  -4   2 271693. 6451.43  12
   4   2   2 327384. 6406.27   1
   2  -6   2 293557. 6503.15  12
   6  -2   2 286641. 6672.15   1
   4   2   2 300304. 6433.22   4
  -6   4   2 296396. 6295.72   2
   2  -6   2 308419. 6413.30   7
  -4   6   2 304057. 6598.94   6
   6  -2   2 286228. 6486.79  15
   4   2   2 292338. 6456.70  15
  -6   4   2 300656. 6557.33   6
  -2  -4   2 304226. 6363.31   3
   2  -6   2 249748. 6521.71   3
   4   2   2 304461. 6485.17  14
  -4   6   5 2945.25 339.351  13
  -6   4   5 3974.61 407.753  13
  -2  -4   5 2888.10 328.018  12
   2  -6   5 2773.05 330.179  12
   4   2   5 2920.77 262.667   1
   6  -2   5 3264.84 420.736   1
   4   2   5 3342.56 310.235   4
  -6   4   5 2960.42 230.839   2
   2  -6   5 4069.97 347.867   7
  -4   6   5 2883.04 361.152   6
   6  -2   5 2477.73 266.526  15
  -6   4   5 3623.92 407.421   6
  -2  -4   5 3292.48 309.637   3
   2  -6   5 3189.66 375.524   3
   4   2   5 3851.39 366.360  14
  -4   6   8 216744. 5148.09  13
  -6   4   8 219574. 5246.15  13
  -2  -4   8 202060. 5012.00  12
   2  -6   8 207934. 5094.64  12
   4   2   8 228506. 4879.96   4
   6  -2   8 245146. 5110.67   1
   4   2   8 205736. 4772.56   1
  -4   6   8 212395. 5182.20   6
   6  -2   8 225064. 4803.32  15
  -6   4   8 258458. 5455.41   6
  -2  -4   8 223798. 4892.54   3
   2  -6   8 223015. 5202.47   3
  -6   4  11 2855.01 376.319   6
  -4   6  11 2381.57 351.088  13
  -6   4  11 1511.37 295.244  13
  -2  -4  11 2512.85 319.892  12
   2  -6  11 2068.99 310.456  12
   2  -6  11 2252.17 323.933   3
   4   2  11 2251.73 242.204   4
   6  -2  11 2352.02 269.078   1
   4   2  11 1782.95 227.391   1
  -2  -4  11 2342.00 272.103   3
  -4   6  11 2037.88 327.165   6
   2  -6  14 216767. 4634.46   3
  -4   6  14 189511. 4721.16  13
  -6   4  14 185190. 4651.50  13
   2  -6  14 200592. 4616.54  12
   4   2  14 193149. 4203.49   4
   6  -2  14 193101. 4278.69   1
   4   2  14 169879. 4153.83   1
  -4   6  14 176613. 4621.55   6
  -6   4  14 173949. 4502.09   6
  -2  -4  14 202767. 4767.74   6
   5   1 -14 188522. 4315.61   5
   6  -1 -14 182399. 4386.41   5
  -5   6 -14 180293. 4232.00   2
  -6   5 -14 160053. 4050.38  10
  -5   6 -14 184520. 4202.94  10
  -6   5 -14 200730. 4377.80   2
  -1  -5 -14 184019. 4324.93   3
   1  -6 -14 185467. 4194.87   3
   6  -1 -14 175762. 4369.40  15
  -1  -5 -11 345.875 176.516   3
   1  -6 -11 500.247 156.873   3
   5   1 -11 342.094 131.855   5
   6  -1 -11 279.895 162.263   5
  -6   5 -11 399.497 134.365  10
  -5   6 -11 682.040 162.796  10
   6  -1 -11 225.612 125.317  15
   5   1 -11 591.781 164.769  15
  -5   6 -11 578.330 156.549   2
  -6   5 -11 616.586 179.984   2
   5   1  -8 215371. 4950.63   5
   1  -6  -8 204826. 4872.15  12
   6  -1  -8 213305. 5090.99   5
  -5   6  -8 223817. 5040.42  10
  -5   6  -8 219504. 5071.71   2
  -6   5  -8 240178. 5167.71   2
   1  -6  -8 243135. 4853.38   8
  -1  -5  -8 232994. 5122.40   3
   1  -6  -8 228868. 4968.17   3
   6  -1  -8 215973. 5183.41  15
   5   1  -8 212203. 5004.35  15
   5   1  -8 224116. 4902.46  14
  -1  -5  -5 743.286 180.962   3
   1  -6  -5 775.597 181.279   3
   1  -6  -5 779.562 172.208  12
   5   1  -5 435.923 130.523   5
   6  -1  -5 590.185 167.143   5
   5   1  -5 735.655 163.838   4
   1  -6  -5 1300.39 168.214   8
   6  -1  -5 946.224 224.925  15
  -5   6  -5 782.192 203.180   2
   5   1  -5 752.875 180.656  15
  -6   5  -5 747.991 182.560   2
  -6   5  -5 636.181 163.152   6
   5   1  -5 630.929 126.633  14
  -5   6  -2 252323. 5373.39  13
  -6   5  -2 271575. 5435.83  13
   5   1  -2 239343. 5258.28   5
  -1  -5  -2 250510. 5457.12  12
   1  -6  -2 244750. 5375.28  12
   6  -1  -2 237361. 5421.70   5
   5   1  -2 237253. 5356.97   4
  -5   6  -2 253424. 5690.19   2
  -6   5  -2 229913. 5404.88   2
  -5   6  -2 251009. 5522.51   6
   6  -1  -2 258011. 5681.47  15
  -6   5  -2 249989. 5563.59   6
   5   1  -2 237710. 5448.45  15
  -1  -5  -2 233076. 5347.48   3
   1  -6  -2 242307. 5429.87   3
   5   1  -2 248375. 5323.39  14
   5   1   1 871.393 166.120  14
  -6   5   1 1463.06 277.428   6
  -5   6   1 1038.82 197.579  13
  -6   5   1 881.907 199.477  13
  -1  -5   1 663.416 159.101   3
   1  -6   1 707.784 209.396   3
  -1  -5   1 1052.70 216.835  12
   1  -6   1 979.329 195.674  12
   5   1   1 972.536 141.997   5
   6  -1   1 815.145 166.089   5
   6  -1   1 753.961 171.251   4
   5   1   1 855.167 173.026   4
   6  -1   1 800.198 222.815   1
   6  -1   1 643.538 180.128  15
   5   1   1 790.370 184.920  15
  -6   5   1 768.638 171.711   2
  -5   6   1 1245.29 245.553   6
  -5   6   4 247823. 5858.69  13
  -6   5   4 256303. 5863.62  13
  -1  -5   4 256564. 5742.28  12
   1  -6   4 251942. 5719.14  12
   6  -1   4 265698. 5644.21   5
   5   1   4 261067. 5769.58   1
   6  -1   4 307104. 6379.23   1
   6  -1   4 250137. 5684.56   4
   5   1   4 255557. 5681.32   4
  -6   5   4 250118. 5579.51   2
  -5   6   4 246348. 5956.37   6
   6  -1   4 247550. 5757.48  15
  -6   5   4 276824. 6041.54   6
   5   1   4 247163. 5754.43  15
  -1  -5   4 262429. 5702.72   3
   1  -6   4 238730. 5771.24   3
   5   1   4 286948. 5908.45  14
  -6   5   7 703.475 257.659   6
  -5   6   7 970.169 243.180  13
  -6   5   7 775.264 235.991  13
  -1  -5   7 1120.08 213.452   3
  -1  -5   7 922.848 197.803  12
   1  -6   7 855.274 218.326   3
   1  -6   7 558.671 159.701  12
   6  -1   7 892.838 171.572   4
   5   1   7 722.583 161.392   4
   5   1   7 648.002 162.003   1
   6  -1   7 808.052 161.416  15
   6  -1   7 675.298 218.161   1
  -5   6   7 864.503 249.315   6
  -5   6  10 196483. 4920.71  13
  -6   5  10 206844. 5032.44  13
  -1  -5  10 182240. 4568.66  12
   1  -6  10 204118. 4729.38  12
   6  -1  10 207088. 4545.64   4
   5   1  10 204645. 4525.40   4
   6  -1  10 197808. 4560.87   1
   5   1  10 190553. 4538.39   1
  -5   6  10 202702. 4981.97   6
  -6   5  10 221092. 5109.62   6
   6  -1  10 209663. 4448.52  15
  -1  -5  10 197143. 4598.79   3
   1  -6  10 220066. 4879.83   3
  -6   5  13 685.921 271.204   6
   6  -1  13 432.044 146.142   1
   5   1  13 821.086 174.678   1
  -5   6  13 450.433 220.449  13
  -6   5  13 534.678 246.155  13
  -1  -5  13 428.389 145.122   3
   1  -6  13 566.344 180.643  12
   1  -6  13 684.614 212.191   3
  -5   6  13 565.303 245.761   6
   5   1  16 137072. 3201.02   1
  -1  -5  16 134988. 3409.18   6
   6   0 -12 177735. 4246.24   5
  -6   6 -12 174728. 4104.00  10
  -6   6 -12 190664. 4298.92   2
   0  -6 -12 186963. 4214.88   3
   6   0 -12 166108. 4195.27  15
   0  -6  -9 135.300 141.887   3
   6   0  -9 31.5702 101.074   5
  -6   6  -9 31.7406 112.158  10
   6   0  -9 11.7713 104.669  15
  -6   6  -9 82.0521 124.151   2
   0  -6  -6 192891. 4354.40  12
  -6   6  -6 204508. 4571.72   2
   0  -6  -6 198010. 4400.24   3
   6   0  -6 189622. 4503.93  15
   0  -6  -3 182.612 150.551   3
   0  -6  -3 85.1206 107.768  12
   6   0  -3-46.2430 87.7948   5
   6   0  -3-72.1135 110.369   4
   6   0  -3-35.8767 136.785  15
  -6   6  -3 54.9743 151.817   2
  -6   6  -3 74.5259 121.795   6
  -6   6   0 247385. 5444.94  13
   6   0   0 245865. 5243.69   5
   0  -6   0 242991. 5330.57  12
   6   0   0 240943. 5352.83   4
  -6   6   0 225596. 5462.42   2
  -6   6   0 249857. 5625.59   6
   6   0   0 253682. 5560.05  15
   0  -6   0 234317. 5297.26   3
   6   0   3-20.7583 97.0332  14
  -6   6   3-499.318 182.243  13
   0  -6   3 136.159 136.425   3
   0  -6   3 104.104 128.365  12
   6   0   3 74.0851 111.037   4
   6   0   3 53.2602 127.508   1
   6   0   3-114.804 134.862  15
  -6   6   3-50.3941 172.940   6
  -6   6   6 195519. 4767.41  13
   0  -6   6 197532. 4519.05  12
   6   0   6 201345. 4703.90   1
   6   0   6 191655. 4475.61   4
  -6   6   6 212806. 4977.26   6
   6   0   6 184758. 4502.33  15
   0  -6   6 199091. 4592.47   3
  -6   6   9 10.5417 187.215   6
  -6   6   9 138.855 158.904  13
   0  -6   9 114.048 127.477   3
   0  -6   9-24.8961 97.8055  12
   6   0   9 139.056 111.246   4
   6   0   9 18.1685 124.145   1
  -6   6  12 172524. 4299.80  13
   0  -6  12 145967. 3734.65  12
   6   0  12 155060. 3673.88   1
  -6   6  12 168744. 4317.47   6
   0  -6  12 163254. 3884.93   3
  -7   0  -7 66.5809 114.169   2
   7  -7  -7 3.64906 108.117   8
   7  -7  -7 40.8272 141.591  15
   0   7  -7-8.65302 95.1971  14
  -7   0  -4 157111. 3641.50  13
   0   7  -4 148437. 3553.71   4
   0   7  -4 172007. 3790.01  10
   7  -7  -4 158097. 3762.45   8
   7  -7  -4 170004. 4015.30   7
  -7   0  -4 152819. 3677.89   2
   7  -7  -4 155801. 3910.34  15
   0   7  -4 181421. 3804.51  14
  -7   0  -1-127.742 96.5564   2
  -7   0  -1 63.2488 81.3624  13
   0   7  -1 15.2351 68.7925   4
   7  -7  -1-5.48202 151.817   7
   7  -7  -1 35.6243 105.565  15
   0   7  -1 354.707 130.557  14
  -7   0   2 166103. 3788.52  13
   7  -7   2 169890. 4045.20  12
   0   7   2 169200. 3777.47   4
   7  -7   2 162568. 4102.06   7
   7  -7   2 170004. 3982.10  15
  -7   0   2 159096. 3768.93   6
   0   7   2 166458. 3802.31  14
  -7   0   5 56.9513 112.212   6
  -7   0   5-1.74761 90.6524  13
   0   7   5 5.46722 90.9298   4
   7  -7   5 82.4533 153.672   7
   0   7   5 59.6655 101.462  14
  -7   0   8 157747. 3571.58   6
   0   7   8 146416. 3514.93  14
  -1   7 -11 2363.75 295.712  10
   1   6 -11 2208.33 306.893  10
   7  -6 -11 2788.46 325.180   8
  -1   7 -11 2398.81 326.237  14
  -1   7  -8 165822. 3912.54  10
   1   6  -8 162425. 3992.41  10
   7  -6  -8 169423. 3958.31   8
   6  -7  -8 162836. 3859.71   8
  -7   1  -8 164256. 3868.45   2
   6  -7  -8 169853. 3966.56  15
   7  -6  -8 160919. 4134.98  15
  -6  -1  -8 153836. 3950.14   2
  -1   7  -8 179047. 4068.70  14
   1   6  -8 170340. 3887.40  14
   1   6  -5 2505.85 263.169   4
  -1   7  -5 2628.74 278.726  10
   1   6  -5 3251.51 317.784  10
   7  -6  -5 3257.52 339.361   8
   6  -7  -5 3141.05 316.049   8
   6  -7  -5 3141.19 347.360   7
  -7   1  -5 2742.95 273.784   2
   7  -6  -5 2427.10 311.182   7
   6  -7  -5 3281.53 350.068  15
   7  -6  -5 3155.98 364.246  15
  -6  -1  -5 2774.71 314.434   2
  -1   7  -5 2925.26 308.804  14
   1   6  -5 3276.06 302.520  14
  -7   1  -2 199928. 4488.02  13
   6  -7  -2 218649. 4877.82  12
   1   6  -2 196111. 4532.13   4
  -1   7  -2 214235. 4605.90  10
  -1   7  -2 199467. 4469.31   4
  -7   1  -2 196616. 4498.03   2
   6  -7  -2 205595. 4956.28   7
   7  -6  -2 181848. 4810.62   7
   6  -7  -2 192868. 4695.25  15
   7  -6  -2 216337. 4863.38  15
  -6  -1  -2 207404. 4657.64   2
  -1   7  -2 215965. 4656.25  14
  -6  -1  -2 228554. 4580.20   6
   1   6  -2 221327. 4641.90  14
  -7   1   1 3471.78 287.907  13
  -6  -1   1 2971.77 315.986  13
   6  -7   1 3802.17 419.387  12
   1   6   1 3114.38 282.680   4
  -1   7   1 3015.91 267.793   4
  -7   1   1 3123.46 248.169   2
   6  -7   1 2905.87 400.479   7
   7  -6   1 2600.19 361.089   7
   6  -7   1 3144.07 319.264  15
   7  -6   1 2887.10 322.586  15
  -6  -1   1 3165.20 281.804   2
  -7   1   1 2996.80 283.542   6
  -6  -1   1 3096.41 287.754   6
  -1   7   1 3373.92 299.629  14
   1   6   1 3226.06 305.094  14
  -7   1   4 170686. 3849.14  13
  -6  -1   4 165406. 3944.57  13
   7  -6   4 160147. 3895.33   1
   6  -7   4 187675. 4239.55  12
   1   6   4 167625. 3890.02   4
  -1   7   4 174687. 3893.52   4
   6  -7   4 174411. 4234.64   7
   7  -6   4 185896. 3997.51  15
  -7   1   4 168904. 3880.33   6
  -6  -1   4 172934. 3920.41   6
  -1   7   4 169368. 3909.31  14
   1   6   4 174312. 3931.35  14
   6  -7   4 155885. 3957.42   3
   6  -7   7 2189.96 269.801   3
  -7   1   7 2151.13 240.473  13
  -6  -1   7 2310.03 272.326  13
   7  -6   7 2380.34 249.025   1
   1   6   7 2819.19 285.400   4
  -1   7   7 2692.91 279.692   4
  -7   1   7 2703.46 280.068   6
  -6  -1   7 2392.98 272.911   6
  -1   7   7 2419.51 261.059  14
   1   6   7 2359.65 266.394  14
   6  -7  10 131006. 3737.40   3
   7  -6  10 156351. 3752.32   3
  -7   1  10 176500. 3826.70  13
  -6  -1  10 178064. 3886.33  13
   7  -6  10 162203. 3744.92   1
   1   6  10 176040. 3851.52   4
  -1   7  10 175480. 3880.83   4
  -7   1  10 171695. 3817.36   6
  -6  -1  10 181631. 3899.73   6
  -1   7  10 147588. 3737.92  14
   1   6  10 167188. 3862.54  14
   7  -5 -12 168575. 3988.54   5
  -2   7 -12 163566. 3865.62  10
   7  -5 -12 162588. 4036.32   8
   5  -7 -12 170788. 3817.27   8
  -7   2 -12 156814. 3839.07   2
   5  -7 -12 166646. 3798.91  15
   7  -5 -12 162231. 4276.05  15
  -5  -2 -12 160901. 4080.57   2
  -2   7 -12 159576. 3973.22  14
   2   5 -12 149157. 3816.95  14
  -7   2  -9 218.517 131.009   2
  -5  -2  -9 115.765 122.739   3
  -2   7  -9 153.100 105.685  10
   7  -5  -9 275.257 147.904   8
   5  -7  -9 251.611 124.158   8
   5  -7  -9 290.189 124.390  15
   7  -5  -9 125.669 126.284  15
  -2   7  -9 129.605 152.613  14
   2   5  -9 177.136 117.750  14
   2   5  -6 181916. 4230.98   4
  -2   7  -6 194433. 4304.74  10
   7  -5  -6 179220. 4400.57   8
  -7   2  -6 188353. 4263.78   2
   5  -7  -6 191445. 4291.05   8
  -5  -2  -6 199083. 4417.90   3
   7  -5  -6 181644. 4352.65   7
   5  -7  -6 192355. 4297.66  15
   7  -5  -6 195351. 4604.35  15
  -2   7  -6 187231. 4431.43  14
   2   5  -6 191215. 4285.01  14
  -7   2  -3 374.623 120.785   2
  -5  -2  -3 460.732 135.783   6
  -5  -2  -3 404.837 150.903   3
  -7   2  -3 464.143 122.840  13
   5  -7  -3 430.911 139.042   3
   5  -7  -3 559.263 178.055  12
  -2   7  -3 445.338 120.582  10
   2   5  -3 467.337 140.471   4
  -2   7  -3 233.595 83.8535   4
   7  -5  -3 584.870 179.960   8
   5  -7  -3 520.459 208.527   7
   7  -5  -3 1202.72 239.887   7
   5  -7  -3 496.908 154.803  15
   7  -5  -3 435.801 158.713  15
  -2   7  -3 705.220 173.760  14
   2   5  -3 456.660 135.895  14
  -7   2   0 217696. 4749.63  13
   5  -7   0 206535. 5125.07  12
   2   5   0 227575. 4894.02   4
  -2   7   0 219466. 4766.83  10
  -2   7   0 216215. 4748.22   4
  -7   2   0 213196. 4684.56   2
   5  -7   0 212894. 5212.09   7
  -5  -2   0 259301. 4882.10   3
   7  -5   0 198456. 5083.30   7
   5  -7   0 213142. 4895.48  15
   7  -5   0 217183. 4988.97  15
  -7   2   0 200052. 4805.90   6
   5  -7   0 205476. 4964.69   3
  -2   7   0 236043. 4964.26  14
   2   5   0 241679. 4929.62  14
  -5  -2   0 217380. 4894.28   6
   2   5   3 512.180 146.359  14
  -7   2   3 740.219 183.920   6
  -5  -2   3 731.431 176.251   6
  -7   2   3 273.299 115.440  13
   5  -7   3 345.363 181.682   3
   5  -7   3 479.561 218.125  12
   2   5   3 282.980 123.174   4
   7  -5   3 384.167 153.500   1
  -2   7   3 286.149 109.896   4
   5  -7   3 638.358 236.557   7
   5  -7   3 471.580 141.113  15
   7  -5   3 423.164 146.587  15
  -2   7   3 587.376 151.383  14
  -7   2   6 195721. 4321.18  13
  -5  -2   6 202396. 4583.88  13
   5  -7   6 216567. 4722.23  12
   7  -5   6 183656. 4356.08   1
   2   5   6 203385. 4422.46   4
  -2   7   6 194693. 4380.26   4
  -7   2   6 197145. 4383.77   6
  -2   7   6 197726. 4351.85  14
  -5  -2   6 190727. 4429.24   6
   2   5   6 194624. 4402.70  14
  -2   7   9 484.929 134.869  14
   2   5   9 282.044 139.070  14
  -7   2   9 447.060 146.235   6
  -5  -2   9 493.566 157.654   6
  -7   2   9 457.558 137.520  13
  -5  -2   9 200.628 125.731  13
   5  -7   9 631.614 182.176  12
   5  -7   9 373.507 153.674   3
   2   5   9 364.124 133.670   4
  -2   7   9 252.597 141.386   4
   7  -5   9 376.878 127.663   1
   5  -7  12 151605. 3759.35   3
  -7   2  12 153560. 3663.00  13
  -5  -2  12 154641. 3696.26  13
   7  -5  12 158273. 3674.61   1
   2   5  12 160109. 3685.40   4
  -2   7  12 148462. 3693.38   4
  -7   2  12 153789. 3649.54   6
  -5  -2  12 158220. 3754.35   6
   2   5  12 153277. 3777.87  14
  -7   3 -13 617.507 168.606   2
  -4  -3 -13 897.552 234.185   3
   7  -4 -13 573.871 193.908   5
  -3   7 -13 839.376 177.028  10
   7  -4 -13 802.299 235.898   8
   4  -7 -13 702.809 161.984   8
   4  -7 -13 814.191 168.807  15
   7  -4 -13 1048.57 276.293  15
   3   4 -13 674.172 162.208  14
   3   4 -10 207613. 4598.67   5
   7  -4 -10 211825. 4987.55   5
  -3   7 -10 211070. 4554.82  10
  -7   3 -10 195523. 4511.82   2
   7  -4 -10 192255. 4852.53   8
   4  -7 -10 198405. 4429.06   8
  -4  -3 -10 182907. 4749.05   3
   4  -7 -10 204548. 4442.80  15
   7  -4 -10 204390. 5028.39  15
  -3   7 -10 190641. 4556.57  14
   3   4 -10 185871. 4508.00  14
  -7   3  -7 1089.07 190.741   2
  -4  -3  -7 1209.36 256.684   3
   4  -7  -7 1094.09 166.944   3
   3   4  -7 866.315 180.106   5
   4  -7  -7 958.953 155.083  12
  -3   7  -7 737.265 153.603  10
   3   4  -7 1219.60 177.676   4
   7  -4  -7 876.507 209.290   8
   4  -7  -7 1215.52 195.704   8
   7  -4  -7 1220.36 261.910  15
  -3   7  -7 1067.91 199.783  14
   3   4  -7 985.289 168.979  14
   4  -7  -4 205878. 4484.12  12
   3   4  -4 194437. 4439.28   4
  -3   7  -4 199883. 4402.69  10
  -3   7  -4 207618. 4274.54   4
  -7   3  -4 193034. 4350.47   2
   7  -4  -4 190533. 4652.79   8
   7  -4  -4 190437. 4622.58   7
  -4  -3  -4 199295. 4595.67   3
   7  -4  -4 202723. 4725.47  15
   4  -7  -4 192484. 4375.24   3
  -3   7  -4 196598. 4482.46  14
   3   4  -4 199440. 4426.19  14
  -7   3  -1 1539.21 264.128   6
  -4  -3  -1 1209.76 218.483   3
  -7   3  -1 1186.29 183.891  13
   4  -7  -1 1100.45 226.047   3
   4  -7  -1 1771.93 274.789  12
  -3   7  -1 1583.41 196.725  10
   3   4  -1 1347.38 207.430   4
  -3   7  -1 1078.48 157.900   4
   7  -4  -1 1786.87 264.461   8
   4  -7  -1 1504.10 268.948   7
   7  -4  -1 1171.50 231.544   7
   7  -4  -1 1389.35 244.437  15
  -7   3  -1 1136.97 163.115   2
  -3   7  -1 1297.08 190.579  14
   3   4  -1 1369.32 203.614  14
  -7   3   2 215945. 4900.16  13
   7  -4   2 209108. 5171.76   1
   4  -7   2 232798. 5293.27  12
   3   4   2 229952. 5001.38   4
  -3   7   2 227703. 4882.73  10
  -3   7   2 238933. 4965.24   4
  -7   3   2 236968. 4815.27   2
   4  -7   2 213567. 5247.13   7
   4  -7   2 222978. 4921.17  15
  -4  -3   2 249791. 5021.81   3
   7  -4   2 223360. 5043.34  15
  -7   3   2 209743. 5017.08   6
  -3   7   2 243582. 4947.09  14
   4  -7   2 191631. 5113.86   3
   3   4   2 245392. 5052.23  14
  -4  -3   2 183575. 5013.39   6
   3   4   5 1141.55 202.289  14
  -7   3   5 858.933 197.811   6
  -4  -3   5 1083.58 234.415   6
  -7   3   5 1352.72 205.525  13
   4  -7   5 1158.12 274.397  12
   4  -7   5 1171.63 273.650   3
  -3   7   5 1551.31 185.025  10
   3   4   5 1222.56 199.203   4
  -3   7   5 1277.86 203.338   4
   7  -4   5 1151.67 221.654   1
   4  -7   5 1463.16 293.894   7
   7  -4   5 1478.23 206.404  15
  -7   3   8 193166. 4396.32  13
   4  -7   8 202164. 4671.93  12
   7  -4   8 190611. 4397.13   1
   3   4   8 195606. 4366.43   4
  -3   7   8 186842. 4418.85   4
  -7   3   8 189755. 4420.88   6
   3   4   8 195403. 4476.99  14
   4  -7   8 180825. 4547.70   3
   3   4  11 1085.07 228.481  14
  -3   7  11 1076.39 209.134  13
  -7   3  11 1195.47 234.313   6
  -7   3  11 2004.34 253.752  13
  -4  -3  11 1068.22 226.162   6
  -4  -3  11 728.886 175.043  13
   4  -7  11 1333.34 240.924  12
   4  -7  11 1228.84 234.930   3
   3   4  11 980.525 180.118   4
  -3   7  11 868.439 208.800   4
   7  -4  11 1036.35 199.615   1
  -4  -3  14 130466. 3162.20  13
   3   4  14 140574. 3225.61   4
   3  -7 -14 139445. 3219.60   8
   4   3 -14 133599. 3320.40  14
  -3  -4 -11 1061.89 238.403   3
   3  -7 -11 1089.45 177.811   3
   4   3 -11 959.191 204.936   5
   7  -3 -11 958.942 244.571   5
  -4   7 -11 1043.14 185.985  10
   7  -3 -11 998.929 209.563   8
   3  -7 -11 849.955 157.428   8
   7  -3 -11 1361.35 306.111  15
  -7   4 -11 1580.98 237.740   2
   4   3 -11 892.803 173.457  14
   4   3  -8 198181. 4233.33   5
   3  -7  -8 182149. 4000.76  12
   7  -3  -8 191472. 4593.90   5
   4   3  -8 161878. 4020.69   4
  -4   7  -8 189436. 4171.01  10
  -7   4  -8 184130. 4171.93   2
   7  -3  -8 197649. 4360.04   8
   3  -7  -8 182904. 4060.70   8
  -3  -4  -8 166379. 4248.42   3
   7  -3  -8 201261. 4759.53  15
   3  -7  -8 179413. 4041.33   3
   4   3  -8 173845. 4117.98  14
  -3  -4  -5 1047.45 206.712   3
   3  -7  -5 1268.66 196.794   3
   4   3  -5 1202.30 189.485   5
   3  -7  -5 1614.28 216.137  12
  -4   7  -5 1254.16 197.262  10
   4   3  -5 1130.03 185.139   4
   7  -3  -5 1393.58 205.946   7
   7  -3  -5 1427.97 270.712  15
  -7   4  -5 1227.28 192.024   2
   4   3  -5 1032.27 171.894  14
  -7   4  -2 259370. 5151.35  13
   4   3  -2 243528. 4983.21   5
   3  -7  -2 230880. 5126.29  12
   4   3  -2 226266. 5098.07   4
  -4   7  -2 228277. 5081.98  10
  -7   4  -2 223795. 4968.49   2
   7  -3  -2 244368. 5337.53   7
  -3  -4  -2 216992. 5055.80   3
   7  -3  -2 232169. 5319.35  15
  -7   4  -2 242674. 5226.10   6
   3  -7  -2 217652. 5119.19   3
   4   3  -2 206934. 4968.23  14
   4   3   1 1322.96 201.707  14
  -4   7   1 1114.98 180.202  13
  -7   4   1 1368.51 268.371   6
  -7   4   1 1594.37 249.450  13
   7  -3   1 869.285 199.694   1
  -3  -4   1 1265.65 209.705   3
   3  -7   1 1115.57 239.198   3
   3  -7   1 1404.60 250.479  12
  -4   7   1 1257.59 198.786  10
   4   3   1 1413.68 221.949   4
   3  -7   1 1634.99 246.427   7
   7  -3   1 1251.18 235.772   7
   7  -3   1 1736.22 255.176  15
  -7   4   1 1153.24 170.204   2
  -4   7   4 193903. 4479.60  13
  -7   4   4 181838. 4465.00  13
   3  -7   4 193499. 4622.01  12
   7  -3   4 194494. 4671.08   1
   4   3   4 206776. 4449.30   4
  -7   4   4 192441. 4214.11   2
   3  -7   4 216920. 4661.97   7
  -4   7   4 202619. 4571.39   6
   7  -3   4 196227. 4427.65  15
  -3  -4   4 193713. 4331.73   3
  -7   4   4 206663. 4702.37   6
   3  -7   4 170642. 4636.38   3
   4   3   4 194302. 4428.44  14
   4   3   7 1002.52 193.282  14
  -7   4   7 811.111 219.331   6
  -4   7   7 993.754 215.217  13
  -7   4   7 681.971 181.246  13
  -3  -4   7 1264.69 194.521   3
   3  -7   7 1045.11 247.386  12
   3  -7   7 800.005 247.053   3
   4   3   7 1406.71 203.558   4
   3  -7   7 872.727 203.690   7
   7  -3   7 1076.21 216.177   1
   7  -3   7 1260.03 183.140  15
  -4   7   7 926.450 214.078   6
  -4   7  10 187639. 4642.54  13
  -7   4  10 190627. 4582.85  13
   3  -7  10 213503. 4820.47  12
   7  -3  10 206606. 4549.64   1
   4   3  10 199001. 4441.54   4
  -4   7  10 190851. 4666.54   6
  -7   4  10 190175. 4612.87   6
   4   3  10 205115. 4646.70  14
  -3  -4  10 194867. 4899.61   6
   3  -7  10 203319. 4694.79   3
  -7   4  13 760.645 205.433   6
  -3  -4  13 648.950 211.234   6
  -4   7  13 722.863 198.626  13
  -7   4  13 877.966 205.331  13
  -3  -4  13 560.897 138.036  13
   3  -7  13 756.121 189.507  12
   3  -7  13 845.273 206.686   3
   4   3  13 711.578 147.735   4
   7  -3  13 725.366 166.124   1
  -4   7  13 412.108 169.226   6
   5   2 -12 160334. 3762.52   5
   7  -2 -12 158201. 3958.11   5
  -7   5 -12 135330. 3556.04  10
  -5   7 -12 170484. 3785.21  10
  -7   5 -12 181973. 3980.57   2
  -2  -5 -12 169886. 3959.90   3
   2  -7 -12 150640. 3603.73   3
   7  -2 -12 157069. 4049.37  15
   5   2 -12 152201. 3642.17  15
  -2  -5  -9 342.906 166.188   3
   2  -7  -9 572.434 162.095   3
   2  -7  -9 519.106 134.607  12
   5   2  -9 394.345 135.677   5
   7  -2  -9 529.497 191.325   5
  -5   7  -9 407.342 123.944  10
   2  -7  -9 830.866 147.610   8
   7  -2  -9 312.541 173.150  15
   5   2  -9 516.253 142.308  15
  -7   5  -9 622.254 182.057   2
   5   2  -9 228.172 102.285  14
   5   2  -6 181724. 4149.88   5
   2  -7  -6 175848. 4086.80  12
   7  -2  -6 192533. 4475.49   5
   5   2  -6 172470. 4122.60   4
  -5   7  -6 199481. 4306.46  10
  -7   5  -6 192089. 4264.46   2
   2  -7  -6 185212. 4030.85   8
  -2  -5  -6 180241. 4240.88   3
   7  -2  -6 205650. 4697.75  15
   2  -7  -6 187754. 4152.21   3
   5   2  -6 186331. 4242.37  15
   5   2  -6 172541. 4100.72  14
  -2  -5  -3 273.558 130.642   3
   2  -7  -3 613.081 181.459   3
   5   2  -3 506.133 128.815   5
   2  -7  -3 555.159 153.607  12
   7  -2  -3 336.988 145.531   5
  -5   7  -3 313.264 138.704  10
   5   2  -3 343.729 124.227   4
   7  -2  -3 535.669 192.116  15
   5   2  -3 397.576 145.284  15
  -7   5  -3 405.484 133.280   2
   5   2  -3 271.184 107.817  14
  -7   5  -3 533.077 179.489   6
  -5   7   0 217633. 4871.48  13
  -7   5   0 238840. 5006.96  13
  -2  -5   0 214658. 4959.23  12
   2  -7   0 222856. 4930.43  12
   7  -2   0 212142. 5015.77   5
   5   2   0 221913. 4912.71   4
  -7   5   0 214321. 4823.51   2
  -5   7   0 223494. 5020.23   6
   7  -2   0 219811. 5053.88  15
  -2  -5   0 227652. 4862.81   3
  -7   5   0 210940. 5042.30   6
   5   2   0 215371. 4949.91  15
   2  -7   0 217642. 5055.41   3
   5   2   0 208981. 4816.98  14
   5   2   3 276.178 118.239  14
  -7   5   3 875.560 252.191   6
  -5   7   3 316.947 141.846  13
  -7   5   3 556.992 213.602  13
  -2  -5   3 397.428 135.211   3
   2  -7   3 458.454 191.454   3
  -2  -5   3 574.686 184.114  12
   2  -7   3 327.452 146.881  12
   5   2   3 413.132 158.693   4
   7  -2   3 212.110 144.482   1
   7  -2   3 669.060 160.996  15
  -7   5   3 497.647 128.199   2
  -5   7   3 401.450 174.476   6
  -5   7   6 182350. 4522.23  13
  -7   5   6 205051. 4747.14  13
  -2  -5   6 171652. 4386.65  12
   2  -7   6 195770. 4532.22  12
   5   2   6 191513. 4263.82   1
   7  -2   6 217304. 4796.96   1
   5   2   6 202974. 4382.84   4
  -5   7   6 193090. 4636.19   6
   7  -2   6 182443. 4295.60  15
  -7   5   6 213500. 4829.68   6
  -2  -5   6 183926. 4267.22   3
   2  -7   6 189548. 4568.32   3
   5   2   6 188509. 4401.89  14
   5   2   9 430.961 165.217  14
  -7   5   9 210.283 198.513   6
  -5   7   9 180.712 179.952  13
  -7   5   9 129.428 195.091  13
  -2  -5   9 354.726 146.208   3
  -2  -5   9 398.490 160.078  12
   2  -7   9 281.495 180.451   3
   2  -7   9 444.571 181.459  12
   5   2   9 283.500 121.171   4
   5   2   9 89.6023 84.9121   1
   7  -2   9 292.667 139.024   1
  -5   7   9 281.924 204.757   6
  -5   7  12 156206. 3953.53  13
  -7   5  12 135174. 3773.28  13
  -2  -5  12 141453. 3536.07  13
   2  -7  12 166548. 3902.24  12
   5   2  12 152952. 3515.65   4
   7  -2  12 159410. 3609.76   1
  -5   7  12 156031. 3976.83   6
  -7   5  12 146521. 3866.37   6
   2  -7  12 174099. 3912.60   3
  -2  -5  12 134579. 3938.13   6
   6   1 -10 178214. 4165.29   5
   7  -1 -10 170133. 4242.49   5
  -6   7 -10 186171. 4313.30   2
  -7   6 -10 166744. 4112.30  10
  -6   7 -10 187680. 4201.15  10
  -7   6 -10 202541. 4421.40   2
  -1  -6 -10 197000. 4313.81   3
   1  -7 -10 181968. 4117.40   3
   7  -1 -10 171767. 4319.96  15
   6   1 -10 162367. 4122.67  15
   6   1  -7 1866.63 241.662   5
   1  -7  -7 2083.56 234.037  12
   7  -1  -7 2323.81 293.097   5
  -6   7  -7 2348.31 321.857   2
  -6   7  -7 2452.04 296.809  10
  -7   6  -7 2492.86 309.575   2
  -1  -6  -7 3352.08 344.680   3
   1  -7  -7 2733.33 284.958   3
   7  -1  -7 2556.39 332.275  15
   6   1  -7 2027.84 267.422  15
   6   1  -4 153357. 3676.60   5
   1  -7  -4 163016. 3711.70  12
   7  -1  -4 155752. 3831.96   5
   6   1  -4 154162. 3733.45   4
  -6   7  -4 188285. 4166.35   2
  -7   6  -4 155905. 3817.61   2
  -7   6  -4 174376. 3872.54   6
  -1  -6  -4 155667. 3734.53   3
   7  -1  -4 168016. 4032.35  15
   1  -7  -4 170231. 3806.20   3
   6   1  -4 165652. 3889.68  15
  -6   7  -1 3278.30 310.167  13
  -1  -6  -1 2682.30 297.145  12
   7  -1  -1 3355.82 318.415   5
   1  -7  -1 3013.33 295.830  12
   6   1  -1 2985.45 301.512   4
  -7   6  -1 3063.30 308.085   2
  -6   7  -1 2933.18 335.091   6
   7  -1  -1 3038.98 358.807  15
   6   1  -1 2737.58 318.368  15
  -1  -6  -1 3098.71 294.230   3
   1  -7  -1 2543.58 298.660   3
   6   1  -1 3283.77 274.120  14
  -7   6  -1 2502.10 324.534   6
  -6   7   2 196434. 4726.19  13
  -7   6   2 205715. 4813.71  13
  -1  -6   2 202473. 4622.20  12
   1  -7   2 207066. 4642.51  12
   6   1   2 208888. 4645.26   4
  -7   6   2 190354. 4563.74   2
  -6   7   2 215891. 4948.75   6
  -7   6   2 214168. 4966.70   6
   7  -1   2 209922. 4788.50  15
   6   1   2 205071. 4752.14  15
  -1  -6   2 201451. 4559.21   3
   1  -7   2 202436. 4712.50   3
   6   1   2 220089. 4645.50  14
  -6   7   5 2793.11 355.146  13
  -7   6   5 3136.65 382.937  13
  -1  -6   5 2846.48 298.375  12
   1  -7   5 3293.77 325.103  12
   6   1   5 2150.54 265.031   1
   6   1   5 2839.74 296.314   4
   7  -1   5 2815.41 374.041   1
  -6   7   5 2965.96 388.515   6
  -7   6   5 3165.27 414.550   6
   7  -1   5 2610.64 285.900  15
   6   1   5 2880.67 320.744  15
  -1  -6   5 2736.33 287.874   3
   1  -7   5 2838.30 326.747   3
   6   1   5 2843.38 288.685  14
  -6   7   8 153872. 3941.99  13
  -7   6   8 160979. 4061.96  13
  -1  -6   8 141049. 3607.36  12
   1  -7   8 161217. 3721.48  12
   6   1   8 148110. 3644.87   1
   7  -1   8 164191. 3852.78   1
   6   1   8 159919. 3646.51   4
  -6   7   8 151058. 3996.94   6
  -7   6   8 182213. 4286.14   6
   7  -1   8 140072. 3516.77  15
  -1  -6   8 155241. 3655.97   3
   1  -7   8 171612. 3885.85   3
   6   1   8 153327. 3714.18  14
   6   1  11 2017.85 280.494  14
  -7   6  11 2095.22 375.842  13
  -1  -6  11 2217.18 272.057  12
   1  -7  11 2452.28 295.673  12
   1  -7  11 2113.84 304.961   3
   7  -1  11 2025.17 251.606   1
   6   1  11 2047.51 239.359   4
   6   1  11 1796.31 238.584   1
  -1  -6  11 2047.80 257.792   3
   7   0  -8 148157. 3634.77   5
  -7   7  -8 160226. 3725.67  10
   0  -7  -8 155912. 3642.34   3
   7   0  -8 149012. 3754.46  15
   0  -7  -5 109.434 131.351   3
   7   0  -5-29.2905 112.416   5
  -7   7  -5 33.3628 135.593   2
   7   0  -5 47.0739 114.756  15
   7   0  -2 152335. 3563.97   5
   0  -7  -2 155419. 3612.23  12
  -7   7  -2 156716. 3792.64   2
  -7   7  -2 151196. 3736.03   6
   7   0  -2 158806. 3817.23  15
   0  -7  -2 159924. 3634.26   3
  -7   7   1-76.7269 111.335  13
   0  -7   1 0.72132 123.730   3
   0  -7   1 8.42243 105.749  12
   7   0   1 4.53789 94.0786   4
   7   0   1-8.89083 118.011  15
  -7   7   1 45.2024 160.322   6
  -7   7   4 147452. 3827.82  13
   7   0   4 154139. 3764.83   1
   0  -7   4 152550. 3606.34  12
   7   0   4 152537. 3617.16   4
   7   0   4 152984. 3708.77  15
   0  -7   4 157517. 3649.62   3
  -7   7   7 354.293 191.552  13
   0  -7   7 142.825 119.619   3
   0  -7   7 51.5197 89.9638  12
   7   0   7 29.3658 103.430   4
   7   0   7 52.7471 125.415   1
  -7   7   7 72.7006 182.639   6
  -7  -1  -3 158.768 103.124   2
  -7  -1  -3 172.979 98.5874  13
   1   7  -3 94.1926 81.6589   4
  -8   1   0 139689. 3226.25  13
  -7  -1   0 140177. 3327.69  13
   1   7   0 138251. 3211.27   4
  -1   8   0 136618. 3175.33   4
   7  -8   0 132507. 3347.17  15
   8  -7   0 142356. 3503.16  15
  -1   8   0 144311. 3296.97  14
  -8   1   3 161.201 123.435   6
  -7  -1   3-53.6701 97.4926   6
   7  -8   3 160.410 145.764  12
  -1   8   3 171.118 97.8027  14
  -2   8  -7 286.380 113.499  10
   8  -6  -7 186.345 129.769   8
  -2   8  -7 367.678 161.086  14
   2   6  -4 147457. 3737.36   4
  -2   8  -4 166704. 3814.05  10
  -8   2  -4 150147. 3693.77   2
   8  -6  -4 176638. 4021.81   8
   6  -8  -4 166141. 3870.81   8
   8  -6  -4 166100. 4020.85   7
   6  -8  -4 172961. 3863.76  15
   8  -6  -4 177040. 4143.67  15
  -6  -2  -4 165018. 3965.03   2
  -2   8  -4 177835. 3979.68  14
   2   6  -4 176119. 3847.68  14
  -8   2  -1 113.198 65.9744   2
  -6  -2  -1 212.749 112.702   2
  -8   2  -1 178.175 100.684  13
   6  -8  -1 85.7638 126.860  12
   2   6  -1 73.0764 81.1365   4
  -2   8  -1 196.951 87.9204   4
   8  -6  -1 200.066 134.488   8
   6  -8  -1 105.819 153.486   7
   8  -6  -1 183.979 143.676   7
   6  -8  -1 171.207 113.514  15
   8  -6  -1 176.896 143.298  15
  -2   8  -1 287.777 129.132  14
   2   6  -1 170.463 116.933  14
  -8   2   2 141177. 3276.58  13
  -6  -2   2 147800. 3564.78  13
   6  -8   2 144752. 3636.92  12
   2   6   2 138545. 3301.35   4
  -2   8   2 148088. 3295.02   4
   6  -8   2 145884. 3723.05   7
   8  -6   2 133937. 3544.68   7
   8  -6   2 137222. 3441.24  15
  -8   2   2 136963. 3335.08   6
  -2   8   2 138589. 3328.63  14
   2   6   2 153166. 3390.87  14
  -6  -2   2 136480. 3354.54   6
   2   6   5 263.355 116.581  14
  -8   2   5 322.324 142.072   6
  -6  -2   5 222.187 118.542   6
  -8   2   5 309.131 110.853  13
  -6  -2   5 202.838 141.569  13
   6  -8   5 149.790 118.939   3
   6  -8   5 420.206 184.694  12
   2   6   5 235.763 113.286   4
  -2   8   5 385.077 119.357   4
   6  -8   5 153.593 137.442   7
   8  -6   5 246.330 154.010   7
   6  -8   8 132033. 3260.96   3
  -8   3  -8 174601. 3920.03   2
   5  -8  -8 171168. 3902.59   8
  -5  -3  -8 170277. 4128.62   3
  -3   8  -8 171267. 4014.14  14
   3   5  -8 166103. 3911.25  14
  -5  -3  -5 153.927 114.946   3
  -3   8  -5 155.578 80.0074  10
   3   5  -5 162.431 117.675   4
   8  -5  -5-50.7361 115.377   8
   5  -8  -5 206.466 114.273   8
   8  -5  -5 182.464 119.009   7
   5  -8  -5 328.587 130.254  15
   8  -5  -5 121.991 123.749  15
   3   5  -5 119.440 92.3395  14
  -8   3  -5 190.131 113.666   2
   5  -8  -2 134297. 3242.50  12
   3   5  -2 133525. 3107.42   4
  -3   8  -2 126953. 3006.62  10
  -3   8  -2 132636. 2947.39   4
  -8   3  -2 120248. 2921.54   2
   8  -5  -2 131580. 3245.67   8
   5  -8  -2 138104. 3290.11   7
  -5  -3  -2 139550. 3173.08   3
   5  -8  -2 130502. 3039.93  15
   3   5  -2 124308. 3044.24  14
  -5  -3  -2 130466. 3158.91   6
  -8   3   1 42.3862 121.537   6
  -5  -3   1-26.7551 130.255   6
  -8   3   1 121.858 93.2424  13
   5  -8   1 551.376 188.231   3
   5  -8   1 82.9195 128.940  12
  -3   8   1 91.8571 79.7226  10
   3   5   1 150.728 111.539   4
  -3   8   1 70.1156 74.7348   4
   5  -8   1 33.9284 150.455   7
   8  -5   1 78.2750 131.784   7
   5  -8   1 101.981 100.219  15
   8  -5   1 206.803 125.753  15
   3   5   1 141.197 102.402  14
  -8   3   4 196177. 4358.30  13
   8  -5   4 185286. 4458.39   1
   5  -8   4 219812. 4825.60  12
   3   5   4 199636. 4421.08   4
  -3   8   4 204179. 4402.56   4
   5  -8   4 185460. 4671.29   7
   8  -5   4 184897. 4514.40   7
   8  -5   4 194815. 4429.71  15
  -8   3   4 185567. 4423.34   6
   5  -8   4 173706. 4539.96   3
   3   5   4 207285. 4439.78  14
  -5  -3   4 205757. 4619.19   6
   3   5   7 346.347 130.726  14
  -8   3   7 87.2244 129.216   6
  -5  -3   7 346.612 163.274   6
  -8   3   7 149.445 100.126  13
  -5  -3   7 44.5149 142.050  13
   5  -8   7 25.5319 130.558   3
   5  -8   7 113.331 163.451  12
   3   5   7 201.012 127.259   4
  -3   8   7 149.093 109.595   4
   8  -5   7 5.81657 112.444   1
   5  -8   7 9.65422 115.467   7
   4   4  -9 0.78279 104.894   5
   4  -8  -9-32.7013 84.5714   8
   4   4  -9 5.75577 81.1756  14
   4   4  -6 169317. 3819.21   5
   4  -8  -6 166791. 3769.20  12
   8  -4  -6 167835. 4339.60   5
   4   4  -6 153546. 3770.90   4
  -4   8  -6 176443. 3871.31  10
  -8   4  -6 167526. 3797.33   2
   4  -8  -6 174508. 3815.30   8
  -4  -4  -6 167822. 3982.51   3
   8  -4  -6 176483. 4245.52  15
   4  -8  -6 160011. 3729.33   3
   4   4  -6 162186. 3810.76  14
  -4  -4  -3 75.1423 123.371   3
   4  -8  -3-15.6757 131.592   3
   4  -8  -3 88.7824 120.052  12
  -4   8  -3 48.3672 87.8232  10
   4   4  -3 18.2439 94.2440   4
   8  -4  -3 53.0361 110.353   7
   8  -4  -3 60.3590 121.715  15
  -8   4  -3-44.1229 85.7777   2
   4   4  -3 59.1180 90.1407  14
  -8   4   0 150183. 3651.02  13
   4  -8   0 175428. 3930.64  12
   4   4   0 170009. 3774.21   4
  -4   8   0 157352. 3643.86  10
  -8   4   0 158774. 3567.64   2
  -4   8   0 154957. 3595.64   4
   4  -8   0 158377. 3801.66   7
   8  -4   0 136817. 3791.08   7
  -4  -4   0 147219. 3658.62   3
   8  -4   0 165375. 3876.87  15
  -8   4   0 182077. 4007.22   6
   4  -8   0 156783. 3865.52   3
   4   4   0 174009. 3756.44  14
   4   4   3 6.81175 84.8371  14
  -8   4   3 68.3776 141.438   6
  -4  -4   3-66.7871 150.158   6
  -8   4   3 33.3801 100.470  13
   4  -8   3 31.8107 158.695   3
   4  -8   3 387.194 185.541  12
  -4   8   3 154.689 94.9017  10
   4   4   3-2.62567 94.3496   4
  -4   8   3 45.1737 86.3231   4
   4  -8   3 24.1208 127.276   7
   8  -4   3 8.91138 117.026   7
   8  -4   3 81.5406 103.883  15
  -8   4   6 168459. 3931.10  13
   4  -8   6 179987. 4248.31  12
   8  -4   6 160394. 3966.12   1
   4   4   6 178031. 3946.32   4
  -4   8   6 169572. 3938.40   4
   4  -8   6 181358. 4179.66   7
  -8   4   6 157121. 3987.06   6
   4  -8   6 162528. 4173.75   3
   4   4   6 176789. 3961.93  14
  -4  -4   6 167424. 4301.33   6
  -3  -5  -7 108.540 132.801   3
   3  -8  -7 181.367 121.345   3
   5   3  -7 243.364 108.839   5
   3  -8  -7 150.953 94.6584  12
   8  -3  -7 310.913 168.878   5
  -5   8  -7 213.290 116.521  10
   5   3  -7 184.447 99.7437   4
   3  -8  -7 306.316 105.652   8
   8  -3  -7 98.5706 151.599  15
  -8   5  -7 151.655 117.515   2
   5   3  -7 174.174 101.906  14
   3  -8  -4 189101. 4285.87  12
   8  -3  -4 201261. 4708.02   5
   5   3  -4 183873. 4291.66   4
  -5   8  -4 198522. 4358.25  10
  -8   5  -4 200500. 4288.00   2
   3  -8  -4 177455. 4206.28   8
  -3  -5  -4 193799. 4348.33   3
   8  -3  -4 202142. 4642.72  15
   3  -8  -4 193812. 4308.60   3
   5   3  -4 173447. 4208.44  14
  -8   5  -1 166.893 178.938   6
  -3  -5  -1 81.5869 115.397   3
   3  -8  -1 100.360 131.767   3
   3  -8  -1 29.2620 113.760  12
   8  -3  -1 161.957 140.903   5
  -5   8  -1-9.26711 86.1957  10
   5   3  -1 295.092 134.515   4
   8  -3  -1 182.592 137.495  15
  -8   5  -1 43.4197 79.0007   2
   5   3  -1 151.186 91.8329  14
  -8   5   2 130623. 3266.21  13
   3  -8   2 142027. 3304.32  12
   5   3   2 148136. 3247.25   4
  -5   8   2 124408. 3135.12  10
   8  -3   2 129644. 3210.02  15
  -3  -5   2 121989. 3051.83   3
  -8   5   2 132730. 3419.06   6
   3  -8   2 126405. 3365.48   3
   5   3   2 125041. 3084.33  14
   5   3   5 113.707 109.000  14
  -8   5   5 52.6847 157.882   6
  -5   8   5 242.671 131.331  13
  -8   5   5 310.051 148.321  13
  -3  -5   5 105.801 100.046   3
   3  -8   5-104.454 182.882   3
   3  -8   5 349.216 157.375  12
  -5   8   5 203.000 122.328  10
   5   3   5 129.545 99.2423   4
   8  -3   5-56.3411 154.036   1
  -5   8   5 229.949 147.504   6
   8  -3   5 151.795 103.501  15
  -5   8   8 167860. 4067.58  13
  -8   5   8 166590. 4047.24  13
   5   3   8 178348. 3931.85   4
  -8   5   8 161056. 4098.98   6
   5   3   8 171456. 3962.22  14
   6   2  -8 136928. 3248.70   5
  -2  -6  -5 293.198 146.652   3
   2  -8  -5 240.700 134.463   3
   2  -8  -5 175.851 112.941  12
   8  -2  -5 261.825 124.690   5
  -6   8  -5 389.277 140.267  10
   6   2  -5 175.549 100.484   4
   8  -2  -5 224.075 140.974  15
   6   2  -5 335.687 146.147  15
  -8   6  -5 412.265 142.838   2
   2  -8  -2 142435. 3317.79  12
   6   2  -2 132917. 3303.61   4
  -6   8  -2 144546. 3445.91  10
  -8   6  -2 142149. 3297.63   2
  -2  -6  -2 141116. 3276.50   3
   8  -2  -2 142420. 3519.54  15
   6   2  -2 138202. 3404.34  15
   2  -8  -2 144847. 3403.21   3
  -6   8   1 138.473 102.951  13
  -2  -6   1 265.373 123.094   3
   2  -8   1 155.022 153.999   3
   2  -8   1 106.965 114.185  12
   8  -2   1 146.641 115.750   5
   6   2   1 87.0209 116.492   4
  -8   6   1 5.08679 81.5773   2
   8  -2   1 133.212 126.338  15
  -6   8   1 143.903 127.918   6
   6   2   1 199.693 95.9029  14
  -8   6   1 310.961 159.581   6
  -6   8   4 134971. 3754.31  13
  -8   6   4 175920. 4100.13  13
  -2  -6   4 161275. 3812.95  12
   8  -2   4 179859. 4217.84   1
   2  -8   4 166789. 3854.02  12
   6   2   4 177179. 3827.74   4
  -6   8   4 168811. 3989.89   6
  -8   6   4 177819. 4184.36   6
   8  -2   4 163499. 3802.75  15
  -2  -6   4 157066. 3658.12   3
   2  -8   4 162723. 3960.34   3
   6   2   4 139779. 3641.80  14
   6   2   7 204.677 95.2492  14
  -8   6   7 85.1126 142.736  13
  -2  -6   7 292.624 106.736   3
  -2  -6   7 311.827 123.750  12
  -8   7   0 131748. 3240.51   2
  -8   7   0 131455. 3406.72   6
   0   0   0    0.00    0.00   0
TITL paper_1879_red_abscor in R3c
REM R3c (#161 in standard setting)
CELL 0.71073   5.150777   5.150777  13.775573  90.0000  90.0000 120.0000
ZERR    6.00   0.000190   0.000190   0.000589   0.0000   0.0000   0.0000
LATT -3
SYMM -y, x-y, z
SYMM -x+y,-x, z
SYMM -y,-x, z+1/2
SYMM -x+y, y, z+1/2
SYMM  x, x-y, z+1/2
SFAC Li O Nb Ta
UNIT 6.00 18.00 0.66 5.34
TREF
HKLF 4
END
;
_shelx_hkl_checksum              97700
_shelx_res_file
;
    paper_1879_red_abscor.res created by SHELXL-2014/7
TITL paper_1879_red_abscor in R3c
REM R3c (#161 in standard setting)
CELL 0.71073 5.151 5.151 13.776 90 90 120
ZERR 6 0.001 0.001 0.005 0 0 0
LATT -3
SYMM -Y,+X-Y,+Z
SYMM +Y-X,-X,+Z
SYMM -Y,-X,0.5+Z
SYMM +Y-X,+Y,0.5+Z
SYMM +X,+X-Y,0.5+Z
SFAC Li O Nb Ta
UNIT 6 18 0.66 5.34
EADP Ta Nb
EXYZ Ta Nb
L.S. 10
PLAN  25
LIST 3
fmap 2
acta
MERG 2
TWIN -1 0 0 0 -1 0 0 0 -1 2
REM <olex2.extras>
REM <HklSrc "%.\\paper_1879_red_abscor.hkl">
REM </olex2.extras>
WGHT    0.027000
EXTI    0.019347
BASF   0.52631
FVAR       3.08564
TA    4    0.000000    0.000000    0.001396    10.29666    0.00532    0.00532 =
         0.00307    0.00000    0.00000    0.00266
NB    3    0.000000    0.000000    0.001396    10.03667    0.00532    0.00532 =
         0.00307    0.00000    0.00000    0.00266
O     2    0.049739    0.343779    0.069954    11.00000    0.00767    0.00596 =
         0.00632   -0.00240   -0.00178    0.00345
LI    1    0.000000    0.000000    0.281894    10.33333    0.01036    0.01036 =
         0.01566    0.00000    0.00000    0.00518
HKLF 4
REM  paper_1879_red_abscor in R3c
REM R1 =  0.0169 for     371 Fo > 4sig(Fo)  and  0.0170 for all     375 data
REM     18 parameters refined using      1 restraints
END
WGHT      0.0270      0.0000
REM Highest difference peak  2.574,  deepest hole -1.157,  1-sigma level  0.479
Q1    1  -0.1232 -0.1303  0.0012  11.00000  0.05    2.57
Q2    1   0.1260  0.1244  0.0007  11.00000  0.05    2.56
Q3    1  -0.0728 -0.1500 -0.0466  11.00000  0.05    1.57
Q4    1   0.0739  0.1522  0.0491  11.00000  0.05    1.55
Q5    1  -0.1174 -0.0626 -0.0519  11.00000  0.05    1.29
Q6    1  -0.0710 -0.1253  0.0556  11.00000  0.05    1.27
Q7    1   0.1396  0.4394  0.1265  11.00000  0.05    0.86
Q8    1   0.0156  0.2411  0.0402  11.00000  0.05    0.84
Q9    1  -0.2312 -0.2468 -0.0353  11.00000  0.05    0.70
Q10   1   0.2300  0.2364  0.0411  11.00000  0.05    0.70
Q11   1   0.0827  0.4125  0.0358  11.00000  0.05    0.69
Q12   1   0.2271  0.4528  0.0672  11.00000  0.05    0.68
Q13   1  -0.0707  0.3370 -0.0339  11.00000  0.05    0.65
Q14   1   0.1188  0.2277  0.1029  11.00000  0.05    0.63
Q15   1   0.0017  0.2671  0.1331  11.00000  0.05    0.63
Q16   1  -0.1526 -0.2870 -0.0072  11.00000  0.05    0.62
Q17   1   0.1249  0.2843  0.0112  11.00000  0.05    0.60
Q18   1   0.3345  0.4098  0.0354  11.00000  0.05    0.58
Q19   1   0.1638  0.5205  0.0826  11.00000  0.05    0.51
Q20   1  -0.1398  0.0252  0.0879  11.00000  0.05    0.39
Q21   1   0.0134  0.4955  0.0637  11.00000  0.05    0.26
Q22   1  -0.1222  0.1514  0.1310  11.00000  0.05    0.25
Q23   1   0.2213  0.1085  0.3176  11.00000  0.05    0.16
Q24   1  -0.0251  0.4212  0.0103  11.00000  0.05    0.15
Q25   1  -0.2274  0.2269  0.0166  11.00000  0.05    0.11
;
_shelx_res_checksum              67119
loop_
_space_group_symop_operation_xyz
'x, y, z'
'-y, x-y, z'
'-x+y, -x, z'
'-y, -x, z+1/2'
'-x+y, y, z+1/2'
'x, x-y, z+1/2'
'x+2/3, y+1/3, z+1/3'
'-y+2/3, x-y+1/3, z+1/3'
'-x+y+2/3, -x+1/3, z+1/3'
'-y+2/3, -x+1/3, z+5/6'
'-x+y+2/3, y+1/3, z+5/6'
'x+2/3, x-y+1/3, z+5/6'
'x+1/3, y+2/3, z+2/3'
'-y+1/3, x-y+2/3, z+2/3'
'-x+y+1/3, -x+2/3, z+2/3'
'-y+1/3, -x+2/3, z+7/6'
'-x+y+1/3, y+2/3, z+7/6'
'x+1/3, x-y+2/3, z+7/6'
loop_
_atom_site_type_symbol
_atom_site_label
_atom_site_fract_x
_atom_site_fract_y
_atom_site_fract_z
_atom_site_U_iso_or_equiv
_atom_site_adp_type
_atom_site_calc_flag
_atom_site_occupancy
Ta Ta 0.0000 0.0000 0.0014(5) 0.00457(15) Uani d 0.89
Nb Nb 0.0000 0.0000 0.0014(5) 0.00457(15) Uani d 0.11
O O 0.0497(3) 0.3438(3) 0.0700(5) 0.0066(3) Uani d 1
Li Li 0.0000 0.0000 0.282(3) 0.012(5) Uani d 1
loop_
_atom_site_aniso_label
_atom_site_aniso_U_11
_atom_site_aniso_U_22
_atom_site_aniso_U_33
_atom_site_aniso_U_12
_atom_site_aniso_U_13
_atom_site_aniso_U_23
Ta 0.00532(16) 0.00532(16) 0.00307(18) 0.00266(8) 0.000 0.000
Nb 0.00532(16) 0.00532(16) 0.00307(18) 0.00266(8) 0.000 0.000
O 0.0077(7) 0.0060(5) 0.0063(4) 0.0035(7) -0.0018(7) -0.0024(3)
Li 0.010(7) 0.010(7) 0.016(12) 0.005(4) 0.000 0.000
loop_
_atom_type_symbol
_atom_type_description
_atom_type_scat_dispersion_real
_atom_type_scat_dispersion_imag
_atom_type_scat_source
Li Li -0.0003 0.0001 'International Tables Vol C Tables 4.2.6.8 and 6.1.1.4'
O O 0.0106 0.0060 'International Tables Vol C Tables 4.2.6.8 and 6.1.1.4'
Nb Nb -2.0727 0.6215 'International Tables Vol C Tables 4.2.6.8 and 6.1.1.4'
Ta Ta -0.7052 6.5227 'International Tables Vol C Tables 4.2.6.8 and 6.1.1.4'
loop_
_exptl_crystal_face_index_h
_exptl_crystal_face_index_k
_exptl_crystal_face_index_l
_exptl_crystal_face_perp_dist
4 3 -3 0.1033
-2 7 4 0.1214
5 2 -4 0.1021
-2 7 1 0.0960
-3 7 6 0.1119
5 -6 10 0.1147
5 -5 10 0.1223
-3 4 -15 0.1077
2 -6 -10 0.0804
-6 1 10 0.1066
2 -5 -12 0.1008
-6 1 -8 0.1037
-7 4 -8 0.1070
3 3 11 0.1394
5 1 -7 0.1089
3 -7 0 0.0851
-5 7 -5 0.1043
5 -5 11 0.1115
-4 1 -16 0.1164
2 4 11 0.1197
4 -4 -13 0.1218
loop_
_geom_angle_atom_site_label_1
_geom_angle_atom_site_label_2
_geom_angle_atom_site_label_3
_geom_angle_site_symmetry_1
_geom_angle_site_symmetry_3
_geom_angle
_geom_angle_publ_flag
O Ta O 3 2 97.6(2) n
O Ta O 2 11_444 90.36(5) n
O Ta O 3 10_554 90.36(5) n
O Ta O 11_444 10_554 82.1(2) n
O Ta O . 11_444 168.9(3) n
O Ta O 11_444 12_454 82.1(2) n
O Ta O 3 . 97.6(2) n
O Ta O . 10_554 88.89(5) n
O Ta O 3 12_454 168.9(3) n
O Ta O 2 12_454 88.89(5) n
O Ta O 2 . 97.6(2) n
O Ta O . 12_454 90.36(5) n
O Ta O 2 10_554 168.9(3) n
O Ta O 3 11_444 88.89(5) n
O Ta O 10_554 12_454 82.1(2) n
O Ta Li 3 4_554 119.67(19) n
O Ta Li 10_554 10_444 147.6(4) n
O Ta Li 10_554 10_554 71.9(6) n
O Ta Li 2 4_554 119.67(19) n
O Ta Li . 10_554 70.5(3) n
O Ta Li 12_454 13_544 121.3(7) n
O Ta Li 2 13_444 48.5(7) n
O Ta Li 12_454 13_554 76.3(5) n
O Ta Li 3 10_554 32.96(14) n
O Ta Li 10_554 13_444 121.3(7) n
O Ta Li 12_454 4_554 49.31(15) n
O Ta Li . 13_544 141.8(4) n
O Ta Li 3 13_444 141.8(4) n
O Ta Li . 13_554 48.5(7) n
O Ta Li 10_554 13_544 76.3(5) n
O Ta Li 11_444 13_554 121.3(7) n
O Ta Li 10_554 13_554 41.6(6) n
O Ta Li . 10_444 118.7(6) n
O Ta Li . 13_444 103.3(4) n
O Ta Li 2 10_554 118.7(6) n
O Ta Li 2 13_554 141.8(4) n
O Ta Li 11_444 10_554 112.3(4) n
O Ta Li 2 13_544 103.3(4) n
O Ta Li 12_454 10_554 147.6(4) n
O Ta Li 12_454 13_444 41.6(6) n
O Ta Li 2 10_444 32.96(14) n
O Ta Li 11_444 13_544 41.6(6) n
O Ta Li 11_444 10_444 71.9(6) n
O Ta Li 3 10_444 70.5(3) n
O Ta Li 12_454 10_444 112.3(4) n
O Ta Li 11_444 4_554 49.31(15) n
O Ta Li 3 13_544 48.5(7) n
O Ta Li 11_444 13_444 76.3(5) n
O Ta Li . 4_554 119.67(19) n
O Ta Li 10_554 4_554 49.31(15) n
O Ta Li 3 13_554 103.3(4) n
Li Ta Li 4_554 10_554 117.8(6) n
Li Ta Li 13_554 10_444 165.9(14) n
Li Ta Li 4_554 13_444 76.2(8) n
Li Ta Li 4_554 10_444 117.8(6) n
Li Ta Li 13_554 10_554 71.41(16) n
Li Ta Li 13_444 13_554 114.5(6) n
Li Ta Li 13_444 10_554 165.9(14) n
Li Ta Li 4_554 13_544 76.2(8) n
Li Ta Li 10_554 10_444 100.0(8) n
Li Ta Li 4_554 13_554 76.2(8) n
Li Ta Li 13_444 10_444 71.41(16) n
Li Ta Li 13_544 10_444 71.42(16) n
Li Ta Li 13_554 13_544 114.5(6) n
Li Ta Li 13_544 10_554 71.42(16) n
Li Ta Li 13_444 13_544 114.5(6) n
Ta O Ta . 16_554 141.37(11) n
Ta O Nb 16_554 16_554 0.0(3) n
Ta O Nb . 16_554 141.4 n
Ta O Li . 10_454 116.5(5) n
Ta O Li 16_554 13_554 87.5(7) n
Ta O Li . 13_554 93.1(6) n
Nb O Li 16_554 13_554 87.5(7) n
Li O Ta 10_454 16_554 96.1(8) n
Li O Nb 10_454 16_554 96.1(8) n
Li O Li 10_454 13_554 119.8(9) n
Ta Li Ta 4 7_445 76.2(8) n
Ta Li Ta 7 7_445 114.5(6) n
Ta Li Ta 4 7 76.2(8) n
Ta Li Nb 7 7_445 114.5(6) n
Ta Li Nb 4 4 0.0 n
Ta Li Nb 7_445 7_445 0.0 n
Ta Li Nb 7 7 0.0(2) n
Ta Li Nb 4 7_445 76.2(8) n
Ta Li Nb 4 7 76.2(8) n
Nb Li Ta 4 7 76.2 n
Nb Li Ta 7 7_445 114.5 n
Nb Li Ta 4 7_445 76.2 n
Nb Li Nb 7 7_445 114.5(6) n
Nb Li Nb 4 7_445 76.2(8) n
Nb Li Nb 4 7 76.2(8) n
O Li Ta 8 7 38.48(16) n
O Li Ta 16_544 7_445 42.3(3) n
O Li Ta 18_554 7_445 149.6(2) n
O Li Ta 7_445 7 111.2(13) n
O Li Ta 8 4 43.2(7) n
O Li Ta 18_554 4 107.8(11) n
O Li Ta 17_444 7_445 95.43(6) n
O Li Ta 9_455 7_445 111.2(13) n
O Li Ta 16_544 7 95.43(6) n
O Li Ta 9_455 4 43.2(7) n
O Li Ta 16_544 4 107.8(11) n
O Li Ta 8 7_445 84.3(7) n
O Li Ta 7_445 7_445 38.48(16) n
O Li Ta 18_554 7 42.3(3) n
O Li Ta 17_444 7 149.6(2) n
O Li Ta 7_445 4 43.2(7) n
O Li Ta 17_444 4 107.8(11) n
O Li Ta 9_455 7 84.3(7) n
O Li Nb 18_554 7 42.3(3) n
O Li Nb 8 4 43.2(7) n
O Li Nb 18_554 4 107.8(11) n
O Li Nb 16_544 4 107.8(11) n
O Li Nb 9_455 7 84.3(7) n
O Li Nb 17_444 7_445 95.43(6) n
O Li Nb 17_444 4 107.8(11) n
O Li Nb 9_455 7_445 111.2(13) n
O Li Nb 9_455 4 43.2(7) n
O Li Nb 18_554 7_445 149.6(2) n
O Li Nb 17_444 7 149.6(2) n
O Li Nb 16_544 7_445 42.3(3) n
O Li Nb 8 7_445 84.3(7) n
O Li Nb 7_445 7_445 38.48(16) n
O Li Nb 8 7 38.48(16) n
O Li Nb 16_544 7 95.43(6) n
O Li Nb 7_445 7 111.2(13) n
O Li Nb 7_445 4 43.2(7) n
O Li O 7_445 9_455 72.8(11) n
O Li O 16_544 17_444 111.1(11) n
O Li O 16_544 8 88.6(5) n
O Li O 16_544 9_455 150.3(18) n
O Li O 18_554 8 79.8(5) n
O Li O 18_554 9_455 88.6(5) n
O Li O 18_554 7_445 150.3(18) n
O Li O 17_444 9_455 79.8(5) n
O Li O 16_544 7_445 79.8(5) n
O Li O 17_444 7_445 88.6(5) n
O Li O 18_554 17_444 111.1(11) n
O Li O 8 7_445 72.8(11) n
O Li O 8 9_455 72.8(11) n
O Li O 17_444 8 150.3(18) n
O Li O 18_554 16_544 111.1(11) n
loop_
_geom_bond_atom_site_label_1
_geom_bond_atom_site_label_2
_geom_bond_site_symmetry_2
_geom_bond_distance
_geom_bond_publ_flag
Ta O 3 1.908(4) n
Ta O 11_444 2.073(5) n
Ta O 10_554 2.073(5) n
Ta O . 1.908(4) n
Ta O 2 1.908(4) n
Ta O 12_454 2.073(5) n
Ta Li 13_554 3.062(10) n
Ta Li 4_554 3.02(4) n
Ta Li 13_444 3.062(10) n
Ta Li 10_444 3.36(2) n
Ta Li 13_544 3.062(10) n
Ta Li 10_554 3.36(2) n
O Ta 16_554 2.073(5) n
O Nb 16_554 2.073(5) n
O Li 13_554 2.30(3) n
O Li 10_454 2.044(13) n
Li Ta 4 3.02(4) n
Li Ta 7 3.062(10) n
Li Ta 7_445 3.062(10) n
Li Nb 7 3.062(10) n
Li Nb 4 3.02(4) n
Li Nb 7_445 3.062(10) n
Li O 17_444 2.044(13) n
Li O 7_445 2.30(3) n
Li O 16_544 2.044(13) n
Li O 8 2.30(3) n
Li O 9_455 2.30(3) n
Li O 18_554 2.044(13) n
