#------------------------------------------------------------------------------
#$Date: 2018-03-28 16:36:31 +0300 (Wed, 28 Mar 2018) $
#$Revision: 207162 $
#$URL: file:///home/coder/svn-repositories/cod/cif/2/31/10/2311093.cif $
#------------------------------------------------------------------------------
#
# This file is available in the Crystallography Open Database (COD),
# http://www.crystallography.net/. The original data for this entry
# were provided by IUCr Journals, http://journals.iucr.org/.
#
# The file may be used within the scientific community so long as
# proper attribution is given to the journal article from which the
# data were obtained.
#
data_2311093
loop_
_publ_author_name
'Massoni, Nicolas'
'Pierrick, Chevreux'
_publ_section_title
;
 Crystal structure of Na~2~HfSi~2~O~7~ by Rietveld refinement
;
_journal_name_full               'Acta Crystallographica, Section e'
_journal_page_first              1434
_journal_paper_doi               10.1107/S2056989016014225
_journal_volume                  72
_journal_year                    2016
_chemical_formula_iupac          'Hf Na2 O7 Si2'
_chemical_formula_moiety         'Hf O7 Si2, 2(Na)'
_chemical_formula_structural     'Hf Na2 O7 Si2'
_chemical_formula_sum            'Hf Na2 O7 Si2'
_chemical_formula_weight         392.6
_chemical_name_systematic
;
sodium hafnium disilicate
;
_space_group_crystal_system      triclinic
_space_group_IT_number           2
_space_group_name_H-M_alt        'P -1'
_symmetry_space_group_name_Hall  '-P 1'
_symmetry_space_group_name_H-M   'P -1'
_cell_angle_alpha                92.603(2)
_cell_angle_beta                 94.0843(18)
_cell_angle_gamma                71.3262(18)
_cell_formula_units_Z            2
_cell_length_a                   6.6123(2)
_cell_length_b                   8.7948(3)
_cell_length_c                   5.41074(15)
_cell_measurement_reflns_used    1866
_cell_measurement_temperature    293
_cell_measurement_theta_max      60
_cell_measurement_theta_min      4.0065
_cell_volume                     297.249(16)
_computing_cell_refinement       'JANA 2006 (Petricek et al., 2014)'
_computing_data_collection       'Data Collector (Panalytical, 2011)'
_computing_data_reduction        'JANA 2006 (Petricek et al., 2014)'
_computing_molecular_graphics    'VESTA V3.2.1 (Momma et al., 2011)'
_computing_publication_material  'PublCIF,  CheckCIF, PrintCIF'
_computing_structure_refinement  'JANA 2006 (Petricek et al., 2014)'
_computing_structure_solution    'JANA 2006 (Petricek et al., 2014)'
_diffrn_ambient_temperature      293
_diffrn_detector                 solid-state
_diffrn_measurement_device_type  'Panalytical XPert MPD Pro'
_diffrn_radiation_type           'Cu K\a~1~'
_diffrn_radiation_wavelength     1.54176
_diffrn_source                   'sealed X-ray tube'
_diffrn_source_target            Cu
_exptl_absorpt_coefficient_mu    37.913
_exptl_crystal_density_diffrn    4.3868
_exptl_crystal_density_method    'not measured'
_exptl_crystal_F_000             356
_pd_block_diffractogram_id       nahfsioprofile
_pd_char_colour                  white
_pd_char_particle_morphology     plate-like
_pd_meas_2theta_range_inc        0.017
_pd_meas_2theta_range_max        120.013
_pd_meas_2theta_range_min        8.013
_pd_meas_number_of_points        6423
_pd_meas_scan_method             step
_pd_prep_pressure                100
_pd_prep_temperature             1393
_pd_proc_ls_background_function  'Legendre polynoms'
_pd_proc_ls_profile_function     pseudo-Voigt
_pd_proc_ls_prof_R_factor        0.0237
_pd_proc_ls_prof_wR_expected     0.0145
_pd_proc_ls_prof_wR_factor       0.0324
_pd_spec_mounting                ' packed powder pellet'
_pd_spec_mount_mode              reflection
_pd_spec_shape                   flat_sheet
_pd_spec_size_axial              25
_pd_spec_size_equat              25
_pd_spec_size_thick              1
_refine_diff_density_max         0.80
_refine_diff_density_min         -1.66
_refine_ls_extinction_method     none
_refine_ls_goodness_of_fit_all   2.23
_refine_ls_goodness_of_fit_ref   2.23
_refine_ls_number_constraints    6
_refine_ls_number_parameters     67
_refine_ls_number_restraints     0
_refine_ls_R_factor_all          0.0236
_refine_ls_R_factor_gt           0.0236
_refine_ls_shift/su_max          0.0053
_refine_ls_shift/su_mean         0.0009
_refine_ls_weighting_scheme      sigma
_refine_ls_wR_factor_all         0.0297
_refine_ls_wR_factor_gt          0.0297
_cod_data_source_file            ForCODdeposition-SG.cif
_cod_data_source_block           I
_cod_original_cell_volume        297.250(15)
_cod_database_code               2311093
_publcif_datablock.id            {8383952a-e3c4-4c1d-b7b5-62f5ce8931d5}
_publcif_info_exptl_table_max_cols 4
_publcif_info_exptl_table_use_headnotes n
loop_
_symmetry_equiv_pos_site_id
_symmetry_equiv_pos_as_xyz
1 x,y,z
2 -x,-y,-z
loop_
_atom_site_label
_atom_site_fract_x
_atom_site_fract_y
_atom_site_fract_z
_atom_site_U_iso_or_equiv
_atom_site_adp_type
_atom_site_occupancy
_atom_site_type_symbol
Na1 0.8823(15) 0.0970(12) 0.2630(18) 0.035(4) Uiso 1 Na
Na2 0.3456(14) 0.5024(10) 0.7608(18) 0.011(3) Uiso 1 Na
Hf1 0.2880(3) 0.2710(2) 0.2201(3) 0.0158(7) Uani 1 Hf
Si1 0.6528(13) 0.1435(9) 0.7769(13) 0.010(3) Uiso 1 Si
Si2 0.9381(12) 0.3380(8) 0.6861(15) 0.006(2) Uiso 1 Si
O1 0.307(2) 0.0382(17) 0.172(3) 0.0030(15) Uiso 1 O
O2 0.865(2) 0.1777(14) 0.727(2) 0.0030(15) Uiso 1 O
O3 0.494(2) 0.2081(15) 0.530(3) 0.0030(15) Uiso 1 O
O4 0.562(2) 0.2522(15) 0.020(3) 0.0030(15) Uiso 1 O
O5 -0.003(2) 0.3116(14) 0.401(3) 0.0030(15) Uiso 1 O
O6 0.120(2) 0.3300(14) 0.872(3) 0.0030(15) Uiso 1 O
O7 0.284(2) 0.5148(14) 0.288(3) 0.0030(15) Uiso 1 O
loop_
_atom_site_aniso_label
_atom_site_aniso_type_symbol
_atom_site_aniso_U_11
_atom_site_aniso_U_22
_atom_site_aniso_U_33
_atom_site_aniso_U_12
_atom_site_aniso_U_13
_atom_site_aniso_U_23
Hf1 Hf 0.0148(10) 0.0177(11) 0.0126(10) 0.0003(7) 0.0035(7) 0.0111(8)
loop_
_atom_type_symbol
_atom_type_description
_atom_type_scat_dispersion_real
_atom_type_scat_dispersion_imag
_atom_type_scat_source
Na Na 0.1353 0.1239 'International Tables for Crystallography (Vol. IV)'
Hf Hf -6.1794 4.9776 'International Tables for Crystallography (Vol. IV)'
Si Si 0.2541 0.3302 'International Tables for Crystallography (Vol. IV)'
O O 0.0492 0.0322 'International Tables for Crystallography (Vol. IV)'
loop_
_geom_angle_atom_site_label_1
_geom_angle_atom_site_label_2
_geom_angle_atom_site_label_3
_geom_angle_site_symmetry_1
_geom_angle_site_symmetry_2
_geom_angle_site_symmetry_3
_geom_angle
_geom_angle_publ_flag
Hf1 O1 Si1 . . 2_656 161.7(9) y
Si1 O2 Si2 . . . 136.8(8) y
Hf1 O3 Si1 . . . 175.1(10) y
Na1 O4 Si1 . . 1_554 89.2(6) y
Na1 O5 Si2 1_455 . 1_455 104.3(9) y
Hf1 O6 Si2 1_556 . 1_455 153.3(10) y
Na2 O7 Si2 2_666 . 2_666 134.4(9) y
O4 Na1 O5 . . 1_655 97.2(6) y
O4 Na1 Na1 . . 2_755 91.7(4) y
O4 Na1 Na1 . . 2_756 152.6(6) y
O4 Na1 Na2 . . 2_666 51.1(4) y
O4 Na1 Hf1 . . 1_655 109.2(5) y
O4 Na1 Si1 . . 1_554 33.8(4) y
O4 Na1 Si1 . . . 95.1(5) y
O4 Na1 Si1 . . 2_756 143.7(5) y
O4 Na1 Si2 . . . 103.7(5) y
O5 Na1 Na1 1_655 . 2_755 114.1(6) y
O5 Na1 Na1 1_655 . 2_756 89.9(5) y
O5 Na1 Na2 1_655 . 2_666 46.9(4) y
O5 Na1 Hf1 1_655 . 1_655 36.4(4) y
O5 Na1 Si1 1_655 . 1_554 113.7(5) y
O5 Na1 Si1 1_655 . . 85.7(5) y
O5 Na1 Si1 1_655 . 2_756 94.3(5) y
O5 Na1 Si2 1_655 . . 29.8(4) y
Na1 Na1 Na1 2_755 . 2_756 109.5(3) y
Na1 Na1 Na2 2_755 . 2_666 116.9(4) y
Na1 Na1 Hf1 2_755 . 1_655 79.2(3) y
Na1 Na1 Si1 2_755 . 1_554 58.3(3) y
Na1 Na1 Si1 2_755 . . 158.2(4) y
Na1 Na1 Si1 2_755 . 2_756 52.3(2) y
Na1 Na1 Si2 2_755 . . 141.2(4) y
Na1 Na1 Na2 2_756 . 2_666 125.8(4) y
Na1 Na1 Hf1 2_756 . 1_655 92.0(3) y
Na1 Na1 Si1 2_756 . 1_554 156.1(5) y
Na1 Na1 Si1 2_756 . . 59.0(3) y
Na1 Na1 Si1 2_756 . 2_756 61.2(3) y
Na1 Na1 Si2 2_756 . . 70.6(3) y
Na2 Na1 Hf1 2_666 . 1_655 71.7(3) y
Na2 Na1 Si1 2_666 . 1_554 76.5(3) y
Na2 Na1 Si1 2_666 . . 83.1(3) y
Na2 Na1 Si1 2_666 . 2_756 135.6(5) y
Na2 Na1 Si2 2_666 . . 55.9(3) y
Hf1 Na1 Si1 1_655 . 1_554 104.5(4) y
Hf1 Na1 Si1 1_655 . . 117.6(3) y
Hf1 Na1 Si1 1_655 . 2_756 64.0(3) y
Hf1 Na1 Si2 1_655 . . 62.2(3) y
Si1 Na1 Si1 1_554 . . 123.9(4) y
Si1 Na1 Si1 1_554 . 2_756 110.6(4) y
Si1 Na1 Si2 1_554 . . 132.4(4) y
Si1 Na1 Si1 . . 2_756 120.1(3) y
Si1 Na1 Si2 . . . 56.5(3) y
Si1 Na1 Si2 2_756 . . 103.3(3) y
O7 Na2 Na1 2_666 . 2_666 99.3(5) y
O7 Na2 Na2 2_666 . 2_666 45.5(4) y
O7 Na2 Na2 2_666 . 2_667 60.6(4) y
O7 Na2 Hf1 2_666 . . 96.4(4) y
O7 Na2 Hf1 2_666 . 1_556 113.5(4) y
O7 Na2 Hf1 2_666 . 2_666 35.8(3) y
O7 Na2 Si1 2_666 . . 68.4(4) y
O7 Na2 Si2 2_666 . 2_666 110.4(5) y
Na1 Na2 Na2 2_666 . 2_666 91.8(3) y
Na1 Na2 Na2 2_666 . 2_667 97.3(3) y
Na1 Na2 Hf1 2_666 . . 117.5(3) y
Na1 Na2 Hf1 2_666 . 1_556 124.7(3) y
Na1 Na2 Hf1 2_666 . 2_666 64.7(3) y
Na1 Na2 Si1 2_666 . . 167.6(4) y
Na1 Na2 Si2 2_666 . 2_666 58.2(3) y
Na2 Na2 Na2 2_666 . 2_667 106.1(3) y
Na2 Na2 Hf1 2_666 . . 60.3(2) y
Na2 Na2 Hf1 2_666 . 1_556 142.8(3) y
Na2 Na2 Hf1 2_666 . 2_666 59.4(2) y
Na2 Na2 Si1 2_666 . . 80.2(3) y
Na2 Na2 Si2 2_666 . 2_666 68.4(3) y
Na2 Na2 Hf1 2_667 . . 141.7(3) y
Na2 Na2 Hf1 2_667 . 1_556 66.1(3) y
Na2 Na2 Hf1 2_667 . 2_666 60.0(3) y
Na2 Na2 Si1 2_667 . . 76.2(3) y
Na2 Na2 Si2 2_667 . 2_666 153.7(4) y
Hf1 Na2 Hf1 . . 1_556 102.1(3) y
Hf1 Na2 Hf1 . . 2_666 119.7(3) y
Hf1 Na2 Si1 . . . 66.6(2) y
Hf1 Na2 Si2 . . 2_666 59.6(2) y
Hf1 Na2 Hf1 1_556 . 2_666 126.1(3) y
Hf1 Na2 Si1 1_556 . . 62.6(2) y
Hf1 Na2 Si2 1_556 . 2_666 134.1(4) y
Hf1 Na2 Si1 2_666 . . 102.9(3) y
Hf1 Na2 Si2 2_666 . 2_666 97.7(3) y
Si1 Na2 Si2 . . 2_666 125.7(4) y
O1 Hf1 O3 . . . 88.5(5) y
O1 Hf1 O6 . . 1_554 91.8(5) y
O1 Hf1 Na1 . . 1_455 51.7(4) y
O1 Hf1 Na2 . . 1_554 123.8(4) y
O1 Hf1 Na2 . . . 131.8(4) y
O1 Hf1 Na2 . . 2_666 136.4(4) y
O3 Hf1 O6 . . 1_554 171.1(6) y
O3 Hf1 Na1 . . 1_455 107.6(5) y
O3 Hf1 Na2 . . 1_554 124.6(5) y
O3 Hf1 Na2 . . . 50.0(4) y
O3 Hf1 Na2 . . 2_666 71.4(5) y
O6 Hf1 Na1 1_554 . 1_455 79.4(4) y
O6 Hf1 Na2 1_554 . 1_554 48.7(4) y
O6 Hf1 Na2 1_554 . . 133.2(3) y
O6 Hf1 Na2 1_554 . 2_666 102.6(4) y
Na1 Hf1 Na2 1_455 . 1_554 127.8(2) y
Na1 Hf1 Na2 1_455 . . 111.9(2) y
Na1 Hf1 Na2 1_455 . 2_666 171.0(2) y
Na2 Hf1 Na2 1_554 . . 102.1(2) y
Na2 Hf1 Na2 1_554 . 2_666 53.9(2) y
Na2 Hf1 Na2 . . 2_666 60.3(2) y
O1 Si1 O2 2_656 . . 111.9(8) y
O1 Si1 O3 2_656 . . 113.6(9) y
O1 Si1 O4 2_656 . 1_556 109.9(9) y
O1 Si1 Na1 2_656 . . 97.9(6) y
O1 Si1 Na1 2_656 . 1_556 76.2(6) y
O1 Si1 Na1 2_656 . 2_756 61.5(6) y
O1 Si1 Na2 2_656 . . 150.4(7) y
O2 Si1 O3 . . . 104.6(8) y
O2 Si1 O4 . . 1_556 105.7(9) y
O2 Si1 Na1 . . . 52.6(6) y
O2 Si1 Na1 . . 1_556 77.6(6) y
O2 Si1 Na1 . . 2_756 50.5(5) y
O2 Si1 Na2 . . . 97.4(6) y
O3 Si1 O4 . . 1_556 110.8(7) y
O3 Si1 Na1 . . . 64.3(6) y
O3 Si1 Na1 . . 1_556 167.4(6) y
O3 Si1 Na1 . . 2_756 121.8(6) y
O3 Si1 Na2 . . . 59.9(5) y
O4 Si1 Na1 1_556 . . 150.5(8) y
O4 Si1 Na1 1_556 . 1_556 57.1(5) y
O4 Si1 Na1 1_556 . 2_756 125.7(6) y
O4 Si1 Na2 1_556 . . 55.6(5) y
Na1 Si1 Na1 . . 1_556 123.9(4) y
Na1 Si1 Na1 . . 2_756 59.9(3) y
Na1 Si1 Na2 . . . 103.3(3) y
Na1 Si1 Na1 1_556 . 2_756 69.4(3) y
Na1 Si1 Na2 1_556 . . 107.6(3) y
Na1 Si1 Na2 2_756 . . 147.9(4) y
O2 Si2 O5 . . 1_655 100.7(8) y
O2 Si2 O6 . . 1_655 106.7(8) y
O2 Si2 O7 . . 2_666 102.8(8) y
O2 Si2 Na1 . . . 55.3(5) y
O2 Si2 Na2 . . 2_666 103.7(6) y
O5 Si2 O6 1_655 . 1_655 116.1(9) y
O5 Si2 O7 1_655 . 2_666 109.8(8) y
O5 Si2 Na1 1_655 . . 46.0(6) y
O5 Si2 Na2 1_655 . 2_666 53.3(5) y
O6 Si2 O7 1_655 . 2_666 118.2(8) y
O6 Si2 Na1 1_655 . . 131.2(6) y
O6 Si2 Na2 1_655 . 2_666 149.4(8) y
O7 Si2 Na1 2_666 . . 110.3(6) y
O7 Si2 Na2 2_666 . 2_666 57.1(6) y
Na1 Si2 Na2 . . 2_666 65.9(3) y
loop_
_geom_bond_atom_site_label_1
_geom_bond_atom_site_label_2
_geom_bond_site_symmetry_1
_geom_bond_site_symmetry_2
_geom_bond_distance
_geom_bond_publ_flag
O1 Hf1 . . 2.017(15) y
O1 Si1 . 2_656 1.568(17) y
O2 Si1 . . 1.567(18) y
O2 Si2 . . 1.660(17) y
O3 Hf1 . . 2.060(13) y
O3 Si1 . . 1.644(15) y
O4 Na1 . . 2.450(15) y
O4 Si1 . 1_554 1.622(15) y
O5 Na1 . 1_455 2.323(18) y
O5 Si2 . 1_455 1.605(16) y
O6 Hf1 . 1_556 2.115(13) y
O6 Si2 . 1_455 1.497(16) y
O7 Na2 . 2_666 2.441(18) y
O7 Si2 . 2_666 1.625(13) y
Na1 Na1 . 2_755 3.453(14) y
Na1 Na1 . 2_756 3.169(13) y
Na1 Na2 . 2_666 3.363(13) y
Na1 Hf1 . 1_655 3.513(12) y
Na1 Si1 . 1_554 2.919(12) y
Na1 Si1 . . 3.210(13) y
Na1 Si1 . 2_756 3.140(11) y
Na1 Si2 . . 3.132(13) y
Na2 Na2 . 2_666 3.590(14) y
Na2 Na2 . 2_667 3.174(13) y
Na2 Hf1 . . 3.556(9) y
Na2 Hf1 . 1_556 3.399(10) y
Na2 Hf1 . 2_666 3.590(10) y
Na2 Si1 . . 3.161(10) y
Na2 Si2 . 2_666 3.052(11) y
loop_
_pd_proc_point_id
_pd_proc_2theta_corrected
_pd_proc_intensity_net
_pd_calc_intensity_net
_pd_proc_ls_weight
1 8.0437 8175.00 8673.87 90.42
2 8.0612 8163.00 8660.86 90.35
3 8.0786 8307.00 8647.91 91.14
4 8.0961 8178.00 8635.00 90.43
5 8.1135 8047.00 8622.15 89.71
6 8.1309 8549.00 8609.34 92.46
7 8.1484 8403.00 8596.58 91.67
8 8.1658 8410.00 8583.87 91.71
9 8.1833 8159.00 8571.21 90.33
10 8.2007 8421.00 8558.59 91.77
11 8.2181 8242.00 8546.03 90.79
12 8.2356 8218.00 8533.50 90.65
13 8.2530 8217.00 8521.03 90.65
14 8.2705 8244.00 8508.61 90.80
15 8.2879 8383.00 8496.23 91.56
16 8.3053 8289.00 8483.90 91.04
17 8.3228 8222.00 8471.61 90.68
18 8.3402 8107.00 8459.38 90.04
19 8.3576 8098.00 8447.19 89.99
20 8.3751 8164.00 8435.04 90.35
21 8.3925 8276.00 8422.94 90.97
22 8.4100 8270.00 8410.89 90.94
23 8.4274 8178.00 8398.88 90.43
24 8.4448 8206.00 8386.92 90.59
25 8.4623 8099.00 8375.01 89.99
26 8.4797 8213.00 8363.14 90.63
27 8.4972 8054.00 8351.31 89.74
28 8.5146 8109.00 8339.53 90.05
29 8.5321 8187.00 8327.80 90.48
30 8.5495 8150.00 8316.10 90.28
31 8.5669 8169.00 8304.46 90.38
32 8.5844 8163.00 8292.86 90.35
33 8.6018 8093.00 8281.30 89.96
34 8.6193 8163.00 8269.79 90.35
35 8.6367 8040.00 8258.32 89.67
36 8.6541 8283.00 8246.90 91.01
37 8.6716 8013.00 8235.52 89.52
38 8.6890 8024.00 8224.18 89.58
39 8.7065 8115.00 8212.88 90.08
40 8.7239 8095.00 8201.63 89.97
41 8.7413 8190.00 8190.42 90.50
42 8.7588 7982.00 8179.26 89.34
43 8.7762 8121.00 8168.14 90.12
44 8.7936 8198.00 8157.06 90.54
45 8.8111 7982.00 8146.02 89.34
46 8.8285 8030.00 8135.03 89.61
47 8.8460 8189.00 8124.08 90.49
48 8.8634 8064.00 8113.17 89.80
49 8.8808 8093.00 8102.30 89.96
50 8.8983 8032.00 8091.47 89.62
51 8.9157 8081.00 8080.69 89.89
52 8.9332 8009.00 8069.94 89.49
53 8.9506 8127.00 8059.24 90.15
54 8.9680 7918.00 8048.58 88.98
55 8.9855 7978.00 8037.96 89.32
56 9.0029 7919.00 8027.39 88.99
57 9.0204 7977.00 8016.85 89.31
58 9.0378 8035.00 8006.35 89.64
59 9.0552 7793.00 7995.89 88.28
60 9.0727 8017.00 7985.48 89.54
61 9.0901 7981.00 7975.10 89.34
62 9.1076 8021.00 7964.77 89.56
63 9.1250 8065.00 7954.47 89.81
64 9.1424 7978.00 7944.21 89.32
65 9.1599 7885.00 7934.00 88.80
66 9.1773 7840.00 7923.82 88.54
67 9.1948 7875.00 7913.68 88.74
68 9.2122 7997.00 7903.59 89.43
69 9.2296 8025.00 7893.53 89.58
70 9.2471 7896.00 7883.51 88.86
71 9.2645 7908.00 7873.53 88.93
72 9.2820 7819.00 7863.58 88.43
73 9.2994 7988.00 7853.68 89.38
74 9.3168 7919.00 7843.81 88.99
75 9.3343 7912.00 7833.99 88.95
76 9.3517 7882.00 7824.20 88.78
77 9.3692 7820.00 7814.44 88.43
78 9.3866 7947.00 7804.73 89.15
79 9.4040 7759.00 7795.06 88.09
80 9.4215 7821.00 7785.42 88.44
81 9.4389 7783.00 7775.82 88.22
82 9.4564 7675.00 7766.26 87.61
83 9.4738 7913.00 7756.73 88.96
84 9.4912 7785.00 7747.24 88.23
85 9.5087 7850.00 7737.79 88.60
86 9.5261 7832.00 7728.38 88.50
87 9.5435 7850.00 7719.00 88.60
88 9.5610 7767.00 7709.65 88.13
89 9.5784 7863.00 7700.35 88.67
90 9.5959 7862.00 7691.08 88.67
91 9.6133 7871.00 7681.85 88.72
92 9.6307 7695.00 7672.65 87.72
93 9.6482 7727.00 7663.49 87.90
94 9.6656 7545.00 7654.37 86.86
95 9.6831 7670.00 7653.36 87.58
96 9.7005 7612.00 7648.49 87.25
97 9.7179 7718.00 7640.00 87.85
98 9.7354 7768.00 7631.57 88.14
99 9.7528 7713.00 7623.20 87.82
100 9.7703 7708.00 7614.89 87.80
101 9.7877 7674.00 7606.65 87.60
102 9.8051 7636.00 7598.48 87.38
103 9.8226 7612.00 7590.39 87.25
104 9.8400 7690.00 7582.38 87.69
105 9.8575 7574.00 7574.46 87.03
106 9.8749 7643.00 7566.63 87.42
107 9.8923 7662.00 7558.90 87.53
108 9.9098 7552.00 7551.27 86.90
109 9.9272 7633.00 7543.75 87.37
110 9.9447 7611.00 7536.36 87.24
111 9.9621 7599.00 7529.10 87.17
112 9.9795 7428.00 7521.98 86.19
113 9.9970 7520.00 7515.01 86.72
114 10.0144 7598.00 7508.22 87.17
115 10.0319 7544.00 7501.61 86.86
116 10.0493 7763.00 7495.20 88.11
117 10.0667 7615.00 7489.04 87.26
118 10.0842 7723.00 7483.12 87.88
119 10.1016 7574.00 7477.49 87.03
120 10.1191 7506.00 7472.18 86.64
121 10.1365 7722.00 7467.25 87.87
122 10.1539 7670.00 7462.74 87.58
123 10.1714 7678.00 7458.72 87.62
124 10.1888 7629.00 7455.26 87.34
125 10.2063 7563.00 7452.43 86.97
126 10.2237 7655.00 7450.34 87.49
127 10.2411 7766.00 7449.14 88.12
128 10.2586 7665.00 7449.00 87.55
129 10.2760 7688.00 7450.15 87.68
130 10.2935 7638.00 7452.90 87.40
131 10.3109 7626.00 7457.62 87.33
132 10.3283 7749.00 7464.83 88.03
133 10.3458 7797.00 7475.23 88.30
134 10.3632 7775.00 7489.76 88.18
135 10.3806 7630.00 7509.76 87.35
136 10.3981 7855.00 7537.07 88.63
137 10.4155 7693.00 7574.28 87.71
138 10.4330 7855.00 7625.02 88.63
139 10.4504 8051.00 7694.35 89.73
140 10.4678 8191.00 7789.39 90.50
141 10.4853 8339.00 7919.68 91.32
142 10.5027 8205.00 8097.38 90.58
143 10.5202 8472.00 8336.06 92.04
144 10.5376 8558.00 8647.03 92.51
145 10.5550 8677.00 9029.98 93.15
146 10.5725 8940.00 9454.76 94.55
147 10.5899 9364.00 9836.55 96.77
148 10.6074 9670.00 10038.30 98.34
149 10.6248 9937.00 9952.68 99.68
150 10.6422 9797.00 9604.83 98.98
151 10.6597 9474.00 9129.59 97.33
152 10.6771 8796.00 8664.99 93.79
153 10.6946 8161.00 8284.28 90.34
154 10.7120 7968.00 7999.36 89.26
155 10.7294 7644.00 7794.16 87.43
156 10.7469 7435.00 7647.37 86.23
157 10.7643 7482.00 7540.92 86.50
158 10.7818 7405.00 7461.66 86.05
159 10.7992 7344.00 7400.70 85.70
160 10.8166 7499.00 7352.31 86.60
161 10.8341 7358.00 7312.81 85.78
162 10.8515 7240.00 7279.80 85.09
163 10.8690 7255.00 7251.67 85.18
164 10.8864 7138.00 7227.29 84.49
165 10.9038 7170.00 7205.84 84.68
166 10.9213 7180.00 7186.71 84.73
167 10.9387 7254.00 7169.45 85.17
168 10.9562 7108.00 7153.72 84.31
169 10.9736 7261.00 7139.22 85.21
170 10.9910 7170.00 7125.76 84.68
171 11.0085 7125.00 7113.16 84.41
172 11.0259 7124.00 7101.29 84.40
173 11.0434 7209.00 7090.02 84.91
174 11.0608 7154.00 7079.29 84.58
175 11.0782 7218.00 7069.01 84.96
176 11.0957 7010.00 7059.15 83.73
177 11.1131 7077.00 7049.64 84.12
178 11.1306 7250.00 7040.44 85.15
179 11.1480 7153.00 7031.53 84.58
180 11.1654 7081.00 7022.88 84.15
181 11.1829 7102.00 7014.46 84.27
182 11.2003 6934.00 7006.23 83.27
183 11.2177 7069.00 6998.18 84.08
184 11.2352 7032.00 6990.29 83.86
185 11.2526 7070.00 6982.55 84.08
186 11.2701 7004.00 6974.94 83.69
187 11.2875 7010.00 6967.44 83.73
188 11.3049 7116.00 6960.07 84.36
189 11.3224 7087.00 6952.79 84.18
190 11.3398 7013.00 6945.61 83.74
191 11.3573 7123.00 6938.53 84.40
192 11.3747 7107.00 6931.52 84.30
193 11.3921 7004.00 6924.60 83.69
194 11.4096 7229.00 6917.74 85.02
195 11.4270 7108.00 6910.96 84.31
196 11.4445 7000.00 6904.24 83.67
197 11.4619 6905.00 6897.58 83.10
198 11.4793 6974.00 6890.98 83.51
199 11.4968 7128.00 6884.44 84.43
200 11.5142 6757.00 6877.95 82.20
201 11.5317 6980.00 6871.47 83.55
202 11.5491 6762.00 6864.78 82.23
203 11.5665 6859.00 6851.32 82.82
204 11.5840 6998.00 6845.14 83.65
205 11.6014 7073.00 6835.93 84.10
206 11.6189 6866.00 6830.08 82.86
207 11.6363 6862.00 6824.24 82.84
208 11.6537 6862.00 6818.44 82.84
209 11.6712 6892.00 6812.65 83.02
210 11.6886 6933.00 6806.89 83.26
211 11.7061 6895.00 6801.15 83.04
212 11.7235 6899.00 6795.43 83.06
213 11.7409 6705.00 6789.74 81.88
214 11.7584 6773.00 6784.07 82.30
215 11.7758 6908.00 6778.42 83.11
216 11.7933 6962.00 6772.79 83.44
217 11.8107 6883.00 6767.19 82.96
218 11.8281 6810.00 6761.61 82.52
219 11.8456 6933.00 6756.05 83.26
220 11.8630 6839.00 6750.51 82.70
221 11.8805 6895.00 6744.99 83.04
222 11.8979 6801.00 6739.50 82.47
223 11.9153 6957.00 6734.03 83.41
224 11.9328 6766.00 6728.58 82.26
225 11.9502 7020.00 6723.15 83.79
226 11.9677 6760.00 6717.74 82.22
227 11.9851 6669.00 6712.36 81.66
228 12.0025 6747.00 6706.99 82.14
229 12.0200 6803.00 6701.65 82.48
230 12.0374 6725.00 6696.33 82.01
231 12.0548 6719.00 6691.03 81.97
232 12.0723 6847.00 6685.75 82.75
233 12.0897 6819.00 6680.49 82.58
234 12.1072 6780.00 6675.25 82.34
235 12.1246 6769.00 6670.03 82.27
236 12.1420 6719.00 6664.84 81.97
237 12.1595 6821.00 6659.66 82.59
238 12.1769 6743.00 6654.51 82.12
239 12.1944 6751.00 6649.37 82.16
240 12.2118 6676.00 6644.26 81.71
241 12.2292 6691.00 6639.16 81.80
242 12.2467 6602.00 6634.09 81.25
243 12.2641 6600.00 6629.03 81.24
244 12.2816 6746.00 6624.00 82.13
245 12.2990 6685.00 6618.98 81.76
246 12.3164 6578.00 6613.99 81.10
247 12.3339 6640.00 6609.02 81.49
248 12.3513 6595.00 6604.06 81.21
249 12.3688 6674.00 6599.12 81.69
250 12.3862 6769.00 6594.21 82.27
251 12.4036 6612.00 6589.31 81.31
252 12.4211 6725.00 6584.43 82.01
253 12.4385 6581.00 6579.58 81.12
254 12.4560 6633.00 6574.74 81.44
255 12.4734 6757.00 6569.92 82.20
256 12.4908 6628.00 6565.12 81.41
257 12.5083 6689.00 6560.33 81.79
258 12.5257 6658.00 6555.57 81.60
259 12.5431 6593.00 6550.83 81.20
260 12.5606 6528.00 6546.10 80.80
261 12.5780 6662.00 6541.39 81.62
262 12.5955 6551.00 6536.71 80.94
263 12.6129 6684.00 6532.03 81.76
264 12.6304 6708.00 6527.38 81.90
265 12.6478 6571.00 6522.75 81.06
266 12.6652 6691.00 6518.13 81.80
267 12.6827 6670.00 6513.54 81.67
268 12.7001 6640.00 6508.96 81.49
269 12.7176 6607.00 6504.40 81.28
270 12.7350 6612.00 6499.85 81.31
271 12.7524 6548.00 6495.33 80.92
272 12.7699 6556.00 6490.82 80.97
273 12.7873 6423.00 6486.33 80.14
274 12.8047 6441.00 6481.86 80.26
275 12.8222 6590.00 6477.40 81.18
276 12.8396 6442.00 6472.96 80.26
277 12.8571 6546.00 6468.54 80.91
278 12.8745 6516.00 6464.14 80.72
279 12.8919 6554.00 6459.75 80.96
280 12.9094 6559.00 6455.38 80.99
281 12.9268 6614.00 6451.03 81.33
282 12.9443 6541.00 6446.70 80.88
283 12.9617 6653.00 6442.38 81.57
284 12.9791 6613.00 6438.08 81.32
285 12.9966 6481.00 6433.79 80.50
286 13.0140 6575.00 6429.53 81.09
287 13.0315 6573.00 6425.27 81.07
288 13.0489 6536.00 6421.04 80.85
289 13.0663 6542.00 6416.82 80.88
290 13.0838 6536.00 6412.62 80.85
291 13.1012 6566.00 6408.44 81.03
292 13.1187 6427.00 6404.27 80.17
293 13.1361 6386.00 6400.11 79.91
294 13.1535 6436.00 6399.08 80.22
295 13.1710 6488.00 6395.08 80.55
296 13.1884 6604.00 6392.61 81.26
297 13.2058 6418.00 6388.71 80.11
298 13.2233 6533.00 6384.84 80.83
299 13.2407 6625.00 6380.99 81.39
300 13.2582 6618.00 6377.16 81.35
301 13.2756 6480.00 6373.36 80.50
302 13.2930 6501.00 6369.60 80.63
303 13.3105 6607.00 6365.86 81.28
304 13.3279 6478.00 6362.15 80.49
305 13.3454 6471.00 6358.48 80.44
306 13.3628 6409.00 6354.84 80.06
307 13.3802 6594.00 6351.24 81.20
308 13.3977 6483.00 6347.67 80.52
309 13.4151 6604.00 6344.15 81.26
310 13.4326 6294.00 6340.67 79.33
311 13.4500 6438.00 6337.23 80.24
312 13.4674 6336.00 6333.84 79.60
313 13.4849 6237.00 6330.51 78.97
314 13.5023 6390.00 6327.23 79.94
315 13.5198 6352.00 6324.01 79.70
316 13.5372 6295.00 6320.87 79.34
317 13.5546 6415.00 6317.79 80.09
318 13.5721 6252.00 6314.79 79.07
319 13.5895 6468.00 6311.88 80.42
320 13.6070 6306.00 6309.06 79.41
321 13.6244 6430.00 6306.36 80.19
322 13.6418 6298.00 6303.77 79.36
323 13.6593 6352.00 6301.33 79.70
324 13.6767 6391.00 6299.04 79.94
325 13.6942 6416.00 6296.94 80.10
326 13.7116 6371.00 6295.04 79.82
327 13.7290 6451.00 6293.37 80.32
328 13.7465 6315.00 6355.10 79.47
329 13.7639 6419.00 6356.42 80.12
330 13.7814 6344.00 6388.82 79.65
331 13.7988 6339.00 6392.27 79.62
332 13.8162 6406.00 6396.41 80.04
333 13.8337 6316.00 6401.36 79.47
334 13.8511 6423.00 6407.30 80.14
335 13.8686 6616.00 6414.46 81.34
336 13.8860 6357.00 6423.10 79.73
337 13.9034 6418.00 6433.59 80.11
338 13.9209 6339.00 6446.43 79.62
339 13.9383 6403.00 6462.35 80.02
340 13.9558 6406.00 6482.38 80.04
341 13.9732 6477.00 6508.05 80.48
342 13.9906 6526.00 6541.66 80.78
343 14.0081 6666.00 6586.46 81.65
344 14.0255 6691.00 6646.95 81.80
345 14.0429 6757.00 6728.73 82.20
346 14.0604 6928.00 6837.82 83.23
347 14.0778 6945.00 6978.83 83.34
348 14.0953 6901.00 7151.11 83.07
349 14.1127 7245.00 7341.87 85.12
350 14.1301 7402.00 7518.03 86.03
351 14.1476 7351.00 7629.19 85.74
352 14.1650 7550.00 7636.64 86.89
353 14.1825 7510.00 7544.24 86.66
354 14.1999 7523.00 7390.06 86.74
355 14.2173 7306.00 7220.21 85.48
356 14.2348 7261.00 7070.31 85.21
357 14.2522 7207.00 6956.50 84.89
358 14.2697 6982.00 6879.72 83.56
359 14.2871 6977.00 6834.33 83.53
360 14.3045 7056.00 6813.58 84.00
361 14.3220 7168.00 6811.77 84.66
362 14.3394 7076.00 6824.86 84.12
363 14.3569 7216.00 6850.39 84.95
364 14.3743 7290.00 6887.25 85.38
365 14.3917 7206.00 6935.34 84.89
366 14.4092 7598.00 6995.42 87.17
367 14.4266 7545.00 7068.96 86.86
368 14.4440 7935.00 7158.17 89.08
369 14.4615 7918.00 7266.20 88.98
370 14.4789 8189.00 7397.34 90.49
371 14.4964 8488.00 7557.54 92.13
372 14.5138 8953.00 7755.19 94.62
373 14.5312 9410.00 8002.27 97.01
374 14.5487 9940.00 8316.40 99.70
375 14.5661 10183.00 8724.01 100.91
376 14.5836 11129.00 9264.80 105.49
377 14.6010 11871.00 9996.95 108.95
378 14.6185 13056.00 11002.30 114.26
379 14.6359 14211.00 12386.50 119.21
380 14.6533 15885.00 14269.70 126.04
381 14.6708 17514.00 16758.40 132.34
382 14.6882 19656.00 19885.10 140.20
383 14.7056 22177.00 23492.10 148.92
384 14.7231 24641.00 27070.20 156.98
385 14.7405 27662.00 29703.00 166.32
386 14.7580 29489.00 30455.40 171.72
387 14.7754 30270.00 29074.90 173.98
388 14.7928 28123.00 26105.80 167.70
389 14.8103 24814.00 22414.40 157.52
390 14.8277 20227.00 18803.30 142.22
391 14.8452 16093.00 15756.90 126.86
392 14.8626 12621.00 13407.40 112.34
393 14.8800 10333.00 11682.40 101.65
394 14.8975 9054.00 10443.60 95.15
395 14.9149 8235.00 9555.96 90.75
396 14.9324 7767.00 8911.75 88.13
397 14.9498 7352.00 8432.91 85.74
398 14.9672 7004.00 8066.93 83.69
399 14.9847 6833.00 7779.61 82.66
400 15.0021 6738.00 7548.84 82.09
401 15.0196 6606.00 7360.08 81.28
402 15.0370 6576.00 7203.46 81.09
403 15.0544 6441.00 7071.91 80.26
404 15.0719 6263.00 6960.27 79.14
405 15.0893 6398.00 6864.65 79.99
406 15.1067 6348.00 6782.04 79.67
407 15.1242 6301.00 6710.08 79.38
408 15.1416 6279.00 6646.88 79.24
409 15.1591 6228.00 6591.00 78.92
410 15.1765 6410.00 6538.75 80.06
411 15.1939 6262.00 6494.49 79.13
412 15.2114 6301.00 6453.55 79.38
413 15.2288 6286.00 6417.90 79.28
414 15.2463 6152.00 6385.73 78.43
415 15.2637 6103.00 6356.61 78.12
416 15.2811 6302.00 6330.16 79.39
417 15.2986 6016.00 6306.03 77.56
418 15.3160 6220.00 6283.87 78.87
419 15.3335 5992.00 6263.50 77.41
420 15.3509 6231.00 6244.71 78.94
421 15.3683 6217.00 6229.04 78.85
422 15.3858 6175.00 6212.92 78.58
423 15.4032 6169.00 6198.74 78.54
424 15.4207 6088.00 6184.74 78.03
425 15.4381 6048.00 6171.63 77.77
426 15.4555 6096.00 6159.32 78.08
427 15.4730 6045.00 6147.73 77.75
428 15.4904 6127.00 6136.80 78.28
429 15.5079 6127.00 6126.47 78.28
430 15.5253 6042.00 6116.68 77.73
431 15.5427 5974.00 6107.40 77.29
432 15.5602 6119.00 6098.58 78.22
433 15.5776 5944.00 6090.18 77.10
434 15.5950 5988.00 6082.17 77.38
435 15.6125 6127.00 6074.52 78.28
436 15.6299 6039.00 6067.21 77.71
437 15.6474 5999.00 6060.21 77.45
438 15.6648 6027.00 6053.50 77.63
439 15.6823 6165.00 6047.06 78.52
440 15.6997 6073.00 6040.87 77.93
441 15.7171 5946.00 6034.91 77.11
442 15.7346 5918.00 6028.84 76.93
443 15.7520 5843.00 6021.28 76.44
444 15.7695 5885.00 6013.86 76.71
445 15.7869 6083.00 5955.51 77.99
446 15.8043 5948.00 5951.55 77.12
447 15.8218 6117.00 5921.54 78.21
448 15.8392 6066.00 5919.64 77.88
449 15.8566 6012.00 5917.78 77.54
450 15.8741 5899.00 5915.99 76.80
451 15.8915 5909.00 5914.26 76.87
452 15.9090 5971.00 5912.61 77.27
453 15.9264 5905.00 5911.05 76.84
454 15.9438 5889.00 5909.59 76.74
455 15.9613 6005.00 5908.23 77.49
456 15.9787 5841.00 5907.01 76.43
457 15.9962 5974.00 5905.93 77.29
458 16.0136 5939.00 5905.02 77.06
459 16.0310 5946.00 5904.29 77.11
460 16.0485 5888.00 5903.79 76.73
461 16.0659 5961.00 5903.56 77.21
462 16.0834 5946.00 5903.64 77.11
463 16.1008 6001.00 5904.12 77.47
464 16.1182 5945.00 5905.07 77.10
465 16.1357 5800.00 5906.62 76.16
466 16.1531 5981.00 5908.92 77.34
467 16.1705 5950.00 5912.18 77.14
468 16.1880 5901.00 5916.70 76.82
469 16.2054 5986.00 5922.92 77.37
470 16.2229 5974.00 5931.49 77.29
471 16.2403 5996.00 5943.41 77.43
472 16.2577 6190.00 5960.16 78.68
473 16.2752 6006.00 5983.86 77.50
474 16.2926 6118.00 6017.32 78.22
475 16.3101 6016.00 6063.91 77.56
476 16.3275 6099.00 6126.92 78.10
477 16.3449 6118.00 6208.31 78.22
478 16.3624 6258.00 6306.23 79.11
479 16.3798 6278.00 6411.02 79.23
480 16.3973 6533.00 6501.82 80.83
481 16.4147 6357.00 6551.28 79.73
482 16.4321 6751.00 6542.52 82.16
483 16.4496 6488.00 6480.81 80.55
484 16.4670 6382.00 6385.07 79.89
485 16.4845 6177.00 6277.08 78.59
486 16.5019 6116.00 6175.55 78.20
487 16.5193 6056.00 6090.90 77.82
488 16.5368 6063.00 6025.26 77.87
489 16.5542 5970.00 5976.35 77.27
490 16.5717 5951.00 5940.44 77.14
491 16.5891 5807.00 5913.98 76.20
492 16.6065 5733.00 5894.14 75.72
493 16.6240 5780.00 5878.81 76.03
494 16.6414 5660.00 5866.58 75.23
495 16.6588 5724.00 5856.51 75.66
496 16.6763 5703.00 5848.01 75.52
497 16.6937 5697.00 5840.67 75.48
498 16.7112 5649.00 5834.23 75.16
499 16.7286 5710.00 5828.50 75.56
500 16.7460 5667.00 5823.32 75.28
501 16.7635 5816.00 5818.59 76.26
502 16.7809 5811.00 5814.24 76.23
503 16.7984 5786.00 5810.19 76.07
504 16.8158 5797.00 5806.40 76.14
505 16.8333 5727.00 5802.82 75.68
506 16.8507 5684.00 5799.43 75.39
507 16.8681 5812.00 5796.19 76.24
508 16.8856 5796.00 5793.08 76.13
509 16.9030 5680.00 5790.10 75.37
510 16.9204 5636.00 5787.22 75.07
511 16.9379 5747.00 5784.44 75.81
512 16.9553 5640.00 5781.74 75.10
513 16.9728 5595.00 5779.11 74.80
514 16.9902 5576.00 5776.55 74.67
515 17.0076 5719.00 5774.04 75.62
516 17.0251 5658.00 5771.58 75.22
517 17.0425 5598.00 5769.17 74.82
518 17.0600 5669.00 5766.79 75.29
519 17.0774 5710.00 5764.46 75.56
520 17.0948 5720.00 5762.15 75.63
521 17.1123 5583.00 5759.88 74.72
522 17.1297 5738.00 5757.63 75.75
523 17.1472 5764.00 5755.42 75.92
524 17.1646 5582.00 5753.22 74.71
525 17.1820 5802.00 5751.05 76.17
526 17.1995 5734.00 5748.89 75.72
527 17.2169 5632.00 5746.76 75.05
528 17.2344 5784.00 5744.64 76.05
529 17.2518 5676.00 5742.54 75.34
530 17.2692 5621.00 5740.45 74.97
531 17.2867 5797.00 5738.38 76.14
532 17.3041 5736.00 5736.33 75.74
533 17.3216 5743.00 5734.28 75.78
534 17.3390 5640.00 5732.25 75.10
535 17.3564 5654.00 5730.23 75.19
536 17.3739 5660.00 5728.22 75.23
537 17.3913 5656.00 5726.22 75.21
538 17.4087 5533.00 5724.23 74.38
539 17.4262 5601.00 5722.25 74.84
540 17.4436 5755.00 5720.27 75.86
541 17.4611 5624.00 5718.26 74.99
542 17.4785 5779.00 5714.69 76.02
543 17.4959 5644.00 5712.77 75.13
544 17.5134 5791.00 5710.09 76.10
545 17.5308 5570.00 5708.24 74.63
546 17.5483 5689.00 5706.39 75.43
547 17.5657 5588.00 5704.54 74.75
548 17.5831 5635.00 5702.70 75.07
549 17.6006 5532.00 5700.86 74.38
550 17.6180 5734.00 5699.03 75.72
551 17.6355 5603.00 5697.20 74.85
552 17.6529 5623.00 5695.37 74.99
553 17.6703 5487.00 5693.55 74.07
554 17.6878 5502.00 5691.73 74.18
555 17.7052 5526.00 5689.92 74.34
556 17.7227 5592.00 5688.11 74.78
557 17.7401 5496.00 5686.30 74.14
558 17.7575 5511.00 5684.49 74.24
559 17.7750 5476.00 5682.69 74.00
560 17.7924 5623.00 5680.90 74.99
561 17.8099 5635.00 5679.10 75.07
562 17.8273 5649.00 5677.31 75.16
563 17.8447 5544.00 5675.52 74.46
564 17.8622 5730.00 5673.74 75.70
565 17.8796 5673.00 5671.96 75.32
566 17.8971 5659.00 5670.18 75.23
567 17.9145 5616.00 5668.41 74.94
568 17.9319 5585.00 5666.64 74.73
569 17.9494 5666.00 5664.88 75.27
570 17.9668 5649.00 5663.11 75.16
571 17.9842 5619.00 5661.35 74.96
572 18.0017 5549.00 5659.60 74.49
573 18.0191 5654.00 5657.84 75.19
574 18.0366 5689.00 5656.09 75.43
575 18.0540 5556.00 5654.34 74.54
576 18.0714 5471.00 5652.60 73.97
577 18.0889 5646.00 5650.86 75.14
578 18.1063 5598.00 5649.12 74.82
579 18.1238 5595.00 5647.39 74.80
580 18.1412 5640.00 5645.65 75.10
581 18.1586 5389.00 5643.93 73.41
582 18.1761 5538.00 5642.20 74.42
583 18.1935 5541.00 5640.48 74.44
584 18.2110 5579.00 5638.76 74.69
585 18.2284 5539.00 5637.04 74.42
586 18.2458 5638.00 5635.33 75.09
587 18.2633 5587.00 5662.02 74.75
588 18.2807 5455.00 5661.30 73.86
589 18.2981 5644.00 5660.60 75.13
590 18.3156 5601.00 5673.91 74.84
591 18.3330 5604.00 5673.76 74.86
592 18.3505 5506.00 5673.69 74.20
593 18.3679 5529.00 5673.70 74.36
594 18.3853 5466.00 5673.79 73.93
595 18.4028 5478.00 5673.99 74.01
596 18.4202 5641.00 5674.28 75.11
597 18.4377 5588.00 5674.69 74.75
598 18.4551 5650.00 5675.23 75.17
599 18.4725 5614.00 5675.89 74.93
600 18.4900 5423.00 5676.70 73.64
601 18.5074 5534.00 5677.66 74.39
602 18.5249 5636.00 5678.78 75.07
603 18.5423 5592.00 5680.08 74.78
604 18.5597 5556.00 5681.58 74.54
605 18.5772 5428.00 5683.29 73.68
606 18.5946 5626.00 5685.23 75.01
607 18.6120 5670.00 5687.43 75.30
608 18.6295 5567.00 5689.90 74.61
609 18.6469 5512.00 5692.67 74.24
610 18.6644 5643.00 5695.78 75.12
611 18.6818 5581.00 5717.00 74.71
612 18.6992 5614.00 5721.46 74.93
613 18.7167 5711.00 5726.38 75.57
614 18.7341 5581.00 5740.50 74.71
615 18.7516 5696.00 5746.80 75.47
616 18.7690 5591.00 5753.75 74.77
617 18.7864 5574.00 5761.44 74.66
618 18.8039 5727.00 5769.96 75.68
619 18.8213 5656.00 5779.42 75.21
620 18.8388 5615.00 5789.95 74.93
621 18.8562 5598.00 5801.72 74.82
622 18.8736 5785.00 5814.89 76.06
623 18.8911 5748.00 5829.68 75.82
624 18.9085 5653.00 5846.33 75.19
625 18.9260 5845.00 5865.08 76.45
626 18.9434 5675.00 5886.22 75.33
627 18.9608 5606.00 5910.06 74.87
628 18.9783 5932.00 5937.01 77.02
629 18.9957 5788.00 5967.60 76.08
630 19.0132 5894.00 6002.49 76.77
631 19.0306 5994.00 6042.51 77.42
632 19.0480 5975.00 6088.75 77.30
633 19.0655 6072.00 6142.58 77.92
634 19.0829 6202.00 6205.78 78.75
635 19.1003 6218.00 6280.69 78.85
636 19.1178 6383.00 6370.54 79.89
637 19.1352 6668.00 6498.87 81.66
638 19.1527 6865.00 6634.88 82.86
639 19.1701 6966.00 6806.94 83.46
640 19.1875 7391.00 7039.34 85.97
641 19.2050 7799.00 7336.23 88.31
642 19.2224 8162.00 7738.45 90.34
643 19.2399 8625.00 8288.20 92.87
644 19.2573 9197.00 9036.02 95.90
645 19.2747 10085.00 10032.80 100.42
646 19.2922 11071.00 11314.50 105.22
647 19.3096 12500.00 12871.30 111.80
648 19.3271 13810.00 14600.80 117.52
649 19.3445 15522.00 16252.30 124.59
650 19.3619 17157.00 17445.30 130.99
651 19.3794 18372.00 17850.80 135.54
652 19.3968 18281.00 17412.50 135.21
653 19.4143 17094.00 16316.90 130.74
654 19.4317 15642.00 14819.50 125.07
655 19.4491 13678.00 13187.50 116.95
656 19.4666 11436.00 11660.00 106.94
657 19.4840 9832.00 10380.10 99.16
658 19.5015 8895.00 9385.69 94.31
659 19.5189 8056.00 8652.81 89.76
660 19.5363 7739.00 8133.69 87.97
661 19.5538 7453.00 7779.48 86.33
662 19.5712 7383.00 7549.66 85.92
663 19.5886 7478.00 7415.31 86.48
664 19.6061 7425.00 7359.61 86.17
665 19.6235 7628.00 7377.05 87.34
666 19.6410 7775.00 7472.65 88.18
667 19.6584 7994.00 7661.23 89.41
668 19.6758 8418.00 7966.29 91.75
669 19.6933 8852.00 8416.69 94.09
670 19.7107 9357.00 9040.44 96.73
671 19.7282 10047.00 9852.27 100.24
672 19.7456 10860.00 10832.70 104.21
673 19.7630 11400.00 11894.70 106.77
674 19.7805 12211.00 12856.60 110.50
675 19.7979 12863.00 13476.00 113.42
676 19.8154 12949.00 13582.30 113.79
677 19.8328 12910.00 13186.00 113.62
678 19.8502 12409.00 12419.20 111.40
679 19.8677 11553.00 11438.00 107.49
680 19.8851 10458.00 10403.90 102.26
681 19.9026 9434.00 9456.08 97.13
682 19.9200 8738.00 8711.32 93.48
683 19.9374 7960.00 8106.20 89.22
684 19.9549 7509.00 7661.53 86.65
685 19.9723 7096.00 7367.00 84.24
686 19.9897 6941.00 7153.92 83.31
687 20.0072 6976.00 7016.59 83.52
688 20.0246 6718.00 6937.34 81.96
689 20.0421 6856.00 6905.27 82.80
690 20.0595 7064.00 6915.86 84.05
691 20.0770 7040.00 6970.47 83.90
692 20.0944 7260.00 7076.56 85.21
693 20.1118 7532.00 7248.39 86.79
694 20.1293 7876.00 7515.58 88.75
695 20.1467 8025.00 7891.55 89.58
696 20.1641 8782.00 8417.40 93.71
697 20.1816 9481.00 9179.91 97.37
698 20.1990 10326.00 10086.30 101.62
699 20.2165 11226.00 11193.90 105.95
700 20.2339 12286.00 12362.30 110.84
701 20.2513 13065.00 13422.30 114.30
702 20.2688 13961.00 14115.80 118.16
703 20.2862 13968.00 14259.50 118.19
704 20.3037 14147.00 13861.30 118.94
705 20.3211 13400.00 13058.40 115.76
706 20.3385 12237.00 12011.90 110.62
707 20.3560 11018.00 10890.20 104.97
708 20.3734 9880.00 9857.88 99.40
709 20.3909 9015.00 8977.15 94.95
710 20.4083 8311.00 8284.69 91.16
711 20.4257 7464.00 7770.53 86.39
712 20.4432 7152.00 7389.77 84.57
713 20.4606 6741.00 7115.17 82.10
714 20.4781 6595.00 6917.31 81.21
715 20.4955 6367.00 6749.29 79.79
716 20.5129 6309.00 6646.88 79.43
717 20.5304 6268.00 6572.09 79.17
718 20.5478 6194.00 6505.89 78.70
719 20.5652 6264.00 6468.88 79.15
720 20.5827 6343.00 6445.10 79.64
721 20.6001 6258.00 6432.68 79.11
722 20.6176 6150.00 6430.40 78.42
723 20.6350 6194.00 6437.48 78.70
724 20.6524 6344.00 6453.49 79.65
725 20.6699 6380.00 6478.28 79.87
726 20.6873 6261.00 6512.02 79.13
727 20.7048 6314.00 6555.18 79.46
728 20.7222 6447.00 6608.58 80.29
729 20.7396 6392.00 6673.43 79.95
730 20.7571 6531.00 6751.42 80.81
731 20.7745 6600.00 6844.74 81.24
732 20.7920 6721.00 6956.36 81.98
733 20.8094 6934.00 7090.25 83.27
734 20.8268 7180.00 7251.86 84.73
735 20.8443 7465.00 7449.04 86.40
736 20.8617 7948.00 7693.17 89.15
737 20.8792 8203.00 8001.36 90.57
738 20.8966 8494.00 8398.95 92.16
739 20.9140 9291.00 8922.67 96.39
740 20.9315 10008.00 9607.97 100.04
741 20.9489 10572.00 10552.40 102.82
742 20.9664 11666.00 11812.30 108.01
743 20.9838 13178.00 13448.50 114.79
744 21.0012 14915.00 15516.80 122.13
745 21.0187 17233.00 17973.50 131.27
746 21.0361 19856.00 20640.70 140.91
747 21.0535 22945.00 23139.80 151.48
748 21.0710 25486.00 24950.90 159.64
749 21.0884 27130.00 25686.40 164.71
750 21.1059 27582.00 25347.50 166.08
751 21.1233 26276.00 24227.80 162.10
752 21.1407 24507.00 22687.90 156.55
753 21.1582 22345.00 21118.70 149.48
754 21.1756 20399.00 19920.00 142.82
755 21.1931 19369.00 19470.40 139.17
756 21.2105 19467.00 19815.80 139.52
757 21.2279 20098.00 21076.40 141.77
758 21.2454 21957.00 23192.60 148.18
759 21.2628 24556.00 25982.70 156.70
760 21.2803 27953.00 28943.80 167.19
761 21.2977 31353.00 31447.00 177.07
762 21.3151 34308.00 32798.70 185.22
763 21.3326 34868.00 32634.50 186.73
764 21.3500 33714.00 31092.00 183.61
765 21.3675 30136.00 28583.50 173.60
766 21.3849 26600.00 25559.50 163.10
767 21.4023 22527.00 22482.30 150.09
768 21.4198 19067.00 19746.80 138.08
769 21.4372 16424.00 17637.80 128.16
770 21.4546 14957.00 16205.80 122.30
771 21.4721 13892.00 15380.80 117.86
772 21.4895 13627.00 15029.60 116.74
773 21.5070 13832.00 14920.80 117.61
774 21.5244 13864.00 14798.20 117.75
775 21.5418 14060.00 14465.40 118.57
776 21.5593 13839.00 13868.50 117.64
777 21.5767 13256.00 13060.10 115.14
778 21.5942 12376.00 12119.50 111.25
779 21.6116 11286.00 11137.50 106.24
780 21.6290 10360.00 10209.30 101.78
781 21.6465 9322.00 9403.19 96.55
782 21.6639 8586.00 8744.50 92.66
783 21.6814 7971.00 8226.84 89.28
784 21.6988 7503.00 7829.03 86.62
785 21.7162 7157.00 7526.21 84.60
786 21.7337 7026.00 7295.54 83.82
787 21.7511 6819.00 7118.26 82.58
788 21.7686 6688.00 6980.46 81.78
789 21.7860 6700.00 6871.83 81.85
790 21.8034 6483.00 6785.68 80.52
791 21.8209 6464.00 6717.57 80.40
792 21.8383 6431.00 6664.29 80.19
793 21.8557 6387.00 6623.94 79.92
794 21.8732 6554.00 6595.14 80.96
795 21.8906 6374.00 6577.00 79.84
796 21.9081 6431.00 6569.00 80.19
797 21.9255 6411.00 6570.86 80.07
798 21.9429 6506.00 6582.50 80.66
799 21.9604 6386.00 6604.09 79.91
800 21.9778 6414.00 6636.02 80.09
801 21.9953 6563.00 6679.06 81.01
802 22.0127 6552.00 6734.31 80.94
803 22.0301 6742.00 6803.26 82.11
804 22.0476 7007.00 6888.09 83.71
805 22.0650 7053.00 6991.56 83.98
806 22.0825 7328.00 7117.33 85.60
807 22.0999 7530.00 7270.39 86.78
808 22.1173 7755.00 7457.48 88.06
809 22.1348 8404.00 7688.22 91.67
810 22.1522 8648.00 7976.60 92.99
811 22.1696 9068.00 8343.67 95.23
812 22.1871 9816.00 8821.00 99.08
813 22.2045 10620.00 9455.23 103.05
814 22.2220 11564.00 10312.00 107.54
815 22.2394 12766.00 11443.50 112.99
816 22.2568 14384.00 13032.00 119.93
817 22.2743 16072.00 15150.50 126.78
818 22.2917 18302.00 17874.30 135.29
819 22.3092 21057.00 21267.90 145.11
820 22.3266 24152.00 25194.00 155.41
821 22.3440 27505.00 29284.30 165.85
822 22.3615 31136.00 32857.80 176.45
823 22.3789 34349.00 35097.50 185.34
824 22.3964 35919.00 35502.00 189.52
825 22.4138 36024.00 34170.80 189.80
826 22.4312 34183.00 31541.10 184.89
827 22.4487 30029.00 28072.70 173.29
828 22.4661 25558.00 24237.60 159.87
829 22.4835 20883.00 20490.90 144.51
830 22.5010 17156.00 17257.50 130.98
831 22.5184 13588.00 14622.30 116.57
832 22.5359 11251.00 12558.60 106.07
833 22.5533 9563.00 11021.90 97.79
834 22.5707 8755.00 9883.44 93.57
835 22.5882 7971.00 9042.86 89.28
836 22.6056 7646.00 8417.07 87.44
837 22.6231 7159.00 7942.69 84.61
838 22.6405 6850.00 7574.31 82.76
839 22.6579 6574.00 7280.99 81.08
840 22.6754 6398.00 7041.96 79.99
841 22.6928 6320.00 6843.24 79.50
842 22.7103 6214.00 6663.62 78.83
843 22.7277 6109.00 6521.60 78.16
844 22.7451 6249.00 6399.38 79.05
845 22.7626 6018.00 6287.56 77.58
846 22.7800 5812.00 6195.71 76.24
847 22.7974 5935.00 6115.41 77.04
848 22.8149 5844.00 6045.14 76.45
849 22.8323 5800.00 5983.79 76.16
850 22.8498 5750.00 5930.54 75.83
851 22.8672 5825.00 5884.75 76.32
852 22.8846 5753.00 5845.71 75.85
853 22.9021 5867.00 5812.54 76.60
854 22.9195 5749.00 5783.85 75.82
855 22.9370 5698.00 5757.64 75.49
856 22.9544 5676.00 5731.65 75.34
857 22.9718 5658.00 5704.37 75.22
858 22.9893 5805.00 5675.67 76.19
859 23.0067 5675.00 5646.19 75.33
860 23.0242 5683.00 5616.67 75.39
861 23.0416 5572.00 5587.91 74.65
862 23.0590 5688.00 5560.78 75.42
863 23.0765 5549.00 5535.94 74.49
864 23.0939 5586.00 5513.59 74.74
865 23.1114 5534.00 5493.64 74.39
866 23.1288 5432.00 5475.77 73.70
867 23.1462 5401.00 5459.71 73.49
868 23.1637 5532.00 5445.15 74.38
869 23.1811 5316.00 5431.81 72.91
870 23.1985 5338.00 5419.51 73.06
871 23.2160 5555.00 5408.07 74.53
872 23.2334 5395.00 5397.38 73.45
873 23.2509 5428.00 5387.33 73.68
874 23.2683 5493.00 5377.86 74.11
875 23.2857 5329.00 5368.90 73.00
876 23.3032 5247.00 5360.39 72.44
877 23.3206 5513.00 5352.31 74.25
878 23.3381 5405.00 5344.61 73.52
879 23.3555 5385.00 5337.26 73.38
880 23.3729 5266.00 5330.23 72.57
881 23.3904 5245.00 5323.51 72.42
882 23.4078 5236.00 5317.05 72.36
883 23.4253 5309.00 5310.86 72.86
884 23.4427 5196.00 5304.90 72.08
885 23.4601 5288.00 5299.15 72.72
886 23.4776 5412.00 5293.62 73.57
887 23.4950 5234.00 5288.27 72.35
888 23.5125 5366.00 5283.10 73.25
889 23.5299 5239.00 5278.07 72.38
890 23.5473 5246.00 5272.87 72.43
891 23.5648 5219.00 5266.19 72.24
892 23.5822 5279.00 5200.27 72.66
893 23.5996 5186.00 5197.48 72.01
894 23.6171 5225.00 5194.00 72.28
895 23.6345 5379.00 5161.36 73.34
896 23.6520 5255.00 5159.79 72.49
897 23.6694 5350.00 5158.23 73.14
898 23.6868 5161.00 5156.66 71.84
899 23.7043 5381.00 5155.10 73.36
900 23.7217 5216.00 5153.54 72.22
901 23.7392 5272.00 5151.98 72.61
902 23.7566 5276.00 5150.42 72.64
903 23.7740 5334.00 5148.87 73.03
904 23.7915 5165.00 5147.31 71.87
905 23.8089 5067.00 5145.76 71.18
906 23.8264 5167.00 5144.20 71.88
907 23.8438 5152.00 5142.65 71.78
908 23.8612 5139.00 5141.09 71.69
909 23.8787 5226.00 5139.54 72.29
910 23.8961 5219.00 5137.99 72.24
911 23.9136 5225.00 5136.43 72.28
912 23.9310 5074.00 5134.88 71.23
913 23.9484 5223.00 5133.33 72.27
914 23.9659 5212.00 5131.78 72.19
915 23.9833 5179.00 5130.22 71.97
916 24.0007 5214.00 5128.67 72.21
917 24.0182 5155.00 5127.12 71.80
918 24.0356 5130.00 5125.56 71.62
919 24.0531 5292.00 5124.01 72.75
920 24.0705 5199.00 5122.46 72.10
921 24.0879 5237.00 5120.91 72.37
922 24.1054 5201.00 5119.35 72.12
923 24.1228 5091.00 5117.80 71.35
924 24.1403 5347.00 5116.24 73.12
925 24.1577 5328.00 5114.68 72.99
926 24.1751 5067.00 5112.99 71.18
927 24.1926 5071.00 5111.44 71.21
928 24.2100 5255.00 5109.89 72.49
929 24.2275 5211.00 5108.27 72.19
930 24.2449 5109.00 5106.72 71.48
931 24.2623 5251.00 5105.17 72.46
932 24.2798 5202.00 5103.61 72.12
933 24.2972 5241.00 5102.06 72.39
934 24.3146 5006.00 5100.51 70.75
935 24.3321 5021.00 5098.95 70.86
936 24.3495 5092.00 5097.40 71.36
937 24.3670 5084.00 5095.84 71.30
938 24.3844 5236.00 5094.29 72.36
939 24.4018 5155.00 5092.73 71.80
940 24.4193 5139.00 5091.18 71.69
941 24.4367 5157.00 5089.62 71.81
942 24.4542 5105.00 5088.06 71.45
943 24.4716 5044.00 5086.50 71.02
944 24.4890 5160.00 5084.94 71.83
945 24.5065 5037.00 5083.38 70.97
946 24.5239 5193.00 5081.82 72.06
947 24.5414 4996.00 5087.20 70.68
948 24.5588 4977.00 5085.85 70.55
949 24.5762 5105.00 5084.49 71.45
950 24.5937 5099.00 5083.15 71.41
951 24.6111 5044.00 5085.22 71.02
952 24.6286 4976.00 5083.99 70.54
953 24.6460 5154.00 5082.77 71.79
954 24.6634 5007.00 5081.57 70.76
955 24.6809 5094.00 5080.39 71.37
956 24.6983 5017.00 5079.22 70.83
957 24.7157 5114.00 5078.06 71.51
958 24.7332 4954.00 5076.93 70.38
959 24.7506 5106.00 5075.82 71.46
960 24.7681 5107.00 5074.73 71.46
961 24.7855 5195.00 5073.66 72.08
962 24.8029 5128.00 5072.62 71.61
963 24.8204 5191.00 5071.60 72.05
964 24.8378 5092.00 5070.62 71.36
965 24.8553 4989.00 5069.66 70.63
966 24.8727 5069.00 5068.74 71.20
967 24.8901 5016.00 5067.86 70.82
968 24.9076 5036.00 5067.01 70.96
969 24.9250 4910.00 5066.21 70.07
970 24.9425 5028.00 5065.45 70.91
971 24.9599 5058.00 5064.74 71.12
972 24.9773 4988.00 5064.08 70.63
973 24.9948 5085.00 5063.49 71.31
974 25.0122 5087.00 5062.95 71.32
975 25.0296 5037.00 5062.48 70.97
976 25.0471 5031.00 5062.08 70.93
977 25.0645 4995.00 5065.37 70.68
978 25.0820 5098.00 5065.25 71.40
979 25.0994 4988.00 5065.24 70.63
980 25.1168 4975.00 5067.05 70.53
981 25.1343 4945.00 5067.32 70.32
982 25.1517 5087.00 5067.73 71.32
983 25.1692 5149.00 5068.29 71.76
984 25.1866 5002.00 5069.03 70.72
985 25.2040 4968.00 5069.96 70.48
986 25.2215 4997.00 5071.11 70.69
987 25.2389 5138.00 5072.50 71.68
988 25.2564 5044.00 5074.18 71.02
989 25.2738 5100.00 5076.17 71.41
990 25.2912 5003.00 5078.60 70.73
991 25.3087 5068.00 5081.39 71.19
992 25.3261 5092.00 5084.65 71.36
993 25.3435 5145.00 5088.47 71.73
994 25.3610 4850.00 5092.95 69.64
995 25.3784 4994.00 5098.09 70.67
996 25.3959 5034.00 5104.02 70.95
997 25.4133 4805.00 5112.36 69.32
998 25.4307 5131.00 5120.29 71.63
999 25.4482 5050.00 5129.45 71.06
1000 25.4656 4889.00 5140.07 69.92
1001 25.4831 5087.00 5153.18 71.32
1002 25.5005 5153.00 5167.73 71.78
1003 25.5179 4996.00 5184.94 70.68
1004 25.5354 5253.00 5205.49 72.48
1005 25.5528 5158.00 5230.37 71.82
1006 25.5703 5253.00 5260.98 72.48
1007 25.5877 5288.00 5299.36 72.72
1008 25.6051 5315.00 5348.61 72.90
1009 25.6226 5374.00 5413.16 73.31
1010 25.6400 5349.00 5499.21 73.14
1011 25.6575 5657.00 5614.89 75.21
1012 25.6749 5729.00 5769.91 75.69
1013 25.6923 5904.00 5974.77 76.84
1014 25.7098 6150.00 6238.70 78.42
1015 25.7272 6357.00 6566.61 79.73
1016 25.7446 6792.00 6953.55 82.41
1017 25.7621 7267.00 7382.41 85.25
1018 25.7795 7823.00 7795.21 88.45
1019 25.7970 8477.00 8126.14 92.07
1020 25.8144 8561.00 8307.47 92.53
1021 25.8318 8632.00 8315.36 92.91
1022 25.8493 8311.00 8167.68 91.16
1023 25.8667 8130.00 7906.94 90.17
1024 25.8842 7642.00 7568.15 87.42
1025 25.9016 7024.00 7187.27 83.81
1026 25.9190 6652.00 6805.61 81.56
1027 25.9365 6316.00 6458.08 79.47
1028 25.9539 5930.00 6164.16 77.01
1029 25.9714 5505.00 5928.47 74.20
1030 25.9888 5567.00 5746.70 74.61
1031 26.0062 5408.00 5610.62 73.54
1032 26.0237 5377.00 5511.05 73.33
1033 26.0411 5279.00 5439.67 72.66
1034 26.0585 5249.00 5389.56 72.45
1035 26.0760 5139.00 5355.68 71.69
1036 26.0934 5421.00 5334.65 73.63
1037 26.1109 5209.00 5324.67 72.17
1038 26.1283 5322.00 5325.28 72.95
1039 26.1458 5187.00 5337.37 72.02
1040 26.1632 5466.00 5363.06 73.93
1041 26.1806 5260.00 5405.73 72.53
1042 26.1981 5259.00 5469.73 72.52
1043 26.2155 5433.00 5559.96 73.71
1044 26.2329 5633.00 5680.96 75.05
1045 26.2504 5753.00 5835.36 75.85
1046 26.2678 6019.00 6021.57 77.58
1047 26.2853 6115.00 6229.94 78.20
1048 26.3027 6326.00 6438.79 79.54
1049 26.3201 6709.00 6614.29 81.91
1050 26.3376 6694.00 6720.76 81.82
1051 26.3550 6915.00 6740.04 83.16
1052 26.3724 6911.00 6679.56 83.13
1053 26.3899 6926.00 6559.06 83.22
1054 26.4073 6592.00 6396.46 81.19
1055 26.4248 6157.00 6208.77 78.47
1056 26.4422 6043.00 6016.06 77.74
1057 26.4597 5973.00 5837.73 77.29
1058 26.4771 5498.00 5686.45 74.15
1059 26.4945 5505.00 5567.26 74.20
1060 26.5120 5410.00 5480.05 73.55
1061 26.5294 5320.00 5422.15 72.94
1062 26.5468 5230.00 5390.21 72.32
1063 26.5643 5288.00 5381.11 72.72
1064 26.5817 5270.00 5392.58 72.59
1065 26.5992 5198.00 5423.33 72.10
1066 26.6166 5404.00 5472.44 73.51
1067 26.6340 5229.00 5537.90 72.31
1068 26.6515 5573.00 5614.86 74.65
1069 26.6689 5639.00 5693.76 75.09
1070 26.6863 5782.00 5760.44 76.04
1071 26.7038 5775.00 5811.25 75.99
1072 26.7212 5841.00 5817.33 76.43
1073 26.7387 5902.00 5792.63 76.82
1074 26.7561 5863.00 5745.45 76.57
1075 26.7736 5715.00 5688.62 75.60
1076 26.7910 5687.00 5618.84 75.41
1077 26.8084 5493.00 5550.00 74.11
1078 26.8259 5524.00 5491.07 74.32
1079 26.8433 5448.00 5448.85 73.81
1080 26.8607 5466.00 5427.75 73.93
1081 26.8782 5454.00 5430.92 73.85
1082 26.8956 5571.00 5461.64 74.64
1083 26.9131 5429.00 5524.10 73.68
1084 26.9305 5739.00 5623.48 75.76
1085 26.9479 5794.00 5765.53 76.12
1086 26.9654 5906.00 5955.03 76.85
1087 26.9828 6250.00 6193.54 79.06
1088 27.0002 6326.00 6475.43 79.54
1089 27.0177 6805.00 6782.59 82.49
1090 27.0351 7038.00 7079.19 83.89
1091 27.0526 7008.00 7314.44 83.71
1092 27.0700 7429.00 7441.23 86.19
1093 27.0875 7416.00 7435.99 86.12
1094 27.1049 7332.00 7328.27 85.63
1095 27.1223 7353.00 7139.50 85.75
1096 27.1398 7063.00 6893.16 84.04
1097 27.1572 6893.00 6609.47 83.02
1098 27.1746 6488.00 6322.65 80.55
1099 27.1921 6157.00 6064.29 78.47
1100 27.2095 5893.00 5833.35 76.77
1101 27.2270 5706.00 5644.11 75.54
1102 27.2444 5481.00 5495.02 74.03
1103 27.2618 5393.00 5385.19 73.44
1104 27.2793 5056.00 5299.59 71.11
1105 27.2967 5293.00 5235.98 72.75
1106 27.3142 5352.00 5188.59 73.16
1107 27.3316 5223.00 5152.67 72.27
1108 27.3490 5284.00 5124.64 72.69
1109 27.3665 5296.00 5102.08 72.77
1110 27.3839 5126.00 5083.52 71.60
1111 27.4014 5180.00 5068.04 71.97
1112 27.4188 5119.00 5055.05 71.55
1113 27.4362 5233.00 5044.21 72.34
1114 27.4537 5055.00 5035.38 71.10
1115 27.4711 5137.00 5028.49 71.67
1116 27.4885 5007.00 5023.48 70.76
1117 27.5060 5215.00 5020.30 72.21
1118 27.5234 5119.00 5018.89 71.55
1119 27.5409 5304.00 5019.21 72.83
1120 27.5583 5278.00 5021.26 72.65
1121 27.5757 5089.00 5025.03 71.34
1122 27.5932 5168.00 5030.55 71.89
1123 27.6106 5100.00 5037.82 71.41
1124 27.6280 5084.00 5043.82 71.30
1125 27.6455 5322.00 5055.38 72.95
1126 27.6629 5366.00 5069.32 73.25
1127 27.6804 5282.00 5085.95 72.68
1128 27.6978 5544.00 5104.21 74.46
1129 27.7153 5534.00 5127.94 74.39
1130 27.7327 5495.00 5156.32 74.13
1131 27.7501 5583.00 5190.52 74.72
1132 27.7676 5950.00 5232.19 77.14
1133 27.7850 5736.00 5283.74 75.74
1134 27.8024 5812.00 5348.69 76.24
1135 27.8199 6060.00 5432.22 77.85
1136 27.8373 6119.00 5541.65 78.22
1137 27.8548 6367.00 5686.93 79.79
1138 27.8722 6402.00 5880.56 80.01
1139 27.8896 6840.00 6137.25 82.70
1140 27.9071 7041.00 6472.02 83.91
1141 27.9245 7299.00 6899.61 85.43
1142 27.9420 7625.00 7421.46 87.32
1143 27.9594 7809.00 8030.90 88.37
1144 27.9768 8218.00 8694.92 90.65
1145 27.9943 8478.00 9346.40 92.08
1146 28.0117 8770.00 9881.94 93.65
1147 28.0292 8708.00 10206.20 93.32
1148 28.0466 8923.00 10271.30 94.46
1149 28.0640 9238.00 10102.40 96.11
1150 28.0815 9178.00 9755.86 95.80
1151 28.0989 8971.00 9282.26 94.72
1152 28.1163 8767.00 8724.01 93.63
1153 28.1338 8342.00 8134.00 91.33
1154 28.1512 7979.00 7567.79 89.33
1155 28.1687 7694.00 7066.69 87.72
1156 28.1861 7358.00 6649.99 85.78
1157 28.2035 7006.00 6319.95 83.70
1158 28.2210 6706.00 6069.09 81.89
1159 28.2384 6415.00 5885.84 80.09
1160 28.2558 6139.00 5758.27 78.35
1161 28.2733 6171.00 5675.93 78.56
1162 28.2907 6141.00 5631.12 78.36
1163 28.3082 6088.00 5619.40 78.03
1164 28.3256 6102.00 5639.89 78.12
1165 28.3431 6103.00 5695.27 78.12
1166 28.3605 6307.00 5791.54 79.42
1167 28.3779 6380.00 5933.01 79.87
1168 28.3954 6657.00 6141.07 81.59
1169 28.4128 6679.00 6418.77 81.73
1170 28.4302 6923.00 6774.27 83.20
1171 28.4477 7418.00 7204.84 86.13
1172 28.4651 7628.00 7700.57 87.34
1173 28.4826 8190.00 8220.05 90.50
1174 28.5000 8283.00 8697.49 91.01
1175 28.5174 8877.00 9049.58 94.22
1176 28.5349 8756.00 9211.26 93.57
1177 28.5523 8689.00 9170.56 93.21
1178 28.5697 8530.00 8962.53 92.36
1179 28.5872 8476.00 8631.48 92.07
1180 28.6046 8123.00 8211.67 90.13
1181 28.6221 7980.00 7737.90 89.33
1182 28.6395 7444.00 7253.32 86.28
1183 28.6569 6870.00 6798.74 82.89
1184 28.6744 6484.00 6401.09 80.52
1185 28.6918 6241.00 6070.51 79.00
1186 28.7093 5862.00 5805.69 76.56
1187 28.7267 5754.00 5599.02 75.86
1188 28.7441 5604.00 5440.43 74.86
1189 28.7616 5411.00 5319.80 73.56
1190 28.7790 5328.00 5227.97 72.99
1191 28.7965 5299.00 5157.48 72.79
1192 28.8139 5327.00 5102.53 72.99
1193 28.8313 5191.00 5058.86 72.05
1194 28.8488 5072.00 5023.50 71.22
1195 28.8662 5105.00 4994.37 71.45
1196 28.8836 4930.00 4970.09 70.21
1197 28.9011 5060.00 4949.73 71.13
1198 28.9185 5025.00 4932.63 70.89
1199 28.9360 5043.00 4918.37 71.01
1200 28.9534 5050.00 4906.66 71.06
1201 28.9708 4989.00 4897.37 70.63
1202 28.9883 4979.00 4890.46 70.56
1203 29.0057 4940.00 4886.00 70.29
1204 29.0232 5009.00 4884.24 70.77
1205 29.0406 4927.00 4885.60 70.19
1206 29.0580 4916.00 4890.79 70.11
1207 29.0755 4895.00 4900.87 69.96
1208 29.0929 5032.00 4917.36 70.94
1209 29.1104 4980.00 4942.29 70.57
1210 29.1278 5019.00 4978.13 70.84
1211 29.1452 5104.00 5027.62 71.44
1212 29.1627 5075.00 5093.39 71.24
1213 29.1801 5237.00 5177.34 72.37
1214 29.1975 5232.00 5279.70 72.33
1215 29.2150 5375.00 5397.47 73.31
1216 29.2324 5623.00 5522.65 74.99
1217 29.2499 5651.00 5640.69 75.17
1218 29.2673 5794.00 5732.28 76.12
1219 29.2847 5751.00 5780.65 75.84
1220 29.3022 5884.00 5780.39 76.71
1221 29.3196 5713.00 5738.21 75.58
1222 29.3371 5614.00 5664.75 74.93
1223 29.3545 5617.00 5589.36 74.95
1224 29.3719 5572.00 5468.31 74.65
1225 29.3894 5329.00 5351.85 73.00
1226 29.4068 5309.00 5239.67 72.86
1227 29.4243 5185.00 5139.38 72.01
1228 29.4417 5103.00 5085.46 71.44
1229 29.4591 4979.00 5029.75 70.56
1230 29.4766 4945.00 4978.58 70.32
1231 29.4940 5094.00 4940.75 71.37
1232 29.5114 4967.00 4914.13 70.48
1233 29.5289 4974.00 4896.86 70.53
1234 29.5463 4963.00 4887.59 70.45
1235 29.5638 5005.00 4885.57 70.75
1236 29.5812 5028.00 4890.69 70.91
1237 29.5986 4866.00 4903.40 69.76
1238 29.6161 5073.00 4924.57 71.22
1239 29.6335 5117.00 4955.22 71.53
1240 29.6510 5187.00 4996.18 72.02
1241 29.6684 5210.00 5047.59 72.18
1242 29.6858 5164.00 5108.15 71.86
1243 29.7033 5284.00 5174.20 72.69
1244 29.7207 5206.00 5238.80 72.15
1245 29.7382 5241.00 5292.23 72.39
1246 29.7556 5500.00 5324.98 74.16
1247 29.7730 5327.00 5332.61 72.99
1248 29.7905 5348.00 5317.37 73.13
1249 29.8079 5291.00 5284.79 72.74
1250 29.8253 5377.00 5239.58 73.33
1251 29.8428 5326.00 5185.44 72.98
1252 29.8602 5201.00 5126.65 72.12
1253 29.8777 5219.00 5060.78 72.24
1254 29.8951 5212.00 5008.75 72.19
1255 29.9125 5126.00 4964.71 71.60
1256 29.9300 5215.00 4929.43 72.21
1257 29.9474 4991.00 4898.72 70.65
1258 29.9649 5116.00 4879.64 71.53
1259 29.9823 4966.00 4866.86 70.47
1260 29.9997 5040.00 4859.20 70.99
1261 30.0172 4892.00 4855.63 69.94
1262 30.0346 5064.00 4855.30 71.16
1263 30.0520 5104.00 4857.60 71.44
1264 30.0695 5001.00 4862.10 70.72
1265 30.0869 5010.00 4868.50 70.78
1266 30.1044 4976.00 4876.66 70.54
1267 30.1218 5119.00 4886.52 71.55
1268 30.1392 5060.00 4898.11 71.13
1269 30.1567 5253.00 4911.48 72.48
1270 30.1741 5140.00 4926.77 71.69
1271 30.1916 5160.00 4944.15 71.83
1272 30.2090 5041.00 4963.86 71.00
1273 30.2264 5140.00 4986.16 71.69
1274 30.2439 5228.00 5011.40 72.30
1275 30.2613 5054.00 5039.96 71.09
1276 30.2788 5368.00 5072.27 73.27
1277 30.2962 5152.00 5108.81 71.78
1278 30.3136 5174.00 5150.08 71.93
1279 30.3311 5275.00 5196.69 72.63
1280 30.3485 5379.00 5249.30 73.34
1281 30.3659 5510.00 5308.80 74.23
1282 30.3834 5458.00 5376.26 73.88
1283 30.4008 5523.00 5453.14 74.32
1284 30.4183 5650.00 5541.25 75.17
1285 30.4357 5843.00 5642.95 76.44
1286 30.4531 6035.00 5761.49 77.69
1287 30.4706 6216.00 5901.21 78.84
1288 30.4880 6298.00 6068.29 79.36
1289 30.5055 6672.00 6271.57 81.68
1290 30.5229 6975.00 6523.78 83.52
1291 30.5403 7413.00 6843.35 86.10
1292 30.5578 7949.00 7255.82 89.16
1293 30.5752 8331.00 7795.25 91.27
1294 30.5927 9066.00 8504.85 95.22
1295 30.6101 10285.00 9434.65 101.42
1296 30.6275 11296.00 10637.30 106.28
1297 30.6450 12626.00 12157.80 112.36
1298 30.6624 14369.00 14029.00 119.87
1299 30.6798 16357.00 16239.10 127.89
1300 30.6973 18318.00 18712.80 135.34
1301 30.7147 20853.00 21279.40 144.41
1302 30.7322 22759.00 23659.20 150.86
1303 30.7496 24686.00 25516.20 157.12
1304 30.7670 25640.00 26577.30 160.12
1305 30.7845 25828.00 26722.80 160.71
1306 30.8019 25627.00 26049.50 160.08
1307 30.8194 24264.00 24735.00 155.77
1308 30.8368 22707.00 22951.40 150.69
1309 30.8542 20553.00 20836.90 143.36
1310 30.8717 18205.00 18556.40 134.93
1311 30.8891 16092.00 16288.80 126.85
1312 30.9066 13972.00 14189.60 118.20
1313 30.9240 12397.00 12356.80 111.34
1314 30.9414 10619.00 10826.30 103.05
1315 30.9589 9482.00 9590.65 97.38
1316 30.9763 8488.00 8617.59 92.13
1317 30.9937 7865.00 7864.02 88.68
1318 31.0112 7143.00 7286.08 84.52
1319 31.0286 6917.00 6843.56 83.17
1320 31.0461 6438.00 6502.51 80.24
1321 31.0635 6148.00 6236.09 78.41
1322 31.0809 6022.00 6023.95 77.60
1323 31.0984 5710.00 5851.49 75.56
1324 31.1158 5619.00 5708.29 74.96
1325 31.1333 5584.00 5586.21 74.73
1326 31.1507 5519.00 5482.38 74.29
1327 31.1681 5400.00 5392.18 73.48
1328 31.1856 5368.00 5313.09 73.27
1329 31.2030 5171.00 5243.24 71.91
1330 31.2204 5260.00 5180.75 72.53
1331 31.2379 5045.00 5125.58 71.03
1332 31.2553 5088.00 5076.31 71.33
1333 31.2728 5157.00 5032.23 71.81
1334 31.2902 5061.00 4992.72 71.14
1335 31.3076 5104.00 4957.27 71.44
1336 31.3251 5137.00 4925.43 71.67
1337 31.3425 5118.00 4896.79 71.54
1338 31.3600 5104.00 4870.99 71.44
1339 31.3774 4943.00 4847.70 70.31
1340 31.3948 4913.00 4826.64 70.09
1341 31.4123 4956.00 4816.78 70.40
1342 31.4297 5042.00 4799.68 71.01
1343 31.4472 5011.00 4784.17 70.79
1344 31.4646 4752.00 4770.10 68.93
1345 31.4820 5044.00 4761.75 71.02
1346 31.4995 4986.00 4750.33 70.61
1347 31.5169 4895.00 4740.04 69.96
1348 31.5343 4869.00 4730.82 69.78
1349 31.5518 4873.00 4722.62 69.81
1350 31.5692 4838.00 4715.39 69.56
1351 31.5867 4870.00 4718.51 69.79
1352 31.6041 4840.00 4713.43 69.57
1353 31.6215 4905.00 4709.30 70.04
1354 31.6390 5034.00 4706.14 70.95
1355 31.6564 4754.00 4708.47 68.95
1356 31.6739 4807.00 4707.48 69.33
1357 31.6913 4956.00 4707.61 70.40
1358 31.7087 4914.00 4708.91 70.10
1359 31.7262 4962.00 4733.23 70.44
1360 31.7436 4967.00 4737.71 70.48
1361 31.7610 4902.00 4743.67 70.01
1362 31.7785 4974.00 4751.25 70.53
1363 31.7959 4907.00 4760.64 70.05
1364 31.8134 4950.00 4782.69 70.36
1365 31.8308 4906.00 4796.71 70.04
1366 31.8482 5072.00 4813.44 71.22
1367 31.8657 5042.00 4833.42 71.01
1368 31.8831 5141.00 4857.31 71.70
1369 31.9006 5119.00 4886.06 71.55
1370 31.9180 5073.00 4921.01 71.22
1371 31.9354 5120.00 4964.06 71.55
1372 31.9529 5174.00 5017.99 71.93
1373 31.9703 5320.00 5086.71 72.94
1374 31.9878 5379.00 5175.70 73.34
1375 32.0052 5613.00 5292.18 74.92
1376 32.0226 5801.00 5445.16 76.16
1377 32.0401 6045.00 5645.06 77.75
1378 32.0575 6160.00 5902.71 78.49
1379 32.0750 6652.00 6227.69 81.56
1380 32.0924 6763.00 6625.94 82.24
1381 32.1098 7572.00 7111.12 87.02
1382 32.1273 7807.00 7639.30 88.36
1383 32.1447 8208.00 8191.74 90.60
1384 32.1621 8818.00 8693.44 93.90
1385 32.1796 8901.00 9100.05 94.35
1386 32.1970 9178.00 9352.71 95.80
1387 32.2145 9298.00 9412.17 96.43
1388 32.2319 9448.00 9298.34 97.20
1389 32.2493 9030.00 9043.37 95.03
1390 32.2668 8674.00 8688.13 93.13
1391 32.2842 8323.00 8269.40 91.23
1392 32.3017 8056.00 7804.90 89.76
1393 32.3191 7434.00 7330.78 86.22
1394 32.3365 7142.00 6882.51 84.51
1395 32.3540 6924.00 6484.80 83.21
1396 32.3714 6514.00 6149.56 80.71
1397 32.3889 6320.00 5878.31 79.50
1398 32.4063 5972.00 5666.35 77.28
1399 32.4237 5932.00 5505.97 77.02
1400 32.4412 5706.00 5403.13 75.54
1401 32.4586 5509.00 5320.41 74.22
1402 32.4760 5697.00 5264.97 75.48
1403 32.4935 5551.00 5231.00 74.50
1404 32.5109 5642.00 5214.14 75.11
1405 32.5284 5513.00 5219.03 74.25
1406 32.5458 5520.00 5228.97 74.30
1407 32.5632 5573.00 5250.86 74.65
1408 32.5807 5522.00 5284.65 74.31
1409 32.5981 5589.00 5331.84 74.76
1410 32.6156 5781.00 5394.92 76.03
1411 32.6330 5830.00 5477.77 76.35
1412 32.6504 6002.00 5585.98 77.47
1413 32.6679 6232.00 5727.03 78.94
1414 32.6853 6508.00 5910.30 80.67
1415 32.7027 6595.00 6146.56 81.21
1416 32.7202 6880.00 6447.13 82.95
1417 32.7376 7164.00 6822.24 84.64
1418 32.7551 7513.00 7278.69 86.68
1419 32.7725 7852.00 7819.11 88.61
1420 32.7899 8409.00 8427.92 91.70
1421 32.8074 8857.00 9079.38 94.11
1422 32.8248 9373.00 9725.19 96.81
1423 32.8423 9787.00 10303.10 98.93
1424 32.8597 10437.00 10761.90 102.16
1425 32.8771 10778.00 11085.80 103.82
1426 32.8946 11060.00 11308.10 105.17
1427 32.9120 11279.00 11482.20 106.20
1428 32.9295 11420.00 11653.00 106.86
1429 32.9469 11874.00 11850.80 108.97
1430 32.9643 12124.00 12099.60 110.11
1431 32.9818 12516.00 12418.40 111.88
1432 32.9992 13193.00 12809.50 114.86
1433 33.0166 13907.00 13252.00 117.93
1434 33.0341 14353.00 13717.60 119.80
1435 33.0515 14922.00 14199.60 122.16
1436 33.0690 15058.00 14725.40 122.71
1437 33.0864 15973.00 15333.00 126.38
1438 33.1038 16217.00 16035.30 127.35
1439 33.1213 16754.00 16799.00 129.44
1440 33.1387 17561.00 17545.10 132.52
1441 33.1562 18426.00 18154.40 135.74
1442 33.1736 18614.00 18494.60 136.43
1443 33.1910 18449.00 18467.60 135.83
1444 33.2085 18223.00 18071.10 134.99
1445 33.2259 17248.00 17380.30 131.33
1446 33.2433 16646.00 16484.70 129.02
1447 33.2608 15454.00 15446.10 124.31
1448 33.2782 14320.00 14306.20 119.67
1449 33.2957 12943.00 13124.00 113.77
1450 33.3131 11946.00 11976.60 109.30
1451 33.3305 10495.00 10938.50 102.44
1452 33.3480 9762.00 10061.10 98.80
1453 33.3654 8806.00 9371.90 93.84
1454 33.3829 8467.00 8880.49 92.02
1455 33.4003 8263.00 8587.39 90.90
1456 33.4177 8156.00 8489.79 90.31
1457 33.4352 8280.00 8584.14 90.99
1458 33.4526 8488.00 8866.21 92.13
1459 33.4701 8841.00 9328.88 94.03
1460 33.4875 9776.00 9957.12 98.87
1461 33.5049 10476.00 10720.70 102.35
1462 33.5224 11603.00 11565.20 107.72
1463 33.5398 13097.00 12403.50 114.44
1464 33.5572 13771.00 13122.50 117.35
1465 33.5747 14335.00 13614.00 119.73
1466 33.5921 14925.00 13820.30 122.17
1467 33.6096 14372.00 13753.60 119.88
1468 33.6270 13736.00 13465.80 117.20
1469 33.6444 12869.00 12998.40 113.44
1470 33.6619 12296.00 12404.20 110.89
1471 33.6793 11508.00 11717.30 107.28
1472 33.6968 10607.00 10998.30 102.99
1473 33.7142 9857.00 10316.90 99.28
1474 33.7316 9147.00 9730.39 95.64
1475 33.7491 8688.00 9292.20 93.21
1476 33.7665 8352.00 9025.63 91.39
1477 33.7839 8191.00 8950.18 90.50
1478 33.8014 8516.00 9074.13 92.28
1479 33.8188 9008.00 9395.16 94.91
1480 33.8363 9304.00 9897.89 96.46
1481 33.8537 10273.00 10546.90 101.36
1482 33.8711 11175.00 11282.10 105.71
1483 33.8886 11879.00 12011.60 108.99
1484 33.9060 12771.00 12618.10 113.01
1485 33.9235 13117.00 12994.20 114.53
1486 33.9409 13527.00 13085.30 116.31
1487 33.9583 13315.00 12907.00 115.39
1488 33.9758 12663.00 12518.80 112.53
1489 33.9932 12144.00 11970.40 110.20
1490 34.0106 11363.00 11300.10 106.60
1491 34.0281 10597.00 10544.30 102.94
1492 34.0455 9700.00 9752.10 98.49
1493 34.0630 8711.00 8980.00 93.33
1494 34.0804 7977.00 8276.17 89.31
1495 34.0978 7274.00 7671.36 85.29
1496 34.1153 6706.00 7178.64 81.89
1497 34.1327 6443.00 6798.82 80.27
1498 34.1502 6113.00 6524.74 78.19
1499 34.1676 5990.00 6344.41 77.40
1500 34.1850 5932.00 6242.90 77.02
1501 34.2025 5958.00 6202.60 77.19
1502 34.2199 6031.00 6203.38 77.66
1503 34.2374 6163.00 6220.36 78.50
1504 34.2548 6147.00 6229.59 78.40
1505 34.2722 6150.00 6211.85 78.42
1506 34.2897 6129.00 6159.24 78.29
1507 34.3071 5927.00 6075.20 76.99
1508 34.3245 5829.00 5961.95 76.35
1509 34.3420 5700.00 5837.64 75.50
1510 34.3594 5544.00 5700.59 74.46
1511 34.3769 5487.00 5556.02 74.07
1512 34.3943 5274.00 5411.48 72.62
1513 34.4117 5113.00 5272.75 71.51
1514 34.4292 4984.00 5152.10 70.60
1515 34.4466 4941.00 5050.59 70.29
1516 34.4641 4855.00 4973.44 69.68
1517 34.4815 4879.00 4914.03 69.85
1518 34.4989 4838.00 4867.31 69.56
1519 34.5164 4845.00 4850.36 69.61
1520 34.5338 4886.00 4853.92 69.90
1521 34.5512 4952.00 4879.28 70.37
1522 34.5687 4785.00 4922.40 69.17
1523 34.5861 5039.00 4979.35 70.99
1524 34.6036 4945.00 5055.60 70.32
1525 34.6210 5041.00 5141.08 71.00
1526 34.6384 5233.00 5226.31 72.34
1527 34.6559 5261.00 5279.97 72.53
1528 34.6733 5440.00 5329.81 73.76
1529 34.6908 5398.00 5347.04 73.47
1530 34.7082 5495.00 5331.60 74.13
1531 34.7256 5389.00 5289.37 73.41
1532 34.7431 5334.00 5217.93 73.03
1533 34.7605 5388.00 5141.85 73.40
1534 34.7779 5356.00 5054.54 73.18
1535 34.7954 4980.00 4960.67 70.57
1536 34.8128 4984.00 4866.30 70.60
1537 34.8303 4877.00 4777.37 69.84
1538 34.8477 4802.00 4698.06 69.30
1539 34.8651 4639.00 4630.46 68.11
1540 34.8826 4559.00 4575.00 67.52
1541 34.9000 4588.00 4531.07 67.73
1542 34.9174 4650.00 4497.54 68.19
1543 34.9349 4555.00 4473.06 67.49
1544 34.9523 4429.00 4456.42 66.55
1545 34.9698 4498.00 4446.56 67.07
1546 34.9872 4537.00 4442.79 67.36
1547 35.0046 4646.00 4444.77 68.16
1548 35.0221 4549.00 4452.48 67.45
1549 35.0395 4503.00 4466.02 67.10
1550 35.0570 4537.00 4472.90 67.36
1551 35.0744 4599.00 4502.02 67.82
1552 35.0918 4550.00 4540.02 67.45
1553 35.1093 4684.00 4587.84 68.44
1554 35.1267 4686.00 4644.75 68.45
1555 35.1442 4776.00 4706.71 69.11
1556 35.1616 4891.00 4790.02 69.94
1557 35.1790 4978.00 4876.78 70.55
1558 35.1965 5020.00 4970.22 70.85
1559 35.2139 5015.00 5068.25 70.82
1560 35.2313 5090.00 5169.76 71.34
1561 35.2488 5336.00 5270.27 73.05
1562 35.2662 5241.00 5367.98 72.39
1563 35.2837 5263.00 5456.86 72.55
1564 35.3011 5338.00 5542.44 73.06
1565 35.3185 5524.00 5630.48 74.32
1566 35.3360 5578.00 5724.75 74.69
1567 35.3534 5942.00 5823.59 77.08
1568 35.3709 5924.00 5919.02 76.97
1569 35.3883 5976.00 5998.01 77.30
1570 35.4057 6326.00 6048.16 79.54
1571 35.4232 6347.00 6039.56 79.67
1572 35.4406 6310.00 6000.36 79.44
1573 35.4580 6124.00 5923.69 78.26
1574 35.4755 6039.00 5821.40 77.71
1575 35.4929 5967.00 5703.51 77.25
1576 35.5104 5802.00 5565.19 76.17
1577 35.5278 5529.00 5426.80 74.36
1578 35.5452 5484.00 5288.95 74.05
1579 35.5627 5254.00 5161.37 72.48
1580 35.5801 5092.00 5051.48 71.36
1581 35.5976 5067.00 4965.03 71.18
1582 35.6150 5018.00 4904.95 70.84
1583 35.6324 5060.00 4872.43 71.13
1584 35.6499 5085.00 4867.68 71.31
1585 35.6673 5188.00 4890.32 72.03
1586 35.6847 5113.00 4939.61 71.51
1587 35.7022 5304.00 5014.34 72.83
1588 35.7196 5421.00 5112.75 73.63
1589 35.7371 5579.00 5232.92 74.69
1590 35.7545 5638.00 5373.54 75.09
1591 35.7719 5701.00 5532.30 75.50
1592 35.7894 5768.00 5712.85 75.95
1593 35.8068 5832.00 5908.95 76.37
1594 35.8243 6059.00 6111.12 77.84
1595 35.8417 6094.00 6304.91 78.06
1596 35.8591 6209.00 6475.23 78.80
1597 35.8766 6304.00 6617.23 79.40
1598 35.8940 6440.00 6733.32 80.25
1599 35.9114 6614.00 6832.24 81.33
1600 35.9289 6760.00 6918.50 82.22
1601 35.9463 6913.00 6987.78 83.14
1602 35.9638 7194.00 7022.82 84.82
1603 35.9812 7092.00 7008.10 84.21
1604 35.9986 7018.00 6933.50 83.77
1605 36.0161 7005.00 6801.75 83.70
1606 36.0335 6914.00 6626.82 83.15
1607 36.0510 6754.00 6426.20 82.18
1608 36.0684 6508.00 6210.53 80.67
1609 36.0858 5987.00 5986.56 77.38
1610 36.1033 5895.00 5759.03 76.78
1611 36.1207 5720.00 5534.94 75.63
1612 36.1381 5365.00 5323.25 73.25
1613 36.1556 5244.00 5131.77 72.42
1614 36.1730 4906.00 4965.15 70.04
1615 36.1905 4692.00 4823.02 68.50
1616 36.2079 4645.00 4707.70 68.15
1617 36.2253 4683.00 4615.05 68.43
1618 36.2428 4630.00 4542.01 68.04
1619 36.2602 4704.00 4485.40 68.59
1620 36.2777 4429.00 4442.21 66.55
1621 36.2951 4373.00 4409.06 66.13
1622 36.3125 4387.00 4385.30 66.23
1623 36.3300 4394.00 4368.41 66.29
1624 36.3474 4234.00 4357.16 65.07
1625 36.3648 4329.00 4350.70 65.80
1626 36.3823 4325.00 4348.54 65.76
1627 36.3997 4378.00 4350.51 66.17
1628 36.4172 4301.00 4356.72 65.58
1629 36.4346 4338.00 4367.60 65.86
1630 36.4520 4423.00 4383.96 66.51
1631 36.4695 4531.00 4407.06 67.31
1632 36.4869 4539.00 4438.75 67.37
1633 36.5044 4544.00 4481.56 67.41
1634 36.5218 4628.00 4538.76 68.03
1635 36.5392 4707.00 4614.48 68.61
1636 36.5567 4867.00 4713.30 69.76
1637 36.5741 5005.00 4840.07 70.75
1638 36.5915 5124.00 4999.10 71.58
1639 36.6090 5264.00 5193.47 72.55
1640 36.6264 5493.00 5423.58 74.11
1641 36.6439 5767.00 5685.71 75.94
1642 36.6613 6053.00 5969.89 77.80
1643 36.6787 6191.00 6257.89 78.68
1644 36.6962 6359.00 6523.13 79.74
1645 36.7136 6754.00 6735.63 82.18
1646 36.7311 6830.00 6869.92 82.64
1647 36.7485 6957.00 6920.18 83.41
1648 36.7659 6887.00 6898.60 82.99
1649 36.7834 6957.00 6825.96 83.41
1650 36.8008 6848.00 6719.86 82.75
1651 36.8183 6659.00 6594.60 81.60
1652 36.8357 6639.00 6460.92 81.48
1653 36.8531 6455.00 6334.36 80.34
1654 36.8706 6290.00 6229.06 79.31
1655 36.8880 6476.00 6159.04 80.47
1656 36.9054 6281.00 6129.05 79.25
1657 36.9229 6250.00 6135.67 79.06
1658 36.9403 6348.00 6165.08 79.67
1659 36.9578 6207.00 6193.78 78.78
1660 36.9752 6438.00 6206.88 80.24
1661 36.9926 6272.00 6188.54 79.20
1662 37.0101 6210.00 6135.80 78.80
1663 37.0275 6199.00 6052.10 78.73
1664 37.0450 5941.00 5941.27 77.08
1665 37.0624 5807.00 5806.50 76.20
1666 37.0798 5656.00 5650.83 75.21
1667 37.0973 5563.00 5480.89 74.59
1668 37.1147 5262.00 5305.85 72.54
1669 37.1321 5144.00 5137.14 71.72
1670 37.1496 4856.00 4977.27 69.68
1671 37.1670 4888.00 4833.74 69.91
1672 37.1845 4758.00 4707.49 68.98
1673 37.2019 4557.00 4600.11 67.51
1674 37.2193 4556.00 4511.26 67.50
1675 37.2368 4384.00 4439.66 66.21
1676 37.2542 4382.00 4383.50 66.20
1677 37.2717 4301.00 4340.88 65.58
1678 37.2891 4271.00 4309.62 65.35
1679 37.3065 4211.00 4289.43 64.89
1680 37.3240 4155.00 4279.00 64.46
1681 37.3414 4335.00 4278.01 65.84
1682 37.3588 4297.00 4286.61 65.55
1683 37.3763 4178.00 4305.24 64.64
1684 37.3937 4393.00 4334.14 66.28
1685 37.4112 4253.00 4371.59 65.21
1686 37.4286 4323.00 4422.47 65.75
1687 37.4460 4326.00 4482.85 65.77
1688 37.4635 4433.00 4549.99 66.58
1689 37.4809 4420.00 4619.06 66.48
1690 37.4984 4514.00 4682.97 67.19
1691 37.5158 4388.00 4732.14 66.24
1692 37.5332 4391.00 4761.81 66.26
1693 37.5507 4515.00 4764.63 67.19
1694 37.5681 4655.00 4748.95 68.23
1695 37.5855 4522.00 4716.20 67.25
1696 37.6030 4472.00 4670.78 66.87
1697 37.6204 4364.00 4615.46 66.06
1698 37.6379 4376.00 4550.84 66.15
1699 37.6553 4325.00 4482.86 65.76
1700 37.6727 4344.00 4413.71 65.91
1701 37.6902 4176.00 4348.34 64.62
1702 37.7076 4257.00 4287.70 65.25
1703 37.7251 4038.00 4234.47 63.55
1704 37.7425 4123.00 4189.24 64.21
1705 37.7599 3976.00 4151.78 63.06
1706 37.7774 4016.00 4121.39 63.37
1707 37.7948 4053.00 4097.67 63.66
1708 37.8122 3943.00 4080.21 62.79
1709 37.8297 3953.00 4065.45 62.87
1710 37.8471 3966.00 4054.08 62.98
1711 37.8646 3971.00 4045.39 63.02
1712 37.8820 3853.00 4038.80 62.07
1713 37.8994 3781.00 4034.65 61.49
1714 37.9169 4067.00 4031.15 63.77
1715 37.9343 3868.00 4028.83 62.19
1716 37.9518 3986.00 4027.57 63.13
1717 37.9692 3955.00 4027.34 62.89
1718 37.9866 3951.00 4028.13 62.86
1719 38.0041 3920.00 4030.01 62.61
1720 38.0215 4025.00 4033.11 63.44
1721 38.0390 3924.00 4037.62 62.64
1722 38.0564 3906.00 4043.86 62.50
1723 38.0738 3925.00 4058.22 62.65
1724 38.0913 3835.00 4069.46 61.93
1725 38.1087 3925.00 4084.17 62.65
1726 38.1261 3968.00 4103.28 62.99
1727 38.1436 4038.00 4127.85 63.55
1728 38.1610 4052.00 4159.03 63.66
1729 38.1785 3993.00 4200.84 63.19
1730 38.1959 4142.00 4248.48 64.36
1731 38.2133 4155.00 4305.39 64.46
1732 38.2308 4279.00 4371.50 65.41
1733 38.2482 4388.00 4445.73 66.24
1734 38.2657 4535.00 4525.60 67.34
1735 38.2831 4536.00 4606.98 67.35
1736 38.3005 4573.00 4680.37 67.62
1737 38.3180 4655.00 4750.01 68.23
1738 38.3354 4691.00 4809.06 68.49
1739 38.3528 4844.00 4858.69 69.60
1740 38.3703 4782.00 4901.94 69.15
1741 38.3877 4798.00 4941.06 69.27
1742 38.4052 5002.00 4973.85 70.72
1743 38.4226 4832.00 5001.94 69.51
1744 38.4400 4825.00 5020.26 69.46
1745 38.4575 4870.00 5027.71 69.79
1746 38.4749 5002.00 5026.74 70.72
1747 38.4924 4824.00 5023.27 69.46
1748 38.5098 4855.00 5024.75 69.68
1749 38.5272 4910.00 5037.53 70.07
1750 38.5447 4946.00 5065.53 70.33
1751 38.5621 4762.00 5109.21 69.01
1752 38.5796 4850.00 5171.27 69.64
1753 38.5970 5113.00 5248.26 71.51
1754 38.6144 5082.00 5335.02 71.29
1755 38.6319 5293.00 5421.56 72.75
1756 38.6493 5388.00 5494.29 73.40
1757 38.6667 5582.00 5542.23 74.71
1758 38.6842 5373.00 5553.42 73.30
1759 38.7016 5294.00 5526.84 72.76
1760 38.7191 5339.00 5467.64 73.07
1761 38.7365 5259.00 5383.24 72.52
1762 38.7539 5060.00 5280.29 71.13
1763 38.7714 5011.00 5162.73 70.79
1764 38.7888 4838.00 5034.33 69.56
1765 38.8063 4575.00 4900.37 67.64
1766 38.8237 4487.00 4767.45 66.99
1767 38.8411 4304.00 4641.95 65.60
1768 38.8586 4257.00 4528.62 65.25
1769 38.8760 4086.00 4430.02 63.92
1770 38.8934 3983.00 4346.88 63.11
1771 38.9109 3997.00 4278.66 63.22
1772 38.9283 4071.00 4224.04 63.80
1773 38.9458 3873.00 4181.33 62.23
1774 38.9632 3890.00 4148.73 62.37
1775 38.9806 3861.00 4126.51 62.14
1776 38.9981 3851.00 4109.31 62.06
1777 39.0155 3921.00 4097.82 62.62
1778 39.0329 3841.00 4091.14 61.98
1779 39.0504 3912.00 4088.71 62.55
1780 39.0678 3863.00 4090.29 62.15
1781 39.0853 3957.00 4096.89 62.90
1782 39.1027 3875.00 4106.98 62.25
1783 39.1201 3902.00 4122.16 62.47
1784 39.1376 4032.00 4142.25 63.50
1785 39.1550 3949.00 4170.66 62.84
1786 39.1725 4028.00 4207.42 63.47
1787 39.1899 3961.00 4253.76 62.94
1788 39.2073 4167.00 4310.78 64.55
1789 39.2248 4336.00 4378.66 65.85
1790 39.2422 4196.00 4458.73 64.78
1791 39.2597 4422.00 4549.46 66.50
1792 39.2771 4398.00 4648.49 66.32
1793 39.2945 4620.00 4752.01 67.97
1794 39.3120 4794.00 4855.29 69.24
1795 39.3294 4763.00 4954.42 69.01
1796 39.3468 4961.00 5047.72 70.43
1797 39.3643 5048.00 5135.64 71.05
1798 39.3817 5044.00 5224.63 71.02
1799 39.3992 5374.00 5300.23 73.31
1800 39.4166 5349.00 5363.01 73.14
1801 39.4340 5261.00 5406.32 72.53
1802 39.4515 5369.00 5426.39 73.27
1803 39.4689 5437.00 5425.52 73.74
1804 39.4864 5293.00 5415.06 72.75
1805 39.5038 5138.00 5402.53 71.68
1806 39.5212 5369.00 5396.48 73.27
1807 39.5387 5104.00 5409.82 71.44
1808 39.5561 5233.00 5446.24 72.34
1809 39.5735 5261.00 5515.32 72.53
1810 39.5910 5364.00 5624.80 73.24
1811 39.6084 5610.00 5780.73 74.90
1812 39.6259 5674.00 5985.72 75.33
1813 39.6433 5976.00 6235.00 77.30
1814 39.6607 6343.00 6516.99 79.64
1815 39.6782 6887.00 6810.19 82.99
1816 39.6956 7316.00 7083.69 85.53
1817 39.7130 7814.00 7301.99 88.40
1818 39.7305 8248.00 7434.88 90.82
1819 39.7479 8301.00 7469.07 91.11
1820 39.7654 7948.00 7411.38 89.15
1821 39.7828 7814.00 7280.57 88.40
1822 39.8002 7520.00 7095.18 86.72
1823 39.8177 7336.00 6867.30 85.65
1824 39.8351 6889.00 6604.68 83.00
1825 39.8526 6526.00 6316.69 80.78
1826 39.8700 6238.00 6017.07 78.98
1827 39.8874 5897.00 5722.15 76.79
1828 39.9049 5376.00 5446.39 73.32
1829 39.9223 4983.00 5199.47 70.59
1830 39.9397 4857.00 4985.52 69.69
1831 39.9572 4631.00 4807.61 68.05
1832 39.9746 4499.00 4667.21 67.07
1833 39.9921 4374.00 4554.43 66.14
1834 40.0095 4321.00 4469.76 65.73
1835 40.0269 4172.00 4410.05 64.59
1836 40.0444 4167.00 4371.95 64.55
1837 40.0618 4255.00 4354.03 65.23
1838 40.0793 4240.00 4354.77 65.12
1839 40.0967 4105.00 4371.42 64.07
1840 40.1141 4300.00 4402.24 65.57
1841 40.1316 4366.00 4445.86 66.08
1842 40.1490 4312.00 4499.70 65.67
1843 40.1665 4391.00 4559.88 66.26
1844 40.1839 4475.00 4620.48 66.90
1845 40.2013 4474.00 4675.63 66.89
1846 40.2188 4481.00 4717.04 66.94
1847 40.2362 4598.00 4739.53 67.81
1848 40.2536 4527.00 4741.64 67.28
1849 40.2711 4457.00 4725.85 66.76
1850 40.2885 4491.00 4695.62 67.01
1851 40.3060 4361.00 4655.08 66.04
1852 40.3234 4543.00 4608.85 67.40
1853 40.3408 4364.00 4557.16 66.06
1854 40.3583 4372.00 4502.44 66.12
1855 40.3757 4427.00 4448.17 66.54
1856 40.3931 4492.00 4397.92 67.02
1857 40.4106 4308.00 4355.53 65.64
1858 40.4280 4309.00 4325.04 65.64
1859 40.4455 4292.00 4307.87 65.51
1860 40.4629 4421.00 4305.70 66.49
1861 40.4803 4483.00 4319.86 66.96
1862 40.4978 4440.00 4351.35 66.63
1863 40.5152 4293.00 4400.77 65.52
1864 40.5326 4328.00 4468.11 65.79
1865 40.5501 4472.00 4552.48 66.87
1866 40.5675 4596.00 4651.58 67.79
1867 40.5850 4610.00 4761.18 67.90
1868 40.6024 4705.00 4874.64 68.59
1869 40.6198 4751.00 4982.67 68.93
1870 40.6373 4847.00 5074.45 69.62
1871 40.6547 4854.00 5140.52 69.67
1872 40.6722 4875.00 5176.21 69.82
1873 40.6896 4806.00 5183.24 69.33
1874 40.7070 5021.00 5167.71 70.86
1875 40.7245 4907.00 5136.44 70.05
1876 40.7419 4934.00 5094.57 70.24
1877 40.7593 4986.00 5045.76 70.61
1878 40.7768 4985.00 4993.99 70.60
1879 40.7942 5023.00 4945.02 70.87
1880 40.8117 4959.00 4906.42 70.42
1881 40.8291 5097.00 4886.43 71.39
1882 40.8465 5059.00 4893.03 71.13
1883 40.8640 5251.00 4933.60 72.46
1884 40.8814 5361.00 5015.02 73.22
1885 40.8989 5626.00 5143.64 75.01
1886 40.9163 5615.00 5325.10 74.93
1887 40.9337 5831.00 5563.61 76.36
1888 40.9512 6134.00 5861.15 78.32
1889 40.9686 6382.00 6215.16 79.89
1890 40.9860 6827.00 6620.32 82.63
1891 41.0035 7356.00 7060.85 85.77
1892 41.0209 7664.00 7512.58 87.54
1893 41.0384 8015.00 7942.82 89.53
1894 41.0558 8226.00 8315.10 90.70
1895 41.0732 8518.00 8598.70 92.29
1896 41.0907 8561.00 8779.03 92.53
1897 41.1081 8757.00 8854.01 93.58
1898 41.1255 8731.00 8834.42 93.44
1899 41.1430 8454.00 8728.30 91.95
1900 41.1604 8223.00 8544.58 90.68
1901 41.1779 8169.00 8294.91 90.38
1902 41.1953 7776.00 7988.32 88.18
1903 41.2127 7498.00 7641.00 86.59
1904 41.2302 7152.00 7270.79 84.57
1905 41.2476 6732.00 6893.42 82.05
1906 41.2651 6246.00 6524.30 79.03
1907 41.2825 5916.00 6177.71 76.92
1908 41.2999 5779.00 5860.29 76.02
1909 41.3174 5341.00 5578.38 73.08
1910 41.3348 5308.00 5332.62 72.86
1911 41.3522 4950.00 5122.63 70.36
1912 41.3697 4776.00 4946.72 69.11
1913 41.3871 4785.00 4797.80 69.17
1914 41.4046 4505.00 4684.92 67.12
1915 41.4220 4550.00 4600.30 67.45
1916 41.4394 4432.00 4542.17 66.57
1917 41.4569 4395.00 4509.30 66.29
1918 41.4743 4314.00 4501.26 65.68
1919 41.4918 4412.00 4515.78 66.42
1920 41.5092 4316.00 4559.41 65.70
1921 41.5266 4531.00 4630.65 67.31
1922 41.5441 4532.00 4730.76 67.32
1923 41.5615 4653.00 4860.19 68.21
1924 41.5789 4792.00 5017.93 69.22
1925 41.5964 5097.00 5200.62 71.39
1926 41.6138 5373.00 5401.71 73.30
1927 41.6313 5648.00 5609.44 75.15
1928 41.6487 5921.00 5807.96 76.95
1929 41.6661 6247.00 5977.99 79.04
1930 41.6836 6413.00 6101.74 80.08
1931 41.7010 6512.00 6168.99 80.70
1932 41.7185 6394.00 6183.57 79.96
1933 41.7359 6154.00 6152.29 78.45
1934 41.7533 6044.00 6080.06 77.74
1935 41.7708 6070.00 5982.77 77.91
1936 41.7882 5789.00 5853.40 76.09
1937 41.8056 5600.00 5698.72 74.83
1938 41.8231 5526.00 5523.61 74.34
1939 41.8405 5253.00 5336.76 72.48
1940 41.8580 5022.00 5148.53 70.87
1941 41.8754 4858.00 4967.83 69.70
1942 41.8928 4666.00 4800.59 68.31
1943 41.9103 4498.00 4648.56 67.07
1944 41.9277 4323.00 4514.95 65.75
1945 41.9452 4187.00 4398.31 64.71
1946 41.9626 4232.00 4297.84 65.05
1947 41.9800 4019.00 4212.82 63.40
1948 41.9975 4054.00 4141.33 63.67
1949 42.0149 4053.00 4081.45 63.66
1950 42.0323 3825.00 4032.62 61.85
1951 42.0498 3954.00 3992.51 62.88
1952 42.0672 3805.00 3959.57 61.68
1953 42.0847 3839.00 3932.57 61.96
1954 42.1021 3735.00 3910.68 61.11
1955 42.1195 3743.00 3891.99 61.18
1956 42.1370 3778.00 3876.28 61.47
1957 42.1544 3691.00 3862.99 60.75
1958 42.1719 3681.00 3851.64 60.67
1959 42.1893 3618.00 3841.89 60.15
1960 42.2067 3616.00 3833.82 60.13
1961 42.2242 3773.00 3826.51 61.42
1962 42.2416 3598.00 3820.15 59.98
1963 42.2590 3816.00 3814.64 61.77
1964 42.2765 3795.00 3809.87 61.60
1965 42.2939 3757.00 3805.84 61.29
1966 42.3114 3697.00 3802.39 60.80
1967 42.3288 3713.00 3799.48 60.93
1968 42.3462 3675.00 3795.37 60.62
1969 42.3637 3688.00 3793.68 60.73
1970 42.3811 3689.00 3792.70 60.74
1971 42.3986 3815.00 3792.08 61.77
1972 42.4160 3717.00 3791.99 60.97
1973 42.4334 3631.00 3792.45 60.26
1974 42.4509 3697.00 3792.60 60.80
1975 42.4683 3732.00 3794.27 61.09
1976 42.4857 3728.00 3796.59 61.06
1977 42.5032 3738.00 3799.68 61.14
1978 42.5206 3650.00 3803.44 60.42
1979 42.5381 3700.00 3808.05 60.83
1980 42.5555 3673.00 3813.64 60.61
1981 42.5729 3728.00 3820.38 61.06
1982 42.5904 3711.00 3828.51 60.92
1983 42.6078 3737.00 3838.34 61.13
1984 42.6253 3589.00 3850.33 59.91
1985 42.6427 3880.00 3865.09 62.29
1986 42.6601 3776.00 3883.43 61.45
1987 42.6776 3788.00 3906.38 61.55
1988 42.6950 3753.00 3935.23 61.26
1989 42.7124 3862.00 3971.46 62.15
1990 42.7299 3874.00 4016.68 62.24
1991 42.7473 3876.00 4072.44 62.26
1992 42.7648 4003.00 4134.86 63.27
1993 42.7822 3996.00 4216.29 63.21
1994 42.7996 4183.00 4311.22 64.68
1995 42.8171 4238.00 4418.91 65.10
1996 42.8345 4460.00 4534.90 66.78
1997 42.8520 4471.00 4658.97 66.87
1998 42.8694 4711.00 4784.03 68.64
1999 42.8868 5004.00 4894.91 70.74
2000 42.9043 4924.00 4990.29 70.17
2001 42.9217 5037.00 5058.06 70.97
2002 42.9391 5099.00 5096.98 71.41
2003 42.9566 4915.00 5110.41 70.11
2004 42.9740 5161.00 5101.82 71.84
2005 42.9915 4873.00 5075.63 69.81
2006 43.0089 4879.00 5034.89 69.85
2007 43.0263 4894.00 4981.76 69.96
2008 43.0438 4939.00 4918.67 70.28
2009 43.0612 4747.00 4850.77 68.90
2010 43.0787 4617.00 4783.60 67.95
2011 43.0961 4534.00 4723.52 67.33
2012 43.1135 4708.00 4676.82 68.61
2013 43.1310 4523.00 4647.85 67.25
2014 43.1484 4541.00 4641.70 67.39
2015 43.1658 4666.00 4663.01 68.31
2016 43.1833 4602.00 4716.69 67.84
2017 43.2007 4834.00 4807.84 69.53
2018 43.2182 4912.00 4941.60 70.09
2019 43.2356 5083.00 5122.74 71.30
2020 43.2530 5204.00 5354.28 72.14
2021 43.2705 5459.00 5637.67 73.89
2022 43.2879 5863.00 5972.47 76.57
2023 43.3054 5963.00 6348.67 77.22
2024 43.3228 6354.00 6754.78 79.71
2025 43.3402 7006.00 7170.39 83.70
2026 43.3577 7105.00 7568.13 84.29
2027 43.3751 7679.00 7916.52 87.63
2028 43.3925 7833.00 8185.62 88.50
2029 43.4100 7926.00 8350.80 89.03
2030 43.4274 8187.00 8408.04 90.48
2031 43.4449 8212.00 8360.96 90.62
2032 43.4623 8043.00 8222.48 89.68
2033 43.4797 7668.00 8012.65 87.57
2034 43.4972 7461.00 7747.96 86.38
2035 43.5146 7266.00 7439.60 85.24
2036 43.5320 6986.00 7101.89 83.58
2037 43.5495 6584.00 6747.31 81.14
2038 43.5669 6475.00 6387.98 80.47
2039 43.5844 6006.00 6040.25 77.50
2040 43.6018 5761.00 5717.67 75.90
2041 43.6192 5426.00 5429.43 73.66
2042 43.6367 5275.00 5180.39 72.63
2043 43.6541 5025.00 4972.44 70.89
2044 43.6716 4782.00 4803.88 69.15
2045 43.6890 4758.00 4671.33 68.98
2046 43.7064 4528.00 4570.19 67.29
2047 43.7239 4639.00 4495.27 68.11
2048 43.7413 4356.00 4441.47 66.00
2049 43.7587 4341.00 4404.30 65.89
2050 43.7762 4386.00 4380.10 66.23
2051 43.7936 4195.00 4365.80 64.77
2052 43.8111 4344.00 4358.45 65.91
2053 43.8285 4381.00 4354.76 66.19
2054 43.8459 4348.00 4352.32 65.94
2055 43.8634 4297.00 4345.32 65.55
2056 43.8808 4232.00 4332.62 65.05
2057 43.8983 4382.00 4313.59 66.20
2058 43.9157 4265.00 4289.10 65.31
2059 43.9331 4250.00 4260.66 65.19
2060 43.9506 4412.00 4229.60 66.42
2061 43.9680 4166.00 4207.31 64.54
2062 43.9854 4201.00 4173.33 64.82
2063 44.0029 4099.00 4138.79 64.02
2064 44.0203 4017.00 4104.80 63.38
2065 44.0378 4069.00 4072.66 63.79
2066 44.0552 4106.00 4043.53 64.08
2067 44.0726 4012.00 4018.14 63.34
2068 44.0901 3966.00 3996.73 62.98
2069 44.1075 4084.00 3979.07 63.91
2070 44.1249 4000.00 3964.57 63.25
2071 44.1424 3929.00 3952.37 62.68
2072 44.1598 4075.00 3941.57 63.84
2073 44.1773 3836.00 3931.45 61.94
2074 44.1947 4152.00 3921.76 64.44
2075 44.2121 3933.00 3912.62 62.71
2076 44.2296 3941.00 3904.35 62.78
2077 44.2470 3965.00 3898.83 62.97
2078 44.2645 3974.00 3893.21 63.04
2079 44.2819 3829.00 3889.31 61.88
2080 44.2993 3897.00 3887.57 62.43
2081 44.3168 3867.00 3888.74 62.19
2082 44.3342 3864.00 3893.89 62.16
2083 44.3516 3912.00 3905.00 62.55
2084 44.3691 3869.00 3922.01 62.20
2085 44.3865 3970.00 3947.08 63.01
2086 44.4040 3902.00 3981.62 62.47
2087 44.4214 3945.00 4026.92 62.81
2088 44.4388 3929.00 4083.95 62.68
2089 44.4563 4161.00 4153.15 64.51
2090 44.4737 4248.00 4236.31 65.18
2091 44.4911 4223.00 4327.96 64.98
2092 44.5086 4441.00 4427.27 66.64
2093 44.5260 4392.00 4529.66 66.27
2094 44.5435 4549.00 4628.62 67.45
2095 44.5609 4679.00 4716.24 68.40
2096 44.5783 4697.00 4784.53 68.53
2097 44.5958 4816.00 4829.35 69.40
2098 44.6132 4788.00 4845.60 69.20
2099 44.6306 4758.00 4837.50 68.98
2100 44.6481 4722.00 4810.02 68.72
2101 44.6655 4705.00 4766.66 68.59
2102 44.6830 4643.00 4714.56 68.14
2103 44.7004 4576.00 4654.37 67.65
2104 44.7178 4540.00 4588.07 67.38
2105 44.7353 4369.00 4519.10 66.10
2106 44.7527 4555.00 4451.19 67.49
2107 44.7702 4400.00 4388.62 66.33
2108 44.7876 4183.00 4334.15 64.68
2109 44.8050 4412.00 4292.48 66.42
2110 44.8225 4235.00 4264.14 65.08
2111 44.8399 4206.00 4249.58 64.85
2112 44.8573 4308.00 4248.76 65.64
2113 44.8748 4261.00 4260.69 65.28
2114 44.8922 4327.00 4284.09 65.78
2115 44.9097 4273.00 4317.50 65.37
2116 44.9271 4453.00 4360.16 66.73
2117 44.9445 4426.00 4411.87 66.53
2118 44.9620 4444.00 4473.38 66.66
2119 44.9794 4568.00 4545.78 67.59
2120 44.9969 4664.00 4630.92 68.29
2121 45.0143 4646.00 4725.76 68.16
2122 45.0317 4880.00 4829.30 69.86
2123 45.0492 4996.00 4937.64 70.68
2124 45.0666 5101.00 5045.31 71.42
2125 45.0840 5475.00 5146.00 73.99
2126 45.1015 5426.00 5234.16 73.66
2127 45.1189 5497.00 5309.56 74.14
2128 45.1364 5435.00 5367.40 73.72
2129 45.1538 5571.00 5413.04 74.64
2130 45.1712 5444.00 5453.01 73.78
2131 45.1887 5638.00 5482.91 75.09
2132 45.2061 5523.00 5510.42 74.32
2133 45.2235 5480.00 5526.55 74.03
2134 45.2410 5432.00 5526.82 73.70
2135 45.2584 5469.00 5506.79 73.95
2136 45.2759 5341.00 5465.91 73.08
2137 45.2933 5138.00 5409.32 71.68
2138 45.3107 5221.00 5338.81 72.26
2139 45.3282 5148.00 5264.60 71.75
2140 45.3456 5055.00 5189.37 71.10
2141 45.3631 5165.00 5120.85 71.87
2142 45.3805 5102.00 5055.11 71.43
2143 45.3979 4986.00 5004.64 70.61
2144 45.4154 4990.00 4963.59 70.64
2145 45.4328 4988.00 4942.69 70.63
2146 45.4502 5154.00 4948.30 71.79
2147 45.4677 5229.00 4988.80 72.31
2148 45.4851 5315.00 5067.30 72.90
2149 45.5026 5421.00 5191.22 73.63
2150 45.5200 5492.00 5364.78 74.11
2151 45.5374 5680.00 5590.89 75.37
2152 45.5549 5963.00 5869.05 77.22
2153 45.5723 6062.00 6195.11 77.86
2154 45.5898 6504.00 6559.99 80.65
2155 45.6072 6849.00 6948.26 82.76
2156 45.6246 7265.00 7337.25 85.24
2157 45.6421 7548.00 7697.03 86.88
2158 45.6595 8000.00 7994.38 89.44
2159 45.6769 8207.00 8201.67 90.59
2160 45.6944 8405.00 8302.77 91.68
2161 45.7118 8632.00 8299.71 92.91
2162 45.7293 8619.00 8208.26 92.84
2163 45.7467 8476.00 8048.76 92.07
2164 45.7641 8251.00 7838.11 90.83
2165 45.7816 7946.00 7588.28 89.14
2166 45.7990 7289.00 7303.26 85.38
2167 45.8164 7132.00 6992.14 84.45
2168 45.8339 6956.00 6666.72 83.40
2169 45.8513 6605.00 6342.17 81.27
2170 45.8688 6253.00 6033.94 79.08
2171 45.8862 5797.00 5754.84 76.14
2172 45.9036 5660.00 5515.11 75.23
2173 45.9211 5419.00 5316.90 73.61
2174 45.9385 5128.00 5163.40 71.61
2175 45.9560 5149.00 5053.07 71.76
2176 45.9734 4837.00 4983.53 69.55
2177 45.9908 4925.00 4950.05 70.18
2178 46.0083 4813.00 4946.61 69.38
2179 46.0257 5003.00 4965.83 70.73
2180 46.0432 5055.00 4999.26 71.10
2181 46.0606 5125.00 5038.06 71.59
2182 46.0780 5179.00 5074.46 71.97
2183 46.0955 5206.00 5103.86 72.15
2184 46.1129 5122.00 5125.61 71.57
2185 46.1303 5334.00 5142.78 73.03
2186 46.1478 5178.00 5160.23 71.96
2187 46.1652 5093.00 5182.40 71.37
2188 46.1827 5109.00 5212.04 71.48
2189 46.2001 5188.00 5250.13 72.03
2190 46.2175 5257.00 5296.36 72.51
2191 46.2350 5252.00 5349.47 72.47
2192 46.2524 5437.00 5406.94 73.74
2193 46.2699 5573.00 5464.15 74.65
2194 46.2873 5649.00 5514.55 75.16
2195 46.3047 5807.00 5548.36 76.20
2196 46.3222 5625.00 5558.41 75.00
2197 46.3396 5654.00 5540.80 75.19
2198 46.3570 5735.00 5496.72 75.73
2199 46.3745 5637.00 5431.01 75.08
2200 46.3919 5555.00 5349.73 74.53
2201 46.4094 5355.00 5259.75 73.18
2202 46.4268 5317.00 5160.21 72.92
2203 46.4442 5254.00 5051.61 72.48
2204 46.4617 5027.00 4937.29 70.90
2205 46.4791 4911.00 4820.34 70.08
2206 46.4965 4846.00 4705.23 69.61
2207 46.5140 4628.00 4595.69 68.03
2208 46.5314 4520.00 4497.12 67.23
2209 46.5489 4446.00 4411.48 66.68
2210 46.5663 4450.00 4340.46 66.71
2211 46.5837 4457.00 4285.07 66.76
2212 46.6012 4373.00 4245.87 66.13
2213 46.6186 4387.00 4223.26 66.23
2214 46.6361 4342.00 4217.65 65.89
2215 46.6535 4504.00 4229.59 67.11
2216 46.6709 4397.00 4259.85 66.31
2217 46.6884 4461.00 4309.33 66.79
2218 46.7058 4510.00 4379.03 67.16
2219 46.7232 4656.00 4469.82 68.23
2220 46.7407 4724.00 4581.75 68.73
2221 46.7581 4846.00 4715.29 69.61
2222 46.7756 4864.00 4868.53 69.74
2223 46.7930 5052.00 5038.30 71.08
2224 46.8104 5405.00 5219.50 73.52
2225 46.8279 5472.00 5404.80 73.97
2226 46.8453 5646.00 5585.18 75.14
2227 46.8628 5685.00 5751.04 75.40
2228 46.8802 5667.00 5894.77 75.28
2229 46.8976 6007.00 6011.73 77.50
2230 46.9151 6079.00 6102.17 77.97
2231 46.9325 6177.00 6169.76 78.59
2232 46.9499 6276.00 6226.60 79.22
2233 46.9674 6189.00 6281.15 78.67
2234 46.9848 6377.00 6342.62 79.86
2235 47.0023 6350.00 6418.43 79.69
2236 47.0197 6388.00 6514.16 79.93
2237 47.0371 6548.00 6633.66 80.92
2238 47.0546 6702.00 6778.41 81.87
2239 47.0720 6720.00 6949.37 81.98
2240 47.0894 6857.00 7140.09 82.81
2241 47.1069 6900.00 7343.71 83.07
2242 47.1243 7103.00 7545.87 84.28
2243 47.1418 7320.00 7732.02 85.56
2244 47.1592 7754.00 7890.21 88.06
2245 47.1766 7878.00 8010.89 88.76
2246 47.1941 8127.00 8087.06 90.15
2247 47.2115 8334.00 8111.45 91.29
2248 47.2289 8354.00 8078.70 91.40
2249 47.2464 8304.00 7984.37 91.13
2250 47.2638 8218.00 7830.29 90.65
2251 47.2813 8138.00 7625.30 90.21
2252 47.2987 7917.00 7382.24 88.98
2253 47.3161 7530.00 7114.67 86.78
2254 47.3336 7215.00 6834.19 84.94
2255 47.3510 7060.00 6549.48 84.02
2256 47.3685 6733.00 6267.48 82.05
2257 47.3859 6532.00 5995.11 80.82
2258 47.4033 6093.00 5739.39 78.06
2259 47.4208 5805.00 5507.52 76.19
2260 47.4382 5532.00 5305.29 74.38
2261 47.4556 5253.00 5136.61 72.48
2262 47.4731 5137.00 5003.24 71.67
2263 47.4905 4968.00 4905.31 70.48
2264 47.5080 4837.00 4841.62 69.55
2265 47.5254 4798.00 4803.96 69.27
2266 47.5428 4865.00 4802.58 69.75
2267 47.5603 4778.00 4828.00 69.12
2268 47.5777 4705.00 4875.59 68.59
2269 47.5951 4732.00 4939.63 68.79
2270 47.6126 4898.00 5012.77 69.99
2271 47.6300 4877.00 5086.05 69.84
2272 47.6475 4987.00 5146.75 70.62
2273 47.6649 5085.00 5192.34 71.31
2274 47.6823 5039.00 5213.85 70.99
2275 47.6998 5023.00 5209.26 70.87
2276 47.7172 4980.00 5180.60 70.57
2277 47.7346 4997.00 5132.16 70.69
2278 47.7521 4860.00 5068.57 69.71
2279 47.7695 4880.00 4993.48 69.86
2280 47.7870 4971.00 4909.77 70.51
2281 47.8044 4835.00 4818.58 69.53
2282 47.8218 4727.00 4722.65 68.75
2283 47.8393 4760.00 4625.21 68.99
2284 47.8567 4584.00 4530.12 67.71
2285 47.8741 4501.00 4441.33 67.09
2286 47.8916 4590.00 4362.29 67.75
2287 47.9090 4368.00 4296.03 66.09
2288 47.9265 4413.00 4244.27 66.43
2289 47.9439 4393.00 4207.57 66.28
2290 47.9613 4472.00 4190.29 66.87
2291 47.9788 4368.00 4192.38 66.09
2292 47.9962 4444.00 4215.32 66.66
2293 48.0137 4442.00 4260.59 66.65
2294 48.0311 4487.00 4329.60 66.99
2295 48.0485 4695.00 4423.40 68.52
2296 48.0660 4754.00 4541.87 68.95
2297 48.0834 4790.00 4685.92 69.21
2298 48.1008 4941.00 4852.85 70.29
2299 48.1183 5071.00 5038.74 71.21
2300 48.1357 4958.00 5237.10 70.41
2301 48.1532 5366.00 5438.53 73.25
2302 48.1706 5529.00 5630.52 74.36
2303 48.1880 5568.00 5796.36 74.62
2304 48.2055 5611.00 5926.41 74.91
2305 48.2229 5698.00 6007.77 75.49
2306 48.2404 5716.00 6036.55 75.60
2307 48.2578 5673.00 6016.03 75.32
2308 48.2752 5642.00 5954.28 75.11
2309 48.2927 5618.00 5860.56 74.95
2310 48.3101 5545.00 5741.03 74.46
2311 48.3275 5565.00 5602.61 74.60
2312 48.3450 5403.00 5447.22 73.51
2313 48.3624 5268.00 5278.20 72.58
2314 48.3799 5169.00 5100.49 71.90
2315 48.3973 5011.00 4920.17 70.79
2316 48.4147 4969.00 4743.91 70.49
2317 48.4322 4775.00 4577.39 69.10
2318 48.4496 4607.00 4424.64 67.87
2319 48.4670 4586.00 4287.99 67.72
2320 48.4845 4320.00 4168.24 65.73
2321 48.5019 4305.00 4065.33 65.61
2322 48.5194 4269.00 3978.03 65.34
2323 48.5368 4165.00 3905.51 64.54
2324 48.5542 4001.00 3845.15 63.25
2325 48.5717 3798.00 3795.59 61.63
2326 48.5891 3994.00 3755.27 63.20
2327 48.6066 3824.00 3722.20 61.84
2328 48.6240 3885.00 3695.10 62.33
2329 48.6414 3642.00 3672.75 60.35
2330 48.6589 3582.00 3654.12 59.85
2331 48.6763 3738.00 3638.42 61.14
2332 48.6937 3764.00 3625.02 61.35
2333 48.7112 3589.00 3613.45 59.91
2334 48.7286 3640.00 3603.68 60.33
2335 48.7461 3581.00 3593.65 59.84
2336 48.7635 3538.00 3585.79 59.48
2337 48.7809 3550.00 3578.81 59.58
2338 48.7984 3561.00 3571.03 59.67
2339 48.8158 3537.00 3565.72 59.47
2340 48.8332 3685.00 3561.12 60.70
2341 48.8507 3478.00 3557.37 58.97
2342 48.8681 3588.00 3553.58 59.90
2343 48.8856 3651.00 3551.04 60.42
2344 48.9030 3584.00 3549.16 59.87
2345 48.9204 3529.00 3547.07 59.41
2346 48.9379 3536.00 3546.51 59.46
2347 48.9553 3419.00 3546.51 58.47
2348 48.9728 3431.00 3547.01 58.57
2349 48.9902 3405.00 3547.88 58.35
2350 49.0076 3500.00 3548.49 59.16
2351 49.0251 3569.00 3549.49 59.74
2352 49.0425 3625.00 3547.37 60.21
2353 49.0599 3455.00 3547.74 58.78
2354 49.0774 3634.00 3547.40 60.28
2355 49.0948 3564.00 3546.28 59.70
2356 49.1123 3543.00 3544.38 59.52
2357 49.1297 3426.00 3538.46 58.53
2358 49.1471 3645.00 3535.72 60.37
2359 49.1646 3569.00 3533.03 59.74
2360 49.1820 3597.00 3529.87 59.97
2361 49.1995 3598.00 3526.52 59.98
2362 49.2169 3372.00 3523.03 58.07
2363 49.2343 3583.00 3519.47 59.86
2364 49.2518 3503.00 3514.38 59.19
2365 49.2692 3515.00 3511.12 59.29
2366 49.2866 3520.00 3508.98 59.33
2367 49.3041 3499.00 3506.37 59.15
2368 49.3215 3442.00 3504.17 58.67
2369 49.3390 3402.00 3502.42 58.33
2370 49.3564 3342.00 3501.14 57.81
2371 49.3738 3548.00 3500.53 59.57
2372 49.3913 3620.00 3500.24 60.17
2373 49.4087 3321.00 3500.36 57.63
2374 49.4262 3490.00 3501.21 59.08
2375 49.4436 3486.00 3502.72 59.04
2376 49.4610 3469.00 3505.02 58.90
2377 49.4785 3523.00 3508.24 59.35
2378 49.4959 3522.00 3512.67 59.35
2379 49.5133 3506.00 3518.34 59.21
2380 49.5308 3553.00 3525.58 59.61
2381 49.5482 3544.00 3534.58 59.53
2382 49.5657 3484.00 3545.68 59.03
2383 49.5831 3531.00 3557.50 59.42
2384 49.6005 3591.00 3573.25 59.92
2385 49.6180 3577.00 3590.86 59.81
2386 49.6354 3779.00 3611.02 61.47
2387 49.6528 3593.00 3632.82 59.94
2388 49.6703 3494.00 3656.41 59.11
2389 49.6877 3619.00 3678.92 60.16
2390 49.7052 3583.00 3699.10 59.86
2391 49.7226 3719.00 3716.95 60.98
2392 49.7400 3644.00 3730.04 60.37
2393 49.7575 3686.00 3737.90 60.71
2394 49.7749 3667.00 3740.15 60.56
2395 49.7924 3647.00 3737.35 60.39
2396 49.8098 3686.00 3731.11 60.71
2397 49.8272 3732.00 3721.13 61.09
2398 49.8447 3645.00 3708.75 60.37
2399 49.8621 3549.00 3694.38 59.57
2400 49.8795 3540.00 3678.30 59.50
2401 49.8970 3635.00 3660.84 60.29
2402 49.9144 3587.00 3642.51 59.89
2403 49.9319 3724.00 3625.43 61.02
2404 49.9493 3580.00 3607.42 59.83
2405 49.9667 3641.00 3590.52 60.34
2406 49.9842 3512.00 3575.19 59.26
2407 50.0016 3503.00 3561.69 59.19
2408 50.0190 3553.00 3550.17 59.61
2409 50.0365 3547.00 3541.79 59.56
2410 50.0539 3491.00 3534.27 59.08
2411 50.0714 3561.00 3528.64 59.67
2412 50.0888 3550.00 3524.83 59.58
2413 50.1062 3519.00 3522.74 59.32
2414 50.1237 3508.00 3523.37 59.23
2415 50.1411 3383.00 3521.65 58.16
2416 50.1585 3467.00 3524.90 58.88
2417 50.1760 3492.00 3531.03 59.09
2418 50.1934 3565.00 3538.22 59.71
2419 50.2109 3368.00 3548.76 58.03
2420 50.2283 3530.00 3560.62 59.41
2421 50.2457 3616.00 3574.84 60.13
2422 50.2632 3517.00 3592.03 59.30
2423 50.2806 3588.00 3610.48 59.90
2424 50.2980 3593.00 3633.06 59.94
2425 50.3155 3702.00 3658.65 60.84
2426 50.3329 3658.00 3685.23 60.48
2427 50.3504 3709.00 3712.44 60.90
2428 50.3678 3603.00 3740.24 60.03
2429 50.3852 3685.00 3765.53 60.70
2430 50.4027 3734.00 3787.94 61.11
2431 50.4201 3708.00 3806.30 60.89
2432 50.4375 3661.00 3819.76 60.51
2433 50.4550 3854.00 3828.04 62.08
2434 50.4724 3861.00 3831.51 62.14
2435 50.4899 3805.00 3833.05 61.68
2436 50.5073 3699.00 3829.99 60.82
2437 50.5247 3656.00 3825.38 60.46
2438 50.5422 3758.00 3822.28 61.30
2439 50.5596 3859.00 3817.12 62.12
2440 50.5771 3775.00 3812.48 61.44
2441 50.5945 3708.00 3808.77 60.89
2442 50.6119 3786.00 3807.03 61.53
2443 50.6294 3775.00 3806.20 61.44
2444 50.6468 3681.00 3806.95 60.67
2445 50.6642 3595.00 3808.93 59.96
2446 50.6817 3859.00 3811.37 62.12
2447 50.6991 3848.00 3813.28 62.03
2448 50.7166 3793.00 3813.69 61.59
2449 50.7340 3804.00 3812.01 61.68
2450 50.7514 3788.00 3808.19 61.55
2451 50.7689 3855.00 3802.73 62.09
2452 50.7863 3813.00 3796.51 61.75
2453 50.8037 3887.00 3789.99 62.35
2454 50.8212 3722.00 3783.91 61.01
2455 50.8386 3868.00 3778.76 62.19
2456 50.8561 3893.00 3775.03 62.39
2457 50.8735 3838.00 3773.42 61.95
2458 50.8909 3804.00 3774.93 61.68
2459 50.9084 3848.00 3780.92 62.03
2460 50.9258 3802.00 3792.70 61.66
2461 50.9433 3782.00 3813.23 61.50
2462 50.9607 3874.00 3841.03 62.24
2463 50.9781 4137.00 3878.65 64.32
2464 50.9956 3884.00 3926.91 62.32
2465 51.0130 4045.00 3986.16 63.60
2466 51.0304 4047.00 4056.13 63.62
2467 51.0479 4141.00 4135.98 64.35
2468 51.0653 4215.00 4223.80 64.92
2469 51.0828 4187.00 4318.00 64.71
2470 51.1002 4388.00 4411.65 66.24
2471 51.1176 4460.00 4500.74 66.78
2472 51.1351 4536.00 4579.51 67.35
2473 51.1525 4560.00 4641.61 67.53
2474 51.1699 4747.00 4683.42 68.90
2475 51.1874 4630.00 4704.55 68.04
2476 51.2048 4751.00 4705.27 68.93
2477 51.2223 4740.00 4689.93 68.85
2478 51.2397 4735.00 4662.48 68.81
2479 51.2571 4643.00 4625.98 68.14
2480 51.2746 4640.00 4582.26 68.12
2481 51.2920 4603.00 4532.24 67.85
2482 51.3094 4429.00 4476.65 66.55
2483 51.3269 4592.00 4418.26 67.76
2484 51.3443 4441.00 4355.67 66.64
2485 51.3618 4264.00 4292.65 65.30
2486 51.3792 4192.00 4231.42 64.75
2487 51.3966 4238.00 4174.03 65.10
2488 51.4141 4141.00 4122.21 64.35
2489 51.4315 4206.00 4077.47 64.85
2490 51.4490 4070.00 4042.74 63.80
2491 51.4664 4099.00 4015.42 64.02
2492 51.4838 3990.00 3998.22 63.17
2493 51.5013 4008.00 3990.36 63.31
2494 51.5187 4058.00 3992.37 63.70
2495 51.5362 4098.00 4004.14 64.02
2496 51.5536 4025.00 4025.50 63.44
2497 51.5710 4097.00 4056.15 64.01
2498 51.5885 4161.00 4096.44 64.51
2499 51.6059 4218.00 4143.75 64.95
2500 51.6233 4144.00 4197.60 64.37
2501 51.6408 4324.00 4256.11 65.76
2502 51.6582 4451.00 4316.97 66.72
2503 51.6757 4483.00 4377.73 66.96
2504 51.6931 4654.00 4436.41 68.22
2505 51.7105 4659.00 4492.11 68.26
2506 51.7280 4663.00 4545.46 68.29
2507 51.7454 4782.00 4600.49 69.15
2508 51.7628 4575.00 4655.49 67.64
2509 51.7803 4779.00 4714.83 69.13
2510 51.7977 4756.00 4779.95 68.96
2511 51.8152 4931.00 4851.36 70.22
2512 51.8326 4846.00 4928.87 69.61
2513 51.8500 5138.00 5011.87 71.68
2514 51.8675 5163.00 5099.36 71.85
2515 51.8849 5306.00 5194.23 72.84
2516 51.9023 5511.00 5287.32 74.24
2517 51.9198 5526.00 5380.18 74.34
2518 51.9372 5621.00 5470.87 74.97
2519 51.9547 5818.00 5559.48 76.28
2520 51.9721 5717.00 5643.43 75.61
2521 51.9895 5765.00 5724.16 75.93
2522 52.0070 5847.00 5801.40 76.47
2523 52.0244 5804.00 5873.79 76.18
2524 52.0419 5925.00 5938.73 76.97
2525 52.0593 5969.00 5992.85 77.26
2526 52.0767 6029.00 6033.11 77.65
2527 52.0942 5951.00 6058.01 77.14
2528 52.1116 5980.00 6067.87 77.33
2529 52.1290 6168.00 6065.36 78.54
2530 52.1465 5917.00 6053.96 76.92
2531 52.1639 5971.00 6036.83 77.27
2532 52.1814 6045.00 6015.90 77.75
2533 52.1988 6026.00 5991.87 77.63
2534 52.2162 6101.00 5964.94 78.11
2535 52.2337 5961.00 5936.00 77.21
2536 52.2511 5930.00 5907.82 77.01
2537 52.2685 5789.00 5884.13 76.09
2538 52.2860 5813.00 5869.51 76.24
2539 52.3034 5814.00 5868.53 76.25
2540 52.3209 5785.00 5884.11 76.06
2541 52.3383 5979.00 5915.79 77.32
2542 52.3557 6013.00 5961.67 77.54
2543 52.3732 6136.00 6017.36 78.33
2544 52.3906 6220.00 6077.28 78.87
2545 52.4080 6375.00 6134.98 79.84
2546 52.4255 6355.00 6185.02 79.72
2547 52.4429 6397.00 6220.54 79.98
2548 52.4604 6329.00 6239.39 79.56
2549 52.4778 6327.00 6239.07 79.54
2550 52.4952 6220.00 6218.39 78.87
2551 52.5127 6303.00 6176.51 79.39
2552 52.5301 6281.00 6113.00 79.25
2553 52.5476 6079.00 6028.01 77.97
2554 52.5650 5949.00 5923.51 77.13
2555 52.5824 5786.00 5801.73 76.07
2556 52.5999 5610.00 5669.05 74.90
2557 52.6173 5387.00 5527.32 73.40
2558 52.6347 5312.00 5382.38 72.88
2559 52.6522 5328.00 5238.12 72.99
2560 52.6696 5009.00 5097.68 70.77
2561 52.6870 4792.00 4963.87 69.22
2562 52.7045 4786.00 4839.34 69.18
2563 52.7219 4546.00 4726.41 67.42
2564 52.7394 4477.00 4628.14 66.91
2565 52.7568 4347.00 4546.88 65.93
2566 52.7742 4319.00 4482.74 65.72
2567 52.7917 4356.00 4437.17 66.00
2568 52.8091 4335.00 4410.45 65.84
2569 52.8266 4250.00 4402.45 65.19
2570 52.8440 4283.00 4412.83 65.44
2571 52.8614 4453.00 4440.89 66.73
2572 52.8789 4463.00 4486.44 66.81
2573 52.8963 4494.00 4547.67 67.04
2574 52.9137 4620.00 4623.10 67.97
2575 52.9312 4812.00 4710.09 69.37
2576 52.9486 4735.00 4804.93 68.81
2577 52.9661 4830.00 4902.79 69.50
2578 52.9835 5083.00 4997.96 71.30
2579 53.0009 5204.00 5084.53 72.14
2580 53.0184 5253.00 5157.45 72.48
2581 53.0358 5301.00 5214.29 72.81
2582 53.0532 5253.00 5252.23 72.48
2583 53.0707 5241.00 5274.15 72.39
2584 53.0881 5288.00 5285.50 72.72
2585 53.1056 5286.00 5286.84 72.70
2586 53.1230 5205.00 5284.09 72.15
2587 53.1404 5359.00 5280.56 73.21
2588 53.1579 5269.00 5278.57 72.59
2589 53.1753 5319.00 5279.91 72.93
2590 53.1927 5310.00 5284.49 72.87
2591 53.2102 5358.00 5296.88 73.20
2592 53.2276 5559.00 5316.38 74.56
2593 53.2451 5441.00 5343.77 73.76
2594 53.2625 5488.00 5378.54 74.08
2595 53.2799 5586.00 5420.58 74.74
2596 53.2974 5665.00 5469.09 75.27
2597 53.3148 5733.00 5522.63 75.72
2598 53.3323 5993.00 5577.99 77.41
2599 53.3497 6118.00 5632.45 78.22
2600 53.3671 6039.00 5679.90 77.71
2601 53.3846 6113.00 5714.47 78.19
2602 53.4020 6187.00 5731.33 78.66
2603 53.4194 6136.00 5727.88 78.33
2604 53.4369 5866.00 5705.23 76.59
2605 53.4543 5995.00 5666.73 77.43
2606 53.4718 5781.00 5617.51 76.03
2607 53.4892 5918.00 5562.80 76.93
2608 53.5066 5638.00 5507.03 75.09
2609 53.5241 5643.00 5453.46 75.12
2610 53.5415 5537.00 5404.57 74.41
2611 53.5589 5539.00 5362.78 74.42
2612 53.5764 5461.00 5330.26 73.90
2613 53.5938 5339.00 5309.93 73.07
2614 53.6113 5390.00 5304.52 73.42
2615 53.6287 5260.00 5316.22 72.53
2616 53.6461 5430.00 5346.42 73.69
2617 53.6636 5407.00 5395.72 73.53
2618 53.6810 5484.00 5464.23 74.05
2619 53.6984 5489.00 5552.92 74.09
2620 53.7159 5485.00 5660.03 74.06
2621 53.7333 5627.00 5785.16 75.01
2622 53.7508 5882.00 5928.33 76.69
2623 53.7682 5867.00 6085.71 76.60
2624 53.7856 6228.00 6249.12 78.92
2625 53.8031 6420.00 6410.56 80.12
2626 53.8205 6386.00 6560.11 79.91
2627 53.8380 6603.00 6688.18 81.26
2628 53.8554 6803.00 6786.64 82.48
2629 53.8728 6790.00 6849.63 82.40
2630 53.8903 6783.00 6873.83 82.36
2631 53.9077 6821.00 6858.75 82.59
2632 53.9251 6735.00 6805.15 82.07
2633 53.9426 6602.00 6716.48 81.25
2634 53.9600 6618.00 6598.01 81.35
2635 53.9775 6314.00 6454.66 79.46
2636 53.9949 6159.00 6295.02 78.48
2637 54.0123 6044.00 6123.43 77.74
2638 54.0298 5884.00 5944.57 76.71
2639 54.0472 5638.00 5762.75 75.09
2640 54.0647 5722.00 5581.30 75.64
2641 54.0821 5291.00 5404.91 72.74
2642 54.0995 5151.00 5237.10 71.77
2643 54.1170 5032.00 5082.26 70.94
2644 54.1344 4898.00 4940.33 69.99
2645 54.1518 4926.00 4817.39 70.19
2646 54.1693 4833.00 4711.79 69.52
2647 54.1867 4728.00 4623.61 68.76
2648 54.2042 4523.00 4550.94 67.25
2649 54.2216 4619.00 4491.35 67.96
2650 54.2390 4636.00 4443.49 68.09
2651 54.2565 4342.00 4403.35 65.89
2652 54.2739 4380.00 4368.20 66.18
2653 54.2913 4388.00 4339.44 66.24
2654 54.3088 4326.00 4314.33 65.77
2655 54.3262 4289.00 4293.50 65.49
2656 54.3437 4185.00 4276.66 64.69
2657 54.3611 4257.00 4264.16 65.25
2658 54.3785 4168.00 4257.53 64.56
2659 54.3960 4257.00 4254.77 65.25
2660 54.4134 4281.00 4257.35 65.43
2661 54.4308 4190.00 4265.15 64.73
2662 54.4483 4214.00 4278.20 64.92
2663 54.4657 4262.00 4296.57 65.28
2664 54.4832 4349.00 4319.02 65.95
2665 54.5006 4325.00 4346.55 65.76
2666 54.5180 4288.00 4376.15 65.48
2667 54.5355 4258.00 4409.41 65.25
2668 54.5529 4494.00 4444.28 67.04
2669 54.5704 4427.00 4480.58 66.54
2670 54.5878 4549.00 4518.73 67.45
2671 54.6052 4477.00 4558.12 66.91
2672 54.6227 4461.00 4601.25 66.79
2673 54.6401 4636.00 4647.21 68.09
2674 54.6575 4686.00 4693.39 68.45
2675 54.6750 4896.00 4738.39 69.97
2676 54.6924 4811.00 4778.08 69.36
2677 54.7099 4797.00 4808.79 69.26
2678 54.7273 5072.00 4827.55 71.22
2679 54.7447 4862.00 4832.33 69.73
2680 54.7622 4904.00 4825.07 70.03
2681 54.7796 5041.00 4807.73 71.00
2682 54.7970 4882.00 4784.10 69.87
2683 54.8145 4698.00 4758.25 68.54
2684 54.8319 4752.00 4733.67 68.93
2685 54.8493 4819.00 4713.00 69.42
2686 54.8668 4798.00 4698.04 69.27
2687 54.8842 4671.00 4691.07 68.34
2688 54.9017 4663.00 4691.26 68.29
2689 54.9191 4707.00 4700.59 68.61
2690 54.9365 4747.00 4720.29 68.90
2691 54.9540 4603.00 4750.63 67.85
2692 54.9714 4768.00 4791.12 69.05
2693 54.9888 4749.00 4839.98 68.91
2694 55.0063 4897.00 4894.23 69.98
2695 55.0237 5032.00 4949.66 70.94
2696 55.0412 5073.00 5002.11 71.22
2697 55.0586 4939.00 5044.47 70.28
2698 55.0760 5098.00 5072.94 71.40
2699 55.0935 5157.00 5084.22 71.81
2700 55.1109 5115.00 5075.99 71.52
2701 55.1284 4941.00 5052.16 70.29
2702 55.1458 4971.00 5013.49 70.51
2703 55.1632 4851.00 4964.38 69.65
2704 55.1807 4829.00 4906.97 69.49
2705 55.1981 4806.00 4844.03 69.33
2706 55.2155 4760.00 4775.94 68.99
2707 55.2330 4764.00 4702.60 69.02
2708 55.2504 4455.00 4625.05 66.75
2709 55.2679 4562.00 4545.85 67.54
2710 55.2853 4508.00 4465.94 67.14
2711 55.3027 4325.00 4386.71 65.76
2712 55.3202 4473.00 4310.25 66.88
2713 55.3376 4188.00 4238.70 64.71
2714 55.3550 4191.00 4169.68 64.74
2715 55.3725 4192.00 4106.65 64.75
2716 55.3899 4054.00 4051.07 63.67
2717 55.4074 3942.00 4000.43 62.79
2718 55.4248 4091.00 3956.60 63.96
2719 55.4422 3980.00 3920.20 63.09
2720 55.4597 3942.00 3891.71 62.79
2721 55.4771 3934.00 3868.76 62.72
2722 55.4945 3964.00 3851.51 62.96
2723 55.5120 4037.00 3841.96 63.54
2724 55.5294 4050.00 3839.00 63.64
2725 55.5469 4022.00 3844.46 63.42
2726 55.5643 3957.00 3857.84 62.90
2727 55.5817 4083.00 3879.48 63.90
2728 55.5992 4023.00 3909.59 63.43
2729 55.6166 4030.00 3950.32 63.48
2730 55.6341 4055.00 3997.02 63.68
2731 55.6515 4131.00 4050.40 64.27
2732 55.6689 4150.00 4108.82 64.42
2733 55.6864 4168.00 4171.13 64.56
2734 55.7038 4314.00 4234.24 65.68
2735 55.7212 4297.00 4295.07 65.55
2736 55.7387 4346.00 4350.77 65.92
2737 55.7561 4390.00 4397.16 66.26
2738 55.7736 4582.00 4431.89 67.69
2739 55.7910 4649.00 4452.33 68.18
2740 55.8084 4485.00 4459.53 66.97
2741 55.8259 4566.00 4453.43 67.57
2742 55.8433 4514.00 4435.90 67.19
2743 55.8607 4413.00 4408.76 66.43
2744 55.8782 4459.00 4374.27 66.78
2745 55.8956 4409.00 4334.16 66.40
2746 55.9131 4424.00 4289.71 66.51
2747 55.9305 4320.00 4241.61 65.73
2748 55.9479 4227.00 4189.87 65.02
2749 55.9654 4314.00 4139.37 65.68
2750 55.9828 4197.00 4089.73 64.78
2751 56.0003 4209.00 4042.70 64.88
2752 56.0177 4069.00 4000.86 63.79
2753 56.0351 4162.00 3962.27 64.51
2754 56.0526 4024.00 3933.32 63.44
2755 56.0700 4116.00 3912.72 64.16
2756 56.0874 4104.00 3901.08 64.06
2757 56.1049 4090.00 3897.81 63.95
2758 56.1223 4036.00 3904.88 63.53
2759 56.1398 4084.00 3921.15 63.91
2760 56.1572 4005.00 3946.20 63.29
2761 56.1746 3990.00 3980.20 63.17
2762 56.1921 4145.00 4020.84 64.38
2763 56.2095 4116.00 4068.25 64.16
2764 56.2269 4167.00 4119.68 64.55
2765 56.2444 4299.00 4174.12 65.57
2766 56.2618 4412.00 4229.99 66.42
2767 56.2793 4276.00 4286.03 65.39
2768 56.2967 4365.00 4341.50 66.07
2769 56.3141 4552.00 4396.10 67.47
2770 56.3316 4546.00 4449.53 67.42
2771 56.3490 4567.00 4501.46 67.58
2772 56.3664 4742.00 4551.16 68.86
2773 56.3839 4738.00 4594.92 68.83
2774 56.4013 4767.00 4630.96 69.04
2775 56.4188 4923.00 4655.89 70.16
2776 56.4362 4846.00 4667.32 69.61
2777 56.4536 4850.00 4664.08 69.64
2778 56.4711 4876.00 4646.18 69.83
2779 56.4885 4709.00 4615.17 68.62
2780 56.5060 4694.00 4573.63 68.51
2781 56.5234 4767.00 4524.38 69.04
2782 56.5408 4437.00 4469.35 66.61
2783 56.5583 4645.00 4410.49 68.15
2784 56.5757 4555.00 4348.84 67.49
2785 56.5931 4352.00 4285.50 65.97
2786 56.6106 4440.00 4221.15 66.63
2787 56.6280 4385.00 4156.63 66.22
2788 56.6455 4220.00 4093.14 64.96
2789 56.6629 4263.00 4031.98 65.29
2790 56.6803 4077.00 3973.75 63.85
2791 56.6978 4057.00 3920.88 63.69
2792 56.7152 4008.00 3873.53 63.31
2793 56.7326 4018.00 3832.30 63.39
2794 56.7501 3856.00 3797.53 62.10
2795 56.7675 3922.00 3770.45 62.63
2796 56.7850 3936.00 3749.63 62.74
2797 56.8024 3850.00 3735.15 62.05
2798 56.8198 3829.00 3727.53 61.88
2799 56.8373 3907.00 3726.52 62.51
2800 56.8547 3851.00 3732.85 62.06
2801 56.8721 3957.00 3746.34 62.90
2802 56.8896 3853.00 3765.94 62.07
2803 56.9070 4024.00 3794.39 63.44
2804 56.9244 4013.00 3830.60 63.35
2805 56.9419 3929.00 3874.58 62.68
2806 56.9593 3896.00 3926.35 62.42
2807 56.9768 3992.00 3985.68 63.18
2808 56.9942 4145.00 4052.10 64.38
2809 57.0116 4097.00 4125.93 64.01
2810 57.0291 4293.00 4203.14 65.52
2811 57.0465 4292.00 4284.49 65.51
2812 57.0640 4444.00 4367.37 66.66
2813 57.0814 4300.00 4449.73 65.57
2814 57.0988 4457.00 4529.90 66.76
2815 57.1163 4423.00 4606.92 66.51
2816 57.1337 4657.00 4680.88 68.24
2817 57.1511 4728.00 4752.67 68.76
2818 57.1686 4899.00 4823.89 69.99
2819 57.1860 4828.00 4894.95 69.48
2820 57.2035 4894.00 4966.94 69.96
2821 57.2209 4922.00 5038.13 70.16
2822 57.2383 4930.00 5106.36 70.21
2823 57.2558 5018.00 5172.30 70.84
2824 57.2732 5054.00 5234.38 71.09
2825 57.2906 5238.00 5292.24 72.37
2826 57.3081 5356.00 5347.21 73.18
2827 57.3255 5287.00 5401.55 72.71
2828 57.3430 5496.00 5457.82 74.14
2829 57.3604 5591.00 5517.79 74.77
2830 57.3778 5675.00 5581.36 75.33
2831 57.3953 5963.00 5646.95 77.22
2832 57.4127 6148.00 5713.98 78.41
2833 57.4301 6125.00 5778.91 78.26
2834 57.4476 6220.00 5839.28 78.87
2835 57.4650 6388.00 5893.50 79.93
2836 57.4825 6485.00 5941.45 80.53
2837 57.4999 6488.00 5984.05 80.55
2838 57.5173 6454.00 6022.96 80.34
2839 57.5348 6338.00 6060.95 79.61
2840 57.5522 6417.00 6099.94 80.11
2841 57.5696 6462.00 6142.39 80.39
2842 57.5871 6549.00 6187.45 80.93
2843 57.6045 6436.00 6235.15 80.22
2844 57.6220 6562.00 6283.27 81.01
2845 57.6394 6341.00 6327.99 79.63
2846 57.6568 6610.00 6364.16 81.30
2847 57.6743 6637.00 6386.33 81.47
2848 57.6917 6747.00 6389.12 82.14
2849 57.7092 6621.00 6368.94 81.37
2850 57.7266 6444.00 6326.28 80.27
2851 57.7440 6336.00 6260.46 79.60
2852 57.7615 6177.00 6176.98 78.59
2853 57.7789 6137.00 6080.74 78.34
2854 57.7963 6101.00 5976.22 78.11
2855 57.8138 5845.00 5867.81 76.45
2856 57.8312 5751.00 5754.46 75.84
2857 57.8487 5427.00 5637.98 73.67
2858 57.8661 5557.00 5518.45 74.55
2859 57.8835 5255.00 5396.74 72.49
2860 57.9010 5068.00 5272.80 71.19
2861 57.9184 5059.00 5149.78 71.13
2862 57.9358 4847.00 5028.56 69.62
2863 57.9533 4924.00 4912.11 70.17
2864 57.9707 4701.00 4802.20 68.56
2865 57.9882 4656.00 4702.64 68.23
2866 58.0056 4624.00 4615.18 68.00
2867 58.0230 4508.00 4541.41 67.14
2868 58.0405 4570.00 4482.65 67.60
2869 58.0579 4420.00 4439.68 66.48
2870 58.0753 4395.00 4415.56 66.29
2871 58.0928 4277.00 4405.67 65.40
2872 58.1102 4402.00 4412.11 66.35
2873 58.1277 4443.00 4433.98 66.66
2874 58.1451 4460.00 4471.12 66.78
2875 58.1625 4623.00 4523.74 67.99
2876 58.1800 4651.00 4586.19 68.20
2877 58.1974 4717.00 4657.81 68.68
2878 58.2149 4927.00 4734.17 70.19
2879 58.2323 4930.00 4811.24 70.21
2880 58.2497 4875.00 4884.02 69.82
2881 58.2672 4921.00 4947.52 70.15
2882 58.2846 5148.00 4997.66 71.75
2883 58.3020 5125.00 5030.71 71.59
2884 58.3195 5098.00 5045.72 71.40
2885 58.3369 5207.00 5043.34 72.16
2886 58.3544 4973.00 5025.85 70.52
2887 58.3718 5019.00 4996.28 70.84
2888 58.3892 5083.00 4957.77 71.30
2889 58.4067 4973.00 4912.93 70.52
2890 58.4241 4854.00 4863.66 69.67
2891 58.4415 4960.00 4813.46 70.43
2892 58.4590 4731.00 4759.09 68.78
2893 58.4764 4709.00 4703.14 68.62
2894 58.4939 4703.00 4648.17 68.58
2895 58.5113 4543.00 4595.01 67.40
2896 58.5287 4535.00 4545.04 67.34
2897 58.5462 4456.00 4500.00 66.75
2898 58.5636 4469.00 4459.07 66.85
2899 58.5810 4390.00 4422.78 66.26
2900 58.5985 4344.00 4390.45 65.91
2901 58.6159 4429.00 4360.88 66.55
2902 58.6334 4322.00 4333.78 65.74
2903 58.6508 4210.00 4308.35 64.88
2904 58.6682 4339.00 4286.45 65.87
2905 58.6857 4168.00 4267.75 64.56
2906 58.7031 4147.00 4253.70 64.40
2907 58.7205 4252.00 4244.34 65.21
2908 58.7380 4177.00 4240.43 64.63
2909 58.7554 4203.00 4241.91 64.83
2910 58.7729 4226.00 4248.14 65.01
2911 58.7903 4231.00 4258.68 65.05
2912 58.8077 4262.00 4272.03 65.28
2913 58.8252 4296.00 4287.88 65.54
2914 58.8426 4253.00 4304.52 65.21
2915 58.8601 4181.00 4320.63 64.66
2916 58.8775 4235.00 4334.10 65.08
2917 58.8949 4309.00 4343.39 65.64
2918 58.9124 4332.00 4347.08 65.82
2919 58.9298 4303.00 4344.51 65.60
2920 58.9472 4374.00 4335.93 66.14
2921 58.9647 4343.00 4322.41 65.90
2922 58.9821 4406.00 4305.45 66.38
2923 58.9995 4330.00 4286.67 65.80
2924 59.0170 4347.00 4268.29 65.93
2925 59.0344 4253.00 4249.55 65.21
2926 59.0519 4230.00 4232.03 65.04
2927 59.0693 4256.00 4216.36 65.24
2928 59.0867 4299.00 4203.63 65.57
2929 59.1042 4216.00 4194.00 64.93
2930 59.1216 4235.00 4188.95 65.08
2931 59.1390 4099.00 4189.56 64.02
2932 59.1565 4169.00 4197.06 64.57
2933 59.1739 4222.00 4211.22 64.98
2934 59.1914 4127.00 4232.33 64.24
2935 59.2088 4346.00 4259.72 65.92
2936 59.2262 4395.00 4292.15 66.29
2937 59.2437 4484.00 4327.73 66.96
2938 59.2611 4359.00 4364.14 66.02
2939 59.2785 4279.00 4398.80 65.41
2940 59.2960 4501.00 4429.26 67.09
2941 59.3134 4484.00 4453.70 66.96
2942 59.3309 4621.00 4470.57 67.98
2943 59.3483 4552.00 4481.65 67.47
2944 59.3657 4478.00 4487.17 66.92
2945 59.3832 4390.00 4488.39 66.26
2946 59.4006 4413.00 4486.36 66.43
2947 59.4180 4475.00 4481.56 66.90
2948 59.4355 4408.00 4473.77 66.39
2949 59.4529 4337.00 4462.27 65.86
2950 59.4704 4392.00 4446.11 66.27
2951 59.4878 4391.00 4424.15 66.26
2952 59.5052 4407.00 4396.81 66.39
2953 59.5227 4234.00 4364.27 65.07
2954 59.5401 4233.00 4329.09 65.06
2955 59.5576 4291.00 4292.42 65.51
2956 59.5750 4407.00 4256.38 66.39
2957 59.5924 4212.00 4222.73 64.90
2958 59.6099 4039.00 4193.80 63.55
2959 59.6273 4293.00 4169.99 65.52
2960 59.6447 4220.00 4152.78 64.96
2961 59.6622 4219.00 4142.63 64.95
2962 59.6796 4184.00 4140.77 64.68
2963 59.6971 4197.00 4147.32 64.78
2964 59.7145 4210.00 4164.81 64.88
2965 59.7319 4277.00 4192.98 65.40
2966 59.7494 4218.00 4232.42 64.95
2967 59.7668 4196.00 4282.93 64.78
2968 59.7842 4373.00 4345.55 66.13
2969 59.8017 4386.00 4419.05 66.23
2970 59.8191 4517.00 4502.04 67.21
2971 59.8366 4460.00 4593.32 66.78
2972 59.8540 4709.00 4689.33 68.62
2973 59.8714 4734.00 4788.99 68.80
2974 59.8889 5018.00 4889.05 70.84
2975 59.9063 4976.00 4987.25 70.54
2976 59.9237 5219.00 5081.10 72.24
2977 59.9412 5361.00 5168.23 73.22
2978 59.9586 5551.00 5247.52 74.50
2979 59.9761 5636.00 5318.54 75.07
2980 59.9935 5747.00 5378.41 75.81
2981 60.0109 5868.00 5426.41 76.60
2982 60.0284 5878.00 5462.83 76.67
2983 60.0458 5768.00 5489.95 75.95
2984 60.0633 5760.00 5508.63 75.89
2985 60.0807 5784.00 5522.95 76.05
2986 60.0981 5769.00 5536.91 75.95
2987 60.1156 5659.00 5553.14 75.23
2988 60.1330 5757.00 5575.04 75.87
2989 60.1504 5767.00 5605.06 75.94
2990 60.1679 5808.00 5643.39 76.21
2991 60.1853 5745.00 5690.02 75.80
2992 60.2028 5684.00 5743.72 75.39
2993 60.2202 5771.00 5804.20 75.97
2994 60.2376 5700.00 5868.10 75.50
2995 60.2551 5715.00 5933.47 75.60
2996 60.2725 5830.00 5997.16 76.35
2997 60.2899 5961.00 6055.40 77.21
2998 60.3074 6077.00 6103.98 77.96
2999 60.3248 5923.00 6138.58 76.96
3000 60.3423 6091.00 6155.68 78.04
3001 60.3597 6160.00 6153.24 78.49
3002 60.3771 6009.00 6131.97 77.52
3003 60.3946 6105.00 6094.50 78.13
3004 60.4120 5890.00 6044.18 76.75
3005 60.4294 5885.00 5985.73 76.71
3006 60.4469 5901.00 5923.27 76.82
3007 60.4643 5795.00 5859.83 76.12
3008 60.4818 5815.00 5797.46 76.26
3009 60.4992 5777.00 5737.18 76.01
3010 60.5166 5687.00 5679.50 75.41
3011 60.5341 5490.00 5624.20 74.09
3012 60.5515 5640.00 5574.07 75.10
3013 60.5689 5433.00 5527.13 73.71
3014 60.5864 5507.00 5482.68 74.21
3015 60.6038 5507.00 5442.81 74.21
3016 60.6213 5496.00 5405.66 74.14
3017 60.6387 5395.00 5370.18 73.45
3018 60.6561 5382.00 5335.32 73.36
3019 60.6736 5395.00 5300.05 73.45
3020 60.6910 5211.00 5263.31 72.19
3021 60.7084 5249.00 5223.70 72.45
3022 60.7259 5341.00 5180.87 73.08
3023 60.7433 5304.00 5133.39 72.83
3024 60.7607 5070.00 5081.89 71.20
3025 60.7782 5041.00 5026.26 71.00
3026 60.7956 5098.00 4967.16 71.40
3027 60.8131 4995.00 4905.54 70.68
3028 60.8305 4902.00 4842.32 70.01
3029 60.8479 4835.00 4778.36 69.53
3030 60.8654 4748.00 4714.47 68.91
3031 60.8828 4801.00 4651.37 69.29
3032 60.9003 4625.00 4589.77 68.01
3033 60.9177 4553.00 4529.95 67.48
3034 60.9351 4524.00 4474.11 67.26
3035 60.9526 4511.00 4422.56 67.16
3036 60.9700 4432.00 4376.02 66.57
3037 60.9874 4352.00 4334.94 65.97
3038 61.0049 4409.00 4299.33 66.40
3039 61.0223 4337.00 4268.89 65.86
3040 61.0398 4240.00 4243.19 65.12
3041 61.0572 4169.00 4221.77 64.57
3042 61.0746 4087.00 4204.10 63.93
3043 61.0921 4235.00 4190.84 65.08
3044 61.1095 4156.00 4181.89 64.47
3045 61.1269 4275.00 4177.65 65.38
3046 61.1444 4102.00 4177.95 64.05
3047 61.1618 4132.00 4182.68 64.28
3048 61.1793 4115.00 4191.13 64.15
3049 61.1967 4126.00 4202.24 64.23
3050 61.2141 4327.00 4213.66 65.78
3051 61.2316 4185.00 4225.32 64.69
3052 61.2490 4239.00 4234.55 65.11
3053 61.2664 4358.00 4239.79 66.02
3054 61.2839 4278.00 4239.91 65.41
3055 61.3013 4299.00 4234.75 65.57
3056 61.3188 4241.00 4224.22 65.12
3057 61.3362 4328.00 4209.45 65.79
3058 61.3536 4340.00 4192.32 65.88
3059 61.3711 4311.00 4172.79 65.66
3060 61.3885 4244.00 4153.10 65.15
3061 61.4059 4230.00 4133.43 65.04
3062 61.4234 4220.00 4113.90 64.96
3063 61.4408 4165.00 4094.33 64.54
3064 61.4583 4060.00 4074.79 63.72
3065 61.4757 4239.00 4053.99 65.11
3066 61.4931 4144.00 4032.09 64.37
3067 61.5106 4083.00 4008.99 63.90
3068 61.5280 3931.00 3984.81 62.70
3069 61.5454 3999.00 3960.06 63.24
3070 61.5629 4038.00 3934.83 63.55
3071 61.5803 3970.00 3910.03 63.01
3072 61.5978 3897.00 3886.41 62.43
3073 61.6152 3935.00 3863.69 62.73
3074 61.6326 3824.00 3844.52 61.84
3075 61.6501 3798.00 3828.24 61.63
3076 61.6675 3867.00 3814.84 62.19
3077 61.6850 3743.00 3804.32 61.18
3078 61.7024 3750.00 3796.50 61.24
3079 61.7198 3667.00 3791.16 60.56
3080 61.7373 3797.00 3788.11 61.62
3081 61.7547 3572.00 3787.35 59.77
3082 61.7721 3920.00 3788.57 62.61
3083 61.7896 3709.00 3791.44 60.90
3084 61.8070 3771.00 3797.16 61.41
3085 61.8245 3913.00 3804.84 62.55
3086 61.8419 3732.00 3815.73 61.09
3087 61.8593 3983.00 3829.49 63.11
3088 61.8768 3806.00 3846.15 61.69
3089 61.8942 3935.00 3865.46 62.73
3090 61.9116 3883.00 3886.90 62.31
3091 61.9291 3834.00 3909.63 61.92
3092 61.9465 3950.00 3932.59 62.85
3093 61.9640 4062.00 3954.56 63.73
3094 61.9814 4062.00 3974.54 63.73
3095 61.9988 4120.00 3990.98 64.19
3096 62.0163 4056.00 4003.90 63.69
3097 62.0337 3909.00 4012.78 62.52
3098 62.0511 4045.00 4017.65 63.60
3099 62.0686 4082.00 4018.67 63.89
3100 62.0860 4004.00 4016.08 63.28
3101 62.1035 3923.00 4010.17 62.63
3102 62.1209 4046.00 4001.32 63.61
3103 62.1383 3911.00 3990.09 62.54
3104 62.1558 3987.00 3977.70 63.14
3105 62.1732 3825.00 3964.00 61.85
3106 62.1906 3904.00 3951.30 62.48
3107 62.2081 3917.00 3938.31 62.59
3108 62.2255 3715.00 3928.27 60.95
3109 62.2430 3864.00 3921.29 62.16
3110 62.2604 3934.00 3918.04 62.72
3111 62.2778 3828.00 3919.00 61.87
3112 62.2953 3966.00 3926.10 62.98
3113 62.3127 3883.00 3935.91 62.31
3114 62.3301 3807.00 3950.66 61.70
3115 62.3476 3861.00 3969.35 62.14
3116 62.3650 3924.00 3991.37 62.64
3117 62.3825 4082.00 4014.52 63.89
3118 62.3999 4004.00 4039.52 63.28
3119 62.4173 3983.00 4063.51 63.11
3120 62.4348 4200.00 4084.70 64.81
3121 62.4522 4121.00 4101.61 64.19
3122 62.4696 4250.00 4113.28 65.19
3123 62.4871 4235.00 4119.16 65.08
3124 62.5045 4060.00 4120.79 63.72
3125 62.5219 4105.00 4119.00 64.07
3126 62.5394 4079.00 4114.96 63.87
3127 62.5568 4116.00 4110.95 64.16
3128 62.5743 4020.00 4108.75 63.40
3129 62.5917 4071.00 4106.94 63.80
3130 62.6091 4110.00 4108.05 64.11
3131 62.6266 4146.00 4111.89 64.39
3132 62.6440 4021.00 4118.66 63.41
3133 62.6615 4144.00 4128.55 64.37
3134 62.6789 3991.00 4141.67 63.17
3135 62.6963 4163.00 4156.28 64.52
3136 62.7138 4040.00 4175.43 63.56
3137 62.7312 4017.00 4197.11 63.38
3138 62.7486 4135.00 4219.54 64.30
3139 62.7661 4123.00 4241.63 64.21
3140 62.7835 4024.00 4261.14 63.44
3141 62.8010 4032.00 4276.13 63.50
3142 62.8184 4282.00 4285.06 65.44
3143 62.8358 4085.00 4287.08 63.91
3144 62.8533 4171.00 4281.33 64.58
3145 62.8707 4120.00 4270.31 64.19
3146 62.8881 4234.00 4253.90 65.07
3147 62.9056 4196.00 4233.94 64.78
3148 62.9230 4263.00 4210.98 65.29
3149 62.9405 4155.00 4185.47 64.46
3150 62.9579 4138.00 4157.41 64.33
3151 62.9753 4241.00 4126.30 65.12
3152 62.9928 4148.00 4091.84 64.40
3153 63.0102 4207.00 4054.83 64.86
3154 63.0276 4158.00 4014.93 64.48
3155 63.0451 4118.00 3972.78 64.17
3156 63.0625 3891.00 3929.35 62.38
3157 63.0800 4039.00 3885.61 63.55
3158 63.0974 3947.00 3841.65 62.83
3159 63.1148 3859.00 3800.03 62.12
3160 63.1323 3805.00 3760.43 61.68
3161 63.1497 3777.00 3722.77 61.46
3162 63.1671 3660.00 3687.35 60.50
3163 63.1846 3670.00 3655.53 60.58
3164 63.2020 3783.00 3625.28 61.51
3165 63.2195 3657.00 3597.45 60.47
3166 63.2369 3730.00 3572.39 61.07
3167 63.2543 3500.00 3549.59 59.16
3168 63.2718 3643.00 3530.85 60.36
3169 63.2892 3622.00 3514.22 60.18
3170 63.3066 3596.00 3500.71 59.97
3171 63.3241 3504.00 3490.05 59.19
3172 63.3415 3536.00 3482.07 59.46
3173 63.3590 3484.00 3477.02 59.03
3174 63.3764 3397.00 3474.95 58.28
3175 63.3938 3492.00 3476.21 59.09
3176 63.4113 3534.00 3480.33 59.45
3177 63.4287 3576.00 3488.11 59.80
3178 63.4461 3506.00 3498.73 59.21
3179 63.4636 3483.00 3512.61 59.02
3180 63.4810 3595.00 3529.70 59.96
3181 63.4985 3584.00 3549.83 59.87
3182 63.5159 3577.00 3572.80 59.81
3183 63.5333 3578.00 3598.28 59.82
3184 63.5508 3498.00 3626.31 59.14
3185 63.5682 3713.00 3655.44 60.93
3186 63.5856 3785.00 3685.56 61.52
3187 63.6031 3632.00 3715.95 60.27
3188 63.6205 3726.00 3746.52 61.04
3189 63.6380 3807.00 3776.79 61.70
3190 63.6554 3896.00 3805.99 62.42
3191 63.6728 3880.00 3833.14 62.29
3192 63.6903 3804.00 3859.32 61.68
3193 63.7077 3869.00 3883.22 62.20
3194 63.7252 3883.00 3904.23 62.31
3195 63.7426 3950.00 3921.81 62.85
3196 63.7600 3934.00 3935.50 62.72
3197 63.7775 3952.00 3945.05 62.86
3198 63.7949 3900.00 3950.58 62.45
3199 63.8123 3857.00 3951.71 62.10
3200 63.8298 3895.00 3949.01 62.41
3201 63.8472 3841.00 3942.03 61.98
3202 63.8647 3899.00 3931.90 62.44
3203 63.8821 3894.00 3918.69 62.40
3204 63.8995 4026.00 3902.81 63.45
3205 63.9170 3931.00 3884.70 62.70
3206 63.9344 3809.00 3864.52 61.72
3207 63.9518 3867.00 3843.36 62.19
3208 63.9693 3826.00 3821.40 61.85
3209 63.9867 3779.00 3799.08 61.47
3210 64.0041 3745.00 3776.80 61.20
3211 64.0216 3693.00 3754.91 60.77
3212 64.0390 3788.00 3733.68 61.55
3213 64.0565 3679.00 3713.36 60.65
3214 64.0739 3648.00 3694.14 60.40
3215 64.0913 3709.00 3676.20 60.90
3216 64.1088 3750.00 3659.62 61.24
3217 64.1262 3650.00 3644.99 60.42
3218 64.1436 3667.00 3632.51 60.56
3219 64.1611 3732.00 3622.71 61.09
3220 64.1785 3779.00 3615.79 61.47
3221 64.1960 3641.00 3612.40 60.34
3222 64.2134 3646.00 3613.06 60.38
3223 64.2308 3646.00 3618.84 60.38
3224 64.2483 3635.00 3629.15 60.29
3225 64.2657 3598.00 3644.97 59.98
3226 64.2831 3807.00 3666.84 61.70
3227 64.3006 3869.00 3695.26 62.20
3228 64.3180 3981.00 3730.78 63.10
3229 64.3354 3957.00 3773.84 62.90
3230 64.3529 3770.00 3824.94 61.40
3231 64.3703 3991.00 3884.56 63.17
3232 64.3878 4045.00 3952.12 63.60
3233 64.4052 4054.00 4027.28 63.67
3234 64.4227 4044.00 4110.33 63.59
3235 64.4401 4172.00 4199.73 64.59
3236 64.4575 4269.00 4294.41 65.34
3237 64.4750 4405.00 4392.16 66.37
3238 64.4924 4433.00 4491.36 66.58
3239 64.5098 4586.00 4589.93 67.72
3240 64.5273 4692.00 4685.58 68.50
3241 64.5447 4782.00 4776.39 69.15
3242 64.5621 4763.00 4859.47 69.01
3243 64.5796 4915.00 4931.83 70.11
3244 64.5970 4848.00 4991.08 69.63
3245 64.6145 4848.00 5034.56 69.63
3246 64.6319 5023.00 5060.49 70.87
3247 64.6493 4932.00 5068.34 70.23
3248 64.6668 5019.00 5058.87 70.84
3249 64.6842 4987.00 5034.03 70.62
3250 64.7017 4791.00 4996.36 69.22
3251 64.7191 4891.00 4949.15 69.94
3252 64.7365 4748.00 4895.08 68.91
3253 64.7540 4730.00 4836.82 68.78
3254 64.7714 4828.00 4775.37 69.48
3255 64.7888 4553.00 4712.52 67.48
3256 64.8063 4584.00 4649.44 67.71
3257 64.8237 4665.00 4587.19 68.30
3258 64.8411 4610.00 4527.09 67.90
3259 64.8586 4411.00 4470.28 66.42
3260 64.8760 4350.00 4418.19 65.95
3261 64.8935 4458.00 4371.36 66.77
3262 64.9109 4226.00 4331.67 65.01
3263 64.9283 4368.00 4298.77 66.09
3264 64.9458 4395.00 4272.27 66.29
3265 64.9632 4285.00 4251.33 65.46
3266 64.9807 4407.00 4235.08 66.39
3267 64.9981 4369.00 4220.75 66.10
3268 65.0155 4235.00 4206.98 65.08
3269 65.0330 4354.00 4192.04 65.98
3270 65.0504 4147.00 4175.17 64.40
3271 65.0678 4247.00 4154.23 65.17
3272 65.0853 4068.00 4130.51 63.78
3273 65.1027 4077.00 4104.04 63.85
3274 65.1201 4067.00 4075.52 63.77
3275 65.1376 3991.00 4045.74 63.17
3276 65.1550 3989.00 4015.25 63.16
3277 65.1724 4066.00 3984.50 63.77
3278 65.1899 3949.00 3953.58 62.84
3279 65.2073 3948.00 3922.66 62.83
3280 65.2248 3922.00 3892.02 62.63
3281 65.2422 3916.00 3862.10 62.58
3282 65.2596 3890.00 3831.76 62.37
3283 65.2771 3853.00 3804.24 62.07
3284 65.2945 3804.00 3779.47 61.68
3285 65.3120 3745.00 3758.45 61.20
3286 65.3294 3644.00 3742.20 60.37
3287 65.3468 3690.00 3731.59 60.75
3288 65.3643 3722.00 3727.44 61.01
3289 65.3817 3707.00 3730.41 60.89
3290 65.3991 3716.00 3740.99 60.96
3291 65.4166 3665.00 3759.56 60.54
3292 65.4340 3780.00 3786.43 61.48
3293 65.4515 3668.00 3821.28 60.56
3294 65.4689 3750.00 3863.79 61.24
3295 65.4863 3811.00 3913.87 61.73
3296 65.5038 3975.00 3970.49 63.05
3297 65.5212 4037.00 4032.73 63.54
3298 65.5387 4105.00 4099.36 64.07
3299 65.5561 4169.00 4168.92 64.57
3300 65.5735 4214.00 4239.21 64.92
3301 65.5910 4409.00 4308.48 66.40
3302 65.6084 4441.00 4374.74 66.64
3303 65.6258 4578.00 4436.27 67.66
3304 65.6433 4571.00 4491.57 67.61
3305 65.6607 4538.00 4539.97 67.36
3306 65.6781 4676.00 4581.24 68.38
3307 65.6956 4635.00 4615.81 68.08
3308 65.7130 4625.00 4644.35 68.01
3309 65.7305 4530.00 4667.52 67.31
3310 65.7479 4535.00 4685.94 67.34
3311 65.7653 4613.00 4699.88 67.92
3312 65.7828 4406.00 4709.39 66.38
3313 65.8002 4462.00 4714.12 66.80
3314 65.8176 4632.00 4713.83 68.06
3315 65.8351 4541.00 4708.23 67.39
3316 65.8525 4563.00 4697.11 67.55
3317 65.8700 4503.00 4680.29 67.10
3318 65.8874 4363.00 4657.79 66.05
3319 65.9048 4410.00 4629.65 66.41
3320 65.9223 4288.00 4596.22 65.48
3321 65.9397 4506.00 4558.05 67.13
3322 65.9572 4313.00 4516.05 65.67
3323 65.9746 4239.00 4471.30 65.11
3324 65.9920 4267.00 4424.92 65.32
3325 66.0095 4357.00 4378.06 66.01
3326 66.0269 4238.00 4331.57 65.10
3327 66.0443 4252.00 4286.20 65.21
3328 66.0618 4301.00 4242.23 65.58
3329 66.0792 4247.00 4199.97 65.17
3330 66.0966 4117.00 4159.08 64.16
3331 66.1141 4086.00 4119.60 63.92
3332 66.1315 4074.00 4081.12 63.83
3333 66.1490 4110.00 4043.30 64.11
3334 66.1664 4087.00 4005.93 63.93
3335 66.1838 3996.00 3968.74 63.21
3336 66.2013 4015.00 3931.61 63.36
3337 66.2187 3892.00 3894.40 62.39
3338 66.2362 4020.00 3857.66 63.40
3339 66.2536 4026.00 3821.58 63.45
3340 66.2710 3884.00 3786.45 62.32
3341 66.2885 3859.00 3752.62 62.12
3342 66.3059 3751.00 3720.56 61.25
3343 66.3233 3676.00 3690.26 60.63
3344 66.3408 3770.00 3662.39 61.40
3345 66.3582 3662.00 3636.75 60.51
3346 66.3756 3724.00 3613.42 61.02
3347 66.3931 3665.00 3592.25 60.54
3348 66.4105 3651.00 3573.83 60.42
3349 66.4280 3540.00 3557.58 59.50
3350 66.4454 3576.00 3544.06 59.80
3351 66.4628 3556.00 3533.54 59.63
3352 66.4803 3510.00 3525.89 59.25
3353 66.4977 3581.00 3521.23 59.84
3354 66.5151 3538.00 3519.99 59.48
3355 66.5326 3373.00 3522.10 58.08
3356 66.5500 3529.00 3527.55 59.41
3357 66.5675 3553.00 3536.25 59.61
3358 66.5849 3439.00 3547.92 58.64
3359 66.6023 3518.00 3562.49 59.31
3360 66.6198 3453.00 3579.63 58.76
3361 66.6372 3557.00 3598.95 59.64
3362 66.6546 3647.00 3620.05 60.39
3363 66.6721 3545.00 3642.38 59.54
3364 66.6895 3660.00 3665.39 60.50
3365 66.7070 3602.00 3688.43 60.02
3366 66.7244 3627.00 3710.64 60.22
3367 66.7418 3707.00 3731.27 60.89
3368 66.7593 3739.00 3749.54 61.15
3369 66.7767 3728.00 3764.85 61.06
3370 66.7941 3621.00 3776.92 60.17
3371 66.8116 3738.00 3785.69 61.14
3372 66.8290 3726.00 3791.25 61.04
3373 66.8464 3616.00 3793.92 60.13
3374 66.8639 3709.00 3794.04 60.90
3375 66.8813 3684.00 3791.91 60.70
3376 66.8988 3734.00 3787.80 61.11
3377 66.9162 3699.00 3782.18 60.82
3378 66.9336 3737.00 3774.64 61.13
3379 66.9511 3756.00 3766.25 61.29
3380 66.9685 3652.00 3756.20 60.43
3381 66.9860 3609.00 3745.30 60.08
3382 67.0034 3728.00 3734.47 61.06
3383 67.0208 3676.00 3723.79 60.63
3384 67.0383 3539.00 3714.60 59.49
3385 67.0557 3564.00 3707.11 59.70
3386 67.0731 3581.00 3701.74 59.84
3387 67.0906 3658.00 3698.78 60.48
3388 67.1080 3563.00 3698.41 59.69
3389 67.1255 3548.00 3699.81 59.57
3390 67.1429 3562.00 3704.44 59.68
3391 67.1603 3859.00 3712.07 62.12
3392 67.1778 3684.00 3722.16 60.70
3393 67.1952 3651.00 3734.86 60.42
3394 67.2126 3757.00 3750.11 61.29
3395 67.2301 3776.00 3767.45 61.45
3396 67.2475 3745.00 3786.49 61.20
3397 67.2650 3716.00 3806.65 60.96
3398 67.2824 3862.00 3827.29 62.15
3399 67.2998 3741.00 3847.78 61.16
3400 67.3173 3852.00 3867.13 62.06
3401 67.3347 3876.00 3885.61 62.26
3402 67.3521 3870.00 3903.12 62.21
3403 67.3696 3894.00 3919.59 62.40
3404 67.3870 3954.00 3934.90 62.88
3405 67.4045 3934.00 3949.06 62.72
3406 67.4219 3844.00 3961.84 62.00
3407 67.4393 3856.00 3972.89 62.10
3408 67.4568 3972.00 3981.71 63.02
3409 67.4742 3867.00 3987.83 62.19
3410 67.4917 3915.00 3990.95 62.57
3411 67.5091 3943.00 3991.05 62.79
3412 67.5265 3793.00 3988.43 61.59
3413 67.5440 4038.00 3983.65 63.55
3414 67.5614 3961.00 3976.63 62.94
3415 67.5788 4000.00 3969.76 63.25
3416 67.5963 3884.00 3962.88 62.32
3417 67.6137 3859.00 3956.07 62.12
3418 67.6311 3915.00 3949.64 62.57
3419 67.6486 3806.00 3943.61 61.69
3420 67.6660 3816.00 3937.99 61.77
3421 67.6834 3814.00 3932.91 61.76
3422 67.7009 3795.00 3928.60 61.60
3423 67.7183 3819.00 3925.47 61.80
3424 67.7358 3988.00 3923.95 63.15
3425 67.7532 3873.00 3924.00 62.23
3426 67.7706 3816.00 3926.65 61.77
3427 67.7881 3929.00 3931.47 62.68
3428 67.8055 3830.00 3937.93 61.89
3429 67.8230 3789.00 3945.47 61.55
3430 67.8404 3912.00 3954.06 62.55
3431 67.8578 3913.00 3961.35 62.55
3432 67.8753 3919.00 3967.31 62.60
3433 67.8927 3938.00 3971.36 62.75
3434 67.9101 3802.00 3973.14 61.66
3435 67.9276 3992.00 3972.61 63.18
3436 67.9450 3866.00 3969.23 62.18
3437 67.9625 4127.00 3963.02 64.24
3438 67.9799 4009.00 3953.84 63.32
3439 67.9973 4023.00 3942.22 63.43
3440 68.0148 3918.00 3926.52 62.59
3441 68.0322 3985.00 3908.15 63.13
3442 68.0496 3848.00 3886.10 62.03
3443 68.0671 3923.00 3861.34 62.63
3444 68.0845 3904.00 3834.25 62.48
3445 68.1020 3803.00 3805.48 61.67
3446 68.1194 3808.00 3775.47 61.71
3447 68.1368 3779.00 3744.60 61.47
3448 68.1543 3813.00 3713.23 61.75
3449 68.1717 3643.00 3682.08 60.36
3450 68.1891 3637.00 3649.74 60.31
3451 68.2066 3498.00 3618.43 59.14
3452 68.2240 3601.00 3587.40 60.01
3453 68.2414 3584.00 3557.84 59.87
3454 68.2589 3480.00 3529.44 58.99
3455 68.2763 3506.00 3502.61 59.21
3456 68.2938 3523.00 3477.64 59.35
3457 68.3112 3410.00 3454.48 58.40
3458 68.3286 3403.00 3433.45 58.34
3459 68.3461 3358.00 3414.35 57.95
3460 68.3635 3449.00 3396.78 58.73
3461 68.3810 3242.00 3380.65 56.94
3462 68.3984 3196.00 3366.27 56.53
3463 68.4158 3281.00 3352.87 57.28
3464 68.4333 3325.00 3340.73 57.66
3465 68.4507 3290.00 3329.64 57.36
3466 68.4681 3178.00 3319.10 56.37
3467 68.4856 3220.00 3308.69 56.74
3468 68.5030 3271.00 3299.72 57.19
3469 68.5204 3241.00 3291.69 56.93
3470 68.5379 3217.00 3284.45 56.72
3471 68.5553 3225.00 3278.29 56.79
3472 68.5728 3328.00 3273.01 57.69
3473 68.5902 3210.00 3268.86 56.66
3474 68.6076 3272.00 3265.76 57.20
3475 68.6251 3246.00 3263.75 56.97
3476 68.6425 3132.00 3263.42 55.96
3477 68.6600 3211.00 3263.47 56.67
3478 68.6774 3264.00 3265.20 57.13
3479 68.6948 3102.00 3268.34 55.70
3480 68.7123 3254.00 3272.99 57.04
3481 68.7297 3210.00 3279.18 56.66
3482 68.7471 3194.00 3286.77 56.52
3483 68.7646 3241.00 3295.93 56.93
3484 68.7820 3127.00 3306.35 55.92
3485 68.7995 3226.00 3318.07 56.80
3486 68.8169 3289.00 3330.78 57.35
3487 68.8343 3231.00 3343.90 56.84
3488 68.8518 3238.00 3357.10 56.90
3489 68.8692 3350.00 3369.95 57.88
3490 68.8866 3277.00 3381.95 57.25
3491 68.9041 3397.00 3392.55 58.28
3492 68.9215 3261.00 3401.35 57.11
3493 68.9389 3382.00 3407.99 58.15
3494 68.9564 3340.00 3412.45 57.79
3495 68.9738 3277.00 3414.62 57.25
3496 68.9913 3430.00 3414.81 58.57
3497 69.0087 3244.00 3413.23 56.96
3498 69.0261 3349.00 3410.24 57.87
3499 69.0436 3382.00 3406.18 58.15
3500 69.0610 3330.00 3401.35 57.71
3501 69.0785 3437.00 3395.99 58.63
3502 69.0959 3293.00 3390.30 57.38
3503 69.1133 3343.00 3384.46 57.82
3504 69.1308 3325.00 3378.62 57.66
3505 69.1482 3233.00 3372.94 56.86
3506 69.1656 3263.00 3367.66 57.12
3507 69.1831 3305.00 3363.19 57.49
3508 69.2005 3363.00 3359.56 57.99
3509 69.2179 3365.00 3357.13 58.01
3510 69.2354 3407.00 3356.35 58.37
3511 69.2528 3301.00 3357.37 57.45
3512 69.2703 3209.00 3360.36 56.65
3513 69.2877 3366.00 3366.04 58.02
3514 69.3051 3253.00 3373.50 57.04
3515 69.3226 3361.00 3382.75 57.97
3516 69.3400 3335.00 3393.92 57.75
3517 69.3574 3407.00 3406.84 58.37
3518 69.3749 3367.00 3420.84 58.03
3519 69.3923 3529.00 3436.42 59.41
3520 69.4098 3465.00 3452.72 58.86
3521 69.4272 3489.00 3469.48 59.07
3522 69.4446 3511.00 3486.30 59.25
3523 69.4621 3615.00 3502.86 60.12
3524 69.4795 3496.00 3519.16 59.13
3525 69.4969 3401.00 3535.07 58.32
3526 69.5144 3491.00 3550.42 59.08
3527 69.5318 3518.00 3565.17 59.31
3528 69.5493 3577.00 3578.97 59.81
3529 69.5667 3456.00 3591.53 58.79
3530 69.5841 3592.00 3603.23 59.93
3531 69.6016 3520.00 3612.05 59.33
3532 69.6190 3663.00 3617.96 60.52
3533 69.6364 3580.00 3620.65 59.83
3534 69.6539 3474.00 3619.44 58.94
3535 69.6713 3518.00 3614.03 59.31
3536 69.6887 3464.00 3604.94 58.86
3537 69.7062 3421.00 3592.96 58.49
3538 69.7236 3567.00 3577.95 59.72
3539 69.7411 3571.00 3560.95 59.76
3540 69.7585 3442.00 3542.40 58.67
3541 69.7759 3503.00 3523.15 59.19
3542 69.7934 3404.00 3503.72 58.34
3543 69.8108 3385.00 3483.70 58.18
3544 69.8282 3234.00 3463.56 56.87
3545 69.8457 3369.00 3443.53 58.04
3546 69.8631 3324.00 3423.55 57.65
3547 69.8806 3398.00 3404.01 58.29
3548 69.8980 3276.00 3384.96 57.24
3549 69.9154 3310.00 3366.77 57.53
3550 69.9329 3308.00 3349.37 57.52
3551 69.9503 3285.00 3333.84 57.31
3552 69.9678 3182.00 3320.14 56.41
3553 69.9852 3212.00 3308.51 56.67
3554 70.0026 3275.00 3299.14 57.23
3555 70.0201 3206.00 3292.24 56.62
3556 70.0375 3293.00 3287.98 57.38
3557 70.0549 3199.00 3286.74 56.56
3558 70.0724 3116.00 3288.30 55.82
3559 70.0898 3198.00 3293.08 56.55
3560 70.1072 3216.00 3300.65 56.71
3561 70.1247 3254.00 3311.96 57.04
3562 70.1421 3276.00 3327.07 57.24
3563 70.1596 3211.00 3345.93 56.67
3564 70.1770 3310.00 3368.61 57.53
3565 70.1944 3325.00 3395.26 57.66
3566 70.2119 3399.00 3425.91 58.30
3567 70.2293 3403.00 3460.47 58.34
3568 70.2467 3522.00 3498.93 59.35
3569 70.2642 3510.00 3541.06 59.25
3570 70.2816 3479.00 3586.63 58.98
3571 70.2991 3528.00 3634.76 59.40
3572 70.3165 3611.00 3686.03 60.09
3573 70.3339 3651.00 3739.39 60.42
3574 70.3514 3753.00 3794.28 61.26
3575 70.3688 3796.00 3850.16 61.61
3576 70.3863 3963.00 3906.46 62.95
3577 70.4037 3997.00 3962.41 63.22
3578 70.4211 4109.00 4017.49 64.10
3579 70.4386 4184.00 4070.93 64.68
3580 70.4560 4231.00 4122.04 65.05
3581 70.4734 4256.00 4170.01 65.24
3582 70.4909 4340.00 4213.98 65.88
3583 70.5083 4369.00 4252.96 66.10
3584 70.5257 4543.00 4287.19 67.40
3585 70.5432 4486.00 4315.31 66.98
3586 70.5606 4598.00 4337.09 67.81
3587 70.5781 4434.00 4352.07 66.59
3588 70.5955 4511.00 4360.43 67.16
3589 70.6129 4355.00 4362.44 65.99
3590 70.6304 4277.00 4358.48 65.40
3591 70.6478 4222.00 4348.62 64.98
3592 70.6653 4293.00 4334.28 65.52
3593 70.6827 4228.00 4314.87 65.02
3594 70.7001 4139.00 4290.76 64.34
3595 70.7176 4125.00 4261.82 64.23
3596 70.7350 4179.00 4228.74 64.65
3597 70.7524 4353.00 4191.58 65.98
3598 70.7699 4052.00 4150.93 63.66
3599 70.7873 4057.00 4107.54 63.69
3600 70.8047 4058.00 4062.48 63.70
3601 70.8222 4002.00 4016.48 63.26
3602 70.8396 3850.00 3970.58 62.05
3603 70.8570 3842.00 3925.97 61.98
3604 70.8745 3797.00 3883.00 61.62
3605 70.8919 3797.00 3842.21 61.62
3606 70.9094 3688.00 3803.88 60.73
3607 70.9268 3719.00 3768.09 60.98
3608 70.9442 3611.00 3734.88 60.09
3609 70.9617 3634.00 3704.33 60.28
3610 70.9791 3622.00 3676.47 60.18
3611 70.9966 3618.00 3651.43 60.15
3612 71.0140 3507.00 3629.30 59.22
3613 71.0314 3596.00 3610.31 59.97
3614 71.0489 3570.00 3594.58 59.75
3615 71.0663 3557.00 3582.27 59.64
3616 71.0837 3422.00 3573.40 58.50
3617 71.1012 3524.00 3567.84 59.36
3618 71.1186 3624.00 3566.46 60.20
3619 71.1360 3479.00 3567.22 58.98
3620 71.1535 3582.00 3570.55 59.85
3621 71.1709 3549.00 3576.54 59.57
3622 71.1883 3559.00 3583.60 59.66
3623 71.2058 3652.00 3591.80 60.43
3624 71.2232 3588.00 3600.71 59.90
3625 71.2407 3649.00 3610.23 60.41
3626 71.2581 3661.00 3619.61 60.51
3627 71.2756 3666.00 3628.90 60.55
3628 71.2930 3672.00 3637.82 60.60
3629 71.3104 3681.00 3646.19 60.67
3630 71.3279 3750.00 3653.58 61.24
3631 71.3453 3676.00 3659.53 60.63
3632 71.3627 3748.00 3663.73 61.22
3633 71.3802 3681.00 3665.40 60.67
3634 71.3976 3699.00 3664.39 60.82
3635 71.4150 3699.00 3660.64 60.82
3636 71.4325 3676.00 3654.23 60.63
3637 71.4499 3565.00 3645.36 59.71
3638 71.4674 3634.00 3634.52 60.28
3639 71.4848 3617.00 3622.56 60.14
3640 71.5022 3650.00 3609.56 60.42
3641 71.5197 3689.00 3596.32 60.74
3642 71.5371 3565.00 3583.30 59.71
3643 71.5546 3537.00 3570.91 59.47
3644 71.5720 3593.00 3559.45 59.94
3645 71.5894 3521.00 3549.37 59.34
3646 71.6069 3476.00 3540.87 58.96
3647 71.6243 3565.00 3534.10 59.71
3648 71.6417 3444.00 3529.55 58.69
3649 71.6592 3428.00 3527.51 58.55
3650 71.6766 3408.00 3528.50 58.38
3651 71.6940 3472.00 3531.87 58.92
3652 71.7115 3564.00 3538.42 59.70
3653 71.7289 3571.00 3547.44 59.76
3654 71.7464 3377.00 3559.13 58.11
3655 71.7638 3474.00 3573.21 58.94
3656 71.7812 3555.00 3589.37 59.62
3657 71.7987 3463.00 3607.00 58.85
3658 71.8161 3591.00 3625.63 59.92
3659 71.8335 3600.00 3644.31 60.00
3660 71.8510 3614.00 3662.52 60.12
3661 71.8684 3676.00 3679.59 60.63
3662 71.8859 3628.00 3694.99 60.23
3663 71.9033 3669.00 3708.57 60.57
3664 71.9207 3597.00 3719.80 59.97
3665 71.9382 3700.00 3729.29 60.83
3666 71.9556 3565.00 3737.54 59.71
3667 71.9731 3728.00 3745.25 61.06
3668 71.9905 3645.00 3753.14 60.37
3669 72.0079 3691.00 3761.83 60.75
3670 72.0253 3674.00 3772.02 60.61
3671 72.0428 3754.00 3783.70 61.27
3672 72.0602 3698.00 3797.18 60.81
3673 72.0777 3665.00 3812.47 60.54
3674 72.0951 3783.00 3829.46 61.51
3675 72.1125 3698.00 3848.01 60.81
3676 72.1300 3901.00 3867.82 62.46
3677 72.1474 3980.00 3888.45 63.09
3678 72.1649 3957.00 3910.03 62.90
3679 72.1823 3955.00 3931.87 62.89
3680 72.1997 3911.00 3953.72 62.54
3681 72.2172 3953.00 3974.63 62.87
3682 72.2346 3984.00 3993.84 63.12
3683 72.2520 4030.00 4011.00 63.48
3684 72.2695 4085.00 4025.68 63.91
3685 72.2869 4024.00 4037.55 63.44
3686 72.3044 4052.00 4046.47 63.66
3687 72.3218 4181.00 4052.35 64.66
3688 72.3392 4090.00 4055.12 63.95
3689 72.3567 3980.00 4054.38 63.09
3690 72.3741 4172.00 4050.77 64.59
3691 72.3915 4148.00 4043.84 64.40
3692 72.4090 4103.00 4033.36 64.05
3693 72.4264 4117.00 4019.32 64.16
3694 72.4438 3924.00 4001.77 62.64
3695 72.4613 3850.00 3980.89 62.05
3696 72.4787 3971.00 3957.04 63.02
3697 72.4962 3855.00 3930.69 62.09
3698 72.5136 3863.00 3902.43 62.15
3699 72.5310 3834.00 3872.85 61.92
3700 72.5485 3826.00 3842.41 61.85
3701 72.5659 3770.00 3811.45 61.40
3702 72.5833 3755.00 3780.83 61.28
3703 72.6008 3782.00 3750.28 61.50
3704 72.6182 3726.00 3719.94 61.04
3705 72.6357 3684.00 3689.86 60.70
3706 72.6531 3713.00 3660.01 60.93
3707 72.6705 3528.00 3630.30 59.40
3708 72.6880 3681.00 3600.76 60.67
3709 72.7054 3561.00 3571.31 59.67
3710 72.7228 3544.00 3542.19 59.53
3711 72.7403 3498.00 3513.41 59.14
3712 72.7577 3400.00 3485.26 58.31
3713 72.7751 3508.00 3457.99 59.23
3714 72.7926 3346.00 3431.87 57.84
3715 72.8100 3359.00 3407.16 57.96
3716 72.8275 3234.00 3383.95 56.87
3717 72.8449 3279.00 3362.37 57.26
3718 72.8623 3353.00 3342.49 57.91
3719 72.8798 3293.00 3324.26 57.38
3720 72.8972 3214.00 3307.71 56.69
3721 72.9146 3296.00 3292.78 57.41
3722 72.9321 3293.00 3279.41 57.38
3723 72.9495 3266.00 3267.62 57.15
3724 72.9670 3188.00 3257.67 56.46
3725 72.9844 3222.00 3249.09 56.76
3726 73.0018 3181.00 3242.26 56.40
3727 73.0193 3220.00 3237.02 56.74
3728 73.0367 3077.00 3233.46 55.47
3729 73.0542 3262.00 3231.76 57.11
3730 73.0716 3260.00 3231.39 57.10
3731 73.0890 3162.00 3232.68 56.23
3732 73.1065 3168.00 3235.38 56.28
3733 73.1239 3240.00 3239.10 56.92
3734 73.1413 3199.00 3244.10 56.56
3735 73.1588 3310.00 3250.01 57.53
3736 73.1762 3205.00 3256.43 56.61
3737 73.1936 3216.00 3263.25 56.71
3738 73.2111 3187.00 3270.21 56.45
3739 73.2285 3224.00 3276.85 56.78
3740 73.2460 3239.00 3284.26 56.91
3741 73.2634 3172.00 3291.19 56.32
3742 73.2808 3296.00 3298.56 57.41
3743 73.2983 3270.00 3305.48 57.18
3744 73.3157 3226.00 3311.80 56.80
3745 73.3332 3296.00 3318.76 57.41
3746 73.3506 3363.00 3325.86 57.99
3747 73.3680 3301.00 3332.94 57.45
3748 73.3855 3402.00 3339.92 58.33
3749 73.4029 3329.00 3346.91 57.70
3750 73.4203 3389.00 3353.39 58.22
3751 73.4378 3252.00 3359.38 57.03
3752 73.4552 3444.00 3365.28 58.69
3753 73.4726 3395.00 3371.07 58.27
3754 73.4901 3354.00 3376.61 57.91
3755 73.5075 3320.00 3383.17 57.62
3756 73.5249 3422.00 3390.42 58.50
3757 73.5424 3395.00 3399.53 58.27
3758 73.5598 3371.00 3410.58 58.06
3759 73.5773 3328.00 3423.97 57.69
3760 73.5947 3462.00 3440.02 58.84
3761 73.6121 3441.00 3458.94 58.66
3762 73.6296 3547.00 3481.13 59.56
3763 73.6470 3441.00 3505.95 58.66
3764 73.6645 3465.00 3533.59 58.86
3765 73.6819 3503.00 3563.74 59.19
3766 73.6993 3399.00 3595.85 58.30
3767 73.7168 3474.00 3630.04 58.94
3768 73.7342 3520.00 3665.57 59.33
3769 73.7516 3612.00 3701.08 60.10
3770 73.7691 3524.00 3736.16 59.36
3771 73.7865 3632.00 3770.23 60.27
3772 73.8040 3654.00 3802.46 60.45
3773 73.8214 3545.00 3832.12 59.54
3774 73.8388 3685.00 3858.69 60.70
3775 73.8562 3825.00 3882.07 61.85
3776 73.8737 3668.00 3901.31 60.56
3777 73.8911 3877.00 3916.76 62.27
3778 73.9086 3787.00 3928.19 61.54
3779 73.9260 3844.00 3935.88 62.00
3780 73.9435 3889.00 3940.16 62.36
3781 73.9609 3881.00 3941.14 62.30
3782 73.9783 3824.00 3939.16 61.84
3783 73.9958 3803.00 3934.40 61.67
3784 74.0132 3904.00 3927.53 62.48
3785 74.0306 3843.00 3918.52 61.99
3786 74.0481 3799.00 3907.56 61.64
3787 74.0655 3854.00 3894.87 62.08
3788 74.0829 3822.00 3880.85 61.82
3789 74.1004 3809.00 3865.53 61.72
3790 74.1178 3737.00 3849.44 61.13
3791 74.1353 3858.00 3833.07 62.11
3792 74.1527 3901.00 3816.98 62.46
3793 74.1701 3741.00 3801.40 61.16
3794 74.1876 3714.00 3787.66 60.94
3795 74.2050 3876.00 3775.81 62.26
3796 74.2225 3838.00 3766.57 61.95
3797 74.2399 3683.00 3759.93 60.69
3798 74.2573 3637.00 3756.05 60.31
3799 74.2748 3656.00 3754.87 60.46
3800 74.2922 3746.00 3756.17 61.20
3801 74.3096 3780.00 3759.54 61.48
3802 74.3271 3796.00 3764.37 61.61
3803 74.3445 3837.00 3770.07 61.94
3804 74.3619 3862.00 3776.00 62.15
3805 74.3794 3875.00 3781.57 62.25
3806 74.3968 3911.00 3786.02 62.54
3807 74.4143 3853.00 3789.36 62.07
3808 74.4317 3828.00 3791.20 61.87
3809 74.4491 3808.00 3791.49 61.71
3810 74.4666 3915.00 3790.30 62.57
3811 74.4840 3812.00 3787.78 61.74
3812 74.5014 3850.00 3784.23 62.05
3813 74.5189 3827.00 3779.85 61.86
3814 74.5363 3747.00 3774.84 61.21
3815 74.5538 3722.00 3769.43 61.01
3816 74.5712 3700.00 3763.73 60.83
3817 74.5886 3711.00 3757.80 60.92
3818 74.6061 3690.00 3751.66 60.75
3819 74.6235 3708.00 3745.31 60.89
3820 74.6409 3666.00 3738.73 60.55
3821 74.6584 3793.00 3731.88 61.59
3822 74.6758 3761.00 3724.72 61.33
3823 74.6932 3652.00 3717.17 60.43
3824 74.7107 3719.00 3708.77 60.98
3825 74.7281 3709.00 3700.36 60.90
3826 74.7456 3627.00 3691.49 60.22
3827 74.7630 3652.00 3682.24 60.43
3828 74.7804 3630.00 3672.74 60.25
3829 74.7979 3688.00 3663.15 60.73
3830 74.8153 3577.00 3653.66 59.81
3831 74.8327 3593.00 3644.41 59.94
3832 74.8502 3561.00 3635.52 59.67
3833 74.8676 3656.00 3626.95 60.46
3834 74.8851 3716.00 3618.54 60.96
3835 74.9025 3659.00 3610.13 60.49
3836 74.9199 3699.00 3601.37 60.82
3837 74.9374 3527.00 3592.54 59.39
3838 74.9548 3632.00 3583.21 60.27
3839 74.9722 3726.00 3573.32 61.04
3840 74.9897 3501.00 3562.89 59.17
3841 75.0071 3608.00 3551.96 60.07
3842 75.0245 3522.00 3540.62 59.35
3843 75.0420 3578.00 3528.96 59.82
3844 75.0594 3561.00 3517.00 59.67
3845 75.0769 3630.00 3504.29 60.25
3846 75.0943 3550.00 3492.12 59.58
3847 75.1117 3502.00 3479.36 59.18
3848 75.1292 3490.00 3466.48 59.08
3849 75.1466 3504.00 3453.25 59.19
3850 75.1640 3352.00 3439.73 57.90
3851 75.1815 3416.00 3426.46 58.45
3852 75.1989 3345.00 3413.91 57.84
3853 75.2163 3406.00 3401.41 58.36
3854 75.2338 3409.00 3388.94 58.39
3855 75.2512 3539.00 3377.42 59.49
3856 75.2687 3388.00 3366.35 58.21
3857 75.2861 3333.00 3355.55 57.73
3858 75.3036 3247.00 3345.40 56.98
3859 75.3210 3281.00 3335.75 57.28
3860 75.3384 3255.00 3326.48 57.05
3861 75.3559 3320.00 3317.66 57.62
3862 75.3733 3276.00 3309.29 57.24
3863 75.3907 3297.00 3301.67 57.42
3864 75.4082 3284.00 3294.93 57.31
3865 75.4256 3236.00 3289.23 56.89
3866 75.4430 3248.00 3284.74 56.99
3867 75.4605 3222.00 3281.44 56.76
3868 75.4779 3312.00 3279.69 57.55
3869 75.4954 3291.00 3279.33 57.37
3870 75.5128 3296.00 3280.30 57.41
3871 75.5302 3360.00 3282.61 57.97
3872 75.5477 3244.00 3286.34 56.96
3873 75.5651 3288.00 3291.25 57.34
3874 75.5825 3327.00 3297.54 57.68
3875 75.6000 3269.00 3305.11 57.18
3876 75.6174 3359.00 3314.22 57.96
3877 75.6349 3372.00 3324.48 58.07
3878 75.6523 3404.00 3336.10 58.34
3879 75.6697 3341.00 3349.05 57.80
3880 75.6872 3418.00 3363.24 58.46
3881 75.7046 3452.00 3378.70 58.75
3882 75.7221 3468.00 3395.05 58.89
3883 75.7395 3450.00 3412.24 58.74
3884 75.7569 3469.00 3430.13 58.90
3885 75.7744 3418.00 3448.67 58.46
3886 75.7918 3534.00 3467.92 59.45
3887 75.8092 3458.00 3487.83 58.80
3888 75.8267 3468.00 3508.45 58.89
3889 75.8441 3578.00 3529.79 59.82
3890 75.8615 3615.00 3551.77 60.12
3891 75.8790 3522.00 3574.33 59.35
3892 75.8964 3506.00 3597.27 59.21
3893 75.9138 3484.00 3620.29 59.03
3894 75.9313 3702.00 3643.10 60.84
3895 75.9487 3648.00 3665.31 60.40
3896 75.9662 3755.00 3686.54 61.28
3897 75.9836 3648.00 3706.70 60.40
3898 76.0010 3588.00 3724.90 59.90
3899 76.0185 3634.00 3740.77 60.28
3900 76.0359 3532.00 3754.15 59.43
3901 76.0534 3664.00 3764.87 60.53
3902 76.0708 3616.00 3772.79 60.13
3903 76.0882 3769.00 3777.70 61.39
3904 76.1057 3572.00 3779.91 59.77
3905 76.1231 3690.00 3779.51 60.75
3906 76.1405 3765.00 3776.29 61.36
3907 76.1580 3648.00 3770.57 60.40
3908 76.1754 3760.00 3762.55 61.32
3909 76.1928 3672.00 3752.59 60.60
3910 76.2103 3664.00 3741.07 60.53
3911 76.2277 3760.00 3728.42 61.32
3912 76.2452 3830.00 3715.18 61.89
3913 76.2626 3690.00 3701.85 60.75
3914 76.2800 3663.00 3688.95 60.52
3915 76.2975 3651.00 3676.84 60.42
3916 76.3149 3796.00 3666.08 61.61
3917 76.3323 3605.00 3656.73 60.04
3918 76.3498 3548.00 3649.53 59.57
3919 76.3672 3649.00 3644.16 60.41
3920 76.3846 3683.00 3640.78 60.69
3921 76.4021 3701.00 3639.59 60.84
3922 76.4195 3727.00 3640.06 61.05
3923 76.4370 3559.00 3642.38 59.66
3924 76.4544 3562.00 3646.08 59.68
3925 76.4718 3726.00 3651.07 61.04
3926 76.4893 3682.00 3657.08 60.68
3927 76.5067 3758.00 3663.86 61.30
3928 76.5241 3719.00 3671.12 60.98
3929 76.5416 3663.00 3678.59 60.52
3930 76.5590 3756.00 3685.88 61.29
3931 76.5765 3797.00 3692.79 61.62
3932 76.5939 3754.00 3698.81 61.27
3933 76.6113 3766.00 3703.48 61.37
3934 76.6288 3741.00 3706.41 61.16
3935 76.6462 3760.00 3706.93 61.32
3936 76.6637 3759.00 3704.78 61.31
3937 76.6811 3712.00 3699.44 60.93
3938 76.6985 3727.00 3691.39 61.05
3939 76.7160 3666.00 3680.44 60.55
3940 76.7334 3740.00 3667.05 61.16
3941 76.7508 3586.00 3651.11 59.88
3942 76.7683 3737.00 3633.51 61.13
3943 76.7857 3831.00 3614.59 61.90
3944 76.8031 3643.00 3594.66 60.36
3945 76.8206 3487.00 3573.72 59.05
3946 76.8380 3546.00 3552.66 59.55
3947 76.8555 3583.00 3531.28 59.86
3948 76.8729 3463.00 3509.69 58.85
3949 76.8903 3472.00 3487.89 58.92
3950 76.9078 3497.00 3465.86 59.14
3951 76.9252 3457.00 3444.08 58.80
3952 76.9426 3488.00 3422.09 59.06
3953 76.9601 3354.00 3400.35 57.91
3954 76.9775 3475.00 3378.74 58.95
3955 76.9950 3398.00 3357.91 58.29
3956 77.0124 3455.00 3337.24 58.78
3957 77.0298 3276.00 3317.43 57.24
3958 77.0472 3355.00 3297.94 57.92
3959 77.0647 3287.00 3279.22 57.33
3960 77.0821 3258.00 3261.22 57.08
3961 77.0996 3340.00 3243.96 57.79
3962 77.1170 3342.00 3227.47 57.81
3963 77.1345 3208.00 3211.77 56.64
3964 77.1519 3287.00 3196.91 57.33
3965 77.1693 3164.00 3182.72 56.25
3966 77.1868 3221.00 3169.37 56.75
3967 77.2042 3182.00 3156.71 56.41
3968 77.2216 3169.00 3144.67 56.29
3969 77.2391 3119.00 3133.31 55.85
3970 77.2565 3162.00 3122.55 56.23
3971 77.2739 3074.00 3112.33 55.44
3972 77.2914 3135.00 3102.70 55.99
3973 77.3088 3067.00 3093.39 55.38
3974 77.3263 3047.00 3084.92 55.20
3975 77.3437 3090.00 3076.96 55.59
3976 77.3611 3139.00 3069.78 56.03
3977 77.3786 3107.00 3063.31 55.74
3978 77.3960 3004.00 3057.61 54.81
3979 77.4135 2984.00 3052.62 54.63
3980 77.4309 3068.00 3048.64 55.39
3981 77.4483 3012.00 3045.75 54.88
3982 77.4658 3039.00 3043.67 55.13
3983 77.4832 3026.00 3042.59 55.01
3984 77.5006 3020.00 3042.54 54.95
3985 77.5181 3020.00 3043.48 54.95
3986 77.5355 3095.00 3045.46 55.63
3987 77.5529 3146.00 3048.64 56.09
3988 77.5704 3165.00 3052.84 56.26
3989 77.5878 3118.00 3058.28 55.84
3990 77.6052 2994.00 3064.86 54.72
3991 77.6227 3097.00 3072.61 55.65
3992 77.6401 3043.00 3081.45 55.16
3993 77.6576 3007.00 3091.59 54.84
3994 77.6750 3123.00 3102.86 55.88
3995 77.6924 3090.00 3115.63 55.59
3996 77.7099 3106.00 3129.99 55.73
3997 77.7273 3081.00 3145.79 55.51
3998 77.7448 3193.00 3163.26 56.51
3999 77.7622 3144.00 3182.56 56.07
4000 77.7796 3183.00 3203.76 56.42
4001 77.7971 3265.00 3226.94 57.14
4002 77.8145 3237.00 3252.07 56.89
4003 77.8319 3295.00 3279.00 57.40
4004 77.8494 3320.00 3307.59 57.62
4005 77.8668 3357.00 3337.46 57.94
4006 77.8842 3257.00 3368.17 57.07
4007 77.9017 3390.00 3399.42 58.22
4008 77.9191 3422.00 3430.74 58.50
4009 77.9365 3457.00 3461.44 58.80
4010 77.9540 3545.00 3490.94 59.54
4011 77.9714 3550.00 3518.62 59.58
4012 77.9889 3613.00 3543.94 60.11
4013 78.0063 3600.00 3566.44 60.00
4014 78.0237 3615.00 3585.54 60.12
4015 78.0412 3697.00 3600.86 60.80
4016 78.0586 3652.00 3612.29 60.43
4017 78.0761 3648.00 3619.51 60.40
4018 78.0935 3536.00 3622.73 59.46
4019 78.1109 3644.00 3621.88 60.37
4020 78.1284 3681.00 3617.46 60.67
4021 78.1458 3694.00 3609.68 60.78
4022 78.1632 3499.00 3599.04 59.15
4023 78.1807 3568.00 3585.82 59.73
4024 78.1981 3608.00 3570.54 60.07
4025 78.2155 3425.00 3553.58 58.52
4026 78.2330 3487.00 3535.28 59.05
4027 78.2504 3487.00 3515.97 59.05
4028 78.2679 3398.00 3495.92 58.29
4029 78.2853 3529.00 3475.43 59.41
4030 78.3027 3365.00 3454.47 58.01
4031 78.3202 3357.00 3433.62 57.94
4032 78.3376 3520.00 3412.94 59.33
4033 78.3550 3413.00 3392.67 58.42
4034 78.3725 3286.00 3373.08 57.32
4035 78.3899 3359.00 3354.39 57.96
4036 78.4074 3302.00 3336.82 57.46
4037 78.4248 3394.00 3320.61 58.26
4038 78.4422 3310.00 3305.89 57.53
4039 78.4597 3209.00 3292.78 56.65
4040 78.4771 3217.00 3281.30 56.72
4041 78.4945 3189.00 3271.43 56.47
4042 78.5120 3198.00 3263.10 56.55
4043 78.5294 3293.00 3256.15 57.38
4044 78.5468 3297.00 3250.53 57.42
4045 78.5643 3356.00 3246.09 57.93
4046 78.5817 3271.00 3242.65 57.19
4047 78.5992 3204.00 3240.18 56.60
4048 78.6166 3301.00 3238.63 57.45
4049 78.6340 3266.00 3238.04 57.15
4050 78.6515 3246.00 3238.43 56.97
4051 78.6689 3194.00 3239.83 56.52
4052 78.6864 3247.00 3242.25 56.98
4053 78.7038 3270.00 3245.65 57.18
4054 78.7212 3252.00 3249.97 57.03
4055 78.7387 3370.00 3254.87 58.05
4056 78.7561 3225.00 3260.77 56.79
4057 78.7735 3286.00 3266.88 57.32
4058 78.7910 3284.00 3273.12 57.31
4059 78.8084 3323.00 3279.20 57.65
4060 78.8259 3261.00 3284.84 57.11
4061 78.8433 3185.00 3289.77 56.44
4062 78.8607 3312.00 3293.76 57.55
4063 78.8781 3344.00 3296.65 57.83
4064 78.8956 3245.00 3298.19 56.96
4065 78.9130 3318.00 3298.73 57.60
4066 78.9305 3339.00 3298.24 57.78
4067 78.9479 3389.00 3296.90 58.22
4068 78.9653 3456.00 3294.92 58.79
4069 78.9828 3360.00 3293.12 57.97
4070 79.0002 3351.00 3291.02 57.89
4071 79.0176 3368.00 3289.40 58.03
4072 79.0351 3296.00 3287.91 57.41
4073 79.0525 3300.00 3287.50 57.45
4074 79.0700 3224.00 3287.90 56.78
4075 79.0874 3373.00 3289.27 58.08
4076 79.1048 3350.00 3291.31 57.88
4077 79.1223 3292.00 3294.08 57.38
4078 79.1397 3249.00 3297.37 57.00
4079 79.1572 3270.00 3301.19 57.18
4080 79.1746 3379.00 3304.97 58.13
4081 79.1920 3350.00 3309.23 57.88
4082 79.2094 3247.00 3313.46 56.98
4083 79.2269 3274.00 3317.49 57.22
4084 79.2443 3379.00 3321.45 58.13
4085 79.2618 3465.00 3324.49 58.86
4086 79.2792 3300.00 3327.16 57.45
4087 79.2967 3304.00 3329.23 57.48
4088 79.3141 3350.00 3330.70 57.88
4089 79.3315 3272.00 3331.76 57.20
4090 79.3490 3314.00 3332.31 57.57
4091 79.3664 3313.00 3332.49 57.56
4092 79.3838 3345.00 3332.52 57.84
4093 79.4013 3403.00 3332.49 58.34
4094 79.4187 3289.00 3332.80 57.35
4095 79.4361 3370.00 3333.57 58.05
4096 79.4536 3318.00 3334.81 57.60
4097 79.4710 3382.00 3336.70 58.15
4098 79.4885 3243.00 3339.25 56.95
4099 79.5059 3360.00 3342.42 57.97
4100 79.5233 3451.00 3346.29 58.75
4101 79.5408 3393.00 3350.74 58.25
4102 79.5582 3402.00 3355.69 58.33
4103 79.5757 3470.00 3361.03 58.91
4104 79.5931 3399.00 3366.65 58.30
4105 79.6105 3350.00 3372.43 57.88
4106 79.6280 3448.00 3378.27 58.72
4107 79.6454 3531.00 3384.06 59.42
4108 79.6628 3476.00 3389.72 58.96
4109 79.6803 3304.00 3394.91 57.48
4110 79.6977 3502.00 3400.33 59.18
4111 79.7151 3486.00 3405.53 59.04
4112 79.7326 3419.00 3411.06 58.47
4113 79.7500 3439.00 3416.54 58.64
4114 79.7674 3647.00 3422.37 60.39
4115 79.7849 3457.00 3428.61 58.80
4116 79.8023 3411.00 3435.23 58.40
4117 79.8198 3468.00 3442.17 58.89
4118 79.8372 3610.00 3449.27 60.08
4119 79.8546 3600.00 3456.28 60.00
4120 79.8721 3689.00 3462.90 60.74
4121 79.8895 3611.00 3468.89 60.09
4122 79.9069 3694.00 3473.44 60.78
4123 79.9244 3612.00 3476.86 60.10
4124 79.9418 3597.00 3478.30 59.97
4125 79.9593 3622.00 3477.65 60.18
4126 79.9767 3618.00 3474.97 60.15
4127 79.9941 3741.00 3470.20 61.16
4128 80.0116 3571.00 3463.58 59.76
4129 80.0290 3588.00 3455.12 59.90
4130 80.0464 3626.00 3445.17 60.22
4131 80.0639 3457.00 3433.94 58.80
4132 80.0813 3541.00 3421.75 59.51
4133 80.0987 3418.00 3408.85 58.46
4134 80.1162 3557.00 3395.71 59.64
4135 80.1336 3459.00 3382.04 58.81
4136 80.1511 3377.00 3368.02 58.11
4137 80.1685 3305.00 3353.83 57.49
4138 80.1859 3310.00 3339.72 57.53
4139 80.2034 3410.00 3325.83 58.40
4140 80.2208 3340.00 3311.97 57.79
4141 80.2383 3414.00 3298.33 58.43
4142 80.2557 3355.00 3284.99 57.92
4143 80.2731 3285.00 3272.04 57.31
4144 80.2906 3356.00 3259.51 57.93
4145 80.3080 3197.00 3247.60 56.54
4146 80.3254 3342.00 3236.08 57.81
4147 80.3429 3255.00 3225.12 57.05
4148 80.3603 3310.00 3214.83 57.53
4149 80.3777 3258.00 3205.27 57.08
4150 80.3952 3278.00 3196.52 57.25
4151 80.4126 3370.00 3188.67 58.05
4152 80.4301 3321.00 3181.85 57.63
4153 80.4475 3208.00 3176.31 56.64
4154 80.4649 3215.00 3171.91 56.70
4155 80.4824 3297.00 3168.47 57.42
4156 80.4998 3085.00 3166.17 55.54
4157 80.5172 3286.00 3164.89 57.32
4158 80.5347 3148.00 3164.57 56.11
4159 80.5521 3333.00 3164.93 57.73
4160 80.5696 3520.00 3165.78 59.33
4161 80.5870 3219.00 3166.89 56.74
4162 80.6044 3220.00 3168.19 56.74
4163 80.6219 3331.00 3169.55 57.71
4164 80.6393 3326.00 3170.15 57.67
4165 80.6567 3243.00 3170.24 56.95
4166 80.6742 3252.00 3169.77 57.03
4167 80.6916 3161.00 3168.88 56.22
4168 80.7090 3337.00 3167.32 57.77
4169 80.7265 3242.00 3165.24 56.94
4170 80.7439 3363.00 3162.75 57.99
4171 80.7614 3237.00 3159.83 56.89
4172 80.7788 3165.00 3156.68 56.26
4173 80.7962 3265.00 3153.22 57.14
4174 80.8137 3333.00 3149.52 57.73
4175 80.8311 3131.00 3145.36 55.96
4176 80.8485 3161.00 3140.79 56.22
4177 80.8660 3102.00 3135.75 55.70
4178 80.8834 3101.00 3130.25 55.69
4179 80.9009 3052.00 3124.31 55.24
4180 80.9183 3123.00 3118.00 55.88
4181 80.9357 3142.00 3111.42 56.05
4182 80.9532 3150.00 3104.69 56.12
4183 80.9706 3162.00 3097.94 56.23
4184 80.9880 3123.00 3091.28 55.88
4185 81.0055 3030.00 3084.81 55.05
4186 81.0229 3103.00 3078.51 55.70
4187 81.0403 3077.00 3072.59 55.47
4188 81.0578 3136.00 3066.95 56.00
4189 81.0752 3069.00 3061.42 55.40
4190 81.0927 3129.00 3056.26 55.94
4191 81.1101 3023.00 3051.27 54.98
4192 81.1275 3045.00 3046.31 55.18
4193 81.1450 3079.00 3041.50 55.49
4194 81.1624 3061.00 3036.37 55.33
4195 81.1798 3039.00 3031.70 55.13
4196 81.1973 3079.00 3027.11 55.49
4197 81.2147 3035.00 3022.65 55.09
4198 81.2321 3036.00 3018.35 55.10
4199 81.2496 3060.00 3014.17 55.32
4200 81.2670 2941.00 3010.29 54.23
4201 81.2845 2973.00 3006.82 54.53
4202 81.3019 3028.00 3003.53 55.03
4203 81.3193 3030.00 3000.67 55.05
4204 81.3368 2916.00 2998.17 54.00
4205 81.3542 3005.00 2996.03 54.82
4206 81.3716 3043.00 2994.23 55.16
4207 81.3891 2988.00 2992.81 54.66
4208 81.4065 3007.00 2991.53 54.84
4209 81.4240 3079.00 2990.75 55.49
4210 81.4414 2925.00 2990.30 54.08
4211 81.4588 3014.00 2989.97 54.90
4212 81.4763 3025.00 2989.86 55.00
4213 81.4937 2982.00 2989.84 54.61
4214 81.5111 3009.00 2989.98 54.85
4215 81.5286 3000.00 2990.15 54.77
4216 81.5460 2964.00 2990.37 54.44
4217 81.5635 3124.00 2990.68 55.89
4218 81.5809 3011.00 2991.08 54.87
4219 81.5983 3009.00 2991.68 54.85
4220 81.6158 2971.00 2992.67 54.51
4221 81.6332 3023.00 2994.03 54.98
4222 81.6506 2885.00 2996.01 53.71
4223 81.6681 3010.00 2998.74 54.86
4224 81.6855 2946.00 3002.20 54.28
4225 81.7029 2903.00 3006.87 53.88
4226 81.7204 3016.00 3012.84 54.92
4227 81.7378 3009.00 3020.01 54.85
4228 81.7553 2967.00 3028.45 54.47
4229 81.7727 3107.00 3038.26 55.74
4230 81.7901 3020.00 3049.46 54.95
4231 81.8076 3013.00 3062.03 54.89
4232 81.8250 3125.00 3075.94 55.90
4233 81.8425 3106.00 3091.08 55.73
4234 81.8599 3078.00 3107.52 55.48
4235 81.8773 3039.00 3124.87 55.13
4236 81.8947 3061.00 3143.11 55.33
4237 81.9122 3239.00 3162.01 56.91
4238 81.9296 3124.00 3181.22 55.89
4239 81.9471 3193.00 3200.64 56.51
4240 81.9645 3179.00 3219.88 56.38
4241 81.9819 3255.00 3238.62 57.05
4242 81.9994 3247.00 3256.57 56.98
4243 82.0168 3188.00 3273.22 56.46
4244 82.0343 3258.00 3288.96 57.08
4245 82.0517 3384.00 3303.42 58.17
4246 82.0691 3343.00 3316.66 57.82
4247 82.0866 3329.00 3328.77 57.70
4248 82.1040 3300.00 3340.14 57.45
4249 82.1214 3373.00 3350.66 58.08
4250 82.1389 3323.00 3360.52 57.65
4251 82.1563 3227.00 3369.99 56.81
4252 82.1738 3387.00 3379.22 58.20
4253 82.1912 3310.00 3388.23 57.53
4254 82.2086 3353.00 3397.01 57.91
4255 82.2261 3275.00 3405.46 57.23
4256 82.2435 3293.00 3413.41 57.38
4257 82.2609 3419.00 3420.72 58.47
4258 82.2784 3414.00 3427.04 58.43
4259 82.2958 3370.00 3432.19 58.05
4260 82.3132 3443.00 3435.98 58.68
4261 82.3307 3359.00 3438.23 57.96
4262 82.3481 3427.00 3438.82 58.54
4263 82.3656 3442.00 3437.72 58.67
4264 82.3830 3366.00 3434.95 58.02
4265 82.4004 3408.00 3430.42 58.38
4266 82.4179 3336.00 3424.71 57.76
4267 82.4353 3463.00 3417.66 58.85
4268 82.4527 3336.00 3409.57 57.76
4269 82.4702 3448.00 3400.68 58.72
4270 82.4876 3296.00 3391.23 57.41
4271 82.5051 3447.00 3381.28 58.71
4272 82.5225 3259.00 3371.41 57.09
4273 82.5399 3356.00 3361.64 57.93
4274 82.5574 3525.00 3352.14 59.37
4275 82.5748 3497.00 3343.05 59.14
4276 82.5922 3355.00 3334.53 57.92
4277 82.6097 3262.00 3326.67 57.11
4278 82.6271 3293.00 3319.57 57.38
4279 82.6445 3411.00 3313.30 58.40
4280 82.6620 3314.00 3307.92 57.57
4281 82.6794 3355.00 3303.48 57.92
4282 82.6969 3501.00 3299.98 59.17
4283 82.7143 3419.00 3297.38 58.47
4284 82.7317 3504.00 3295.74 59.19
4285 82.7492 3513.00 3294.90 59.27
4286 82.7666 3448.00 3294.99 58.72
4287 82.7840 3424.00 3295.89 58.51
4288 82.8015 3362.00 3297.56 57.98
4289 82.8189 3421.00 3300.03 58.49
4290 82.8364 3454.00 3303.26 58.77
4291 82.8538 3378.00 3307.33 58.12
4292 82.8712 3280.00 3312.40 57.27
4293 82.8887 3397.00 3318.74 58.28
4294 82.9061 3420.00 3326.11 58.48
4295 82.9236 3383.00 3334.66 58.16
4296 82.9410 3425.00 3344.29 58.52
4297 82.9584 3398.00 3354.95 58.29
4298 82.9759 3415.00 3366.52 58.44
4299 82.9933 3475.00 3378.82 58.95
4300 83.0107 3389.00 3391.59 58.22
4301 83.0282 3454.00 3404.62 58.77
4302 83.0456 3473.00 3417.69 58.93
4303 83.0630 3391.00 3430.50 58.23
4304 83.0805 3541.00 3442.87 59.51
4305 83.0979 3625.00 3454.51 60.21
4306 83.1153 3494.00 3465.64 59.11
4307 83.1328 3499.00 3475.94 59.15
4308 83.1502 3355.00 3485.29 57.92
4309 83.1677 3520.00 3493.77 59.33
4310 83.1851 3430.00 3501.43 58.57
4311 83.2025 3546.00 3508.11 59.55
4312 83.2200 3454.00 3513.82 58.77
4313 83.2374 3433.00 3518.59 58.59
4314 83.2548 3555.00 3522.52 59.62
4315 83.2723 3594.00 3525.61 59.95
4316 83.2897 3499.00 3528.29 59.15
4317 83.3072 3341.00 3530.53 57.80
4318 83.3246 3459.00 3532.57 58.81
4319 83.3420 3426.00 3534.58 58.53
4320 83.3595 3508.00 3536.67 59.23
4321 83.3769 3514.00 3539.08 59.28
4322 83.3943 3568.00 3541.92 59.73
4323 83.4118 3457.00 3545.10 58.80
4324 83.4292 3454.00 3548.65 58.77
4325 83.4466 3516.00 3552.69 59.30
4326 83.4641 3485.00 3557.11 59.03
4327 83.4815 3645.00 3561.88 60.37
4328 83.4990 3636.00 3566.84 60.30
4329 83.5164 3665.00 3571.99 60.54
4330 83.5338 3696.00 3577.12 60.79
4331 83.5512 3596.00 3582.20 59.97
4332 83.5687 3544.00 3586.97 59.53
4333 83.5862 3565.00 3591.54 59.71
4334 83.6036 3591.00 3595.66 59.92
4335 83.6210 3568.00 3599.26 59.73
4336 83.6385 3521.00 3602.30 59.34
4337 83.6559 3529.00 3604.49 59.41
4338 83.6733 3548.00 3605.78 59.57
4339 83.6908 3559.00 3606.03 59.66
4340 83.7082 3541.00 3605.05 59.51
4341 83.7256 3543.00 3602.67 59.52
4342 83.7431 3610.00 3598.66 60.08
4343 83.7605 3600.00 3592.87 60.00
4344 83.7779 3454.00 3585.13 58.77
4345 83.7954 3497.00 3575.31 59.14
4346 83.8128 3584.00 3563.35 59.87
4347 83.8303 3508.00 3549.28 59.23
4348 83.8477 3511.00 3533.28 59.25
4349 83.8651 3492.00 3515.36 59.09
4350 83.8826 3538.00 3496.11 59.48
4351 83.9000 3530.00 3475.62 59.41
4352 83.9174 3368.00 3454.16 58.03
4353 83.9349 3474.00 3432.06 58.94
4354 83.9523 3407.00 3409.53 58.37
4355 83.9698 3369.00 3386.74 58.04
4356 83.9872 3423.00 3363.86 58.51
4357 84.0046 3338.00 3341.05 57.78
4358 84.0221 3320.00 3318.28 57.62
4359 84.0395 3213.00 3295.68 56.68
4360 84.0569 3152.00 3273.29 56.14
4361 84.0744 3272.00 3251.21 57.20
4362 84.0918 3113.00 3229.38 55.79
4363 84.1093 3241.00 3207.91 56.93
4364 84.1267 3150.00 3186.86 56.12
4365 84.1441 3171.00 3166.33 56.31
4366 84.1616 3161.00 3146.43 56.22
4367 84.1790 3140.00 3127.34 56.04
4368 84.1964 3111.00 3109.06 55.78
4369 84.2139 3158.00 3091.73 56.20
4370 84.2313 2953.00 3075.46 54.34
4371 84.2487 3124.00 3060.28 55.89
4372 84.2662 3086.00 3046.29 55.55
4373 84.2836 3053.00 3033.63 55.25
4374 84.3011 3001.00 3022.05 54.78
4375 84.3185 3029.00 3011.66 55.04
4376 84.3359 2983.00 3002.38 54.62
4377 84.3534 3064.00 2994.24 55.35
4378 84.3708 3047.00 2987.15 55.20
4379 84.3882 2986.00 2981.02 54.64
4380 84.4057 3059.00 2975.76 55.31
4381 84.4231 2979.00 2971.30 54.58
4382 84.4406 2977.00 2967.58 54.56
4383 84.4580 3126.00 2964.54 55.91
4384 84.4754 2951.00 2962.28 54.32
4385 84.4929 3041.00 2960.49 55.15
4386 84.5103 2925.00 2959.29 54.08
4387 84.5277 3000.00 2958.63 54.77
4388 84.5452 3035.00 2958.55 55.09
4389 84.5626 2909.00 2959.01 53.94
4390 84.5800 2998.00 2959.96 54.75
4391 84.5975 2908.00 2961.38 53.93
4392 84.6149 2959.00 2963.26 54.40
4393 84.6323 3026.00 2965.44 55.01
4394 84.6498 2997.00 2967.88 54.74
4395 84.6672 3004.00 2970.59 54.81
4396 84.6847 3009.00 2973.54 54.85
4397 84.7021 2940.00 2976.57 54.22
4398 84.7195 3074.00 2979.69 55.44
4399 84.7370 3049.00 2982.88 55.22
4400 84.7544 3074.00 2986.11 55.44
4401 84.7719 3028.00 2989.35 55.03
4402 84.7893 3124.00 2992.54 55.89
4403 84.8067 3135.00 2995.78 55.99
4404 84.8242 3014.00 2998.79 54.90
4405 84.8416 3029.00 3001.74 55.04
4406 84.8590 3002.00 3004.52 54.79
4407 84.8765 3095.00 3007.10 55.63
4408 84.8939 3030.00 3009.48 55.05
4409 84.9113 3027.00 3011.66 55.02
4410 84.9288 3099.00 3013.75 55.67
4411 84.9462 3087.00 3015.74 55.56
4412 84.9637 2981.00 3017.76 54.60
4413 84.9811 3006.00 3019.96 54.83
4414 84.9985 3033.00 3022.45 55.07
4415 85.0160 3100.00 3025.35 55.68
4416 85.0334 3031.00 3028.95 55.05
4417 85.0508 3087.00 3033.16 55.56
4418 85.0683 2998.00 3037.84 54.75
4419 85.0857 3041.00 3043.16 55.15
4420 85.1032 3098.00 3049.16 55.66
4421 85.1206 2968.00 3055.75 54.48
4422 85.1380 3071.00 3062.87 55.42
4423 85.1555 3077.00 3070.40 55.47
4424 85.1729 3182.00 3078.28 56.41
4425 85.1903 3069.00 3086.23 55.40
4426 85.2078 3100.00 3094.16 55.68
4427 85.2252 3138.00 3101.87 56.02
4428 85.2426 3138.00 3109.23 56.02
4429 85.2601 3035.00 3116.10 55.09
4430 85.2775 3048.00 3122.23 55.21
4431 85.2950 3109.00 3127.57 55.76
4432 85.3124 3018.00 3131.80 54.94
4433 85.3298 3200.00 3135.34 56.57
4434 85.3473 3162.00 3138.17 56.23
4435 85.3647 3165.00 3140.25 56.26
4436 85.3821 3085.00 3141.80 55.54
4437 85.3996 3062.00 3142.75 55.34
4438 85.4170 3130.00 3143.28 55.95
4439 85.4345 3028.00 3143.42 55.03
4440 85.4519 3117.00 3143.25 55.83
4441 85.4693 3029.00 3142.78 55.04
4442 85.4868 3041.00 3141.97 55.15
4443 85.5042 3054.00 3140.78 55.26
4444 85.5216 3115.00 3139.09 55.81
4445 85.5391 3192.00 3136.81 56.50
4446 85.5565 3141.00 3133.84 56.04
4447 85.5739 2981.00 3129.92 54.60
4448 85.5914 3221.00 3125.13 56.75
4449 85.6088 3123.00 3119.58 55.88
4450 85.6263 3112.00 3113.13 55.79
4451 85.6437 3159.00 3105.85 56.21
4452 85.6611 3097.00 3097.83 55.65
4453 85.6786 3014.00 3089.04 54.90
4454 85.6960 3141.00 3080.00 56.04
4455 85.7134 3125.00 3070.76 55.90
4456 85.7309 3092.00 3061.43 55.61
4457 85.7483 3026.00 3052.16 55.01
4458 85.7657 3034.00 3043.27 55.08
4459 85.7832 3069.00 3034.65 55.40
4460 85.8006 3018.00 3026.40 54.94
4461 85.8181 2996.00 3018.69 54.74
4462 85.8355 3026.00 3011.49 55.01
4463 85.8529 3062.00 3004.87 55.34
4464 85.8704 3106.00 2999.00 55.73
4465 85.8878 3027.00 2993.81 55.02
4466 85.9052 3000.00 2989.04 54.77
4467 85.9227 2996.00 2984.87 54.74
4468 85.9401 2983.00 2981.17 54.62
4469 85.9576 2941.00 2978.15 54.23
4470 85.9750 3103.00 2975.66 55.70
4471 85.9924 2988.00 2973.68 54.66
4472 86.0099 3019.00 2972.13 54.95
4473 86.0273 3036.00 2970.93 55.10
4474 86.0447 3037.00 2970.03 55.11
4475 86.0622 2958.00 2969.32 54.39
4476 86.0796 3091.00 2968.71 55.60
4477 86.0971 3052.00 2968.36 55.24
4478 86.1145 2926.00 2967.66 54.09
4479 86.1319 2928.00 2966.63 54.11
4480 86.1494 2894.00 2965.62 53.80
4481 86.1668 3022.00 2964.42 54.97
4482 86.1842 3070.00 2963.04 55.41
4483 86.2017 2942.00 2961.53 54.24
4484 86.2191 2942.00 2959.94 54.24
4485 86.2365 2942.00 2958.44 54.24
4486 86.2540 2955.00 2956.89 54.36
4487 86.2714 2952.00 2955.44 54.33
4488 86.2889 3104.00 2954.14 55.71
4489 86.3063 3140.00 2953.02 56.04
4490 86.3237 2946.00 2952.18 54.28
4491 86.3412 3028.00 2951.36 55.03
4492 86.3586 2916.00 2951.11 54.00
4493 86.3761 2968.00 2950.77 54.48
4494 86.3935 2994.00 2950.48 54.72
4495 86.4109 2973.00 2950.40 54.53
4496 86.4284 2866.00 2950.37 53.53
4497 86.4458 3120.00 2950.45 55.86
4498 86.4632 3044.00 2950.57 55.17
4499 86.4807 3009.00 2950.69 54.85
4500 86.4981 2969.00 2950.79 54.49
4501 86.5155 3022.00 2950.88 54.97
4502 86.5330 2991.00 2950.93 54.69
4503 86.5504 2981.00 2950.90 54.60
4504 86.5678 2989.00 2950.71 54.67
4505 86.5853 2959.00 2950.79 54.40
4506 86.6027 3085.00 2950.90 55.54
4507 86.6202 3062.00 2951.20 55.34
4508 86.6376 2995.00 2951.69 54.73
4509 86.6550 3082.00 2952.47 55.52
4510 86.6725 2962.00 2953.56 54.42
4511 86.6899 2959.00 2954.93 54.40
4512 86.7073 2984.00 2957.06 54.63
4513 86.7248 2900.00 2959.26 53.85
4514 86.7422 2972.00 2961.94 54.52
4515 86.7597 2947.00 2964.69 54.29
4516 86.7771 3054.00 2967.80 55.26
4517 86.7945 3098.00 2971.09 55.66
4518 86.8120 3006.00 2974.45 54.83
4519 86.8294 3044.00 2977.84 55.17
4520 86.8468 2981.00 2981.04 54.60
4521 86.8643 2951.00 2984.35 54.32
4522 86.8817 2966.00 2987.31 54.46
4523 86.8991 3064.00 2990.13 55.35
4524 86.9166 3075.00 2992.66 55.45
4525 86.9340 3109.00 2994.86 55.76
4526 86.9514 2999.00 2997.03 54.76
4527 86.9689 2983.00 2999.15 54.62
4528 86.9863 2897.00 3001.35 53.82
4529 87.0038 3050.00 3003.75 55.23
4530 87.0212 3111.00 3006.29 55.78
4531 87.0386 3086.00 3009.43 55.55
4532 87.0561 3004.00 3013.23 54.81
4533 87.0735 3075.00 3017.47 55.45
4534 87.0910 3027.00 3022.33 55.02
4535 87.1084 3086.00 3027.72 55.55
4536 87.1258 3046.00 3033.85 55.19
4537 87.1433 3084.00 3040.57 55.53
4538 87.1607 3044.00 3047.85 55.17
4539 87.1781 3074.00 3055.19 55.44
4540 87.1956 3026.00 3063.24 55.01
4541 87.2130 3149.00 3071.63 56.12
4542 87.2304 3127.00 3080.24 55.92
4543 87.2479 3088.00 3088.97 55.57
4544 87.2653 3086.00 3097.90 55.55
4545 87.2828 3067.00 3106.50 55.38
4546 87.3002 3156.00 3114.97 56.18
4547 87.3176 3141.00 3123.10 56.04
4548 87.3351 3192.00 3130.80 56.50
4549 87.3525 3273.00 3138.09 57.21
4550 87.3699 3124.00 3144.56 55.89
4551 87.3874 3310.00 3150.24 57.53
4552 87.4048 3184.00 3155.22 56.43
4553 87.4223 3322.00 3159.36 57.64
4554 87.4397 3108.00 3162.73 55.75
4555 87.4571 3139.00 3165.23 56.03
4556 87.4746 3287.00 3167.23 57.33
4557 87.4920 3110.00 3168.69 55.77
4558 87.5094 3155.00 3169.70 56.17
4559 87.5269 3225.00 3170.31 56.79
4560 87.5443 3232.00 3170.64 56.85
4561 87.5617 3174.00 3170.73 56.34
4562 87.5792 3196.00 3170.56 56.53
4563 87.5966 3182.00 3170.32 56.41
4564 87.6141 3230.00 3169.65 56.83
4565 87.6315 3207.00 3168.69 56.63
4566 87.6489 3128.00 3167.49 55.93
4567 87.6664 3140.00 3166.02 56.04
4568 87.6838 3316.00 3164.02 57.58
4569 87.7012 3181.00 3161.65 56.40
4570 87.7187 3172.00 3158.93 56.32
4571 87.7361 3104.00 3155.89 55.71
4572 87.7536 3239.00 3152.60 56.91
4573 87.7710 3316.00 3149.11 57.58
4574 87.7884 3214.00 3145.52 56.69
4575 87.8059 3192.00 3142.10 56.50
4576 87.8233 3102.00 3138.44 55.70
4577 87.8407 3146.00 3134.77 56.09
4578 87.8582 3207.00 3131.18 56.63
4579 87.8756 3185.00 3127.60 56.44
4580 87.8930 3177.00 3124.19 56.36
4581 87.9105 3139.00 3120.65 56.03
4582 87.9279 3078.00 3117.05 55.48
4583 87.9454 3055.00 3113.41 55.27
4584 87.9628 3261.00 3109.74 57.11
4585 87.9802 3152.00 3106.08 56.14
4586 87.9977 3148.00 3102.48 56.11
4587 88.0151 3166.00 3099.03 56.27
4588 88.0325 3185.00 3095.82 56.44
4589 88.0500 3182.00 3092.97 56.41
4590 88.0674 3145.00 3090.56 56.08
4591 88.0848 3100.00 3088.64 55.68
4592 88.1023 3129.00 3087.50 55.94
4593 88.1197 3208.00 3086.94 56.64
4594 88.1372 3169.00 3087.18 56.29
4595 88.1546 3110.00 3088.06 55.77
4596 88.1720 3146.00 3089.71 56.09
4597 88.1895 3145.00 3092.02 56.08
4598 88.2069 3171.00 3094.85 56.31
4599 88.2243 3189.00 3098.21 56.47
4600 88.2418 3173.00 3101.99 56.33
4601 88.2592 3190.00 3106.15 56.48
4602 88.2767 3129.00 3110.84 55.94
4603 88.2941 3146.00 3115.37 56.09
4604 88.3115 3142.00 3119.95 56.05
4605 88.3290 3066.00 3124.38 55.37
4606 88.3464 3107.00 3128.82 55.74
4607 88.3638 3118.00 3133.24 55.84
4608 88.3813 3158.00 3137.21 56.20
4609 88.3987 3194.00 3140.84 56.52
4610 88.4161 3097.00 3144.07 55.65
4611 88.4336 3122.00 3146.88 55.87
4612 88.4510 3262.00 3149.20 57.11
4613 88.4685 3221.00 3151.04 56.75
4614 88.4859 3026.00 3152.48 55.01
4615 88.5033 3240.00 3153.34 56.92
4616 88.5208 3217.00 3153.73 56.72
4617 88.5382 3221.00 3153.65 56.75
4618 88.5556 3238.00 3153.14 56.90
4619 88.5731 3216.00 3152.26 56.71
4620 88.5905 3206.00 3151.01 56.62
4621 88.6080 3129.00 3149.40 55.94
4622 88.6254 3211.00 3147.69 56.67
4623 88.6428 3130.00 3145.66 55.95
4624 88.6603 3142.00 3143.43 56.05
4625 88.6777 3109.00 3141.04 55.76
4626 88.6951 3145.00 3138.49 56.08
4627 88.7126 3133.00 3135.82 55.97
4628 88.7300 3044.00 3133.06 55.17
4629 88.7474 3164.00 3130.19 56.25
4630 88.7649 3213.00 3127.21 56.68
4631 88.7823 3101.00 3124.49 55.69
4632 88.7998 3080.00 3121.93 55.50
4633 88.8172 3046.00 3119.64 55.19
4634 88.8346 3138.00 3117.76 56.02
4635 88.8521 3049.00 3116.35 55.22
4636 88.8695 3112.00 3115.65 55.79
4637 88.8869 3173.00 3115.55 56.33
4638 88.9044 3164.00 3116.20 56.25
4639 88.9218 3062.00 3117.67 55.34
4640 88.9392 3151.00 3120.02 56.13
4641 88.9567 3144.00 3123.08 56.07
4642 88.9741 3157.00 3126.88 56.19
4643 88.9916 3236.00 3131.35 56.89
4644 89.0090 3101.00 3136.39 55.69
4645 89.0264 3115.00 3141.94 55.81
4646 89.0439 3166.00 3147.70 56.27
4647 89.0613 3122.00 3153.77 55.87
4648 89.0787 3307.00 3159.95 57.51
4649 89.0962 3192.00 3166.01 56.50
4650 89.1136 3250.00 3172.28 57.01
4651 89.1311 3046.00 3178.31 55.19
4652 89.1485 3209.00 3184.17 56.65
4653 89.1659 3221.00 3189.82 56.75
4654 89.1834 3161.00 3195.25 56.22
4655 89.2008 3264.00 3200.46 57.13
4656 89.2182 3228.00 3205.48 56.82
4657 89.2357 3259.00 3210.35 57.09
4658 89.2531 3164.00 3215.13 56.25
4659 89.2706 3224.00 3219.87 56.78
4660 89.2880 3163.00 3224.63 56.24
4661 89.3054 3322.00 3229.51 57.64
4662 89.3229 3212.00 3234.63 56.67
4663 89.3403 3397.00 3239.92 58.28
4664 89.3577 3226.00 3245.51 56.80
4665 89.3752 3239.00 3251.35 56.91
4666 89.3926 3214.00 3257.64 56.69
4667 89.4100 3258.00 3264.30 57.08
4668 89.4275 3254.00 3271.32 57.04
4669 89.4449 3309.00 3278.67 57.52
4670 89.4623 3247.00 3286.29 56.98
4671 89.4798 3200.00 3294.15 56.57
4672 89.4972 3288.00 3302.17 57.34
4673 89.5147 3206.00 3310.49 56.62
4674 89.5321 3149.00 3318.66 56.12
4675 89.5495 3311.00 3326.79 57.54
4676 89.5670 3316.00 3334.90 57.58
4677 89.5844 3300.00 3342.76 57.45
4678 89.6019 3408.00 3350.36 58.38
4679 89.6193 3459.00 3357.54 58.81
4680 89.6367 3327.00 3364.37 57.68
4681 89.6542 3394.00 3370.66 58.26
4682 89.6716 3305.00 3376.43 57.49
4683 89.6890 3327.00 3381.58 57.68
4684 89.7065 3389.00 3386.04 58.22
4685 89.7239 3404.00 3389.79 58.34
4686 89.7413 3373.00 3392.78 58.08
4687 89.7588 3320.00 3394.99 57.62
4688 89.7762 3438.00 3396.39 58.63
4689 89.7936 3370.00 3397.07 58.05
4690 89.8111 3457.00 3396.88 58.80
4691 89.8285 3383.00 3395.88 58.16
4692 89.8460 3361.00 3394.16 57.97
4693 89.8634 3373.00 3391.80 58.08
4694 89.8808 3453.00 3388.95 58.76
4695 89.8983 3323.00 3385.72 57.65
4696 89.9157 3357.00 3382.36 57.94
4697 89.9332 3415.00 3378.99 58.44
4698 89.9506 3338.00 3375.87 57.78
4699 89.9680 3405.00 3373.12 58.35
4700 89.9855 3372.00 3370.90 58.07
4701 90.0029 3334.00 3369.34 57.74
4702 90.0203 3449.00 3368.50 58.73
4703 90.0378 3370.00 3368.48 58.05
4704 90.0552 3428.00 3369.17 58.55
4705 90.0726 3325.00 3370.55 57.66
4706 90.0901 3330.00 3372.52 57.71
4707 90.1075 3426.00 3374.90 58.53
4708 90.1249 3388.00 3377.60 58.21
4709 90.1424 3473.00 3380.41 58.93
4710 90.1598 3317.00 3383.30 57.59
4711 90.1773 3611.00 3385.87 60.09
4712 90.1947 3340.00 3388.15 57.79
4713 90.2121 3467.00 3390.14 58.88
4714 90.2296 3517.00 3391.63 59.30
4715 90.2470 3463.00 3392.72 58.85
4716 90.2644 3258.00 3393.40 57.08
4717 90.2819 3379.00 3393.74 58.13
4718 90.2993 3321.00 3393.71 57.63
4719 90.3167 3358.00 3393.36 57.95
4720 90.3342 3447.00 3392.72 58.71
4721 90.3516 3436.00 3391.76 58.62
4722 90.3691 3418.00 3390.55 58.46
4723 90.3865 3386.00 3389.27 58.19
4724 90.4039 3420.00 3387.48 58.48
4725 90.4214 3554.00 3385.40 59.62
4726 90.4388 3444.00 3383.12 58.69
4727 90.4563 3351.00 3380.26 57.89
4728 90.4737 3431.00 3377.21 58.57
4729 90.4911 3367.00 3373.97 58.03
4730 90.5086 3344.00 3370.23 57.83
4731 90.5260 3385.00 3366.18 58.18
4732 90.5434 3363.00 3361.87 57.99
4733 90.5609 3297.00 3357.36 57.42
4734 90.5783 3341.00 3352.73 57.80
4735 90.5957 3358.00 3348.06 57.95
4736 90.6132 3229.00 3343.46 56.82
4737 90.6306 3357.00 3339.07 57.94
4738 90.6480 3318.00 3334.86 57.60
4739 90.6655 3391.00 3330.99 58.23
4740 90.6829 3239.00 3327.46 56.91
4741 90.7004 3336.00 3324.35 57.76
4742 90.7178 3254.00 3321.66 57.04
4743 90.7352 3418.00 3319.37 58.46
4744 90.7527 3261.00 3317.59 57.11
4745 90.7701 3352.00 3316.19 57.90
4746 90.7875 3327.00 3315.15 57.68
4747 90.8050 3410.00 3314.36 58.40
4748 90.8224 3379.00 3313.86 58.13
4749 90.8399 3337.00 3313.57 57.77
4750 90.8573 3351.00 3313.47 57.89
4751 90.8747 3379.00 3313.69 58.13
4752 90.8922 3302.00 3314.10 57.46
4753 90.9096 3374.00 3314.77 58.09
4754 90.9270 3354.00 3315.78 57.91
4755 90.9445 3230.00 3317.17 56.83
4756 90.9619 3301.00 3318.90 57.45
4757 90.9793 3354.00 3321.34 57.91
4758 90.9968 3295.00 3324.30 57.40
4759 91.0142 3360.00 3327.80 57.97
4760 91.0316 3342.00 3331.79 57.81
4761 91.0491 3361.00 3336.22 57.97
4762 91.0665 3398.00 3340.97 58.29
4763 91.0839 3328.00 3346.04 57.69
4764 91.1014 3383.00 3351.30 58.16
4765 91.1188 3417.00 3356.66 58.46
4766 91.1363 3349.00 3362.04 57.87
4767 91.1537 3356.00 3367.41 57.93
4768 91.1712 3337.00 3372.70 57.77
4769 91.1886 3449.00 3377.99 58.73
4770 91.2060 3397.00 3383.12 58.28
4771 91.2235 3426.00 3388.09 58.53
4772 91.2409 3411.00 3392.92 58.40
4773 91.2583 3394.00 3397.55 58.26
4774 91.2758 3466.00 3402.01 58.87
4775 91.2932 3430.00 3406.09 58.57
4776 91.3106 3420.00 3409.93 58.48
4777 91.3281 3435.00 3413.37 58.61
4778 91.3455 3331.00 3416.33 57.71
4779 91.3630 3392.00 3418.80 58.24
4780 91.3804 3454.00 3420.73 58.77
4781 91.3978 3415.00 3422.16 58.44
4782 91.4153 3416.00 3423.12 58.45
4783 91.4327 3536.00 3423.65 59.46
4784 91.4501 3432.00 3423.94 58.58
4785 91.4676 3500.00 3424.04 59.16
4786 91.4850 3434.00 3424.00 58.60
4787 91.5024 3440.00 3424.02 58.65
4788 91.5199 3322.00 3424.20 57.64
4789 91.5373 3400.00 3424.52 58.31
4790 91.5548 3411.00 3425.29 58.40
4791 91.5722 3433.00 3426.37 58.59
4792 91.5896 3418.00 3427.71 58.46
4793 91.6071 3469.00 3429.27 58.90
4794 91.6245 3379.00 3430.93 58.13
4795 91.6419 3371.00 3432.70 58.06
4796 91.6594 3427.00 3434.31 58.54
4797 91.6768 3450.00 3435.77 58.74
4798 91.6943 3510.00 3437.02 59.25
4799 91.7117 3358.00 3437.62 57.95
4800 91.7291 3422.00 3437.69 58.50
4801 91.7466 3450.00 3437.22 58.74
4802 91.7640 3442.00 3436.15 58.67
4803 91.7814 3514.00 3434.45 59.28
4804 91.7989 3530.00 3431.93 59.41
4805 91.8163 3527.00 3428.68 59.39
4806 91.8337 3466.00 3424.88 58.87
4807 91.8512 3284.00 3420.48 57.31
4808 91.8686 3468.00 3415.55 58.89
4809 91.8860 3446.00 3410.32 58.70
4810 91.9035 3387.00 3404.39 58.20
4811 91.9209 3430.00 3398.08 58.57
4812 91.9384 3358.00 3391.39 57.95
4813 91.9558 3467.00 3384.30 58.88
4814 91.9732 3324.00 3376.84 57.65
4815 91.9907 3408.00 3368.99 58.38
4816 92.0081 3401.00 3360.75 58.32
4817 92.0256 3269.00 3352.00 57.18
4818 92.0430 3249.00 3343.06 57.00
4819 92.0604 3316.00 3333.82 57.58
4820 92.0778 3393.00 3324.34 58.25
4821 92.0953 3335.00 3314.69 57.75
4822 92.1127 3310.00 3304.96 57.53
4823 92.1302 3288.00 3295.25 57.34
4824 92.1476 3334.00 3285.64 57.74
4825 92.1650 3307.00 3276.10 57.51
4826 92.1825 3247.00 3266.91 56.98
4827 92.1999 3196.00 3258.08 56.53
4828 92.2173 3195.00 3249.60 56.52
4829 92.2348 3224.00 3241.50 56.78
4830 92.2522 3178.00 3233.87 56.37
4831 92.2697 3301.00 3226.53 57.45
4832 92.2871 3183.00 3219.56 56.42
4833 92.3045 3179.00 3212.94 56.38
4834 92.3220 3195.00 3206.56 56.52
4835 92.3394 3230.00 3200.54 56.83
4836 92.3568 3176.00 3194.81 56.36
4837 92.3743 3292.00 3189.35 57.38
4838 92.3917 3225.00 3184.12 56.79
4839 92.4091 3167.00 3179.15 56.28
4840 92.4266 3099.00 3174.58 55.67
4841 92.4440 3138.00 3170.17 56.02
4842 92.4615 3158.00 3166.00 56.20
4843 92.4789 3196.00 3162.08 56.53
4844 92.4963 3199.00 3158.30 56.56
4845 92.5138 3215.00 3154.66 56.70
4846 92.5312 3211.00 3151.29 56.67
4847 92.5487 3142.00 3147.96 56.05
4848 92.5661 3188.00 3144.66 56.46
4849 92.5835 3254.00 3141.43 57.04
4850 92.6010 3141.00 3138.27 56.04
4851 92.6184 3254.00 3135.16 57.04
4852 92.6358 3209.00 3132.13 56.65
4853 92.6533 3134.00 3129.16 55.98
4854 92.6707 3046.00 3126.30 55.19
4855 92.6881 3065.00 3123.54 55.36
4856 92.7056 3069.00 3120.93 55.40
4857 92.7230 3026.00 3118.48 55.01
4858 92.7404 3106.00 3116.32 55.73
4859 92.7579 3068.00 3114.41 55.39
4860 92.7753 3031.00 3112.79 55.05
4861 92.7928 3092.00 3111.50 55.61
4862 92.8102 3059.00 3110.57 55.31
4863 92.8276 3059.00 3109.91 55.31
4864 92.8451 3152.00 3109.44 56.14
4865 92.8625 3044.00 3109.44 55.17
4866 92.8799 3037.00 3109.68 55.11
4867 92.8974 3106.00 3110.16 55.73
4868 92.9148 3132.00 3110.84 55.96
4869 92.9322 2994.00 3111.68 54.72
4870 92.9497 3159.00 3112.64 56.21
4871 92.9671 3092.00 3113.61 55.61
4872 92.9846 3056.00 3114.71 55.28
4873 93.0020 3051.00 3115.82 55.24
4874 93.0194 2979.00 3116.86 54.58
4875 93.0369 3050.00 3117.85 55.23
4876 93.0543 3169.00 3118.90 56.29
4877 93.0717 3081.00 3119.56 55.51
4878 93.0892 3110.00 3119.96 55.77
4879 93.1066 3146.00 3120.12 56.09
4880 93.1241 3046.00 3119.95 55.19
4881 93.1415 3130.00 3119.20 55.95
4882 93.1589 3078.00 3118.11 55.48
4883 93.1764 3055.00 3116.47 55.27
4884 93.1938 3111.00 3114.54 55.78
4885 93.2112 3072.00 3112.33 55.43
4886 93.2287 2939.00 3109.72 54.21
4887 93.2461 3055.00 3106.87 55.27
4888 93.2635 3020.00 3103.90 54.95
4889 93.2810 2931.00 3100.73 54.14
4890 93.2984 3092.00 3097.52 55.61
4891 93.3159 3127.00 3094.30 55.92
4892 93.3333 3067.00 3091.10 55.38
4893 93.3507 3034.00 3087.85 55.08
4894 93.3682 3036.00 3084.79 55.10
4895 93.3856 3101.00 3081.84 55.69
4896 93.4030 3130.00 3078.99 55.95
4897 93.4205 3133.00 3076.24 55.97
4898 93.4379 3096.00 3073.62 55.64
4899 93.4554 3079.00 3071.16 55.49
4900 93.4728 3035.00 3068.84 55.09
4901 93.4902 2859.00 3066.79 53.47
4902 93.5077 2949.00 3065.12 54.30
4903 93.5251 3110.00 3063.84 55.77
4904 93.5425 3117.00 3063.01 55.83
4905 93.5600 3002.00 3062.48 54.79
4906 93.5774 2964.00 3062.76 54.44
4907 93.5948 3083.00 3063.66 55.52
4908 93.6123 2993.00 3065.40 54.71
4909 93.6297 2942.00 3067.61 54.24
4910 93.6472 3115.00 3070.47 55.81
4911 93.6646 3080.00 3073.98 55.50
4912 93.6820 3065.00 3078.10 55.36
4913 93.6995 3149.00 3082.79 56.12
4914 93.7169 3022.00 3088.00 54.97
4915 93.7343 3027.00 3093.81 55.02
4916 93.7518 3149.00 3099.97 56.12
4917 93.7692 3150.00 3106.37 56.12
4918 93.7867 3023.00 3113.05 54.98
4919 93.8041 3039.00 3119.94 55.13
4920 93.8215 3145.00 3126.98 56.08
4921 93.8390 3096.00 3134.14 55.64
4922 93.8564 3215.00 3141.24 56.70
4923 93.8738 3135.00 3148.48 55.99
4924 93.8913 3237.00 3155.70 56.89
4925 93.9087 3162.00 3162.85 56.23
4926 93.9261 3142.00 3169.67 56.05
4927 93.9436 3173.00 3176.63 56.33
4928 93.9610 3143.00 3183.47 56.06
4929 93.9784 3255.00 3190.04 57.05
4930 93.9959 3133.00 3196.44 55.97
4931 94.0133 3157.00 3202.49 56.19
4932 94.0308 3193.00 3208.05 56.51
4933 94.0482 3294.00 3213.15 57.39
4934 94.0656 3242.00 3217.77 56.94
4935 94.0831 3284.00 3221.62 57.31
4936 94.1005 3215.00 3224.93 56.70
4937 94.1180 3206.00 3227.58 56.62
4938 94.1354 3277.00 3229.52 57.25
4939 94.1528 3292.00 3230.74 57.38
4940 94.1702 3180.00 3231.23 56.39
4941 94.1877 3306.00 3231.00 57.50
4942 94.2051 3223.00 3230.20 56.77
4943 94.2226 3297.00 3228.48 57.42
4944 94.2400 3293.00 3226.25 57.38
4945 94.2574 3246.00 3223.41 56.97
4946 94.2749 3206.00 3220.00 56.62
4947 94.2923 3140.00 3216.04 56.04
4948 94.3098 3203.00 3211.57 56.60
4949 94.3272 3150.00 3206.69 56.12
4950 94.3446 3104.00 3201.32 55.71
4951 94.3621 3151.00 3195.55 56.13
4952 94.3795 3145.00 3189.40 56.08
4953 94.3969 3167.00 3182.94 56.28
4954 94.4144 3198.00 3176.27 56.55
4955 94.4318 3117.00 3169.39 55.83
4956 94.4492 3175.00 3162.33 56.35
4957 94.4667 3011.00 3155.09 54.87
4958 94.4841 3269.00 3147.68 57.18
4959 94.5015 3061.00 3140.13 55.33
4960 94.5190 3005.00 3132.40 54.82
4961 94.5364 3127.00 3124.51 55.92
4962 94.5539 2963.00 3116.46 54.43
4963 94.5713 3161.00 3108.19 56.22
4964 94.5887 3031.00 3099.87 55.05
4965 94.6062 3127.00 3091.32 55.92
4966 94.6236 3059.00 3082.87 55.31
4967 94.6410 3006.00 3074.38 54.83
4968 94.6585 3002.00 3066.08 54.79
4969 94.6759 2969.00 3058.02 54.49
4970 94.6934 2967.00 3050.21 54.47
4971 94.7108 3092.00 3042.81 55.61
4972 94.7282 3069.00 3035.86 55.40
4973 94.7457 3026.00 3029.48 55.01
4974 94.7631 3069.00 3023.73 55.40
4975 94.7805 3062.00 3018.64 55.34
4976 94.7980 3005.00 3014.30 54.82
4977 94.8154 3015.00 3010.74 54.91
4978 94.8328 3025.00 3007.95 55.00
4979 94.8503 3058.00 3006.04 55.30
4980 94.8677 3044.00 3004.97 55.17
4981 94.8851 2926.00 3004.77 54.09
4982 94.9026 2989.00 3005.49 54.67
4983 94.9200 2963.00 3007.15 54.43
4984 94.9374 3044.00 3009.64 55.17
4985 94.9549 3026.00 3013.19 55.01
4986 94.9723 3009.00 3017.85 54.85
4987 94.9898 2987.00 3023.42 54.65
4988 95.0072 2983.00 3030.05 54.62
4989 95.0246 3050.00 3037.66 55.23
4990 95.0421 2998.00 3046.26 54.75
4991 95.0595 3045.00 3055.86 55.18
4992 95.0770 2999.00 3066.39 54.76
4993 95.0944 3097.00 3077.70 55.65
4994 95.1118 3029.00 3090.04 55.04
4995 95.1293 3043.00 3103.13 55.16
4996 95.1467 3009.00 3116.89 54.85
4997 95.1641 3308.00 3131.38 57.52
4998 95.1816 3172.00 3146.37 56.32
4999 95.1990 3063.00 3161.70 55.34
5000 95.2165 3238.00 3177.57 56.90
5001 95.2339 3143.00 3193.84 56.06
5002 95.2513 3144.00 3210.39 56.07
5003 95.2688 3156.00 3227.08 56.18
5004 95.2862 3196.00 3243.85 56.53
5005 95.3036 3163.00 3260.55 56.24
5006 95.3211 3331.00 3277.08 57.71
5007 95.3385 3262.00 3293.28 57.11
5008 95.3559 3326.00 3309.10 57.67
5009 95.3734 3151.00 3324.18 56.13
5010 95.3908 3328.00 3338.44 57.69
5011 95.4082 3356.00 3351.63 57.93
5012 95.4257 3282.00 3363.73 57.29
5013 95.4431 3355.00 3374.52 57.92
5014 95.4606 3385.00 3383.92 58.18
5015 95.4780 3392.00 3391.59 58.24
5016 95.4954 3327.00 3397.71 57.68
5017 95.5129 3359.00 3401.99 57.96
5018 95.5303 3335.00 3404.60 57.75
5019 95.5477 3355.00 3405.54 57.92
5020 95.5652 3268.00 3404.76 57.17
5021 95.5826 3355.00 3402.30 57.92
5022 95.6000 3289.00 3398.19 57.35
5023 95.6175 3407.00 3392.57 58.37
5024 95.6349 3285.00 3385.35 57.31
5025 95.6524 3313.00 3376.98 57.56
5026 95.6698 3353.00 3367.37 57.91
5027 95.6872 3342.00 3356.66 57.81
5028 95.7047 3359.00 3345.02 57.96
5029 95.7221 3232.00 3332.52 56.85
5030 95.7395 3264.00 3319.49 57.13
5031 95.7570 3290.00 3305.93 57.36
5032 95.7744 3136.00 3291.99 56.00
5033 95.7919 3270.00 3277.91 57.18
5034 95.8093 3210.00 3263.82 56.66
5035 95.8267 3190.00 3249.82 56.48
5036 95.8442 3256.00 3236.05 57.06
5037 95.8616 3064.00 3222.51 55.35
5038 95.8790 3200.00 3209.62 56.57
5039 95.8965 3189.00 3197.34 56.47
5040 95.9139 3176.00 3185.68 56.36
5041 95.9313 3035.00 3174.85 55.09
5042 95.9488 3142.00 3164.68 56.05
5043 95.9662 3113.00 3155.46 55.79
5044 95.9837 3047.00 3147.15 55.20
5045 96.0011 3150.00 3139.82 56.12
5046 96.0185 3025.00 3133.39 55.00
5047 96.0360 3035.00 3127.90 55.09
5048 96.0534 3025.00 3123.42 55.00
5049 96.0708 3183.00 3119.81 56.42
5050 96.0883 2996.00 3117.05 54.74
5051 96.1057 3075.00 3115.09 55.45
5052 96.1232 3071.00 3113.84 55.42
5053 96.1406 3098.00 3113.25 55.66
5054 96.1580 3129.00 3113.22 55.94
5055 96.1755 3082.00 3113.28 55.52
5056 96.1929 3153.00 3113.81 56.15
5057 96.2103 3234.00 3114.42 56.87
5058 96.2278 3143.00 3115.05 56.06
5059 96.2452 3062.00 3115.56 55.34
5060 96.2626 3088.00 3115.87 55.57
5061 96.2801 3185.00 3115.91 56.44
5062 96.2975 3070.00 3115.63 55.41
5063 96.3149 3020.00 3115.01 54.95
5064 96.3324 3042.00 3114.04 55.15
5065 96.3498 3117.00 3112.68 55.83
5066 96.3673 3021.00 3111.12 54.96
5067 96.3847 3110.00 3109.33 55.77
5068 96.4021 3086.00 3107.40 55.55
5069 96.4196 3012.00 3105.39 54.88
5070 96.4370 2990.00 3103.38 54.68
5071 96.4544 3090.00 3101.50 55.59
5072 96.4719 3044.00 3099.72 55.17
5073 96.4893 3099.00 3098.11 55.67
5074 96.5068 3129.00 3096.82 55.94
5075 96.5242 3102.00 3095.83 55.70
5076 96.5416 3012.00 3095.24 54.88
5077 96.5591 3077.00 3094.96 55.47
5078 96.5765 3020.00 3095.01 54.95
5079 96.5939 3014.00 3095.51 54.90
5080 96.6114 3094.00 3096.49 55.62
5081 96.6288 3083.00 3097.82 55.52
5082 96.6462 3123.00 3099.57 55.88
5083 96.6637 2975.00 3101.71 54.54
5084 96.6811 3194.00 3104.34 56.52
5085 96.6985 3164.00 3107.38 56.25
5086 96.7160 2956.00 3110.86 54.37
5087 96.7334 3065.00 3114.77 55.36
5088 96.7509 3044.00 3119.10 55.17
5089 96.7683 3052.00 3123.87 55.24
5090 96.7857 3058.00 3128.95 55.30
5091 96.8032 3043.00 3134.36 55.16
5092 96.8206 3037.00 3139.93 55.11
5093 96.8380 3062.00 3145.77 55.34
5094 96.8555 3141.00 3151.72 56.04
5095 96.8729 3051.00 3157.70 55.24
5096 96.8904 3070.00 3163.59 55.41
5097 96.9078 3083.00 3169.37 55.52
5098 96.9252 3071.00 3174.98 55.42
5099 96.9427 3047.00 3180.29 55.20
5100 96.9601 3126.00 3185.28 55.91
5101 96.9775 3136.00 3189.93 56.00
5102 96.9950 3124.00 3194.18 55.89
5103 97.0124 3255.00 3198.05 57.05
5104 97.0298 3149.00 3201.39 56.12
5105 97.0473 3214.00 3204.48 56.69
5106 97.0647 3172.00 3207.25 56.32
5107 97.0822 3249.00 3209.64 57.00
5108 97.0996 3246.00 3211.74 56.97
5109 97.1170 3172.00 3213.54 56.32
5110 97.1345 3244.00 3215.06 56.96
5111 97.1519 3233.00 3216.39 56.86
5112 97.1693 3132.00 3217.67 55.96
5113 97.1868 3279.00 3218.66 57.26
5114 97.2042 3166.00 3219.65 56.27
5115 97.2216 3117.00 3220.48 55.83
5116 97.2391 3217.00 3221.24 56.72
5117 97.2565 3249.00 3221.99 57.00
5118 97.2739 3205.00 3222.78 56.61
5119 97.2914 3175.00 3223.69 56.35
5120 97.3088 3187.00 3224.68 56.45
5121 97.3263 3212.00 3225.80 56.67
5122 97.3437 3229.00 3227.00 56.82
5123 97.3612 3083.00 3228.39 55.52
5124 97.3786 3208.00 3230.00 56.64
5125 97.3960 3069.00 3231.77 55.40
5126 97.4134 3159.00 3233.58 56.21
5127 97.4309 3055.00 3235.54 55.27
5128 97.4483 3152.00 3237.56 56.14
5129 97.4658 3210.00 3239.45 56.66
5130 97.4832 3146.00 3241.25 56.09
5131 97.5006 3228.00 3242.93 56.82
5132 97.5181 3201.00 3244.43 56.58
5133 97.5355 3279.00 3245.75 57.26
5134 97.5529 3092.00 3246.94 55.61
5135 97.5704 3177.00 3247.92 56.36
5136 97.5878 3163.00 3248.60 56.24
5137 97.6052 3204.00 3249.12 56.60
5138 97.6227 3174.00 3249.43 56.34
5139 97.6401 3247.00 3249.62 56.98
5140 97.6576 3212.00 3249.70 56.67
5141 97.6750 3134.00 3249.73 55.98
5142 97.6924 3194.00 3249.83 56.52
5143 97.7099 3244.00 3249.94 56.96
5144 97.7273 3126.00 3250.22 55.91
5145 97.7447 3092.00 3250.44 55.61
5146 97.7622 3157.00 3250.79 56.19
5147 97.7796 3229.00 3251.28 56.82
5148 97.7971 3194.00 3251.66 56.52
5149 97.8145 3133.00 3252.17 55.97
5150 97.8319 3223.00 3252.61 56.77
5151 97.8494 3233.00 3252.96 56.86
5152 97.8668 3260.00 3253.18 57.10
5153 97.8842 3284.00 3253.18 57.31
5154 97.9017 3216.00 3252.99 56.71
5155 97.9191 3143.00 3252.56 56.06
5156 97.9365 3307.00 3251.86 57.51
5157 97.9540 3256.00 3250.91 57.06
5158 97.9714 3225.00 3249.71 56.79
5159 97.9889 3085.00 3248.27 55.54
5160 98.0063 3208.00 3246.55 56.64
5161 98.0237 3230.00 3244.73 56.83
5162 98.0412 3231.00 3242.73 56.84
5163 98.0586 3214.00 3240.57 56.69
5164 98.0760 3219.00 3238.15 56.74
5165 98.0935 3321.00 3235.63 57.63
5166 98.1109 3361.00 3232.89 57.97
5167 98.1284 3333.00 3229.80 57.73
5168 98.1458 3225.00 3226.52 56.79
5169 98.1632 3268.00 3222.91 57.17
5170 98.1807 3252.00 3218.91 57.03
5171 98.1981 3197.00 3214.51 56.54
5172 98.2155 3324.00 3209.67 57.65
5173 98.2330 3074.00 3204.41 55.44
5174 98.2504 3273.00 3198.73 57.21
5175 98.2678 3262.00 3192.56 57.11
5176 98.2853 3261.00 3186.17 57.11
5177 98.3027 3094.00 3179.51 55.62
5178 98.3202 3152.00 3172.65 56.14
5179 98.3376 3232.00 3165.61 56.85
5180 98.3550 3190.00 3158.58 56.48
5181 98.3725 3145.00 3151.57 56.08
5182 98.3899 3134.00 3144.65 55.98
5183 98.4073 3148.00 3137.85 56.11
5184 98.4248 3103.00 3131.36 55.70
5185 98.4422 3156.00 3124.98 56.18
5186 98.4596 3135.00 3118.89 55.99
5187 98.4771 3104.00 3113.17 55.71
5188 98.4945 3043.00 3107.63 55.16
5189 98.5120 3204.00 3102.38 56.60
5190 98.5294 3112.00 3097.43 55.79
5191 98.5468 3045.00 3092.68 55.18
5192 98.5643 3094.00 3088.21 55.62
5193 98.5817 3088.00 3083.92 55.57
5194 98.5991 3160.00 3079.88 56.21
5195 98.6166 3124.00 3076.14 55.89
5196 98.6340 3097.00 3072.67 55.65
5197 98.6514 3123.00 3069.40 55.88
5198 98.6689 3117.00 3066.39 55.83
5199 98.6863 3149.00 3063.64 56.12
5200 98.7038 3046.00 3061.16 55.19
5201 98.7212 3153.00 3058.98 56.15
5202 98.7386 3088.00 3057.09 55.57
5203 98.7561 2974.00 3055.51 54.53
5204 98.7735 3080.00 3054.23 55.50
5205 98.7909 3150.00 3053.24 56.12
5206 98.8084 2985.00 3052.60 54.64
5207 98.8258 3075.00 3052.14 55.45
5208 98.8432 2999.00 3051.92 54.76
5209 98.8607 3069.00 3051.88 55.40
5210 98.8781 3152.00 3051.97 56.14
5211 98.8956 3001.00 3052.14 54.78
5212 98.9130 3087.00 3052.39 55.56
5213 98.9304 2993.00 3052.67 54.71
5214 98.9479 3048.00 3052.94 55.21
5215 98.9653 3149.00 3053.19 56.12
5216 98.9827 2966.00 3053.34 54.46
5217 99.0002 2978.00 3053.43 54.57
5218 99.0176 3064.00 3053.40 55.35
5219 99.0350 3028.00 3053.27 55.03
5220 99.0525 3077.00 3053.05 55.47
5221 99.0699 2968.00 3052.72 54.48
5222 99.0873 3064.00 3052.36 55.35
5223 99.1048 2977.00 3051.83 54.56
5224 99.1222 2990.00 3051.23 54.68
5225 99.1397 3044.00 3050.47 55.17
5226 99.1571 3020.00 3049.57 54.95
5227 99.1745 3058.00 3048.49 55.30
5228 99.1920 3078.00 3047.30 55.48
5229 99.2094 3107.00 3045.95 55.74
5230 99.2269 3048.00 3044.47 55.21
5231 99.2443 3080.00 3042.87 55.50
5232 99.2617 3021.00 3040.98 54.96
5233 99.2791 3035.00 3038.92 55.09
5234 99.2966 2949.00 3036.66 54.30
5235 99.3140 3055.00 3034.20 55.27
5236 99.3315 3025.00 3031.61 55.00
5237 99.3489 2953.00 3028.86 54.34
5238 99.3663 2977.00 3025.97 54.56
5239 99.3838 2886.00 3022.94 53.72
5240 99.4012 2936.00 3019.79 54.18
5241 99.4186 2989.00 3016.54 54.67
5242 99.4361 3061.00 3013.15 55.33
5243 99.4535 3020.00 3009.81 54.95
5244 99.4710 2889.00 3006.39 53.75
5245 99.4884 2989.00 3002.93 54.67
5246 99.5058 2997.00 2999.53 54.74
5247 99.5233 2868.00 2996.28 53.55
5248 99.5407 2993.00 2993.10 54.71
5249 99.5581 2972.00 2989.96 54.52
5250 99.5756 3019.00 2987.07 54.95
5251 99.5930 3000.00 2984.54 54.77
5252 99.6104 2860.00 2982.26 53.48
5253 99.6279 3029.00 2980.31 55.04
5254 99.6453 2893.00 2978.69 53.79
5255 99.6628 2936.00 2977.48 54.18
5256 99.6802 2910.00 2976.67 53.94
5257 99.6976 2998.00 2976.17 54.75
5258 99.7151 2949.00 2976.19 54.30
5259 99.7325 2873.00 2976.70 53.60
5260 99.7499 2914.00 2977.67 53.98
5261 99.7674 3010.00 2979.06 54.86
5262 99.7848 2914.00 2980.94 53.98
5263 99.8023 2893.00 2983.25 53.79
5264 99.8197 2935.00 2985.94 54.18
5265 99.8371 2964.00 2989.09 54.44
5266 99.8546 2894.00 2992.67 53.80
5267 99.8720 2944.00 2996.61 54.26
5268 99.8894 2998.00 3000.75 54.75
5269 99.9069 3016.00 3005.20 54.92
5270 99.9243 3086.00 3009.86 55.55
5271 99.9417 3071.00 3014.71 55.42
5272 99.9592 3110.00 3019.68 55.77
5273 99.9766 3128.00 3024.73 55.93
5274 99.9940 3142.00 3029.81 56.05
5275 100.0115 3158.00 3034.88 56.20
5276 100.0289 3036.00 3039.90 55.10
5277 100.0464 3120.00 3044.79 55.86
5278 100.0638 3028.00 3049.59 55.03
5279 100.0812 3179.00 3054.31 56.38
5280 100.0987 3152.00 3058.78 56.14
5281 100.1161 3037.00 3063.05 55.11
5282 100.1335 3123.00 3067.10 55.88
5283 100.1510 3102.00 3070.89 55.70
5284 100.1684 3124.00 3074.41 55.89
5285 100.1859 3127.00 3077.67 55.92
5286 100.2033 3180.00 3080.63 56.39
5287 100.2207 3056.00 3083.31 55.28
5288 100.2382 3122.00 3085.71 55.87
5289 100.2556 3126.00 3087.84 55.91
5290 100.2730 3083.00 3089.72 55.52
5291 100.2905 3106.00 3091.39 55.73
5292 100.3079 3072.00 3092.80 55.43
5293 100.3253 3147.00 3094.13 56.10
5294 100.3428 3213.00 3095.29 56.68
5295 100.3602 3152.00 3096.42 56.14
5296 100.3777 3222.00 3097.48 56.76
5297 100.3951 3224.00 3098.52 56.78
5298 100.4125 3035.00 3099.54 55.09
5299 100.4300 3127.00 3100.51 55.92
5300 100.4474 3146.00 3101.40 56.09
5301 100.4648 3125.00 3102.34 55.90
5302 100.4823 3216.00 3103.24 56.71
5303 100.4997 3223.00 3104.06 56.77
5304 100.5171 3127.00 3104.77 55.92
5305 100.5346 3203.00 3105.35 56.60
5306 100.5520 3180.00 3105.78 56.39
5307 100.5695 3148.00 3106.03 56.11
5308 100.5869 3126.00 3106.10 55.91
5309 100.6043 3101.00 3106.02 55.69
5310 100.6217 3074.00 3105.72 55.44
5311 100.6392 3230.00 3105.22 56.83
5312 100.6566 3236.00 3104.62 56.89
5313 100.6741 3122.00 3103.93 55.87
5314 100.6915 3059.00 3103.17 55.31
5315 100.7089 3151.00 3102.40 56.13
5316 100.7264 3030.00 3101.63 55.05
5317 100.7438 3053.00 3100.96 55.25
5318 100.7613 3140.00 3100.40 56.04
5319 100.7787 3100.00 3100.00 55.68
5320 100.7961 3138.00 3099.75 56.02
5321 100.8136 3156.00 3099.72 56.18
5322 100.8310 3168.00 3099.97 56.28
5323 100.8484 3110.00 3100.48 55.77
5324 100.8659 3098.00 3101.28 55.66
5325 100.8833 3160.00 3102.36 56.21
5326 100.9007 3094.00 3103.75 55.62
5327 100.9182 3106.00 3105.44 55.73
5328 100.9356 3135.00 3107.45 55.99
5329 100.9530 3197.00 3109.82 56.54
5330 100.9705 3113.00 3112.48 55.79
5331 100.9879 3084.00 3115.52 55.53
5332 101.0054 3138.00 3118.85 56.02
5333 101.0228 3192.00 3122.52 56.50
5334 101.0402 3286.00 3126.41 57.32
5335 101.0577 3078.00 3130.72 55.48
5336 101.0751 3134.00 3135.48 55.98
5337 101.0925 3244.00 3140.41 56.96
5338 101.1100 3228.00 3145.50 56.82
5339 101.1274 3225.00 3150.88 56.79
5340 101.1449 3167.00 3156.44 56.28
5341 101.1623 3210.00 3162.20 56.66
5342 101.1797 3192.00 3168.03 56.50
5343 101.1972 3188.00 3173.84 56.46
5344 101.2146 3123.00 3179.75 55.88
5345 101.2320 3210.00 3185.61 56.66
5346 101.2495 3100.00 3191.38 55.68
5347 101.2669 3236.00 3197.04 56.89
5348 101.2843 3181.00 3202.49 56.40
5349 101.3018 3225.00 3207.73 56.79
5350 101.3192 3223.00 3212.73 56.77
5351 101.3366 3247.00 3217.48 56.98
5352 101.3541 3343.00 3221.97 57.82
5353 101.3715 3179.00 3226.09 56.38
5354 101.3890 3245.00 3230.12 56.96
5355 101.4064 3228.00 3234.02 56.82
5356 101.4238 3167.00 3237.66 56.28
5357 101.4413 3277.00 3241.13 57.25
5358 101.4587 3138.00 3244.44 56.02
5359 101.4762 3228.00 3247.62 56.82
5360 101.4936 3253.00 3250.66 57.04
5361 101.5110 3391.00 3253.53 58.23
5362 101.5285 3279.00 3256.25 57.26
5363 101.5459 3281.00 3258.69 57.28
5364 101.5633 3229.00 3260.95 56.82
5365 101.5808 3306.00 3262.87 57.50
5366 101.5982 3192.00 3264.45 56.50
5367 101.6156 3335.00 3265.60 57.75
5368 101.6331 3329.00 3266.31 57.70
5369 101.6505 3206.00 3266.49 56.62
5370 101.6680 3227.00 3266.02 56.81
5371 101.6854 3225.00 3265.04 56.79
5372 101.7028 3201.00 3263.38 56.58
5373 101.7203 3349.00 3261.03 57.87
5374 101.7377 3339.00 3258.06 57.78
5375 101.7551 3257.00 3254.42 57.07
5376 101.7726 3258.00 3250.09 57.08
5377 101.7900 3227.00 3245.04 56.81
5378 101.8074 3215.00 3239.44 56.70
5379 101.8249 3203.00 3233.10 56.60
5380 101.8423 3110.00 3226.28 55.77
5381 101.8597 3237.00 3218.89 56.89
5382 101.8772 3185.00 3210.98 56.44
5383 101.8946 3219.00 3202.57 56.74
5384 101.9121 3169.00 3193.69 56.29
5385 101.9295 3155.00 3184.37 56.17
5386 101.9469 3191.00 3174.64 56.49
5387 101.9644 3095.00 3164.54 55.63
5388 101.9818 3129.00 3154.15 55.94
5389 101.9992 3177.00 3143.51 56.36
5390 102.0167 3091.00 3132.52 55.60
5391 102.0341 3107.00 3121.38 55.74
5392 102.0516 3167.00 3110.13 56.28
5393 102.0690 3143.00 3098.76 56.06
5394 102.0864 3059.00 3087.44 55.31
5395 102.1038 3012.00 3076.13 54.88
5396 102.1213 3110.00 3064.85 55.77
5397 102.1387 2999.00 3053.76 54.76
5398 102.1562 3049.00 3042.90 55.22
5399 102.1736 3005.00 3032.18 54.82
5400 102.1910 3038.00 3021.83 55.12
5401 102.2085 3046.00 3011.84 55.19
5402 102.2259 2931.00 3002.16 54.14
5403 102.2433 3061.00 2992.86 55.33
5404 102.2608 2980.00 2983.98 54.59
5405 102.2782 2968.00 2975.54 54.48
5406 102.2957 2968.00 2967.55 54.48
5407 102.3131 2951.00 2960.05 54.32
5408 102.3305 2868.00 2953.06 53.55
5409 102.3480 2980.00 2946.64 54.59
5410 102.3654 2926.00 2940.72 54.09
5411 102.3828 2899.00 2935.36 53.84
5412 102.4003 3065.00 2930.57 55.36
5413 102.4177 2881.00 2926.24 53.67
5414 102.4351 2921.00 2922.60 54.05
5415 102.4526 2918.00 2919.52 54.02
5416 102.4700 2907.00 2916.99 53.92
5417 102.4875 2987.00 2914.93 54.65
5418 102.5049 2867.00 2913.49 53.54
5419 102.5223 2910.00 2912.53 53.94
5420 102.5398 2872.00 2912.04 53.59
5421 102.5572 2925.00 2911.96 54.08
5422 102.5747 3021.00 2912.33 54.96
5423 102.5921 2864.00 2912.94 53.52
5424 102.6095 2901.00 2913.81 53.86
5425 102.6269 2948.00 2914.92 54.30
5426 102.6444 2857.00 2916.25 53.45
5427 102.6618 2944.00 2917.70 54.26
5428 102.6793 2940.00 2919.18 54.22
5429 102.6967 2961.00 2920.73 54.42
5430 102.7141 3010.00 2922.28 54.86
5431 102.7316 3025.00 2923.83 55.00
5432 102.7490 2896.00 2925.37 53.81
5433 102.7664 2926.00 2926.86 54.09
5434 102.7839 2944.00 2928.38 54.26
5435 102.8013 2908.00 2929.93 53.93
5436 102.8188 2916.00 2931.48 54.00
5437 102.8362 2953.00 2933.04 54.34
5438 102.8536 3004.00 2934.71 54.81
5439 102.8711 2915.00 2936.44 53.99
5440 102.8885 2884.00 2938.30 53.70
5441 102.9059 2909.00 2940.30 53.94
5442 102.9234 2995.00 2942.41 54.73
5443 102.9408 2917.00 2944.69 54.01
5444 102.9582 2866.00 2947.13 53.53
5445 102.9757 2946.00 2949.72 54.28
5446 102.9931 2973.00 2952.46 54.53
5447 103.0106 2978.00 2955.35 54.57
5448 103.0280 2886.00 2958.39 53.72
5449 103.0454 3022.00 2961.56 54.97
5450 103.0629 2931.00 2964.87 54.14
5451 103.0803 3028.00 2968.32 55.03
5452 103.0977 3015.00 2971.87 54.91
5453 103.1152 3044.00 2975.54 55.17
5454 103.1326 2833.00 2979.33 53.23
5455 103.1500 2956.00 2983.24 54.37
5456 103.1675 2947.00 2987.27 54.29
5457 103.1849 3020.00 2991.42 54.95
5458 103.2023 2955.00 2995.68 54.36
5459 103.2198 3023.00 3000.02 54.98
5460 103.2372 2833.00 3004.48 53.23
5461 103.2546 3070.00 3009.04 55.41
5462 103.2721 2918.00 3013.68 54.02
5463 103.2895 3074.00 3018.36 55.44
5464 103.3070 2950.00 3023.10 54.31
5465 103.3244 3025.00 3027.83 55.00
5466 103.3418 3027.00 3032.60 55.02
5467 103.3593 3139.00 3037.27 56.03
5468 103.3767 2888.00 3041.85 53.74
5469 103.3941 3094.00 3046.31 55.62
5470 103.4116 3022.00 3050.63 54.97
5471 103.4290 3101.00 3054.73 55.69
5472 103.4464 3011.00 3058.73 54.87
5473 103.4639 3034.00 3062.42 55.08
5474 103.4813 3119.00 3065.92 55.85
5475 103.4988 3060.00 3069.09 55.32
5476 103.5162 3039.00 3071.96 55.13
5477 103.5336 3010.00 3074.70 54.86
5478 103.5511 3090.00 3077.03 55.59
5479 103.5685 3010.00 3079.08 54.86
5480 103.5860 3054.00 3080.82 55.26
5481 103.6034 3191.00 3082.27 56.49
5482 103.6208 3134.00 3083.47 55.98
5483 103.6383 3081.00 3084.40 55.51
5484 103.6557 3048.00 3085.02 55.21
5485 103.6731 3086.00 3085.38 55.55
5486 103.6906 3058.00 3085.44 55.30
5487 103.7080 3142.00 3085.20 56.05
5488 103.7254 3036.00 3084.64 55.10
5489 103.7429 3180.00 3083.76 56.39
5490 103.7603 3159.00 3082.56 56.21
5491 103.7777 3044.00 3080.95 55.17
5492 103.7952 2966.00 3079.08 54.46
5493 103.8126 3062.00 3076.90 55.34
5494 103.8301 3079.00 3074.44 55.49
5495 103.8475 3037.00 3071.70 55.11
5496 103.8649 3021.00 3068.71 54.96
5497 103.8824 3148.00 3065.58 56.11
5498 103.8998 3067.00 3062.25 55.38
5499 103.9172 3079.00 3058.81 55.49
5500 103.9347 3032.00 3055.26 55.06
5501 103.9521 3118.00 3051.66 55.84
5502 103.9696 3035.00 3048.05 55.09
5503 103.9870 3050.00 3044.45 55.23
5504 104.0044 3014.00 3040.87 54.90
5505 104.0219 2947.00 3037.34 54.29
5506 104.0393 2978.00 3033.89 54.57
5507 104.0567 3066.00 3030.48 55.37
5508 104.0742 3078.00 3027.12 55.48
5509 104.0916 3099.00 3023.80 55.67
5510 104.1090 2921.00 3020.53 54.05
5511 104.1265 3079.00 3017.26 55.49
5512 104.1439 2979.00 3013.99 54.58
5513 104.1613 2923.00 3010.65 54.06
5514 104.1788 3060.00 3007.15 55.32
5515 104.1962 3066.00 3003.55 55.37
5516 104.2137 2991.00 2999.85 54.69
5517 104.2311 3128.00 2996.04 55.93
5518 104.2485 2942.00 2992.12 54.24
5519 104.2660 3043.00 2988.10 55.16
5520 104.2834 3030.00 2983.94 55.05
5521 104.3008 2892.00 2979.72 53.78
5522 104.3183 2913.00 2975.43 53.97
5523 104.3357 3054.00 2971.09 55.26
5524 104.3531 2957.00 2966.74 54.38
5525 104.3706 3052.00 2962.41 55.24
5526 104.3880 3007.00 2958.01 54.84
5527 104.4055 3036.00 2953.55 55.10
5528 104.4229 2949.00 2949.22 54.30
5529 104.4403 2961.00 2944.89 54.42
5530 104.4578 2985.00 2940.61 54.64
5531 104.4752 2987.00 2936.41 54.65
5532 104.4927 2979.00 2932.27 54.58
5533 104.5101 2979.00 2928.23 54.58
5534 104.5275 2902.00 2924.27 53.87
5535 104.5450 2859.00 2920.42 53.47
5536 104.5624 2946.00 2916.63 54.28
5537 104.5798 2997.00 2912.97 54.74
5538 104.5973 2921.00 2909.45 54.05
5539 104.6147 2819.00 2906.05 53.09
5540 104.6321 2914.00 2902.66 53.98
5541 104.6496 2877.00 2899.50 53.64
5542 104.6670 2808.00 2896.47 52.99
5543 104.6844 2939.00 2893.55 54.21
5544 104.7019 2847.00 2890.77 53.36
5545 104.7193 2793.00 2888.12 52.85
5546 104.7367 2902.00 2885.60 53.87
5547 104.7542 2926.00 2883.26 54.09
5548 104.7716 2870.00 2881.02 53.57
5549 104.7890 2857.00 2878.99 53.45
5550 104.8065 2887.00 2877.16 53.73
5551 104.8239 2781.00 2875.54 52.74
5552 104.8414 2847.00 2874.19 53.36
5553 104.8588 2852.00 2873.10 53.40
5554 104.8762 2851.00 2872.28 53.39
5555 104.8937 2876.00 2871.79 53.63
5556 104.9111 2850.00 2871.64 53.39
5557 104.9285 2852.00 2871.83 53.40
5558 104.9460 2861.00 2872.37 53.49
5559 104.9634 2780.00 2873.36 52.73
5560 104.9809 2898.00 2874.77 53.83
5561 104.9983 2856.00 2876.59 53.44
5562 105.0157 2898.00 2878.79 53.83
5563 105.0332 2920.00 2881.45 54.04
5564 105.0506 2890.00 2884.56 53.76
5565 105.0680 2850.00 2888.11 53.39
5566 105.0855 2871.00 2892.09 53.58
5567 105.1029 2867.00 2896.52 53.54
5568 105.1203 3021.00 2901.37 54.96
5569 105.1378 2871.00 2906.65 53.58
5570 105.1552 2977.00 2912.35 54.56
5571 105.1727 2996.00 2918.45 54.74
5572 105.1901 2902.00 2924.95 53.87
5573 105.2075 2971.00 2931.88 54.51
5574 105.2250 2963.00 2939.12 54.43
5575 105.2424 2946.00 2946.68 54.28
5576 105.2598 2980.00 2954.57 54.59
5577 105.2773 2905.00 2962.69 53.90
5578 105.2947 2915.00 2971.00 53.99
5579 105.3121 2999.00 2979.42 54.76
5580 105.3296 2952.00 2987.98 54.33
5581 105.3470 2981.00 2996.59 54.60
5582 105.3645 2917.00 3005.11 54.01
5583 105.3819 3019.00 3013.49 54.95
5584 105.3993 3043.00 3021.69 55.16
5585 105.4168 3052.00 3029.66 55.24
5586 105.4342 3060.00 3037.21 55.32
5587 105.4516 3088.00 3044.31 55.57
5588 105.4691 3009.00 3050.96 54.85
5589 105.4865 3062.00 3057.09 55.34
5590 105.5039 3088.00 3062.65 55.57
5591 105.5214 3009.00 3067.61 54.85
5592 105.5388 3011.00 3071.95 54.87
5593 105.5563 3062.00 3075.66 55.34
5594 105.5737 3124.00 3078.76 55.89
5595 105.5911 3063.00 3081.27 55.34
5596 105.6086 3018.00 3083.19 54.94
5597 105.6260 3035.00 3084.61 55.09
5598 105.6434 3044.00 3085.55 55.17
5599 105.6609 3081.00 3085.90 55.51
5600 105.6783 3025.00 3085.80 55.00
5601 105.6957 3052.00 3085.29 55.24
5602 105.7132 2979.00 3084.47 54.58
5603 105.7306 3033.00 3083.09 55.07
5604 105.7480 3077.00 3081.40 55.47
5605 105.7655 3067.00 3079.32 55.38
5606 105.7829 3034.00 3076.88 55.08
5607 105.8003 2929.00 3074.00 54.12
5608 105.8178 3160.00 3070.88 56.21
5609 105.8352 3033.00 3067.45 55.07
5610 105.8527 3022.00 3063.51 54.97
5611 105.8701 2965.00 3059.21 54.45
5612 105.8875 3103.00 3054.56 55.70
5613 105.9050 3018.00 3049.59 54.94
5614 105.9224 3145.00 3044.32 56.08
5615 105.9398 3214.00 3038.89 56.69
5616 105.9573 2996.00 3033.24 54.74
5617 105.9747 2881.00 3027.39 53.67
5618 105.9922 2945.00 3021.32 54.27
5619 106.0096 3036.00 3015.16 55.10
5620 106.0270 2977.00 3008.95 54.56
5621 106.0445 3043.00 3002.73 55.16
5622 106.0619 3026.00 2996.54 55.01
5623 106.0794 3014.00 2990.48 54.90
5624 106.0968 2998.00 2984.59 54.75
5625 106.1142 3063.00 2978.76 55.34
5626 106.1317 3006.00 2973.18 54.83
5627 106.1491 2910.00 2967.70 53.94
5628 106.1665 2958.00 2962.47 54.39
5629 106.1840 2990.00 2957.36 54.68
5630 106.2014 2961.00 2952.54 54.42
5631 106.2188 2913.00 2947.98 53.97
5632 106.2363 2954.00 2943.59 54.35
5633 106.2537 3018.00 2939.50 54.94
5634 106.2711 2959.00 2935.62 54.40
5635 106.2886 3007.00 2931.98 54.84
5636 106.3060 2906.00 2928.58 53.91
5637 106.3235 3069.00 2925.32 55.40
5638 106.3409 2978.00 2922.21 54.57
5639 106.3583 2970.00 2919.30 54.50
5640 106.3758 2967.00 2916.55 54.47
5641 106.3932 2945.00 2913.94 54.27
5642 106.4106 2824.00 2911.45 53.14
5643 106.4281 3095.00 2909.06 55.63
5644 106.4455 2953.00 2906.70 54.34
5645 106.4629 2995.00 2904.50 54.73
5646 106.4804 2953.00 2902.38 54.34
5647 106.4978 2910.00 2900.32 53.94
5648 106.5153 2982.00 2898.33 54.61
5649 106.5327 2917.00 2896.42 54.01
5650 106.5501 2942.00 2894.66 54.24
5651 106.5676 2930.00 2892.89 54.13
5652 106.5850 2930.00 2891.23 54.13
5653 106.6024 2993.00 2889.77 54.71
5654 106.6199 2850.00 2888.39 53.39
5655 106.6373 2953.00 2887.18 54.34
5656 106.6547 2849.00 2886.13 53.38
5657 106.6722 2923.00 2885.27 54.06
5658 106.6896 2909.00 2884.66 53.94
5659 106.7070 2980.00 2884.20 54.59
5660 106.7245 2884.00 2883.94 53.70
5661 106.7419 2868.00 2883.90 53.55
5662 106.7594 2914.00 2884.18 53.98
5663 106.7768 2875.00 2884.55 53.62
5664 106.7942 2914.00 2885.12 53.98
5665 106.8117 3027.00 2885.82 55.02
5666 106.8291 2912.00 2886.74 53.96
5667 106.8465 2877.00 2887.80 53.64
5668 106.8640 2905.00 2888.98 53.90
5669 106.8814 2922.00 2890.29 54.06
5670 106.8988 2874.00 2891.76 53.61
5671 106.9163 2990.00 2893.25 54.68
5672 106.9337 2891.00 2894.81 53.77
5673 106.9511 2909.00 2896.41 53.94
5674 106.9686 3020.00 2898.07 54.95
5675 106.9860 2794.00 2899.75 52.86
5676 107.0035 2928.00 2901.38 54.11
5677 107.0209 2834.00 2902.99 53.24
5678 107.0383 2889.00 2904.54 53.75
5679 107.0558 2867.00 2906.01 53.54
5680 107.0732 2888.00 2907.36 53.74
5681 107.0907 2878.00 2908.57 53.65
5682 107.1081 2889.00 2909.61 53.75
5683 107.1255 2945.00 2910.47 54.27
5684 107.1430 2967.00 2911.11 54.47
5685 107.1604 2944.00 2911.52 54.26
5686 107.1778 2851.00 2911.73 53.39
5687 107.1953 2877.00 2911.64 53.64
5688 107.2127 2785.00 2911.30 52.77
5689 107.2301 2914.00 2910.71 53.98
5690 107.2476 2944.00 2909.82 54.26
5691 107.2650 2907.00 2908.77 53.92
5692 107.2824 2942.00 2907.54 54.24
5693 107.2999 2904.00 2906.22 53.89
5694 107.3173 2973.00 2904.63 54.53
5695 107.3348 2937.00 2903.07 54.19
5696 107.3522 2867.00 2901.37 53.54
5697 107.3696 2775.00 2899.64 52.68
5698 107.3871 2910.00 2897.93 53.94
5699 107.4045 2889.00 2896.25 53.75
5700 107.4219 2808.00 2894.63 52.99
5701 107.4394 2768.00 2893.17 52.61
5702 107.4568 2910.00 2891.79 53.94
5703 107.4742 2882.00 2890.56 53.68
5704 107.4917 2843.00 2889.53 53.32
5705 107.5091 2893.00 2888.65 53.79
5706 107.5266 2851.00 2887.98 53.39
5707 107.5440 2841.00 2887.51 53.30
5708 107.5614 2936.00 2887.30 54.18
5709 107.5789 2841.00 2887.29 53.30
5710 107.5963 2936.00 2887.52 54.18
5711 107.6137 2955.00 2888.00 54.36
5712 107.6312 2875.00 2888.66 53.62
5713 107.6486 2942.00 2889.69 54.24
5714 107.6661 2869.00 2890.96 53.56
5715 107.6835 2898.00 2892.48 53.83
5716 107.7009 2877.00 2894.23 53.64
5717 107.7184 2901.00 2896.28 53.86
5718 107.7358 2953.00 2898.59 54.34
5719 107.7532 2948.00 2901.16 54.30
5720 107.7707 2930.00 2904.02 54.13
5721 107.7881 2971.00 2907.07 54.51
5722 107.8055 2824.00 2910.30 53.14
5723 107.8230 3023.00 2913.77 54.98
5724 107.8404 2924.00 2917.41 54.07
5725 107.8578 2894.00 2921.21 53.80
5726 107.8753 2831.00 2925.12 53.21
5727 107.8927 2972.00 2929.12 54.52
5728 107.9102 2947.00 2933.16 54.29
5729 107.9276 2982.00 2937.21 54.61
5730 107.9450 2934.00 2941.23 54.17
5731 107.9624 3021.00 2945.18 54.96
5732 107.9799 2990.00 2949.03 54.68
5733 107.9973 2899.00 2952.68 53.84
5734 108.0148 2934.00 2956.20 54.17
5735 108.0322 2922.00 2959.52 54.06
5736 108.0496 3045.00 2962.63 55.18
5737 108.0671 2951.00 2965.47 54.32
5738 108.0845 3004.00 2968.02 54.81
5739 108.1019 2913.00 2970.28 53.97
5740 108.1194 2892.00 2972.26 53.78
5741 108.1368 2947.00 2973.84 54.29
5742 108.1543 2909.00 2975.24 53.94
5743 108.1717 2973.00 2976.37 54.53
5744 108.1891 3059.00 2977.28 55.31
5745 108.2066 3091.00 2977.98 55.60
5746 108.2240 3009.00 2978.52 54.85
5747 108.2414 3003.00 2978.95 54.80
5748 108.2589 3130.00 2979.29 55.95
5749 108.2763 2961.00 2979.61 54.42
5750 108.2937 2985.00 2979.94 54.64
5751 108.3112 2936.00 2980.33 54.18
5752 108.3286 3058.00 2980.80 55.30
5753 108.3461 2912.00 2981.40 53.96
5754 108.3635 2975.00 2982.19 54.54
5755 108.3809 2967.00 2983.03 54.47
5756 108.3984 2990.00 2984.18 54.68
5757 108.4158 2972.00 2985.53 54.52
5758 108.4332 3088.00 2987.08 55.57
5759 108.4507 3038.00 2988.85 55.12
5760 108.4681 3070.00 2990.79 55.41
5761 108.4856 3033.00 2992.97 55.07
5762 108.5030 3002.00 2995.33 54.79
5763 108.5204 3042.00 2997.82 55.15
5764 108.5379 3022.00 3000.49 54.97
5765 108.5553 2977.00 3003.32 54.56
5766 108.5727 3103.00 3006.27 55.70
5767 108.5902 2964.00 3009.31 54.44
5768 108.6076 3147.00 3012.42 56.10
5769 108.6250 3118.00 3015.61 55.84
5770 108.6425 3120.00 3018.85 55.86
5771 108.6599 3035.00 3022.06 55.09
5772 108.6774 3020.00 3025.28 54.95
5773 108.6948 2961.00 3028.42 54.42
5774 108.7122 3133.00 3031.47 55.97
5775 108.7297 3106.00 3034.40 55.73
5776 108.7471 3010.00 3037.21 54.86
5777 108.7645 3104.00 3039.74 55.71
5778 108.7820 2969.00 3042.08 54.49
5779 108.7994 2935.00 3044.14 54.18
5780 108.8168 2950.00 3045.89 54.31
5781 108.8343 3033.00 3047.29 55.07
5782 108.8517 3123.00 3048.35 55.88
5783 108.8691 3016.00 3049.08 54.92
5784 108.8866 3100.00 3049.42 55.68
5785 108.9040 3153.00 3049.46 56.15
5786 108.9215 3071.00 3049.08 55.42
5787 108.9389 3009.00 3048.30 54.85
5788 108.9563 2996.00 3047.18 54.74
5789 108.9737 3100.00 3045.71 55.68
5790 108.9912 3118.00 3043.92 55.84
5791 109.0086 3086.00 3041.82 55.55
5792 109.0261 3037.00 3039.43 55.11
5793 109.0435 3041.00 3036.78 55.15
5794 109.0609 3054.00 3033.82 55.26
5795 109.0784 3050.00 3030.62 55.23
5796 109.0958 3049.00 3027.19 55.22
5797 109.1133 3044.00 3023.47 55.17
5798 109.1307 2987.00 3019.58 54.65
5799 109.1481 2980.00 3015.48 54.59
5800 109.1656 2865.00 3011.18 53.53
5801 109.1830 3070.00 3006.71 55.41
5802 109.2004 3091.00 3002.17 55.60
5803 109.2179 3028.00 2997.45 55.03
5804 109.2353 2942.00 2992.56 54.24
5805 109.2527 3052.00 2987.60 55.24
5806 109.2702 2961.00 2982.56 54.42
5807 109.2876 3047.00 2977.50 55.20
5808 109.3050 3054.00 2972.41 55.26
5809 109.3225 2951.00 2967.37 54.32
5810 109.3399 2946.00 2962.39 54.28
5811 109.3574 2904.00 2957.53 53.89
5812 109.3748 2942.00 2952.76 54.24
5813 109.3922 3004.00 2948.10 54.81
5814 109.4097 2913.00 2943.60 53.97
5815 109.4271 2987.00 2939.27 54.65
5816 109.4445 2926.00 2935.15 54.09
5817 109.4620 2945.00 2931.19 54.27
5818 109.4794 2967.00 2927.50 54.47
5819 109.4969 2841.00 2924.05 53.30
5820 109.5143 2965.00 2920.83 54.45
5821 109.5317 2931.00 2917.90 54.14
5822 109.5492 3028.00 2915.23 55.03
5823 109.5666 3001.00 2912.88 54.78
5824 109.5840 2953.00 2910.78 54.34
5825 109.6015 2884.00 2908.98 53.70
5826 109.6189 3038.00 2907.47 55.12
5827 109.6363 2995.00 2906.27 54.73
5828 109.6538 2940.00 2905.38 54.22
5829 109.6712 3021.00 2904.79 54.96
5830 109.6886 2930.00 2904.50 54.13
5831 109.7061 2860.00 2904.52 53.48
5832 109.7235 3025.00 2904.83 55.00
5833 109.7410 2908.00 2905.44 53.93
5834 109.7584 2975.00 2906.33 54.54
5835 109.7758 3078.00 2907.51 55.48
5836 109.7933 3015.00 2908.95 54.91
5837 109.8107 2966.00 2910.66 54.46
5838 109.8281 3012.00 2912.60 54.88
5839 109.8456 2951.00 2914.80 54.32
5840 109.8630 2900.00 2917.23 53.85
5841 109.8804 3030.00 2919.90 55.05
5842 109.8979 2975.00 2922.80 54.54
5843 109.9153 3038.00 2925.91 55.12
5844 109.9327 3004.00 2929.26 54.81
5845 109.9502 3015.00 2932.82 54.91
5846 109.9676 3005.00 2936.60 54.82
5847 109.9851 2957.00 2940.61 54.38
5848 110.0025 3071.00 2944.85 55.42
5849 110.0199 3042.00 2949.34 55.15
5850 110.0374 3184.00 2954.08 56.43
5851 110.0548 2942.00 2959.07 54.24
5852 110.0722 2977.00 2964.34 54.56
5853 110.0897 2980.00 2969.89 54.59
5854 110.1071 3069.00 2975.73 55.40
5855 110.1245 2969.00 2981.89 54.49
5856 110.1420 3066.00 2988.34 55.37
5857 110.1594 2966.00 2995.11 54.46
5858 110.1769 2993.00 3002.22 54.71
5859 110.1943 3145.00 3009.68 56.08
5860 110.2117 2978.00 3017.47 54.57
5861 110.2292 3077.00 3025.58 55.47
5862 110.2466 3034.00 3034.04 55.08
5863 110.2641 2956.00 3042.86 54.37
5864 110.2815 3006.00 3051.94 54.83
5865 110.2989 3037.00 3061.24 55.11
5866 110.3164 3056.00 3070.96 55.28
5867 110.3338 3013.00 3080.97 54.89
5868 110.3512 3056.00 3091.24 55.28
5869 110.3687 3094.00 3101.68 55.62
5870 110.3861 3179.00 3112.41 56.38
5871 110.4035 3162.00 3123.28 56.23
5872 110.4210 3130.00 3134.30 55.95
5873 110.4384 3126.00 3145.40 55.91
5874 110.4558 3160.00 3156.56 56.21
5875 110.4733 3162.00 3167.71 56.23
5876 110.4907 3013.00 3178.80 54.89
5877 110.5082 3165.00 3189.79 56.26
5878 110.5256 3080.00 3200.61 55.50
5879 110.5430 3183.00 3211.21 56.42
5880 110.5605 3247.00 3221.52 56.98
5881 110.5779 3292.00 3231.48 57.38
5882 110.5953 3326.00 3241.04 57.67
5883 110.6128 3103.00 3250.13 55.70
5884 110.6302 3163.00 3258.69 56.24
5885 110.6476 3203.00 3266.64 56.60
5886 110.6651 3250.00 3274.00 57.01
5887 110.6825 3244.00 3280.69 56.96
5888 110.7000 3339.00 3286.59 57.78
5889 110.7174 3238.00 3291.87 56.90
5890 110.7348 3307.00 3296.39 57.51
5891 110.7523 3259.00 3300.18 57.09
5892 110.7697 3304.00 3303.13 57.48
5893 110.7871 3162.00 3305.34 56.23
5894 110.8046 3277.00 3306.76 57.25
5895 110.8220 3231.00 3307.45 56.84
5896 110.8394 3143.00 3307.38 56.06
5897 110.8569 3285.00 3306.61 57.31
5898 110.8743 3372.00 3305.16 58.07
5899 110.8917 3252.00 3303.04 57.03
5900 110.9092 3168.00 3300.32 56.28
5901 110.9266 3292.00 3297.03 57.38
5902 110.9441 3245.00 3293.20 56.96
5903 110.9615 3304.00 3288.84 57.48
5904 110.9789 3355.00 3284.05 57.92
5905 110.9964 3270.00 3278.82 57.18
5906 111.0138 3249.00 3273.21 57.00
5907 111.0312 3312.00 3267.24 57.55
5908 111.0487 3244.00 3261.01 56.96
5909 111.0661 3287.00 3254.42 57.33
5910 111.0835 3182.00 3247.58 56.41
5911 111.1010 3178.00 3240.49 56.37
5912 111.1184 3171.00 3233.22 56.31
5913 111.1358 3178.00 3225.77 56.37
5914 111.1533 3227.00 3218.19 56.81
5915 111.1707 3278.00 3210.52 57.25
5916 111.1882 3180.00 3202.76 56.39
5917 111.2056 3125.00 3194.95 55.90
5918 111.2230 3173.00 3187.16 56.33
5919 111.2405 3122.00 3179.37 55.87
5920 111.2579 3134.00 3171.68 55.98
5921 111.2753 3260.00 3164.05 57.10
5922 111.2928 3199.00 3156.68 56.56
5923 111.3102 3149.00 3149.33 56.12
5924 111.3277 3179.00 3142.19 56.38
5925 111.3451 3099.00 3135.28 55.67
5926 111.3625 3181.00 3128.55 56.40
5927 111.3800 3108.00 3122.12 55.75
5928 111.3974 3037.00 3115.98 55.11
5929 111.4148 3145.00 3110.11 56.08
5930 111.4323 3181.00 3104.51 56.40
5931 111.4497 3101.00 3099.22 55.69
5932 111.4671 3127.00 3094.17 55.92
5933 111.4846 3115.00 3089.38 55.81
5934 111.5020 3085.00 3084.90 55.54
5935 111.5194 3103.00 3080.61 55.70
5936 111.5369 3180.00 3076.57 56.39
5937 111.5543 3067.00 3072.71 55.38
5938 111.5717 3158.00 3069.06 56.20
5939 111.5892 3006.00 3065.59 54.83
5940 111.6066 3116.00 3062.31 55.82
5941 111.6241 3171.00 3059.27 56.31
5942 111.6415 3072.00 3056.34 55.43
5943 111.6589 3061.00 3053.56 55.33
5944 111.6764 3138.00 3050.92 56.02
5945 111.6938 3168.00 3048.44 56.28
5946 111.7112 2977.00 3046.08 54.56
5947 111.7287 2926.00 3043.85 54.09
5948 111.7461 3062.00 3041.73 55.34
5949 111.7636 3112.00 3039.69 55.79
5950 111.7810 3056.00 3037.78 55.28
5951 111.7984 3086.00 3035.97 55.55
5952 111.8158 3099.00 3034.25 55.67
5953 111.8333 3041.00 3032.59 55.15
5954 111.8507 2980.00 3031.00 54.59
5955 111.8682 3083.00 3029.47 55.52
5956 111.8856 3012.00 3027.99 54.88
5957 111.9031 3000.00 3026.57 54.77
5958 111.9205 2959.00 3025.20 54.40
5959 111.9379 3035.00 3023.90 55.09
5960 111.9554 2982.00 3022.65 54.61
5961 111.9728 3128.00 3021.45 55.93
5962 111.9902 3010.00 3020.33 54.86
5963 112.0077 3107.00 3019.27 55.74
5964 112.0251 3031.00 3018.25 55.05
5965 112.0425 2901.00 3017.35 53.86
5966 112.0600 3009.00 3016.53 54.85
5967 112.0774 3042.00 3015.79 55.15
5968 112.0948 3063.00 3015.07 55.34
5969 112.1123 2964.00 3014.47 54.44
5970 112.1297 3031.00 3013.90 55.05
5971 112.1471 3069.00 3013.39 55.40
5972 112.1646 3009.00 3012.86 54.85
5973 112.1820 3060.00 3012.35 55.32
5974 112.1995 2885.00 3011.83 53.71
5975 112.2169 3039.00 3011.25 55.13
5976 112.2343 3038.00 3010.60 55.12
5977 112.2518 3136.00 3009.85 56.00
5978 112.2692 3045.00 3008.96 55.18
5979 112.2866 2984.00 3007.92 54.63
5980 112.3041 3030.00 3006.72 55.05
5981 112.3215 2970.00 3005.34 54.50
5982 112.3390 2923.00 3003.78 54.06
5983 112.3564 3027.00 3002.03 55.02
5984 112.3738 2947.00 3000.07 54.29
5985 112.3913 3043.00 2997.90 55.16
5986 112.4087 3058.00 2995.54 55.30
5987 112.4261 2988.00 2993.00 54.66
5988 112.4436 3130.00 2990.26 55.95
5989 112.4610 3034.00 2987.43 55.08
5990 112.4784 3054.00 2984.41 55.26
5991 112.4959 2981.00 2981.24 54.60
5992 112.5133 3027.00 2977.94 55.02
5993 112.5307 2962.00 2974.56 54.42
5994 112.5482 2906.00 2971.09 53.91
5995 112.5656 2961.00 2967.55 54.42
5996 112.5831 3011.00 2963.99 54.87
5997 112.6005 2980.00 2960.34 54.59
5998 112.6179 2955.00 2956.66 54.36
5999 112.6354 2981.00 2952.94 54.60
6000 112.6528 2918.00 2949.30 54.02
6001 112.6702 3027.00 2945.54 55.02
6002 112.6877 3017.00 2941.82 54.93
6003 112.7051 2973.00 2938.10 54.53
6004 112.7225 2961.00 2934.41 54.42
6005 112.7400 2950.00 2930.77 54.31
6006 112.7574 2971.00 2927.23 54.51
6007 112.7748 2962.00 2923.69 54.42
6008 112.7923 2945.00 2920.23 54.27
6009 112.8097 3002.00 2916.84 54.79
6010 112.8272 2991.00 2913.55 54.69
6011 112.8446 2898.00 2910.36 53.83
6012 112.8620 2789.00 2907.37 52.81
6013 112.8795 3025.00 2904.41 55.00
6014 112.8969 2941.00 2901.58 54.23
6015 112.9143 2905.00 2898.88 53.90
6016 112.9318 2984.00 2896.32 54.63
6017 112.9492 2944.00 2893.88 54.26
6018 112.9666 2891.00 2891.59 53.77
6019 112.9841 2967.00 2889.41 54.47
6020 113.0015 2849.00 2887.35 53.38
6021 113.0190 2825.00 2885.40 53.15
6022 113.0364 2975.00 2883.57 54.54
6023 113.0538 2909.00 2881.85 53.94
6024 113.0713 2739.00 2880.24 52.34
6025 113.0887 2841.00 2878.68 53.30
6026 113.1061 2972.00 2877.28 54.52
6027 113.1236 2867.00 2875.98 53.54
6028 113.1410 2855.00 2874.77 53.43
6029 113.1584 2970.00 2873.59 54.50
6030 113.1759 2861.00 2872.61 53.49
6031 113.1933 2912.00 2871.74 53.96
6032 113.2107 2946.00 2871.00 54.28
6033 113.2282 2938.00 2870.38 54.20
6034 113.2456 2777.00 2869.91 52.70
6035 113.2631 2853.00 2869.59 53.41
6036 113.2805 2865.00 2869.43 53.53
6037 113.2979 2786.00 2869.44 52.78
6038 113.3154 2905.00 2869.64 53.90
6039 113.3328 2804.00 2870.01 52.95
6040 113.3503 2790.00 2870.54 52.82
6041 113.3677 2921.00 2871.30 54.05
6042 113.3851 2824.00 2872.27 53.14
6043 113.4025 2853.00 2873.43 53.41
6044 113.4200 2870.00 2874.80 53.57
6045 113.4374 2904.00 2876.38 53.89
6046 113.4549 2851.00 2878.16 53.39
6047 113.4723 2900.00 2880.12 53.85
6048 113.4897 2877.00 2882.34 53.64
6049 113.5072 2892.00 2884.71 53.78
6050 113.5246 2809.00 2887.28 53.00
6051 113.5420 2974.00 2890.04 54.53
6052 113.5595 2909.00 2892.97 53.94
6053 113.5769 2768.00 2896.07 52.61
6054 113.5944 2864.00 2899.32 53.52
6055 113.6118 2986.00 2902.71 54.64
6056 113.6292 2863.00 2906.32 53.51
6057 113.6466 2918.00 2910.06 54.02
6058 113.6641 2883.00 2913.94 53.69
6059 113.6815 2928.00 2917.93 54.11
6060 113.6990 2820.00 2922.04 53.10
6061 113.7164 3051.00 2926.23 55.24
6062 113.7338 2764.00 2930.51 52.57
6063 113.7513 2956.00 2934.88 54.37
6064 113.7687 3004.00 2939.28 54.81
6065 113.7861 2887.00 2943.75 53.73
6066 113.8036 3058.00 2948.24 55.30
6067 113.8210 2928.00 2952.68 54.11
6068 113.8385 2974.00 2957.11 54.53
6069 113.8559 3023.00 2961.47 54.98
6070 113.8733 2942.00 2965.82 54.24
6071 113.8908 3025.00 2970.05 55.00
6072 113.9082 2979.00 2974.23 54.58
6073 113.9256 2940.00 2978.34 54.22
6074 113.9431 2967.00 2982.34 54.47
6075 113.9605 2939.00 2986.21 54.21
6076 113.9779 3082.00 2990.04 55.52
6077 113.9954 3013.00 2993.61 54.89
6078 114.0128 2871.00 2996.98 53.58
6079 114.0303 2842.00 3000.20 53.31
6080 114.0477 3071.00 3003.20 55.42
6081 114.0651 3016.00 3006.16 54.92
6082 114.0826 3000.00 3008.79 54.77
6083 114.1000 2996.00 3011.21 54.74
6084 114.1174 2910.00 3013.42 53.94
6085 114.1349 2972.00 3015.51 54.52
6086 114.1523 2999.00 3017.32 54.76
6087 114.1697 2935.00 3018.96 54.18
6088 114.1872 2922.00 3020.42 54.06
6089 114.2046 2898.00 3021.66 53.83
6090 114.2221 3125.00 3022.60 55.90
6091 114.2395 3075.00 3023.39 55.45
6092 114.2569 3145.00 3023.98 56.08
6093 114.2744 3033.00 3024.35 55.07
6094 114.2918 2985.00 3024.49 54.64
6095 114.3092 3018.00 3024.38 54.94
6096 114.3267 3018.00 3024.04 54.94
6097 114.3441 3027.00 3023.51 55.02
6098 114.3615 2933.00 3022.75 54.16
6099 114.3790 3047.00 3021.70 55.20
6100 114.3964 3002.00 3020.42 54.79
6101 114.4138 3054.00 3018.83 55.26
6102 114.4313 2985.00 3016.96 54.64
6103 114.4487 3037.00 3014.83 55.11
6104 114.4661 2916.00 3012.42 54.00
6105 114.4836 3017.00 3009.73 54.93
6106 114.5010 2963.00 3006.78 54.43
6107 114.5185 3032.00 3003.58 55.06
6108 114.5359 2931.00 3000.13 54.14
6109 114.5533 3070.00 2996.45 55.41
6110 114.5708 2883.00 2992.56 53.69
6111 114.5882 2906.00 2988.45 53.91
6112 114.6056 3065.00 2984.17 55.36
6113 114.6231 2965.00 2979.73 54.45
6114 114.6405 2942.00 2975.14 54.24
6115 114.6579 2957.00 2970.40 54.38
6116 114.6754 2953.00 2965.56 54.34
6117 114.6928 2883.00 2960.63 53.69
6118 114.7103 2990.00 2955.61 54.68
6119 114.7277 3068.00 2950.54 55.39
6120 114.7451 2933.00 2945.41 54.16
6121 114.7626 2851.00 2940.24 53.39
6122 114.7800 2965.00 2935.05 54.45
6123 114.7974 2965.00 2929.84 54.45
6124 114.8149 2953.00 2924.61 54.34
6125 114.8323 2924.00 2919.40 54.07
6126 114.8497 2894.00 2914.20 53.80
6127 114.8672 2884.00 2909.03 53.70
6128 114.8846 2865.00 2903.89 53.53
6129 114.9021 2909.00 2898.82 53.94
6130 114.9195 2875.00 2893.81 53.62
6131 114.9369 2878.00 2888.88 53.65
6132 114.9544 2875.00 2884.04 53.62
6133 114.9718 2968.00 2879.31 54.48
6134 114.9892 2780.00 2874.70 52.73
6135 115.0067 2894.00 2870.17 53.80
6136 115.0241 2878.00 2865.84 53.65
6137 115.0415 2882.00 2861.67 53.68
6138 115.0590 2899.00 2857.67 53.84
6139 115.0764 2802.00 2853.84 52.93
6140 115.0939 2853.00 2850.19 53.41
6141 115.1113 2779.00 2846.74 52.72
6142 115.1287 2936.00 2843.48 54.18
6143 115.1461 2845.00 2840.40 53.34
6144 115.1636 2856.00 2837.55 53.44
6145 115.1810 2811.00 2834.90 53.02
6146 115.1985 2918.00 2832.44 54.02
6147 115.2159 2790.00 2830.19 52.82
6148 115.2334 2891.00 2828.15 53.77
6149 115.2508 2918.00 2826.30 54.02
6150 115.2682 2866.00 2824.63 53.53
6151 115.2856 2808.00 2823.14 52.99
6152 115.3031 2848.00 2821.85 53.37
6153 115.3205 2868.00 2820.68 53.55
6154 115.3380 2774.00 2819.66 52.67
6155 115.3554 2806.00 2818.78 52.97
6156 115.3728 2871.00 2818.03 53.58
6157 115.3903 2826.00 2817.39 53.16
6158 115.4077 2840.00 2816.84 53.29
6159 115.4251 2868.00 2816.39 53.55
6160 115.4426 2821.00 2816.03 53.11
6161 115.4600 2851.00 2815.71 53.39
6162 115.4774 2852.00 2815.48 53.40
6163 115.4949 2738.00 2815.26 52.33
6164 115.5123 2795.00 2815.11 52.87
6165 115.5297 2724.00 2815.03 52.19
6166 115.5472 2753.00 2814.94 52.47
6167 115.5646 2774.00 2814.87 52.67
6168 115.5821 2912.00 2814.81 53.96
6169 115.5995 2783.00 2814.80 52.75
6170 115.6169 2801.00 2814.81 52.92
6171 115.6344 2839.00 2814.82 53.28
6172 115.6518 2832.00 2814.82 53.22
6173 115.6693 2732.00 2814.86 52.27
6174 115.6867 2899.00 2814.96 53.84
6175 115.7041 2832.00 2815.09 53.22
6176 115.7215 2847.00 2815.27 53.36
6177 115.7390 2763.00 2815.47 52.56
6178 115.7564 2816.00 2815.75 53.07
6179 115.7739 2774.00 2816.25 52.67
6180 115.7913 2676.00 2816.67 51.73
6181 115.8087 2788.00 2817.15 52.80
6182 115.8262 2816.00 2817.72 53.07
6183 115.8436 2841.00 2818.38 53.30
6184 115.8610 2856.00 2819.14 53.44
6185 115.8785 2896.00 2819.96 53.81
6186 115.8959 2979.00 2820.87 54.58
6187 115.9134 2788.00 2822.03 52.80
6188 115.9308 2759.00 2823.24 52.53
6189 115.9482 2767.00 2824.55 52.60
6190 115.9657 2838.00 2826.02 53.27
6191 115.9831 2908.00 2827.62 53.93
6192 116.0005 2843.00 2829.29 53.32
6193 116.0180 2810.00 2831.19 53.01
6194 116.0354 2817.00 2833.22 53.08
6195 116.0528 2826.00 2835.44 53.16
6196 116.0703 2774.00 2837.85 52.67
6197 116.0877 2788.00 2840.45 52.80
6198 116.1051 2852.00 2843.22 53.40
6199 116.1226 2889.00 2846.21 53.75
6200 116.1400 2751.00 2849.44 52.45
6201 116.1574 2810.00 2852.83 53.01
6202 116.1749 2893.00 2856.44 53.79
6203 116.1923 2817.00 2860.16 53.08
6204 116.2098 2868.00 2864.17 53.55
6205 116.2272 2861.00 2868.38 53.49
6206 116.2446 2850.00 2872.81 53.39
6207 116.2621 2849.00 2877.40 53.38
6208 116.2795 2834.00 2882.12 53.24
6209 116.2969 2781.00 2887.05 52.74
6210 116.3144 2861.00 2892.11 53.49
6211 116.3318 2864.00 2897.33 53.52
6212 116.3493 2859.00 2902.67 53.47
6213 116.3667 3028.00 2908.11 55.03
6214 116.3841 2968.00 2913.60 54.48
6215 116.4016 2889.00 2919.20 53.75
6216 116.4190 2899.00 2924.84 53.84
6217 116.4364 2955.00 2930.50 54.36
6218 116.4539 2908.00 2936.10 53.93
6219 116.4713 3038.00 2941.75 55.12
6220 116.4887 2860.00 2947.38 53.48
6221 116.5062 2956.00 2952.95 54.37
6222 116.5236 3004.00 2958.54 54.81
6223 116.5411 2996.00 2964.00 54.74
6224 116.5585 3064.00 2969.38 55.35
6225 116.5759 2999.00 2974.63 54.76
6226 116.5934 2958.00 2979.74 54.39
6227 116.6108 2986.00 2984.71 54.64
6228 116.6282 3062.00 2989.50 55.34
6229 116.6457 2920.00 2994.09 54.04
6230 116.6631 2983.00 2998.50 54.62
6231 116.6805 3079.00 3002.71 55.49
6232 116.6980 2883.00 3006.68 53.69
6233 116.7154 3058.00 3010.41 55.30
6234 116.7328 3045.00 3013.91 55.18
6235 116.7503 2991.00 3017.12 54.69
6236 116.7677 2987.00 3020.06 54.65
6237 116.7851 3014.00 3022.70 54.90
6238 116.8026 3056.00 3025.05 55.28
6239 116.8200 2999.00 3027.02 54.76
6240 116.8375 3074.00 3028.71 55.44
6241 116.8549 2939.00 3030.11 54.21
6242 116.8723 2977.00 3031.16 54.56
6243 116.8898 3022.00 3031.87 54.97
6244 116.9072 2945.00 3032.22 54.27
6245 116.9246 2994.00 3032.27 54.72
6246 116.9421 2874.00 3031.93 53.61
6247 116.9595 3047.00 3031.24 55.20
6248 116.9769 3001.00 3030.23 54.78
6249 116.9944 3047.00 3028.86 55.20
6250 117.0118 3018.00 3027.14 54.94
6251 117.0293 2924.00 3025.11 54.07
6252 117.0467 2970.00 3022.87 54.50
6253 117.0641 2954.00 3020.22 54.35
6254 117.0816 3026.00 3017.29 55.01
6255 117.0990 3019.00 3014.09 54.95
6256 117.1164 2957.00 3010.65 54.38
6257 117.1339 3010.00 3007.03 54.86
6258 117.1513 2847.00 3003.21 53.36
6259 117.1687 3038.00 2999.10 55.12
6260 117.1862 2967.00 2994.99 54.47
6261 117.2036 2966.00 2990.68 54.46
6262 117.2210 2912.00 2986.28 53.96
6263 117.2385 2980.00 2981.85 54.59
6264 117.2559 2996.00 2977.29 54.74
6265 117.2734 2896.00 2972.69 53.81
6266 117.2908 2982.00 2968.14 54.61
6267 117.3082 3034.00 2963.58 55.08
6268 117.3257 2899.00 2959.04 53.84
6269 117.3431 2928.00 2954.56 54.11
6270 117.3605 2968.00 2950.16 54.48
6271 117.3780 2835.00 2945.83 53.24
6272 117.3954 3041.00 2941.62 55.15
6273 117.4128 2851.00 2937.53 53.39
6274 117.4303 2835.00 2933.58 53.24
6275 117.4477 2891.00 2929.77 53.77
6276 117.4652 2857.00 2926.15 53.45
6277 117.4826 2906.00 2922.71 53.91
6278 117.5000 2799.00 2919.44 52.91
6279 117.5175 2852.00 2916.39 53.40
6280 117.5349 2870.00 2913.58 53.57
6281 117.5523 2837.00 2911.01 53.26
6282 117.5698 2771.00 2908.71 52.64
6283 117.5872 2762.00 2906.68 52.55
6284 117.6047 2961.00 2904.96 54.42
6285 117.6221 2836.00 2903.50 53.25
6286 117.6395 2841.00 2902.41 53.30
6287 117.6569 2906.00 2901.61 53.91
6288 117.6744 2910.00 2901.13 53.94
6289 117.6918 2902.00 2901.07 53.87
6290 117.7093 2910.00 2901.35 53.94
6291 117.7267 2923.00 2902.00 54.06
6292 117.7441 2883.00 2903.02 53.69
6293 117.7616 2898.00 2904.41 53.83
6294 117.7790 2871.00 2906.17 53.58
6295 117.7964 2845.00 2908.28 53.34
6296 117.8139 2907.00 2910.76 53.92
6297 117.8313 2914.00 2913.61 53.98
6298 117.8487 2917.00 2916.79 54.01
6299 117.8662 2989.00 2920.28 54.67
6300 117.8836 2843.00 2924.11 53.32
6301 117.9011 2914.00 2928.26 53.98
6302 117.9185 2944.00 2932.71 54.26
6303 117.9359 2883.00 2937.43 53.69
6304 117.9534 2973.00 2942.45 54.53
6305 117.9708 2864.00 2947.64 53.52
6306 117.9882 2922.00 2953.07 54.06
6307 118.0057 2966.00 2958.68 54.46
6308 118.0231 3018.00 2964.48 54.94
6309 118.0405 2807.00 2970.40 52.98
6310 118.0580 2908.00 2976.45 53.93
6311 118.0754 2989.00 2982.59 54.67
6312 118.0929 2936.00 2988.78 54.18
6313 118.1103 2923.00 2994.96 54.06
6314 118.1277 2987.00 3001.17 54.65
6315 118.1452 2936.00 3007.31 54.18
6316 118.1626 3050.00 3013.42 55.23
6317 118.1800 3014.00 3019.44 54.90
6318 118.1975 2929.00 3025.33 54.12
6319 118.2149 2953.00 3031.06 54.34
6320 118.2324 3001.00 3036.66 54.78
6321 118.2498 2902.00 3042.02 53.87
6322 118.2672 2979.00 3047.15 54.58
6323 118.2847 3059.00 3052.03 55.31
6324 118.3021 2997.00 3056.65 54.74
6325 118.3195 3088.00 3060.97 55.57
6326 118.3370 3050.00 3064.97 55.23
6327 118.3544 3092.00 3068.71 55.61
6328 118.3718 3077.00 3072.05 55.47
6329 118.3893 2946.00 3075.06 54.28
6330 118.4067 3047.00 3077.71 55.20
6331 118.4241 3052.00 3079.97 55.24
6332 118.4416 3016.00 3081.86 54.92
6333 118.4590 3017.00 3083.38 54.93
6334 118.4764 2979.00 3084.51 54.58
6335 118.4939 2981.00 3085.29 54.60
6336 118.5113 3047.00 3085.68 55.20
6337 118.5288 3046.00 3085.70 55.19
6338 118.5462 3156.00 3085.32 56.18
6339 118.5636 3072.00 3084.65 55.43
6340 118.5811 3079.00 3083.66 55.49
6341 118.5985 3112.00 3082.37 55.79
6342 118.6159 3063.00 3080.79 55.34
6343 118.6334 3032.00 3078.96 55.06
6344 118.6508 3061.00 3076.90 55.33
6345 118.6682 3091.00 3074.63 55.60
6346 118.6857 3138.00 3072.18 56.02
6347 118.7031 3161.00 3069.60 56.22
6348 118.7206 3059.00 3066.85 55.31
6349 118.7380 3141.00 3064.02 56.04
6350 118.7554 3146.00 3061.13 56.09
6351 118.7729 3190.00 3058.19 56.48
6352 118.7903 2990.00 3055.23 54.68
6353 118.8077 2995.00 3052.28 54.73
6354 118.8252 3099.00 3049.36 55.67
6355 118.8426 3062.00 3046.48 55.34
6356 118.8600 3173.00 3043.68 56.33
6357 118.8775 3074.00 3040.99 55.44
6358 118.8949 3020.00 3038.42 54.95
6359 118.9124 3094.00 3035.97 55.62
6360 118.9298 2977.00 3033.67 54.56
6361 118.9472 3047.00 3031.55 55.20
6362 118.9647 2921.00 3029.62 54.05
6363 118.9821 3115.00 3027.86 55.81
6364 118.9995 3113.00 3026.36 55.79
6365 119.0170 2980.00 3025.23 54.59
6366 119.0344 3006.00 3024.22 54.83
6367 119.0518 3062.00 3023.48 55.34
6368 119.0693 3101.00 3023.03 55.69
6369 119.0867 2988.00 3022.88 54.66
6370 119.1041 3110.00 3023.11 55.77
6371 119.1216 3077.00 3023.60 55.47
6372 119.1390 3006.00 3024.45 54.83
6373 119.1564 3127.00 3025.65 55.92
6374 119.1739 3131.00 3027.22 55.96
6375 119.1913 3095.00 3029.20 55.63
6376 119.2088 3157.00 3031.59 56.19
6377 119.2262 3047.00 3034.34 55.20
6378 119.2436 3119.00 3037.53 55.85
6379 119.2611 3061.00 3041.12 55.33
6380 119.2785 3034.00 3045.09 55.08
6381 119.2959 3146.00 3049.48 56.09
6382 119.3134 2986.00 3054.25 54.64
6383 119.3308 3097.00 3059.44 55.65
6384 119.3483 3069.00 3065.04 55.40
6385 119.3657 3062.00 3071.01 55.34
6386 119.3831 3020.00 3077.37 54.95
6387 119.4006 3054.00 3084.04 55.26
6388 119.4180 3116.00 3091.14 55.82
6389 119.4354 3173.00 3098.47 56.33
6390 119.4529 3237.00 3106.06 56.89
6391 119.4703 3191.00 3113.97 56.49
6392 119.4877 3198.00 3122.06 56.55
6393 119.5052 3132.00 3130.36 55.96
6394 119.5226 3205.00 3138.81 56.61
6395 119.5400 3150.00 3147.35 56.12
6396 119.5575 3206.00 3156.00 56.62
6397 119.5749 3217.00 3164.71 56.72
6398 119.5923 3268.00 3173.40 57.17
6399 119.6098 3210.00 3181.99 56.66
6400 119.6272 3225.00 3190.60 56.79
6401 119.6447 3210.00 3199.14 56.66
6402 119.6621 3240.00 3207.46 56.92
6403 119.6795 3167.00 3215.59 56.28
6404 119.6970 3262.00 3223.46 57.11
6405 119.7144 3292.00 3231.04 57.38
6406 119.7318 3367.00 3238.27 58.03
6407 119.7493 3312.00 3245.13 57.55
6408 119.7667 3250.00 3251.58 57.01
6409 119.7841 3254.00 3257.54 57.04
6410 119.8016 3354.00 3263.03 57.91
6411 119.8190 3306.00 3267.98 57.50
6412 119.8364 3243.00 3272.39 56.95
6413 119.8539 3239.00 3276.23 56.91
6414 119.8713 3361.00 3279.49 57.97
6415 119.8888 3352.00 3282.19 57.90
6416 119.9062 3338.00 3284.22 57.78
6417 119.9236 3356.00 3285.64 57.93
6418 119.9411 3407.00 3286.44 58.37
6419 119.9585 3376.00 3286.57 58.10
6420 119.9759 3310.00 3286.18 57.53
6421 119.9934 3273.00 3285.26 57.21
6422 120.0108 3240.00 3283.70 56.92
6423 120.0283 3277.00 3281.69 57.25
loop_
_pd_proc_wavelength
1.540562
1.544390
loop_
_refln_index_h
_refln_index_k
_refln_index_l
_refln_F_squared_calc
_refln_F_squared_meas
_refln_observed_status
_refln_d_spacing
0 1 0 519.53 482.66 o 8.329520
1 0 0 476.85 468.99 o 6.252970
1 1 0 10053.67 9992.36 o 6.000348
0 0 1 382.87 351.07 o 5.395451
0 -1 1 9569.63 9530.81 o 4.578663
0 1 1 6845.13 6672.79 o 4.479816
1 -1 0 7766.02 7810.83 o 4.376747
-1 0 1 16183.51 16307.62 o 4.211627
-1 -1 1 3420.37 3472.30 o 4.169870
0 2 0 20094.21 20124.70 o 4.164760
1 2 0 5601.77 5566.29 o 4.123937
1 0 1 30034.93 30145.98 o 3.969085
1 1 1 103.10 84.80 o 3.870844
-1 1 1 4561.92 4536.16 o 3.448924
-1 -2 1 3280.49 3296.52 o 3.381145
1 -1 1 28.60 28.62 o 3.351240
0 -2 1 1362.80 1284.72 o 3.335634
2 1 0 4442.18 4484.23 o 3.291767
0 2 1 34.68 37.89 o 3.259346
1 2 1 10562.11 9446.66 o 3.180945
2 0 0 9037.56 8856.88 o 3.126485
1 -2 0 1850.81 1893.54 o 3.047745
2 2 0 1720.90 1964.80 o 3.000174
-2 -1 1 23784.33 23412.86 o 2.905284
1 3 0 25793.53 25357.11 o 2.903110
-2 0 1 11808.43 12218.74 o 2.778276
0 3 0 817.67 846.99 o 2.776507
2 1 1 13762.08 13924.83 o 2.723639
-2 -2 1 13907.16 14005.83 o 2.709432
0 0 2 31540.00 31775.73 o 2.697726
-1 2 1 23240.50 22714.19 o 2.667033
2 -1 0 2158.61 2113.04 o 2.661754
1 -2 1 23866.59 22983.93 o 2.640457
2 0 1 695.54 670.13 o 2.637478
-1 -3 1 4498.29 4172.98 o 2.614791
0 -1 2 3276.17 3375.94 o 2.584656
0 1 2 642.61 636.39 o 2.548674
2 2 1 2386.49 2465.63 o 2.542641
-1 0 2 1498.68 1565.68 o 2.532817
-1 -1 2 4477.92 4688.60 o 2.532244
2 3 0 1489.98 1476.79 o 2.509938
1 3 1 5429.60 5469.73 o 2.501991
0 -3 1 7404.77 7391.84 o 2.493171
0 3 1 10939.18 11287.94 o 2.445123
-2 1 1 6903.17 7141.05 o 2.429221
1 0 2 1040.53 1084.10 o 2.424772
1 1 2 3946.10 2837.87 o 2.394504
2 -1 1 3468.87 2986.99 o 2.347053
-2 -3 1 2664.52 2353.41 o 2.338940
-1 1 2 3150.69 2684.29 o 2.327241
-1 -2 2 4725.90 3992.16 o 2.325907
0 -2 2 3393.42 3002.08 o 2.289331
1 -3 0 5174.67 4692.49 o 2.282550
1 -1 2 17235.74 17845.46 o 2.266990
0 2 2 4491.00 3596.02 o 2.239908
2 3 1 6160.53 5780.93 o 2.217410
1 4 0 18218.15 17981.24 o 2.196188
1 2 2 163.92 161.73 o 2.194954
3 1 0 7227.80 7094.64 o 2.192901
2 -2 0 3345.70 3246.28 o 2.188374
-2 -1 2 12562.66 12356.28 o 2.164911
3 2 0 2120.94 2094.48 o 2.158926
-2 0 2 6782.52 6175.77 o 2.105813
-1 3 1 740.40 678.02 o 2.103838
1 -3 1 876.43 814.00 o 2.100513
-2 -2 2 1460.67 1372.06 o 2.084935
3 0 0 9764.94 9192.43 o 2.084323
-3 -1 1 10873.92 10247.23 o 2.082485
0 4 0 8933.34 8418.49 o 2.082380
-1 -4 1 1363.29 1318.31 o 2.067802
2 4 0 2450.82 2452.07 o 2.061969
-3 -2 1 540.59 533.29 o 2.057943
-2 2 1 885.41 885.22 o 2.048975
-1 2 2 252.00 236.75 o 2.031872
-1 -3 2 6944.84 6544.65 o 2.030392
2 1 2 1672.37 1712.94 o 2.016103
1 -2 2 7195.89 7203.88 o 2.008426
2 -2 1 146.53 146.91 o 2.007496
1 4 1 6156.79 6272.20 o 2.002053
3 3 0 1887.03 1919.99 o 2.000116
-3 0 1 5734.33 5948.26 o 1.984652
2 0 2 25695.24 26653.86 o 1.984543
3 1 1 1872.69 1944.00 o 1.984120
-2 -4 1 7950.96 8230.51 o 1.968010
0 -4 1 9725.97 10184.73 o 1.958504
0 -3 2 2407.08 2520.62 o 1.958378
3 2 1 365.36 385.06 o 1.954861
-2 1 2 6318.02 6143.14 o 1.937180
2 2 2 10010.57 9664.90 o 1.935422
0 4 1 2400.15 2421.55 o 1.927291
1 3 2 15804.02 15991.92 o 1.926134
-3 -3 1 18099.12 18430.53 o 1.922796
0 3 2 584.22 615.58 o 1.912116
3 0 1 9370.40 9367.39 o 1.906289
-2 -3 2 3527.20 3463.17 o 1.905003
2 4 1 3491.87 3342.20 o 1.886766
3 -1 0 17743.54 16985.04 o 1.885661
2 -1 2 294.23 237.51 o 1.854962
3 3 1 3086.12 2313.07 o 1.831349
1 -4 0 153.01 124.41 o 1.810584
2 -3 0 597.94 472.55 o 1.809803
-3 1 1 2981.99 2435.80 o 1.807748
0 0 3 2570.21 2378.58 o 1.798484
3 4 0 12245.52 12399.02 o 1.783950
2 3 2 1537.17 1571.86 o 1.776877
0 -1 3 6858.97 7272.99 o 1.766709
-3 -1 2 1501.21 1542.38 o 1.762468
-1 -1 3 9843.79 10041.01 o 1.759283
-1 0 3 3817.80 3859.80 o 1.756584
1 5 0 8947.67 9029.66 o 1.754565
3 -1 1 2648.94 2683.67 o 1.753643
-3 -2 2 7503.51 7614.88 o 1.750363
0 1 3 2851.83 2892.47 o 1.749364
-1 3 2 7721.56 7787.90 o 1.744409
-1 -4 2 10827.56 10891.03 o 1.743098
1 -3 2 10743.20 10752.74 o 1.740621
-3 -4 1 1059.31 1040.93 o 1.731191
-2 3 1 11730.67 11812.31 o 1.725805
-2 2 2 5552.77 5705.43 o 1.724462
1 -4 1 6725.20 7243.07 o 1.718301
-1 4 1 10317.12 11088.92 o 1.714730
2 5 0 8629.91 9211.19 o 1.713753
2 -3 1 8002.96 8107.28 o 1.706060
1 0 3 17140.17 16861.58 o 1.701554
-3 0 2 19774.88 19374.71 o 1.699351
-2 -4 2 971.40 954.72 o 1.690573
-1 -5 1 2563.31 2515.66 o 1.689550
1 1 3 1269.95 1245.76 o 1.688427
-1 -2 3 1666.38 1637.44 o 1.688075
-1 1 3 6159.69 6199.26 o 1.680952
2 -2 2 12493.52 12544.58 o 1.675620
0 -4 2 2625.50 2632.34 o 1.667817
-3 -3 2 9.07 9.08 o 1.667385
0 5 0 8816.40 8800.15 o 1.665904
1 4 2 3205.14 3199.23 o 1.665860
0 -2 3 4524.60 4508.97 o 1.665671
3 -2 0 693.81 688.51 o 1.664081
-2 -5 1 57.78 57.44 o 1.661094
3 4 1 2407.45 2424.78 o 1.658671
1 5 1 2686.66 2933.41 o 1.648326
3 1 2 7172.32 7917.41 o 1.646691
1 -1 3 1861.58 2054.97 o 1.646608
4 2 0 2467.54 2734.00 o 1.645883
0 2 3 319.12 356.86 o 1.636926
4 1 0 6878.97 7768.01 o 1.633501
0 4 2 4238.60 4803.23 o 1.629673
-2 -1 3 7881.35 8915.27 o 1.628752
3 2 2 1166.68 1321.09 o 1.627551
1 2 3 10562.54 10567.16 o 1.611650
-3 2 1 4496.43 4739.99 o 1.607583
-4 -2 1 6684.50 7068.89 o 1.607121
2 5 1 2257.14 2388.25 o 1.606932
3 0 2 2455.08 2612.42 o 1.603568
0 -5 1 10916.94 11614.21 o 1.602596
-2 0 3 10017.05 10632.44 o 1.600946
4 3 0 14546.70 15424.75 o 1.596463
-2 -2 3 15365.84 16287.61 o 1.596023
-4 -1 1 1623.21 1686.33 o 1.593430
2 4 2 4484.11 4571.33 o 1.590472
-3 1 2 7822.26 7910.85 o 1.582189
0 5 1 14540.77 14814.39 o 1.581135
3 -2 1 8258.33 8233.82 o 1.573304
3 5 0 321.99 316.77 o 1.566913
-1 -3 3 10851.19 10697.31 o 1.566356
4 0 0 1033.35 1032.98 o 1.563243
-4 -3 1 27.46 27.53 o 1.563043
-1 2 3 12948.07 12895.39 o 1.556897
3 3 2 6286.50 6227.04 o 1.552183
4 2 1 9600.33 10245.87 o 1.543346
1 -2 3 11754.14 12196.95 o 1.541043
-3 -4 2 11100.71 11399.77 o 1.539717
4 1 1 7395.41 7494.29 o 1.535043
-3 -5 1 23353.48 23556.60 o 1.532712
2 1 3 9969.93 9990.77 o 1.532229
0 -3 3 4031.08 4027.46 o 1.526221
-4 0 1 8296.15 8288.71 o 1.526120
2 -4 0 13079.09 13211.39 o 1.523873
-2 1 3 2343.70 2385.14 o 1.521104
2 0 3 541.42 553.70 o 1.520102
-2 3 2 5444.61 5646.85 o 1.516377
-2 -3 3 2.38 2.47 o 1.512689
3 -1 2 11254.41 11699.31 o 1.511311
1 -4 2 4990.78 5189.90 o 1.505783
-1 4 2 47.81 49.00 o 1.500984
4 3 1 921.95 937.11 o 1.500577
4 4 0 837.71 849.37 o 1.500087
-1 -5 2 1107.45 1115.28 o 1.499910
1 -5 0 7055.35 6735.72 o 1.495745
2 2 3 540.60 515.52 o 1.494123
1 3 3 385.89 368.61 o 1.493966
0 3 3 4552.17 4368.97 o 1.493272
2 -3 2 257.20 249.76 o 1.489836
-2 -5 2 13128.79 12155.56 o 1.485682
3 5 1 5244.18 5019.57 o 1.478250
4 0 1 10680.23 10205.89 o 1.478017
-4 -4 1 3816.84 3639.42 o 1.473960
-2 4 1 737.71 732.47 o 1.471009
2 -4 1 1975.34 1950.87 o 1.462039
2 -1 3 3195.54 3158.53 o 1.461113
3 -3 0 6476.12 6336.93 o 1.458916
1 6 0 4716.78 4661.96 o 1.456846
4 -1 0 2061.27 2051.18 o 1.454814
-4 -2 2 7.26 7.34 o 1.452642
2 6 0 1622.34 1639.52 o 1.451555
1 -5 1 3255.08 3156.25 o 1.444041
1 5 2 6620.01 6425.92 o 1.443404
3 4 2 9307.03 9051.95 o 1.441214
-3 2 2 6409.83 6234.16 o 1.441156
-4 -1 2 11190.14 10911.38 o 1.440914
-3 -1 3 4861.50 4748.44 o 1.440424
-1 5 1 22.00 21.48 o 1.438739
-3 -2 3 4.63 4.52 o 1.435364
0 -5 2 14786.83 14612.08 o 1.432826
-1 -4 3 166.46 159.82 o 1.424115
-4 1 1 1681.62 1590.92 o 1.423214
-4 -3 2 13935.16 12869.53 o 1.421372
-2 -6 1 6400.59 5892.24 o 1.420661
-1 -6 1 1284.49 1182.47 o 1.420505
-3 3 1 2936.87 2721.79 o 1.418873
4 4 1 4620.46 4296.08 o 1.418187
2 3 3 12434.60 11689.28 o 1.415946
-1 3 3 2211.54 2063.11 o 1.414177
1 -3 3 2759.19 2567.94 o 1.411149
2 5 2 2649.80 2477.04 o 1.410358
-2 2 3 2386.69 2238.46 o 1.409908
-3 0 3 379.36 364.81 o 1.403876
0 5 2 1632.42 1522.13 o 1.402514
-2 -4 3 9161.62 8002.66 o 1.399881
3 -3 1 1753.74 1530.53 o 1.398036
-3 -5 2 2412.65 2119.71 o 1.396508
1 6 1 2388.57 2143.26 o 1.392856
3 -2 2 105.08 93.68 o 1.392694
-3 -3 3 8996.74 8179.82 o 1.389957
-4 0 2 104.04 94.03 o 1.389138
0 6 0 322.64 293.05 o 1.388253
4 -1 1 9363.62 8568.65 o 1.386791
2 6 1 5716.11 5334.50 o 1.383505
4 5 0 9101.71 8616.45 o 1.379797
0 -4 3 9081.18 8640.35 o 1.377504
3 6 0 2178.57 2092.08 o 1.374646
2 -2 3 1987.76 1834.62 o 1.369873
4 2 2 2029.66 1511.74 o 1.361819
1 4 3 3815.53 2818.00 o 1.360938
-4 -5 1 1821.93 1355.67 o 1.360722
4 1 2 653.80 537.08 o 1.357434
-4 -4 2 348.00 298.53 o 1.354716
-3 -6 1 244.33 211.81 o 1.352693
0 -6 1 5891.32 5086.75 o 1.352288
0 0 4 9346.40 7871.34 o 1.348863
3 1 3 53.21 43.38 o 1.345639
0 4 3 16.60 13.43 o 1.345293
-1 -1 4 2813.11 2813.19 o 1.337574
0 6 1 873.39 873.67 o 1.336771
0 -1 4 4957.58 4964.96 o 1.336570
-1 0 4 8902.42 8852.94 o 1.335118
-3 1 3 799.08 793.73 o 1.334354
3 2 3 797.05 789.81 o 1.333869
-2 4 2 15118.21 14965.97 o 1.333516
4 3 2 6919.85 6839.48 o 1.330909
4 -2 0 4545.56 4492.77 o 1.330877
0 1 4 3291.09 3122.78 o 1.326521
3 0 3 6540.18 6295.76 o 1.323029
2 -4 2 9637.49 9327.54 o 1.320229
5 2 0 1415.46 1364.54 o 1.318874
4 0 2 1191.12 1149.28 o 1.318739
3 5 2 339.04 324.29 o 1.316879
2 4 3 993.40 918.26 o 1.314842
-3 -4 3 19.93 18.42 o 1.314583
4 5 1 68.12 63.28 o 1.314053
3 6 1 2445.34 2293.45 o 1.312402
1 -5 2 11144.65 10465.42 o 1.312112
-4 1 2 1755.73 1692.91 o 1.308994
2 -5 0 244.30 236.32 o 1.307692
-2 -6 2 270.06 261.32 o 1.307396
-1 -2 4 13647.01 13281.58 o 1.306650
5 3 0 28.18 27.48 o 1.306441
-4 2 1 4934.93 4829.93 o 1.305371
-1 5 2 7340.69 7223.43 o 1.304187
-1 -6 2 5242.46 5156.88 o 1.303326
-5 -2 1 21.07 20.85 o 1.302581
1 0 4 479.29 474.42 o 1.302552
-1 1 4 2854.93 2801.98 o 1.299819
-3 3 2 3329.87 3255.74 o 1.299340
5 1 0 506.62 491.84 o 1.298883
1 1 4 11.08 10.27 o 1.295477
0 -2 4 373.79 334.92 o 1.292328
-5 -3 1 4659.92 4177.11 o 1.291744
3 3 3 980.30 882.55 o 1.290281
-2 3 3 5264.52 4497.49 o 1.288051
3 -4 0 46.67 41.57 o 1.283144
-1 -5 3 8187.65 7293.17 o 1.283123
-5 -1 1 9665.97 8669.01 o 1.282189
-2 -1 4 9474.70 8512.62 o 1.281156
4 -2 1 2710.97 2492.60 o 1.279318
1 -1 4 3300.51 3066.41 o 1.278515
1 -4 3 811.44 758.89 o 1.278183
-2 -5 3 2230.33 2093.06 o 1.277870
0 2 4 7311.69 7155.13 o 1.274337
-1 4 3 6939.15 6832.11 o 1.273782
-2 5 1 5651.08 5600.22 o 1.272727
1 -6 0 196.20 195.68 o 1.272326
4 4 2 1982.27 1979.62 o 1.271320
3 -1 3 248.72 249.60 o 1.270862
2 -5 1 8515.03 8657.62 o 1.269073
3 -3 2 1436.49 1439.54 o 1.267803
-2 0 4 229.23 226.79 o 1.266409
-4 -5 2 7282.04 7192.58 o 1.266314
-2 -2 4 13.48 13.29 o 1.266122
5 4 0 2470.82 2453.40 o 1.264186
2 -3 3 4303.00 4281.41 o 1.263704
1 6 2 165.83 168.81 o 1.261444
5 2 1 505.77 515.47 o 1.260749
-4 -2 3 4156.84 4233.47 o 1.260559
1 2 4 40.49 41.14 o 1.258747
-3 -6 2 3161.74 3125.63 o 1.257357
4 6 0 101.83 95.34 o 1.254969
-3 4 1 6864.00 6408.22 o 1.254595
4 -1 2 336.76 315.78 o 1.253766
2 7 0 5394.06 5126.77 o 1.252401
-5 -4 1 274.16 259.54 o 1.251899
-4 -1 3 2.49 2.36 o 1.251827
2 6 2 1623.07 1548.80 o 1.250995
5 0 0 10669.05 10151.29 o 1.250594
5 3 1 9591.80 9199.86 o 1.248838
-1 -3 4 1101.45 1056.44 o 1.248729
0 -6 2 284.15 276.25 o 1.246585
-3 2 3 740.39 723.91 o 1.245421
5 1 1 8214.48 8180.88 o 1.244277
1 7 0 470.61 472.03 o 1.243872
3 -4 1 11823.19 12186.68 o 1.242155
-4 -6 1 5581.24 5748.76 o 1.241582
1 -6 1 1361.98 1409.32 o 1.241060
-4 -3 3 335.36 347.35 o 1.240978
-1 2 4 1684.91 1767.32 o 1.238832
0 -5 3 3217.62 3340.49 o 1.236993
-1 6 1 1727.80 1783.89 o 1.235677
-5 0 1 614.01 636.21 o 1.234670
-2 -7 1 536.61 547.79 o 1.233393
1 5 3 62.73 61.80 o 1.230347
1 -2 4 3233.96 3239.43 o 1.228157
0 -3 4 1670.92 1650.63 o 1.224832
-2 1 4 2750.72 2717.32 o 1.224787
-2 -3 4 6299.43 6202.61 o 1.224268
3 4 3 2890.12 2839.69 o 1.223426
-3 -5 3 13206.33 12913.74 o 1.223024
0 6 2 239.25 234.33 o 1.222562
-1 -7 1 3659.04 3598.00 o 1.221992
-5 -2 2 1993.13 1976.41 o 1.219378
2 1 4 2.48 2.42 o 1.217550
-4 0 3 6972.99 6845.12 o 1.216468
-4 2 2 1015.30 1019.46 o 1.214611
3 7 0 112.33 114.07 o 1.212743
2 0 4 9927.85 10061.66 o 1.212386
-5 -3 2 924.22 946.34 o 1.211419
5 4 1 77.46 78.95 o 1.210831
0 5 3 5441.18 5585.80 o 1.207844
4 -3 0 1347.12 1382.93 o 1.207802
2 7 1 21.84 22.67 o 1.206968
2 5 3 6726.58 7038.54 o 1.206558
4 6 1 1899.54 2041.78 o 1.203964
5 0 1 2485.09 2731.74 o 1.202556
1 7 1 4595.53 5067.61 o 1.202402
0 3 4 3490.16 3852.57 o 1.202022
-5 -1 2 33.49 36.86 o 1.201677
5 5 0 782.53 871.97 o 1.200070
1 3 4 5139.00 5759.07 o 1.199309
3 -2 3 5911.66 6682.26 o 1.198787
-3 -7 1 4658.56 5275.55 o 1.198505
2 2 4 3730.22 4243.67 o 1.197252
-4 -4 3 898.34 1019.67 o 1.196783
3 6 2 1595.23 1863.26 o 1.194653
4 5 2 3951.84 4573.53 o 1.193777
-5 -5 1 6572.34 7446.49 o 1.190440
0 7 0 1849.31 2095.32 o 1.189932
-4 3 1 4571.88 5130.29 o 1.187749
-3 -1 4 111.34 123.83 o 1.186186
-3 -2 4 3637.63 3872.49 o 1.184238
5 -1 0 1034.33 1020.04 o 1.182727
2 -1 4 713.24 703.39 o 1.182697
-2 5 2 730.39 696.56 o 1.179641
-5 -4 2 3259.53 3103.23 o 1.179243
-1 -4 4 9490.78 8856.43 o 1.173854
2 -5 2 2379.31 2220.28 o 1.173841
4 -2 2 4723.21 4391.64 o 1.173526
4 2 3 1880.90 1775.18 o 1.172582
4 1 3 4091.46 3975.59 o 1.170632
4 -3 1 9247.71 9126.01 o 1.169721
-4 -6 2 928.94 921.48 o 1.169470
-2 4 3 1.59 1.58 o 1.169404
-3 4 2 1926.80 1924.04 o 1.168827
3 7 1 1333.09 1337.42 o 1.168510
-5 1 1 1525.02 1533.37 o 1.168380
0 -7 1 1948.07 1960.77 o 1.167895
-3 0 4 8549.50 8857.00 o 1.164682
-2 2 4 364.94 373.97 o 1.163620
-2 -4 4 21.23 21.72 o 1.162953
-1 3 4 4619.05 4695.72 o 1.162376
-5 0 2 7498.52 7663.56 o 1.161461
-4 1 3 12.00 12.19 o 1.160727
1 -3 4 2697.48 2700.49 o 1.160134
-2 -6 3 10351.30 10313.88 o 1.159883
-3 -3 4 946.13 931.75 o 1.159176
-2 -7 2 5411.13 5263.87 o 1.157905
0 7 1 5633.68 5446.81 o 1.156207
2 -4 3 4290.36 4136.06 o 1.155993
1 -6 2 5174.09 4963.06 o 1.155106
2 3 4 59.53 57.17 o 1.155063
-1 -6 3 325.33 312.94 o 1.154299
1 -5 3 5329.01 5106.73 o 1.154063
5 5 1 12307.23 11881.37 o 1.153327
5 2 2 1119.90 1084.58 o 1.153113
4 3 3 1153.58 1125.69 o 1.151862
-3 3 3 3110.35 3003.31 o 1.149641
3 -4 2 365.99 357.03 o 1.148926
-1 6 2 0.93 0.93 o 1.146467
4 0 3 1528.69 1532.95 o 1.146342
-1 5 3 355.95 357.11 o 1.145986
-1 -7 2 164.11 165.26 o 1.145776
0 -4 4 159.46 169.59 o 1.144666
3 5 3 2590.85 2742.30 o 1.143792
5 3 2 309.60 332.08 o 1.143182
5 -1 1 709.96 760.04 o 1.142640
2 -6 0 2937.46 3016.13 o 1.141275
5 1 2 3270.52 3358.11 o 1.141259
4 7 0 4667.87 4431.18 o 1.137057
3 -5 0 8027.52 7614.41 o 1.136859
-4 -5 3 1475.52 1399.92 o 1.135300
2 -2 4 7714.58 7369.02 o 1.133495
-3 -7 2 667.39 638.67 o 1.131456
-5 -5 2 3893.87 4130.04 o 1.128216
-4 -7 1 2371.08 2534.09 o 1.127834
-3 -6 3 700.88 758.87 o 1.127048
1 4 4 117.34 127.11 o 1.126387
5 6 0 3479.78 3739.69 o 1.123782
-3 1 4 1403.90 1501.07 o 1.123303
0 4 4 6828.74 7404.37 o 1.119954
-4 3 2 1076.93 1140.88 o 1.117413
3 -3 3 48.20 50.66 o 1.117080
-2 6 1 10.52 11.06 o 1.117068
-5 -6 1 1695.73 1795.50 o 1.116603
-3 5 1 532.84 561.43 o 1.116120
2 -6 1 8.51 9.02 o 1.116071
2 7 2 2727.02 2897.92 o 1.115213
-3 -4 4 3637.86 3865.84 o 1.115102
3 1 4 6148.22 6533.57 o 1.114949
1 7 2 1783.79 1896.73 o 1.114054
5 4 2 1844.40 1971.08 o 1.113079
0 -6 3 5655.16 6097.40 o 1.111878
4 4 3 830.53 894.06 o 1.111847
1 6 3 731.74 797.71 o 1.111020
5 0 2 6083.68 6507.71 o 1.109536
3 -5 1 47.64 50.91 o 1.108781
4 6 2 1513.52 1621.08 o 1.108705
3 2 4 23.25 25.03 o 1.107502
1 -7 0 3499.68 3723.43 o 1.106123
-5 1 2 245.69 256.30 o 1.105052
5 -2 0 7002.73 7306.32 o 1.104862
4 -1 3 6321.42 6564.92 o 1.103605
3 0 4 29.94 30.94 o 1.102698
2 6 3 2751.20 2792.48 o 1.101482
-5 -2 3 2888.44 2915.27 o 1.101348
0 -7 2 4408.67 4319.82 o 1.098467
2 8 0 658.34 639.51 o 1.098094
4 7 1 399.00 387.59 o 1.098001
2 4 4 740.90 724.76 o 1.097477
6 3 0 7306.40 7124.14 o 1.097256
6 2 0 259.63 252.89 o 1.096451
-5 -3 3 4890.82 4767.12 o 1.096173
4 -4 0 6279.25 6138.03 o 1.094187
-4 2 3 10215.79 10064.92 o 1.092703
-5 2 1 298.31 294.34 o 1.092445
-1 -5 4 376.12 372.57 o 1.091757
-2 3 4 3589.34 3542.87 o 1.091547
-2 -5 4 12317.80 12104.90 o 1.090812
-6 -3 1 150.71 148.33 o 1.090802
4 -3 2 41.66 41.65 o 1.087905
-5 -1 3 13666.28 13666.60 o 1.087567
0 6 3 5.96 6.00 o 1.086449
1 -7 1 6337.91 6381.22 o 1.086075
-2 -8 1 2550.68 2573.09 o 1.085895
1 8 0 7856.24 7952.79 o 1.084458
5 6 1 371.76 376.33 o 1.084445
1 -4 4 3342.38 3390.68 o 1.083479
-4 -2 4 661.77 668.92 o 1.082455
3 7 2 11.77 11.90 o 1.082406
3 3 4 7340.14 7450.98 o 1.081497
-1 7 1 3519.13 3563.08 o 1.081115
-1 4 4 619.75 624.13 o 1.079904
6 4 0 1735.58 1746.18 o 1.079463
0 7 2 933.56 940.79 o 1.079238
0 0 5 3097.03 3125.32 o 1.079090
3 8 0 5006.53 5050.55 o 1.078653
-4 4 1 1509.04 1521.24 o 1.078542
6 1 0 7101.94 7213.98 o 1.077168
-4 -1 4 9976.30 10053.37 o 1.076247
-1 -1 5 3573.86 3605.22 o 1.076148
-1 0 5 54.04 54.26 o 1.074208
-6 -4 1 4893.86 4915.27 o 1.073975
-4 -7 2 2152.27 2161.11 o 1.073618
0 -1 5 2241.14 2243.93 o 1.073423
-5 -4 3 2699.41 2695.11 o 1.072819
5 -2 1 884.74 881.30 o 1.072629
3 -1 4 8764.94 8729.11 o 1.072601
2 -3 4 3008.07 3008.19 o 1.071766
-4 -3 4 9088.01 9039.41 o 1.070633
-1 -8 1 187.29 186.16 o 1.070518
-6 -1 1 164.26 165.08 o 1.069756
-3 -8 1 901.32 905.62 o 1.069247
-3 2 4 5403.15 5356.07 o 1.068038
5 5 2 73.64 72.42 o 1.067269
0 1 5 1275.31 1248.35 o 1.066902
2 8 1 4633.54 4492.83 o 1.066438
4 -4 1 15.95 15.41 o 1.066278
-5 -6 2 3950.24 3799.38 o 1.065416
-4 -6 3 3598.03 3416.45 o 1.064585
5 -1 2 4756.49 4401.84 o 1.062593
-2 5 3 1730.25 1534.26 o 1.060834
0 -5 4 7167.78 6340.28 o 1.060791
-1 -2 5 85.72 75.23 o 1.060479
6 3 1 0.02 0.02 o 1.060337
3 6 3 3063.49 2692.35 o 1.060315
6 2 1 410.00 359.89 o 1.060244
4 5 3 10.56 9.54 o 1.058226
-3 -5 4 4363.32 3942.09 o 1.058197
-5 0 3 249.29 231.92 o 1.056856
1 8 1 1117.63 1050.13 o 1.056019
-3 4 3 1557.77 1479.93 o 1.055652
-1 1 5 2688.49 2584.19 o 1.054938
2 -5 3 5509.07 5290.98 o 1.054515
-3 5 2 2633.83 2521.16 o 1.053817
-4 0 4 242.48 231.06 o 1.052907
1 0 5 4786.04 4579.82 o 1.052858
-2 -7 3 3454.99 3290.86 o 1.052304
-2 6 2 4435.58 4224.01 o 1.051919
0 -2 5 7432.29 7124.90 o 1.050714
2 -6 2 1026.97 989.09 o 1.050256
1 1 5 2274.24 2170.02 o 1.048497
1 5 4 4234.65 4030.93 o 1.048319
4 -2 3 118.44 112.74 o 1.048308
-2 -1 5 664.53 628.56 o 1.048142
3 8 1 103.72 94.78 o 1.046563
6 5 0 1319.66 1205.29 o 1.045631
6 4 1 3345.03 3081.51 o 1.043649
5 7 0 105.77 97.44 o 1.043629
1 -6 3 112.52 103.66 o 1.043482
6 1 1 59.38 54.84 o 1.043384
-6 -3 2 5067.06 4671.11 o 1.043138
-4 -4 4 2534.50 2333.44 o 1.042468
6 0 0 26.99 24.84 o 1.042162
3 -5 2 4523.75 4127.13 o 1.041558
-6 -2 2 1325.37 1207.00 o 1.041242
-6 -5 1 1373.88 1251.18 o 1.041241
0 8 0 1289.77 1176.06 o 1.041190
-1 -7 3 5564.01 5073.49 o 1.041166
1 -1 5 3477.71 3153.27 o 1.040640
3 4 4 2061.47 1867.88 o 1.040610
-2 -2 5 5670.10 5126.15 o 1.040460
-5 2 2 6680.30 6049.51 o 1.039556
-2 0 5 5603.46 5077.04 o 1.039422
0 2 5 518.99 473.32 o 1.038584
-5 -7 1 363.70 330.83 o 1.038467
0 5 4 12.92 11.60 o 1.036264
-6 0 1 4554.10 4081.20 o 1.034854
-5 -5 3 3452.54 3068.35 o 1.034557
-3 -7 3 2723.07 2402.38 o 1.034292
-1 6 3 2357.21 2071.78 o 1.033953
-2 -8 2 52.20 45.75 o 1.033901
3 -4 3 6548.49 5761.22 o 1.033783
2 5 4 89.04 79.67 o 1.031533
4 8 0 2242.21 2015.01 o 1.030984
5 2 3 1242.33 1093.51 o 1.029395
-1 -3 5 5758.13 5073.65 o 1.029385
-6 -4 2 3883.13 3417.01 o 1.028972
3 -2 4 1972.34 1736.57 o 1.028780
1 2 5 5360.97 4725.18 o 1.028157
1 -7 2 1994.16 1758.03 o 1.027640
0 -8 1 6125.15 5357.28 o 1.026907
5 -3 0 1374.03 1227.16 o 1.024725
-4 -8 1 5345.44 4780.78 o 1.024667
-4 4 2 2022.74 1820.14 o 1.024487
4 7 2 3703.79 3384.85 o 1.023738
-6 -1 2 7063.19 6458.08 o 1.023543
5 3 3 3190.45 2931.52 o 1.021744
5 1 3 2009.17 1847.41 o 1.021502
-3 -8 2 4860.58 4474.52 o 1.021387
-1 2 5 2632.46 2434.28 o 1.020976
-4 3 3 1570.18 1489.63 o 1.019751
-1 7 2 6192.24 5974.02 o 1.019281
-1 -8 2 6929.26 6727.63 o 1.018721
0 8 1 1549.88 1538.73 o 1.017811
-2 -3 5 459.47 459.45 o 1.017417
-2 4 4 2515.85 2534.27 o 1.015936
3 -6 0 591.87 596.20 o 1.015915
-4 1 4 2483.45 2515.47 o 1.015579
-2 1 5 251.13 253.76 o 1.015479
-2 -6 4 586.77 586.89 o 1.015196
-5 3 1 1661.22 1623.98 o 1.014240
0 -3 5 751.82 729.80 o 1.014018
1 -2 5 2684.87 2591.26 o 1.013492
-5 1 3 4540.18 4350.07 o 1.013271
6 5 1 405.80 385.73 o 1.012429
6 0 1 2748.43 2591.81 o 1.012024
5 6 2 2330.57 2148.82 o 1.011435
5 7 1 1878.25 1731.77 o 1.011346
2 -7 0 1656.12 1487.06 o 1.010385
-1 -6 4 5131.35 4691.90 o 1.009613
4 2 4 2030.84 1927.89 o 1.008051
4 1 4 15.59 15.01 o 1.007355
5 -2 2 2617.86 2597.32 o 1.006136
1 7 3 882.33 894.60 o 1.005809
1 -5 4 3612.05 3698.64 o 1.005282
-3 3 4 1012.56 1034.28 o 1.005232
2 7 3 633.08 658.12 o 1.004855
2 -4 4 3129.33 3247.15 o 1.004213
2 1 5 2029.24 2117.77 o 1.004077
4 -4 2 6394.38 6740.36 o 1.003748
0 -7 3 58.77 62.04 o 1.003487
2 0 5 1407.23 1528.88 o 1.001709
-4 -5 4 2963.89 3221.91 o 1.001609
4 8 1 2817.39 3033.75 o 1.001070
2 8 2 1468.23 1582.50 o 1.001026
-6 -5 2 582.61 619.25 o 1.000608
-3 6 1 3434.50 3645.32 o 1.000501
6 6 0 422.56 446.95 o 1.000058
5 4 3 1257.62 1324.11 o 0.999548
5 -3 1 287.23 300.61 o 0.999382
5 0 3 3513.87 3650.07 o 0.999097
-1 5 4 2158.27 2224.75 o 0.998165
0 3 5 1747.74 1798.75 o 0.997775
-5 -7 2 1278.43 1299.65 o 0.997439
4 6 3 340.74 346.45 o 0.997081
-6 -6 1 2452.47 2490.75 o 0.996742
3 -6 1 4621.93 4645.34 o 0.996256
-3 -1 5 6314.04 6350.69 o 0.995944
6 -1 0 4344.39 4371.32 o 0.995815
-3 -2 5 902.41 903.66 o 0.995314
-3 -6 4 2132.38 2129.69 o 0.994703
1 3 5 105.08 104.79 o 0.994471
4 3 4 2076.11 2064.04 o 0.994272
1 8 2 2756.27 2740.66 o 0.994133
2 -7 1 5159.45 5102.08 o 0.993292
4 -5 0 2344.61 2313.60 o 0.993157
-2 7 1 4343.67 4269.99 o 0.992951
-6 0 2 569.67 558.41 o 0.992326
4 0 4 1834.13 1803.91 o 0.992271
2 2 5 17.95 17.63 o 0.992081
6 2 2 333.05 327.05 o 0.992060
6 3 2 6492.57 6354.67 o 0.991617
-4 -7 3 1726.30 1686.21 o 0.991281
3 5 4 1059.98 1036.51 o 0.989757
-6 1 1 180.51 175.91 o 0.988918
-1 -4 5 99.33 94.90 o 0.986729
4 -3 3 5207.78 4931.55 o 0.986436
-5 -6 3 4165.30 3947.70 o 0.986004
2 -1 5 1134.14 1066.33 o 0.985276
-4 -8 2 3030.49 2880.98 o 0.984005
3 8 2 3175.57 3023.41 o 0.982844
-3 0 5 240.43 228.72 o 0.982609
-2 -4 5 1642.14 1566.60 o 0.981904
0 7 3 4125.83 3942.16 o 0.981641
-4 5 1 1615.69 1533.87 o 0.980912
-3 -3 5 7465.92 7117.89 o 0.980798
-2 2 5 4682.93 4460.31 o 0.979293
0 -8 2 557.02 530.61 o 0.979252
0 -6 4 18.40 17.64 o 0.979189
3 7 3 2198.66 2120.45 o 0.978987
6 1 2 2997.65 2900.32 o 0.978705
-5 -2 4 1787.81 1756.76 o 0.978230
1 -8 0 868.28 852.60 o 0.977888
6 4 2 27.34 26.93 o 0.977431
-1 3 5 2628.90 2580.77 o 0.976397
3 -3 4 1987.61 1960.00 o 0.976232
2 9 0 3559.48 3468.80 o 0.975940
-5 -3 4 1473.19 1422.18 o 0.975091
1 -3 5 3561.58 3464.53 o 0.974735
4 -5 1 3771.26 3648.07 o 0.972636
1 6 4 60.84 58.71 o 0.971044
-5 3 2 479.16 462.41 o 0.971005
6 6 1 2327.55 2201.46 o 0.970406
6 -1 1 880.57 819.13 o 0.969908
-4 2 4 454.89 422.49 o 0.968590
-6 -3 3 2381.50 2211.56 o 0.968428
-3 5 3 2209.73 2061.02 o 0.968141
-5 -1 4 538.17 502.55 o 0.968052
-2 -9 1 32.12 30.23 o 0.967828
4 4 4 2021.70 1906.96 o 0.967711
3 9 0 511.44 482.42 o 0.967703
0 -4 5 9098.29 8568.07 o 0.967590
2 3 5 3766.97 3558.74 o 0.967195
-6 -2 3 2275.53 2169.78 o 0.966430
5 5 3 3646.12 3496.03 o 0.965500
5 8 0 3219.76 3090.31 o 0.965266
5 -1 3 241.43 233.15 o 0.964889
4 -1 4 128.90 124.73 o 0.964642
-2 6 3 248.83 240.83 o 0.964591
1 -8 1 891.53 867.84 o 0.964431
0 8 2 1765.01 1713.37 o 0.963645
2 6 4 364.82 356.73 o 0.963067
2 -6 3 1337.61 1324.33 o 0.962670
-5 -8 1 1765.35 1798.08 o 0.961649
-5 2 3 2.68 2.71 o 0.961592
-6 -6 2 3280.89 3350.52 o 0.961398
-3 -9 1 2203.71 2254.92 o 0.961367
1 9 0 288.98 290.63 o 0.960866
-1 8 1 860.42 891.86 o 0.960009
-5 -4 4 2710.84 2721.50 o 0.959012
-6 -4 3 3281.96 3218.74 o 0.957528
-2 -8 3 3749.58 3656.74 o 0.957107
-3 1 5 2190.16 2124.78 o 0.956910
2 -2 5 2436.66 2347.73 o 0.956747
0 6 4 1554.97 1496.96 o 0.956058
-3 6 2 58.67 56.12 o 0.954423
-3 -4 5 687.57 665.46 o 0.954127
3 -5 3 1384.02 1334.06 o 0.953949
6 0 2 516.14 506.02 o 0.953145
2 9 1 0.43 0.43 o 0.953054
-4 -6 4 4720.60 4678.68 o 0.952502
-6 -1 3 1748.17 1765.68 o 0.951770
-1 -9 1 3899.86 3960.56 o 0.951588
1 4 5 1636.83 1658.05 o 0.951239
6 5 2 2093.79 2106.40 o 0.951184
-6 1 2 5105.12 5135.87 o 0.951151
5 7 2 34.32 34.64 o 0.950897
0 4 5 118.61 120.11 o 0.948868
-3 -8 3 4074.09 4114.15 o 0.948666
6 7 0 267.41 271.81 o 0.947465
5 -4 0 3248.28 3306.70 o 0.947329
-4 4 3 4760.78 4865.89 o 0.947206
1 -7 3 5682.52 5789.42 o 0.947117
3 -6 2 828.23 844.65 o 0.947090
2 -7 2 2432.62 2470.36 o 0.946493
-2 7 2 74.74 76.71 o 0.945903
-5 0 4 3016.28 3101.74 o 0.945753
5 -3 2 4049.01 4175.72 o 0.945397
-6 -7 1 854.53 882.07 o 0.945092
3 9 1 1625.77 1696.72 o 0.943883
-1 -8 3 50.91 53.37 o 0.943531
4 8 2 197.06 208.78 o 0.943383
6 -2 0 1439.68 1534.20 o 0.942830
3 1 5 90.15 95.12 o 0.942678
7 3 0 854.66 889.37 o 0.942212
-2 5 4 989.03 1031.12 o 0.941856
-2 -7 4 3909.96 3976.15 o 0.941149
1 9 1 2791.53 2781.47 o 0.940474
-3 4 4 2072.32 2063.28 o 0.940135
-7 -3 1 1108.56 1091.29 o 0.939585
-4 5 2 1720.77 1674.97 o 0.939279
5 8 1 1010.19 983.71 o 0.939110
-5 4 1 3049.19 2951.22 o 0.938586
4 9 0 1005.71 968.30 o 0.937836
-2 -5 5 2020.90 1941.70 o 0.937751
3 2 5 2005.71 1927.11 o 0.937726
-1 7 3 1548.86 1485.43 o 0.937334
-1 -5 5 6253.60 5995.66 o 0.936888
7 2 0 3854.96 3692.07 o 0.936643
-6 2 1 5355.24 5125.01 o 0.936534
2 -5 4 6997.08 6690.17 o 0.935963
7 4 0 3331.60 3186.29 o 0.935840
3 0 5 5905.82 5650.20 o 0.935675
-6 -5 3 5312.12 5096.96 o 0.934980
-2 3 5 1256.02 1210.86 o 0.934722
-4 -2 5 2892.08 2788.35 o 0.934014
3 6 4 566.05 545.77 o 0.933738
-7 -4 1 1794.73 1732.17 o 0.933698
-7 -2 1 1430.09 1386.63 o 0.933629
-4 -9 1 1336.11 1295.30 o 0.933505
4 7 3 159.33 154.46 o 0.933492
2 4 5 32.02 31.29 o 0.932193
-5 -5 4 5300.34 5214.67 o 0.931817
-5 -7 3 104.97 103.28 o 0.931817
-1 -7 4 1560.71 1547.20 o 0.931716
4 5 4 741.84 742.24 o 0.931305
-2 -9 2 3553.91 3538.54 o 0.930902
1 -6 4 6697.41 6785.78 o 0.930073
-3 -7 4 1608.12 1631.58 o 0.929619
-4 -1 5 1151.89 1169.81 o 0.929589
-5 -8 2 1722.20 1757.06 o 0.929222
1 -4 5 0.57 0.58 o 0.928357
5 -4 1 4002.12 4091.90 o 0.927623
4 -2 4 4789.25 4907.44 o 0.927481
-4 -3 5 3086.44 3119.10 o 0.926810
-3 -9 2 1938.67 1968.64 o 0.926557
-6 0 3 1847.05 1870.60 o 0.926092
-1 4 5 1527.29 1545.62 o 0.925545
0 9 0 2286.73 2309.58 o 0.925502
4 -5 2 154.52 156.00 o 0.924898
1 -8 2 3771.18 3751.84 o 0.923233
5 6 3 148.10 146.75 o 0.923156
4 -4 3 428.37 421.78 o 0.922827
5 -2 3 2580.17 2510.86 o 0.922445
6 7 1 380.89 365.91 o 0.921719
-3 2 5 47.22 44.87 o 0.921633
3 3 5 35.48 33.23 o 0.921367
6 -2 1 2832.66 2603.97 o 0.921170
-1 6 4 176.58 162.88 o 0.921084
-4 -8 3 2545.00 2354.31 o 0.919867
7 1 0 6.84 6.30 o 0.919748
3 -4 4 1991.82 1842.69 o 0.919576
2 -3 5 2202.12 2023.45 o 0.919160
2 8 3 2069.48 1900.25 o 0.918506
7 5 0 2123.76 1952.88 o 0.918229
-3 -5 5 5092.19 4699.05 o 0.918157
6 -1 2 1959.76 1811.50 o 0.918125
3 -1 5 284.69 263.94 o 0.917487
7 3 1 1582.52 1471.09 o 0.917152
-7 -5 1 450.58 419.04 o 0.916615
-7 -1 1 5894.32 5469.14 o 0.916484
-4 3 4 1501.55 1394.99 o 0.916280
0 -9 1 31.95 29.88 o 0.915836
0 -5 5 6.54 6.11 o 0.915733
6 6 2 0.74 0.69 o 0.915675
3 -7 0 3930.01 3677.40 o 0.915573
-1 8 2 166.26 155.44 o 0.915520
-6 -7 2 205.63 191.13 o 0.915210
-1 -9 2 961.06 894.11 o 0.915060
4 9 1 13.11 12.19 o 0.914743
1 8 3 491.75 464.01 o 0.914527
-4 0 5 3103.98 2911.37 o 0.914018
-5 1 4 47.28 45.01 o 0.913728
7 2 1 41.55 38.88 o 0.912418
5 2 4 904.06 844.71 o 0.911337
7 4 1 420.38 388.38 o 0.910870
0 -8 3 3718.86 3376.51 o 0.910572
-7 -3 2 1528.07 1381.87 o 0.909940
-4 -4 5 811.33 753.67 o 0.908757
6 2 3 947.84 888.73 o 0.908618
0 9 1 459.34 422.60 o 0.908567
6 3 3 257.20 240.41 o 0.907880
5 1 4 2787.81 2513.04 o 0.906242
-5 3 3 3208.09 2891.97 o 0.906171
5 3 4 563.91 510.79 o 0.905619
2 -8 0 2408.65 2165.66 o 0.905292
2 9 2 1335.45 1197.29 o 0.905107
-7 -4 2 1982.25 1770.83 o 0.904984
4 -6 0 3569.66 3192.24 o 0.904902
-7 -2 2 3195.93 2802.28 o 0.904133
-6 2 2 379.34 332.38 o 0.903874
-3 7 1 3.92 3.44 o 0.903848
-5 4 2 4538.13 3989.81 o 0.903617
-6 -6 3 947.19 835.36 o 0.903144
0 -7 4 2796.76 2468.54 o 0.903112
3 8 3 1148.96 1014.12 o 0.903089
-4 -9 2 261.10 230.89 o 0.902840
1 5 5 0.01 0.01 o 0.902413
3 -7 1 1217.43 1039.83 o 0.901493
-4 -7 4 434.11 368.40 o 0.899304
0 0 6 863.41 732.35 o 0.899242
-1 -1 6 142.20 120.61 o 0.899210
6 1 3 963.88 840.05 o 0.898711
1 7 4 3639.82 3231.59 o 0.898048
-1 0 6 3779.24 3376.56 o 0.897692
7 1 1 5049.25 4607.82 o 0.897163
6 4 3 2513.79 2364.10 o 0.896571
0 -1 6 5301.42 5001.86 o 0.896337
-5 -6 4 1972.11 1865.32 o 0.896252
2 7 4 547.99 518.10 o 0.896089
0 5 5 2049.13 1941.18 o 0.895963
3 9 2 77.99 74.02 o 0.895961
1 9 2 7.46 7.08 o 0.895583
3 4 5 1601.51 1540.76 o 0.895308
-4 6 1 90.69 87.64 o 0.895228
7 5 1 384.90 385.91 o 0.894226
2 -8 1 913.77 946.63 o 0.893315
7 0 0 2511.27 2601.59 o 0.893281
-2 8 1 232.46 246.62 o 0.892310
-6 1 3 53.04 56.58 o 0.891978
6 8 0 1429.42 1524.75 o 0.891975
0 8 3 151.19 161.30 o 0.891882
5 9 0 942.79 1005.85 o 0.891857
0 1 6 3332.55 3551.66 o 0.891774
7 6 0 2416.16 2576.00 o 0.891195
5 0 4 1898.59 2017.97 o 0.890863
-1 -2 6 6657.40 7126.03 o 0.890384
2 5 5 2472.17 2646.19 o 0.890383
-6 -8 1 853.71 912.46 o 0.890370
-7 -6 1 2461.21 2638.90 o 0.890095
3 -2 5 4712.85 5046.36 o 0.889982
-7 0 1 1071.04 1149.10 o 0.889915
-7 -5 2 3268.23 3498.08 o 0.889778
5 8 2 3231.67 3463.60 o 0.889742
5 4 4 629.10 674.25 o 0.889681
4 -6 1 305.10 327.00 o 0.889672
-5 -9 1 302.95 322.39 o 0.889376
loop_
_publcif_info_datablock.id
_publcif_info_datablock.publ_exptl
_publcif_info_datablock.publ_geom
_publcif_info_datablock.structure
{003af397-c932-4251-be26-5ed32edbd967} ? ? ?
{8383952a-e3c4-4c1d-b7b5-62f5ce8931d5} y y y
loop_
_publcif_info_exptl_table_header_item
y
loop_
_publcif_info_tables.block_id
_publcif_info_tables.reference_item
{003af397-c932-4251-be26-5ed32edbd967} '_publcif_info_datablock.publ_exptl'
{8383952a-e3c4-4c1d-b7b5-62f5ce8931d5} '_geom_bond_atom_site_label_1'
{003af397-c932-4251-be26-5ed32edbd967} '_geom_extra_table_headB'
{003af397-c932-4251-be26-5ed32edbd967} '_geom_extra_table_headA'
loop_
_publcif_info_cif.paper_type
EE
