#------------------------------------------------------------------------------
#$Date: 2019-12-26 20:55:13 +0200 (Thu, 26 Dec 2019) $
#$Revision: 246091 $
#$URL: file:///home/coder/svn-repositories/cod/cif/2/31/17/2311704.cif $
#------------------------------------------------------------------------------
#
# This file is available in the Crystallography Open Database (COD),
# http://www.crystallography.net/. The original data for this entry
# were provided by IUCr Journals, http://journals.iucr.org/.
#
# The file may be used within the scientific community so long as
# proper attribution is given to the journal article from which the
# data were obtained.
#
data_2311704
loop_
_publ_author_name
'Huband, S.'
'Keeble, D. S.'
'Zhang, N.'
'Glazer, A. M.'
'Bartasyte, A.'
'Thomas, P. A.'
_publ_section_title
;
 Crystallographic and optical study of
 LiNb<sub>1&#x2005;-&#x2005;x</sub>Ta<sub>x</sub>O<sub>3</sub>.
;
_journal_coeditor_code           BP5094
_journal_issue                   'Pt 3'
_journal_name_full
'Acta crystallographica Section B, Structural science, crystal engineering and materials'
_journal_page_first              498
_journal_page_last               506
_journal_paper_doi               10.1107/S2052520617004711
_journal_volume                  73
_journal_year                    2017
_chemical_formula_moiety         'Li Nb O3'
_chemical_formula_sum            'Li Nb O3'
_chemical_formula_weight         147.85
_chemical_name_common            'lithium niobate'
_chemical_name_systematic        'lithium niobate'
_space_group_crystal_system      trigonal
_space_group_IT_number           161
_space_group_name_Hall           'R 3 -2"c'
_space_group_name_H-M_alt        'R 3 c :H'
_atom_sites_solution_primary     other
_atom_sites_solution_secondary   other
_audit_creation_method
;
Olex2 1.2
(compiled 2016.09.09 svn.r3337 for OlexSys, GUI svn.r5227)
Dolomanov, O.V., Bourhis, L.J., Gildea, R.J, Howard, J.A.K. & Puschmann, H.
 (2009), J. Appl. Cryst. 42, 339-341.
Sheldrick, G.M. (2015). Acta Cryst. C71, 3-8.
;
_cell_angle_alpha                90
_cell_angle_beta                 90
_cell_angle_gamma                120
_cell_formula_units_Z            6
_cell_length_a                   5.1460(10)
_cell_length_b                   5.1460(10)
_cell_length_c                   13.859(5)
_cell_measurement_reflns_used    3603
_cell_measurement_temperature    293(2)
_cell_measurement_theta_max      37.2740
_cell_measurement_theta_min      4.3810
_cell_volume                     317.84(14)
_computing_cell_refinement       'CrysAlisPro 1.171.38.43d (Rigaku OD, 2015)'
_computing_data_collection       'CrysAlisPro 1.171.38.43d (Rigaku OD, 2015)'
_computing_data_reduction        'CrysAlisPro 1.171.38.43d (Rigaku OD, 2015)'
_computing_molecular_graphics    'Olex2 (Dolomanov et al., 2009)'
_computing_publication_material  'Olex2 (Dolomanov et al., 2009)'
_computing_structure_refinement  'ShelXL (Sheldrick, 2015)'
_diffrn_ambient_temperature      293(2)
_diffrn_detector_area_resol_mean 10.2833
_diffrn_measured_fraction_theta_full 1.000
_diffrn_measured_fraction_theta_max 0.995
_diffrn_measurement_device       'four-circle diffractometer'
_diffrn_measurement_device_type  'Xcalibur, Ruby, Gemini'
_diffrn_measurement_method       '\w scans'
_diffrn_radiation_monochromator  graphite
_diffrn_radiation_type           MoK\a
_diffrn_radiation_wavelength     0.71073
_diffrn_reflns_av_R_equivalents  0.0553
_diffrn_reflns_limit_h_max       8
_diffrn_reflns_limit_h_min       -8
_diffrn_reflns_limit_k_max       8
_diffrn_reflns_limit_k_min       -8
_diffrn_reflns_limit_l_max       23
_diffrn_reflns_limit_l_min       -23
_diffrn_reflns_number            3994
_diffrn_reflns_theta_full        25.242
_diffrn_reflns_theta_max         37.626
_diffrn_reflns_theta_min         5.440
_exptl_absorpt_coefficient_mu    5.342
_exptl_absorpt_correction_T_max  0.432
_exptl_absorpt_correction_T_min  0.333
_exptl_absorpt_correction_type   analytical
_exptl_absorpt_process_details
;
CrysAlisPro 1.171.38.43d (Rigaku Oxford Diffraction, 2015)
Analytical numeric absorption correction using a multifaceted crystal
   model based on expressions derived by R.C. Clark & J.S. Reid.
(Clark, R. C. & Reid, J. S. (1995). Acta Cryst. A51, 887-897)
Empirical absorption correction using spherical harmonics,
 implemented in SCALE3 ABSPACK scaling algorithm.
;
_exptl_crystal_colour            'clear green'
_exptl_crystal_density_diffrn    4.635
_exptl_crystal_description       block
_exptl_crystal_F_000             408
_exptl_crystal_size_max          0.266
_exptl_crystal_size_mid          0.242
_exptl_crystal_size_min          0.217
_refine_diff_density_max         0.434
_refine_diff_density_min         -1.131
_refine_ls_abs_structure_details
;
 Classical Flack method preferred over Parsons because s.u. lower.
;
_refine_ls_abs_structure_Flack   -0.2(3)
_refine_ls_extinction_coef       0.251(13)
_refine_ls_extinction_expression Fc^*^=kFc[1+0.001xFc^2^\l^3^/sin(2\q)]^-1/4^
_refine_ls_extinction_method     'SHELXL-2014/7 (Sheldrick 2014'
_refine_ls_goodness_of_fit_ref   1.144
_refine_ls_hydrogen_treatment    undef
_refine_ls_matrix_type           full
_refine_ls_number_parameters     17
_refine_ls_number_reflns         378
_refine_ls_number_restraints     1
_refine_ls_restrained_S_all      1.142
_refine_ls_R_factor_all          0.0211
_refine_ls_R_factor_gt           0.0210
_refine_ls_shift/su_max          0.000
_refine_ls_shift/su_mean         0.000
_refine_ls_structure_factor_coef Fsqd
_refine_ls_weighting_details
'w=1/[\s^2^(Fo^2^)+(0.0358P)^2^] where P=(Fo^2^+2Fc^2^)/3'
_refine_ls_weighting_scheme      calc
_refine_ls_wR_factor_gt          0.0482
_refine_ls_wR_factor_ref         0.0483
_reflns_number_gt                375
_reflns_number_total             378
_reflns_threshold_expression     'I > 2\s(I)'
_cod_data_source_file            bp5094sup1.cif
_cod_data_source_block           LNT0
_cod_depositor_comments
;
The following automatic conversions were performed:

data item '_atom_sites_solution_primary' value 'Other' was changed to
'other' in accordance with the
/home/saulius/struct/COD-crude-data/automatic-downloads/DataCite-retrospective/IUCr/depositions/lib/dictionaries/cif_core.dic
dictionary named 'cif_core.dic' version 2.4.2 last updated on
2011-04-26.

data item '_atom_sites_solution_secondary' value 'Other' was changed
to 'other' in accordance with the
/home/saulius/struct/COD-crude-data/automatic-downloads/DataCite-retrospective/IUCr/depositions/lib/dictionaries/cif_core.dic
dictionary named 'cif_core.dic' version 2.4.2 last updated on
2011-04-26.

Automatic conversion script
Id: cif_fix_values 7556 2019-12-06 15:28:31Z antanas 
;
_cod_original_cell_volume        317.84(17)
_cod_original_sg_symbol_H-M      'R 3 c'
_cod_database_code               2311704
_shelx_space_group_comment
;
The symmetry employed for this shelxl refinement is uniquely defined
by the following loop, which should always be used as a source of
symmetry information in preference to the above space-group names.
They are only intended as comments.
;
_shelx_hkl_file
;
   0   0 -21 147.544 176.828   5
   0   0 -21 94.7654 156.924  11
   0   0 -18 547371. 9255.77   5
   0   0 -18 571789. 9412.84  11
   0   0 -15 53.8054 58.4933   6
   0   0 -15 146.752 117.367   1
   0   0 -12 604496. 5783.30   6
   0   0 -12 591724. 7572.99   1
   0   0  -9 52.6180 35.6399   4
   0   0  -9 225.300 94.3710   6
   0   0  -6 427209. 4325.92   1
   0   0  -6 435962. 3446.43   6
   0   0  -3 376.425 81.1111   9
   0   0  -3 319.571 78.6280   1
   0   0   3 73.4272 19.1224   2
   0   0   3 72.0630 31.0073  10
   0   0   3 130.833 54.1536   7
   0   0   6 359140. 3452.03   9
   0   0   6 361062. 3457.97   7
   0   0   9 33.3475 48.5230   7
   0   0   9 87.5422 65.9219  10
   0   0   9 183.767 99.2629   9
   0   0   9 72.0380 31.3112   2
   0   0   9 76.9363 42.0739  13
   0   0  12 566356. 5737.60  12
   0   0  12 577607. 3125.98  13
   0   0  12 578262. 6624.48   7
   0   0  15 24.2900 32.0607   9
   0   0  15 19.8253 50.5269  12
   0   0  15 102.112 90.0832   7
   0   0  18 482929. 7955.07   7
   0   0  18 474086. 6867.11  12
   0   0  18 487506. 7731.03   9
   0   0  21 93.1766 144.000   7
   0   0  21 168.635 142.538  12
   0   0  21 62.1458 105.070   9
   1  -1 -22 240908. 7065.65   5
   0   1 -22 256803. 7072.40  11
   1  -1 -22 255431. 7093.06  11
   0   1 -22 259869. 7323.61   5
  -1   0 -22 257829. 7402.46   5
   0   1 -19 136.991 124.441  11
  -1   0 -19 35.3867 82.2957   1
   1  -1 -19 18.7920 16.5475   6
   0   1 -19 48.0566 41.9380   5
   1  -1 -19 59.5320 120.557  11
   0   1 -16 457936. 7921.60   5
   1  -1 -16 441821. 7512.08  11
   1  -1 -16 443012. 6666.48   6
   0   1 -16 461115. 5462.13   6
   0   1 -16 450167. 7447.51  11
   1  -1 -16 444787. 7910.48   1
   1  -1 -13 37.2150 85.0195   1
  -1   0 -13-18.1456 57.9724   1
  -1   0 -13 334.645 124.837   6
   0   1 -13 15.6445 38.5418   6
   1  -1 -13 372.233 169.733   6
   0   1 -13 0.62273 7.17979   5
   1  -1 -10 618527. 6795.70   1
   0   1 -10 658038. 7200.27   5
   0   1 -10 691001. 5423.44   6
   0   1 -10 597088. 3821.65   2
  -1   0 -10 599594. 4840.15   6
  -1   0 -10 579023. 6893.39   1
   1  -1 -10 645935. 6530.09   6
   0   1  -7 72.4427 42.5069   2
   0   1  -7 182.637 106.672   5
   0   1  -7 27.3422 15.1195   4
   0   1  -7 87.6094 50.1593   6
   1  -1  -7 34.2663 51.6308   6
   1  -1  -4 660022. 4463.84  11
  -1   0  -4 581811. 2298.37   2
   1  -1  -4 661756. 2560.89  13
   1  -1  -4 635360. 3668.44   4
   0   1  -4 703144. 2962.49   4
   1  -1  -4 597616. 4128.17   1
   1  -1  -4 590414. 4758.62   6
   0   1  -4 655249. 3618.60   6
   0   1  -4 649442. 3470.37   2
   0   1  -4 711776. 5228.42   5
  -1   0  -4 583583. 4513.47   1
   0   1  -4 740666. 4125.34  11
   0   1  -4 709362. 2970.52  10
   1  -1  -1 160.041 72.1781   3
  -1   0  -1 111.889 39.3050   9
  -1   0  -1 76.4920 36.9573   1
   0   1  -1 287.542 49.5284  11
   0   1  -1 24.5362 21.0188   5
   0   1  -1 45.3657 28.0697   4
  -1   0  -1 97.5954 36.1735   6
   1  -1  -1 44.4819 27.6075   9
   1  -1  -1 87.9363 33.7394  11
   1  -1  -1 59.3792 29.3128   1
   0   1  -1 237.185 67.6232   2
   0   1   2 474418. 3105.11  10
   1  -1   2 525659. 3255.15   3
  -1   0   2 555847. 2778.60   5
   1  -1   2 561217. 3320.39  12
   0   1   2 455296. 2111.44   7
  -1   0   2 593090. 2925.89  10
   0   1   2 483343. 3299.85   4
  -1   0   5 19.7873 26.2363   7
  -1   0   5 35.2786 28.8819  13
  -1   0   5 89.8177 51.4453  10
   0   1   5 178.027 77.5753  10
   0   1   5 26.0249 34.0703   7
   1  -1   5 124.199 55.6739  12
   1  -1   5 295.397 97.9488   7
   1  -1   5 205.035 61.2757   3
  -1   0   8 621932. 5664.03   7
   1  -1   8 541904. 3737.34   3
   1  -1   8 554259. 5510.72   9
   1  -1   8 565149. 4423.42  12
  -1   0   8 661260. 4891.13   9
   0   1   8 524081. 4806.22   7
   1  -1   8 572766. 5436.73   7
  -1   0   8 643912. 5137.64  10
   0   1   8 559113. 5590.40   9
   0   1   8 536561. 5359.51  10
   1  -1  11 97.2845 67.0275   3
   1  -1  11 82.7740 107.108   9
   1  -1  11 46.2198 64.5981   7
   0   1  11 79.9196 85.0283   9
   1  -1  11 113.533 78.3612  12
  -1   0  11 440.372 187.851   7
  -1   0  11 364.374 143.695   9
   0   1  11 48.7262 52.5785   7
   1  -1  11 24.4478 62.4215  13
  -1   0  11 108.317 81.5071  10
  -1   0  14 481632. 5989.46   9
  -1   0  14 469226. 6208.61  12
   1  -1  14 490812. 6933.01   7
   1  -1  14 531786. 5178.46  13
   1  -1  14 459612. 5532.24  12
   1  -1  14 478524. 6721.88   9
   0   1  14 444417. 6350.12   7
  -1   0  14 488552. 6914.30   7
  -1   0  14 503911. 6242.44  10
   0   1  14 473262. 6678.19   9
   1  -1  14 481485. 4784.82   3
   0   1  17 22.0082 43.5481   9
   1  -1  17 189.350 155.379   7
   0   1  17 36.0914 44.7783  12
   1  -1  17 201.165 177.553   9
  -1   0  17 175.349 128.390   9
  -1   0  17 108.055 133.997   7
   0   1  17 388.798 220.598   7
   1  -1  17 26.4794 52.5194  12
   0   1  20 293455. 6650.09   9
  -1   0  20 298491. 6828.60   7
   1  -1  20 291480. 6551.64   9
  -1   0  20 284531. 5901.31   9
   0   1  20 299752. 6650.65   7
   1  -1  20 296872. 6856.98   7
  -1   0  20 279981. 5991.70  12
   0   1  23 93.8139 148.671   7
   1  -1  23 9.21680 131.374   9
  -1   0  23 105.598 142.172  12
   0   1  23 20.2063 121.956   9
  -1   1 -23 75.3310 169.713  11
   1   0 -23 65.2569 89.0064   5
   1   0 -20 352540. 7935.44   5
   0  -1 -20 354298. 8431.38   1
  -1   1 -20 337202. 7802.44  11
  -1   1 -20 338368. 7984.92   5
   1   0 -20 331035. 7661.45  11
   1   0 -17 169.287 140.411  11
   0  -1 -17 258.989 166.421   6
   0  -1 -17 6.13645 95.0148   1
  -1   1 -17 280.788 221.943   5
   1   0 -17 508.130 214.894   6
   1   0 -17 27.8307 91.9848   5
   0  -1 -14 520370. 6456.88   6
   1   0 -14 547329. 6548.07   6
  -1   1 -14 503790. 7568.07   5
  -1   1 -14 534262. 4490.61   6
   1   0 -14 558207. 7656.76   5
  -1   1 -14 560129. 4822.68   4
   0  -1 -14 502555. 7886.82   1
   1   0 -14 554287. 7527.33  11
  -1   1 -11 200.233 78.2866   6
  -1   1 -11 79.5956 67.0186   4
   0  -1 -11 44.5629 78.6977   6
  -1   1 -11 93.1982 81.5354   1
   1   0 -11 312.081 144.280   6
   1   0 -11 85.9955 92.2923  11
  -1   1  -8 569739. 4341.90   4
   1   0  -8 753320. 6389.02  11
   0  -1  -8 571594. 6277.92   1
  -1   1  -8 576882. 6047.75   1
  -1   1  -8 589076. 3209.38   6
   1   0  -8 713372. 5889.12   6
  -1   1  -5 73.6455 51.2775   1
   1   0  -5 133.132 58.2438   2
  -1   1  -5 33.3411 49.8256   5
  -1   1  -5 65.9933 30.3977   2
   0  -1  -5 77.9795 29.4156  13
   1   0  -5 134.772 53.0588   9
  -1   1  -5 137.283 65.5569   4
   1   0  -5 66.7292 54.4274  11
   1   0  -5 99.0501 58.1385   6
  -1   1  -5 185.700 34.7847   6
   1   0  -2 770763. 3433.25   5
  -1   1  -2 598576. 3447.56  12
  -1   1  -2 591013. 3375.29   3
   1   0  -2 703205. 3439.79  13
   0  -1  -2 543090. 3894.13   1
   1   0  -2 708728. 3855.87  11
   1   0  -2 687031. 3958.96   6
   0  -1   1 107.999 46.2591  12
   1   0   1 32.7218 25.7336  13
  -1   1   1 421.159 75.9415  11
   0  -1   1 430.664 67.0500   7
  -1   1   1 90.3370 36.6751   4
   1   0   1 51.5661 24.9931   6
   0  -1   1 218.129 43.0932  11
  -1   1   1 555.403 101.368  10
   1   0   1 41.5548 24.6955   2
  -1   1   4 554680. 4142.77  10
   1   0   4 528000. 3459.11  13
   1   0   4 506337. 1978.47  12
  -1   1   4 564758. 3156.52   8
   0  -1   4 560375. 3651.35   3
   1   0   4 520693. 3486.40   7
   0  -1   4 582344. 3920.40  12
  -1   1   4 539278. 3341.89   4
  -1   1   4 529682. 3683.40   9
   0  -1   4 567791. 3811.51   7
   0  -1   4 569017. 2656.36   4
  -1   1   7 83.6407 70.0642   7
   1   0   7 76.7538 36.2765   3
   1   0   7 103.262 58.5826   7
  -1   1   7 119.273 75.2218   9
   0  -1   7 327.023 115.026   9
  -1   1   7 99.7897 61.1610  10
   1   0   7 245.684 77.9754  13
   0  -1   7 245.039 106.097   7
  -1   1   7 160.524 59.7176   4
   1   0   7 76.7687 36.2120  12
   0  -1   7 34.1141 38.2293  12
   1   0  10 566758. 6270.86   9
  -1   1  10 592452. 6117.26   7
   1   0  10 577559. 4202.06  13
   1   0  10 555472. 5751.60   7
   0  -1  10 631898. 5980.99   9
   0  -1  10 630131. 5878.09  12
   0  -1  10 632857. 6341.08   7
  -1   1  10 623625. 6283.24  10
   1   0  10 543209. 4334.96  12
  -1   1  10 625440. 5998.35   9
  -1   1  13 31.4223 60.4951   9
  -1   1  13 98.3236 92.4959  10
   1   0  13 204.880 138.335   9
   1   0  13 422.743 154.613  12
   1   0  13 140.088 59.3758  13
   0  -1  13 97.6089 94.4977   9
   0  -1  13 282.933 155.262  12
   0  -1  13 12.4970 21.3495   7
   1   0  13 88.5743 89.9430   7
  -1   1  13-11.5892 66.1288   7
   0  -1  16 385351. 6624.85   7
  -1   1  16 374695. 6349.13  10
   0  -1  16 385827. 5412.15   3
  -1   1  16 381533. 6229.80   9
   1   0  16 393901. 5262.63  12
   1   0  16 383044. 6660.87   9
  -1   1  16 391518. 6654.99   7
   1   0  16 382110. 6576.28   7
   0  -1  16 393862. 6233.02   9
   0  -1  16 378208. 5995.44  12
   1   0  19 32.4610 58.4579   9
   0  -1  19 73.8913 111.654   7
   0  -1  19 270.988 197.411  12
  -1   1  19 26.1601 23.8973   9
  -1   1  19 34.2580 67.2904   7
  -1   1  19-9.02958 66.6060  12
   0  -1  19 17.5645 50.2038   9
   1   0  22 227009. 6247.43   9
   1   0  22 228058. 6232.94   7
   0  -1  22 232297. 6548.13   7
  -1   1  22 235091. 6332.45   7
  -1   1  22 214349. 5350.82  12
   0  -1  22 215439. 5455.11  12
   0  -1  22 213108. 5684.64   9
  -1   1  22 205252. 5580.54   9
   2  -2 -20 247154. 6639.74  11
   2  -2 -20 244020. 6106.10   6
  -2   0 -20 248218. 7181.87   1
   0   2 -20 235689. 6160.61  11
   2  -2 -17 44.0042 114.147   6
   2  -2 -17 39.5380 37.1686  11
  -2   0 -17-34.9238 81.7682   1
   0   2 -17 54.7741 64.0852  11
   2  -2 -14 529207. 7864.50   1
   0   2 -14 550869. 5724.05   6
   0   2 -14 624657. 9015.15   5
   2  -2 -14 534039. 7706.24   6
   0   2 -14 579854. 7519.51  11
  -2   0 -14 465905. 6343.06   4
   2  -2 -14 540006. 7677.71  11
  -2   0 -14 455080. 7742.01   1
   0   2 -14 524051. 4726.69   2
   2  -2 -11 28.1085 60.4051   1
   0   2 -11 45.3868 49.0868   2
   0   2 -11 28.3010 23.0036  11
  -2   0 -11 123.730 108.825   1
   0   2 -11 119.079 120.293   5
   2  -2 -11 38.1661 28.9897  11
   0   2 -11 136.083 85.9883   6
   0   2  -8 761386. 7333.60   5
   2  -2  -8 731990. 6708.84  11
  -2   0  -8 620025. 6821.49   1
   2  -2  -8 657505. 7173.47   6
   0   2  -8 760306. 4076.37   4
   0   2  -8 706444. 5379.43   6
   2  -2  -8 631311. 6098.05   1
   0   2  -8 769189. 6090.00  11
   2  -2  -8 690611. 3149.89  13
   0   2  -8 697230. 5221.98   2
   0   2  -5 100.706 66.1033   2
  -2   0  -5 115.172 78.3431   1
   2  -2  -5 65.7361 37.1118  13
   2  -2  -5 25.6367 56.0619   6
   0   2  -5 273.445 55.2466  10
   0   2  -5 186.780 98.5169   5
   0   2  -5 80.5949 40.1680   4
   0   2  -5 166.373 76.3430   6
   2  -2  -5 211.798 74.9769   8
   2  -2  -2 478012. 3044.72   1
  -2   0  -2 460886. 4058.43   1
   0   2  -2 530545. 4485.33   2
   2  -2  -2 467028. 4829.90   3
   0   2  -2 532625. 4278.30   4
   2  -2  -2 455275. 4189.56  13
   0   2  -2 525779. 2192.32  10
   2  -2  -2 449095. 3427.59  11
   0   2  -2 513506. 4429.38   5
  -2   0   1 47.9174 27.9618   5
   0   2   1 40.4245 37.7121  10
   2  -2   1 68.5652 65.3036   3
   2  -2   4 752611. 5515.44  12
   0   2   4 583889. 4870.01  10
  -2   0   4 807338. 4713.07  10
  -2   0   4 838648. 4824.61   4
  -2   0   4 769052. 5496.76   7
   2  -2   4 719738. 5515.02   3
   2  -2   7 274.455 108.142   3
  -2   0   7 149.883 56.9641   9
   2  -2   7 260.775 111.636  12
   0   2   7 18.5705 51.1466  10
  -2   0   7 75.1083 61.2510   7
   0   2   7 207.496 84.6116   7
  -2   0   7 115.196 68.5844  10
   2  -2  10 515151. 4726.24   3
  -2   0  10 527172. 6200.46   7
  -2   0  10 557141. 4571.41   9
   0   2  10 441521. 4904.95   7
   2  -2  10 496789. 5866.41  13
   2  -2  10 491112. 5133.72  12
   0   2  10 462776. 6246.87   9
  -2   0  10 560945. 5521.78  10
   0   2  10 451790. 5962.41  10
   2  -2  10 485869. 6460.74   9
   0   2  13 56.7082 65.9254  10
  -2   0  13 54.4008 68.9315  10
   2  -2  13 463.722 196.699  13
   0   2  13 115.564 100.965   9
   0   2  13 82.9603 56.5426   2
  -2   0  13 149.153 94.1343   9
  -2   0  13 45.2845 32.1039   7
   2  -2  13 161.916 103.074  12
   2  -2  13 161.432 136.181   9
   0   2  13 36.3336 79.7157   7
   2  -2  16 348237. 6735.01   9
  -2   0  16 331650. 6002.87  12
   2  -2  16 353351. 5508.34  12
   0   2  16 333785. 5852.09   7
   0   2  16 337872. 6711.81   9
  -2   0  16 344733. 6541.39   7
  -2   0  16 379043. 5736.00  10
  -2   0  16 362442. 5309.60   9
   2  -2  16 394515. 5602.67  13
  -2   0  19 119.050 130.431  12
  -2   0  19 301.901 206.491   7
   2  -2  19 84.6376 86.1696   9
  -2   0  22 261986. 6905.31   7
   2  -2  22 261878. 6828.92   9
   0   2  22 268010. 6956.16   9
   0   2  22 265402. 6536.29   7
  -2   0  22 258042. 6419.90  12
   1   1 -21 19528.9 1994.68   5
  -1   2 -21 21089.7 2131.73   5
   2  -1 -21 18538.5 1597.10   6
   1   1 -21 16427.6 1681.64  11
  -2   1 -21 19544.8 2001.36   5
   2  -1 -21 18933.6 1887.06   5
   1  -2 -21 20217.2 2100.66   1
  -1  -1 -21 21361.2 2189.93   1
   2  -1 -21 17393.5 1804.05  11
   1  -2 -21 17514.5 1797.19  11
  -1   2 -21 17431.1 1724.21  11
   1   1 -18 340714. 5613.03   6
  -2   1 -18 316593. 7227.97   5
   1  -2 -18 337430. 7647.82   1
   2  -1 -18 337231. 7097.92   5
  -1   2 -18 330279. 6815.87  11
  -1   2 -18 331323. 7397.19   5
   1   1 -18 342545. 7317.77   5
   1  -2 -18 314962. 7069.24  11
   1  -2 -18 326335. 6498.28   6
  -1  -1 -18 313077. 7566.38   1
   2  -1 -18 328115. 7155.55  11
   2  -1 -18 323290. 6394.71   6
   1   1 -18 322061. 6830.24  11
  -2   1 -15 41774.4 2381.94   1
  -2   1 -15 41816.2 1759.83   4
   1   1 -15 37635.0 1733.49   6
   1  -2 -15 42159.3 2187.75   6
   1   1 -15 39300.0 2207.52   5
  -1   2 -15 39825.9 2304.73   5
   2  -1 -15 38345.8 2144.63  11
  -1  -1 -15 45294.8 1906.34   6
   2  -1 -15 39266.7 2046.35   6
  -1  -1 -15 41376.6 2443.96   1
   1  -2 -15 42016.4 2416.06   1
   1   1 -15 38304.6 2078.62  11
   1  -2 -12 523204. 7160.88   6
  -1   2 -12 586874. 4530.41   4
  -1   2 -12 544176. 7448.76   5
   2  -1 -12 599547. 7480.09  11
   1   1 -12 597216. 7502.43   5
  -2   1 -12 471898. 6961.36   1
   1   1 -12 612415. 7208.72  11
  -1  -1 -12 470748. 7288.32   1
   2  -1 -12 565548. 7049.36   6
  -1   2 -12 517122. 4024.24   6
  -2   1 -12 464231. 5588.20   4
   1   1 -12 578398. 6236.07   6
   1   1 -12 514563. 4893.63   2
  -1   2 -12 493976. 3348.84   2
   1  -2 -12 498980. 7246.53   1
  -1   2  -9 95001.9 1500.75   6
   1  -2  -9 110802. 2996.04   1
   2  -1  -9 115041. 2839.96  11
  -1   2  -9 113888. 2046.69   4
   2  -1  -9 120967. 1686.79   4
  -1  -1  -9 112800. 3142.20   1
   1   1  -9 109751. 2454.58   6
  -2   1  -9 102415. 2429.35   4
  -2   1  -9 105839. 2773.42   1
   2  -1  -9 111578. 2798.67   6
   1   1  -9 115716. 2868.62   5
  -1   2  -9 116102. 3023.41   5
  -1   2  -9 105297. 1650.35   2
   1   1  -9 102557. 2043.34   2
   1   1  -9 113528. 2649.07  11
   2  -1  -6 823589. 6730.84   6
   1   1  -6 884313. 6159.93   6
   1  -2  -6 686795. 6063.65   3
  -2   1  -6 651841. 5710.56   1
  -1   2  -6 770186. 4841.27   2
  -2   1  -6 604735. 5533.29   4
   2  -1  -6 905016. 6604.24  11
   1   1  -6 920060. 6251.78  11
   2  -1  -6 860096. 4527.60  13
  -1   2  -6 761934. 6734.94   5
   1   1  -6 840976. 5457.29   2
   1  -2  -6 664403. 6203.87   1
   1   1  -6 913021. 6669.88   5
  -1  -1  -6 653633. 6473.33   1
  -1   2  -6 738378. 5050.74   4
  -1  -1  -3 228373. 1530.67   7
   2  -1  -3 245328. 2936.68   8
  -1  -1  -3 218688. 2261.95   3
   1   1  -3 268394. 2850.97   5
  -2   1  -3 258152. 2451.29   3
  -1  -1  -3 228403. 3185.27   1
   1   1  -3 268804. 2834.33   2
   1   1  -3 278329. 2901.94  11
   1  -2  -3 224508. 3296.10   3
   2  -1  -3 269549. 2794.88  13
  -2   1  -3 267224. 2326.90  12
   2  -1  -3 270338. 3307.89   6
  -2   1  -3 266959. 2624.80   1
  -2   1  -3 246220. 3223.00   4
  -2   1  -3 271460. 1951.46   6
   2  -1  -3 278013. 2227.74   9
   1   1  -3 274113. 3011.05   6
  -1   2  -3 230028. 2947.90   5
  -1   2  -3 229299. 2785.11   4
   2  -1  -3 264983. 2994.00  11
   1  -2  -3 235751. 3041.64   1
  -1   2   0 384571. 3102.43  10
   1   1   0 514315. 3724.33   2
  -1   2   0 403220. 3754.56   4
  -1  -1   0 461550. 1987.63   7
  -2   1   0 437500. 4015.29   4
   1   1   0 510662. 3698.59   8
  -1  -1   0 468104. 3028.15   9
   1   1   0 539994. 3201.12   9
   1  -2   0 419502. 4241.20   3
  -1  -1   0 449574. 2996.33  12
   1   1   0 520043. 3897.00  13
   2  -1   0 510875. 3688.58   6
   1   1   0 478418. 3637.86   6
  -1  -1   0 459522. 3361.89   3
   2  -1   0 520725. 4187.51  13
  -2   1   3 269090. 2875.50   4
  -1   2   3 194874. 2679.65  10
   1   1   3 225291. 2540.43  13
   2  -1   3 245390. 2141.82   3
   1   1   3 224377. 1979.31   3
   2  -1   3 213021. 1551.71   6
   2  -1   3 241049. 3101.23  13
  -1   2   3 199536. 2827.40   4
   1   1   3 221851. 1641.21  12
   1   1   3 218727. 2328.56   2
   1  -2   3 252843. 3089.39   3
   1   1   3 228990. 2808.29   9
   1  -2   3 249173. 3057.98  12
   1   1   3 233664. 2465.99   8
  -2   1   3 305967. 2319.73   1
  -1  -1   3 279004. 2926.36  12
  -1  -1   3 273011. 2517.90   7
  -1  -1   3 264922. 1432.90  10
   2  -1   3 232777. 2946.68   9
  -1   2   6 605755. 5470.32   9
   1  -2   6 696106. 5251.09   3
   1  -2   6 697583. 5482.14  12
  -1  -1   6 786907. 5640.12   7
   1   1   6 581498. 3658.02   2
  -2   1   6 746829. 4524.04   9
  -1   2   6 577759. 4944.08   7
  -1  -1   6 838692. 4685.38   9
  -1   2   6 620379. 5173.09   4
  -2   1   6 743005. 4429.63   4
   1   1   6 554918. 4008.68  13
  -1   2   6 640438. 5920.82  10
  -1  -1   6 772358. 5798.01  12
   2  -1   6 644584. 3010.96   3
   1  -2   6 687136. 5582.44   7
   1   1   6 629616. 3389.61   3
  -2   1   6 730482. 6051.05   7
   2  -1   6 635549. 5433.12  13
   1   1   6 583784. 4156.04   7
   2  -1   6 704043. 4142.55  12
  -1  -1   6 777665. 3684.22  10
  -2   1   6 772552. 5805.63  10
   2  -1   9 103529. 2718.54   9
   1  -2   9 102739. 2573.21   7
   1   1   9 104465. 1610.97   3
  -2   1   9 107064. 2174.28   9
  -1  -1   9 101426. 1832.85  10
  -1   2   9 106901. 2755.05  10
   1   1   9 105805. 2775.96   9
   1   1   9 96153.6 2146.31   7
  -2   1   9 119428. 1649.85  13
   1   1   9 93681.1 1300.60   2
  -1   2   9 108067. 2693.75   9
  -1   2   9 110777. 1510.34   8
   1  -2   9 111488. 2766.51   9
  -2   1   9 105658. 2692.23   7
   1  -2   9 101335. 2151.48   3
   2  -1   9 99739.4 1808.80  12
   1  -2   9 102804. 2365.38  12
   2  -1   9 104714. 2346.06  13
   1   1   9 99195.4 1671.77  13
  -1   2   9 107067. 2471.46   7
  -1  -1   9 102217. 2470.69  12
  -1  -1   9 105018. 2505.11   7
  -2   1   9 106219. 1504.43   4
  -1  -1   9 112034. 2129.41   9
   2  -1   9 100269. 1284.77   3
  -2   1   9 112634. 2630.14  10
   2  -1  12 475058. 3196.32   3
  -1  -1  12 490166. 6159.41  12
  -1   2  12 466337. 6430.64  10
  -2   1  12 509104. 5627.97   9
   2  -1  12 460297. 6603.81   9
   1   1  12 425639. 5474.74   7
  -1   2  12 460057. 5909.25   7
   1   1  12 418136. 3012.26  13
   1  -2  12 478210. 5780.58  12
   1  -2  12 501208. 6539.66   9
  -1  -1  12 503064. 6469.18   7
  -1   2  12 472890. 6414.37   9
  -1  -1  12 497029. 5314.42   9
   1  -2  12 490655. 6497.76   7
   2  -1  12 463663. 4599.18  12
   2  -1  12 427389. 5028.68  13
   1  -2  12 467713. 5193.54   3
  -2   1  12 512425. 6279.28  10
   1   1  12 459583. 6603.13   9
  -2   1  12 481688. 6447.19   7
  -1  -1  15 35529.0 1972.05   7
   1   1  15 37780.9 1925.31   7
  -2   1  15 36381.6 1865.91  10
   1  -2  15 35083.3 1780.92  12
   1  -2  15 42287.8 1777.29  13
   1  -2  15 37717.5 1630.16   3
  -1  -1  15 34553.7 1850.53  12
  -1   2  15 36205.6 1900.83   7
  -1   2  15 37810.8 2040.70   9
   1   1  15 37906.0 2091.07   9
   2  -1  15 39738.4 1561.51  12
   2  -1  15 36986.5 2046.29   9
   2  -1  15 43487.1 1623.50  13
  -2   1  15 35914.6 1734.61   9
   1  -2  15 37719.3 2055.93   7
  -2   1  15 34355.9 1950.93   7
  -1   2  15 37026.0 2056.66  10
   1  -2  15 38472.2 2055.45   9
  -1  -1  15 35736.1 1680.96   9
   1   1  15 38244.9 1439.99  12
   1  -2  18 287445. 6009.22   9
   1  -2  18 293173. 5685.91  12
   1   1  18 298525. 6613.36   9
   1   1  18 302721. 6171.91   7
  -2   1  18 297865. 5568.80   9
  -1  -1  18 300732. 5446.02   9
  -1   2  18 301107. 6250.24   7
  -2   1  18 288615. 5903.95  12
  -1  -1  18 293340. 5493.43   3
   1  -2  18 300751. 6531.80   7
  -1   2  18 289445. 6226.57   9
   2  -1  18 297432. 6586.25   9
  -1  -1  18 287173. 6389.49   7
  -1  -1  18 300095. 6089.48  12
  -2   1  18 309042. 6034.37  10
  -2   1  18 290773. 6414.98   7
  -1   2  21 16953.5 1626.49   7
  -2   1  21 17339.4 1720.28   7
  -2   1  21 14702.2 1432.26  12
   1   1  21 16042.3 1566.40   7
   1   1  21 18344.6 1799.59   9
   1  -2  21 17122.7 1622.06   9
   1  -2  21 16633.4 1711.38   7
   1  -2  21 18245.0 1541.88  12
  -1   2  21 16274.5 1587.01   9
  -1  -1  21 16915.4 1718.28   7
   2  -1  21 17708.6 1742.67   9
  -1  -1  21 16009.3 1510.50  12
   2   0 -22 292336. 7436.17  11
  -2   2 -22 318621. 8570.43   5
   2   0 -22 330750. 8270.01   5
   0  -2 -22 306551. 7933.21  11
   0  -2 -22 306122. 8587.16   1
  -2   2 -22 291642. 7459.42  11
   2   0 -19 45.3717 65.5590   6
  -2   2 -19 271.940 231.990   5
   0  -2 -19-34.1204 163.757   1
   2   0 -19 186.446 184.213   5
   2   0 -19-35.1173 98.8089  11
   0  -2 -16 376832. 6667.52   6
   2   0 -16 380529. 7041.25  11
   2   0 -16 370656. 6231.24   6
  -2   2 -16 355150. 7188.42   5
   0  -2 -16 353663. 7552.81   1
   2   0 -16 386304. 6995.37   5
   2   0 -13 11.8118 9.29037  11
   0  -2 -13 205.142 149.649   1
   2   0 -13 43.8882 72.3829   6
   2   0 -13 80.5846 104.998   5
  -2   2 -13 21.1509 48.0006   4
  -2   2 -10 506253. 6616.94   5
  -2   2 -10 502620. 5374.95   4
   2   0 -10 651782. 6868.13   5
   2   0 -10 613954. 6649.91   6
  -2   2 -10 475729. 2462.95   2
   2   0 -10 640103. 6931.68  11
   0  -2 -10 471727. 6965.61   1
   2   0  -7 37.9170 46.4793   2
   2   0  -7 49.5718 67.7381   6
   2   0  -7 219.024 109.122  11
   2   0  -7 79.6578 67.0255   5
  -2   2  -7 23.5995 54.1771   4
  -2   2  -7 32.4679 66.5386   5
   0  -2  -4 691695. 6339.84   1
   2   0  -4 935043. 6552.61   6
   2   0  -4 885950. 5767.06   2
   2   0  -4 974258. 5949.59  13
   2   0  -4 990340. 6673.40  11
   2   0  -4 984025. 5078.15   5
  -2   2  -1 62.1765 49.2275   4
   2   0  -1 147.649 75.9831   2
   0  -2  -1 144.472 73.0653  12
  -2   2  -1-1.63331 5.22875  10
   2   0  -1 178.465 81.2884  13
   0  -2  -1 81.1745 39.1004   8
  -2   2  -1 59.3232 39.3863   5
   2   0  -1 48.6051 46.6092   6
   2   0  -1 62.9486 22.6061   9
  -2   2  -1 22.7218 24.9619  11
   0  -2   2 463944. 4191.05  12
   2   0   2 460176. 3526.57   2
   0  -2   2 466502. 4269.74   3
   2   0   2 470352. 4583.96   8
  -2   2   2 408735. 4070.77  10
   2   0   2 504274. 3586.67   9
   2   0   2 514832. 4499.98  13
   0  -2   2 446002. 2674.82  11
   2   0   2 446005. 3357.74   6
  -2   2   2 396296. 4071.44   4
   2   0   5 139.905 54.8267   2
  -2   2   5 157.230 91.3843  10
   0  -2   5 120.617 87.8546  12
   0  -2   5 57.2795 47.2219   7
  -2   2   5 71.8444 58.5711   9
   2   0   5 124.832 76.8851   9
  -2   2   5 106.205 56.9673   4
   0  -2   5 48.5008 46.9919   3
   2   0   5 37.8813 41.6166  13
  -2   2   8 600542. 6223.65   7
   0  -2   8 638246. 6005.98  12
  -2   2   8 630038. 5245.77   4
   0  -2   8 698184. 6164.22   9
  -2   2   8 654712. 6633.32  10
   0  -2   8 648319. 5858.89   3
   0  -2   8 640497. 5869.16   7
   2   0   8 556867. 2661.66  12
   2   0   8 535304. 5904.99   9
  -2   2   8 616946. 5686.69   9
   2   0   8 552084. 5079.06  13
  -2   2  11 60.5447 89.2939  10
   0  -2  11 14.3239 8.12777   9
   2   0  11 46.4228 48.6202  13
  -2   2  11 494.892 185.168   9
   0  -2  11 42.2549 55.4316  12
   2   0  11 209.264 125.438   9
   0  -2  11 90.3474 87.9217   7
  -2   2  11 168.452 123.323   7
   2   0  11 442.766 108.058  12
   0  -2  11 279.754 135.635   3
   0  -2  14 481171. 6992.16   7
   0  -2  14 482372. 6249.16   3
  -2   2  14 473088. 6937.50   7
   0  -2  14 468883. 6490.11  12
   0  -2  14 507010. 6731.12   9
   2   0  14 475804. 4797.61  13
   2   0  14 449961. 7099.78   9
  -2   2  14 482705. 7062.76  10
  -2   2  14 457499. 6343.83   9
  -2   2  17 57.8777 65.1087  10
   0  -2  17 141.508 123.044   3
   0  -2  17 348.053 201.932   9
   2   0  17 126.641 135.632   9
  -2   2  17 31.5487 74.0284   9
  -2   2  17 36.2962 67.9001   7
   0  -2  17 27.6964 38.9459  12
   0  -2  20 222074. 5380.24   9
   2   0  20 236650. 6401.77   9
  -2   2  20 217043. 5410.34   9
   0  -2  20 234388. 6238.46   7
   0  -2  20 218459. 5513.72  12
  -2   2  20 228985. 5990.10   7
   3  -3 -21 51.2348 33.7310   6
   3  -3 -21 1.05995 120.484  11
  -3   0 -21 57.8345 119.128   1
  -3   0 -21 29.2595 95.9529   5
   0   3 -21 3.36798 30.0263   5
   0   3 -18 430243. 7352.06  11
   3  -3 -18 415402. 8360.96   6
   3  -3 -18 425559. 8202.43  11
   0   3 -18 441689. 8685.52   5
   0   3 -15 153.715 124.885  11
   0   3 -15 15.0508 27.6060   5
  -3   0 -15 69.2350 97.3829   4
  -3   0 -15 170.717 157.453   1
   3  -3 -15 155.284 147.340   6
   3  -3 -15 38.7794 76.2644   1
   3  -3 -15 27.9539 91.6845  11
   3  -3 -12 479263. 6743.16   1
   0   3 -12 465096. 5510.81   6
   0   3 -12 528082. 7809.80   5
   0   3 -12 523999. 6424.66  11
   3  -3 -12 502566. 7126.55  11
   3  -3 -12 459833. 7565.28   6
   0   3 -12 497535. 5682.21   2
  -3   0 -12 440399. 7307.09   1
   3  -3  -9 150.439 127.935   6
   3  -3  -9 20.5577 38.9031   1
   3  -3  -9 19.6451 29.4613  11
   0   3  -9 40.5322 51.9527  11
   3  -3  -9 99.0235 51.8583  13
   0   3  -9 98.1671 85.2801   2
   0   3  -6 462994. 5975.43   5
   3  -3  -6 408750. 4413.12  13
  -3   0  -6 429484. 5493.76   1
   0   3  -6 449120. 4088.43  11
   3  -3  -6 420173. 4066.64   8
   3  -3  -6 430594. 4958.80  11
   3  -3  -6 416743. 4287.72   1
   0   3  -6 477237. 4717.80   4
   3  -3  -6 433188. 6214.37   6
   0   3  -6 462743. 5270.26   2
   3  -3  -3 56.6650 60.2306   8
   3  -3  -3 30.4768 31.8279   3
   3  -3  -3 485.288 111.910   1
   0   3  -3 50.2577 70.7101   5
   3  -3  -3 23.1121 52.2712   6
  -3   0  -3 108.340 68.9102   1
   0   3  -3 21.4135 33.2881   2
   3  -3  -3 576.314 150.219  11
   0   3  -3 62.2277 80.0026   4
   3  -3  -3 150.200 94.4628  13
  -3   0  -3 64.2923 25.2755  12
  -3   0   0 838652. 5857.26   1
   0   3   0 857444. 3790.97   7
   0   3   0 838688. 7167.74   2
   3  -3   0 879978. 7698.19  13
   3  -3   0 880461. 6880.46   6
   3  -3   0 842032. 7807.55   3
   0   3   0 833627. 4707.88  10
   3  -3   3 127.576 102.465   3
   0   3   3 157.072 105.952   9
   0   3   3 22.2666 45.3670   2
  -3   0   3 11.3128 33.0203   4
  -3   0   3 108.475 69.5440  10
   3  -3   3 96.4153 112.011  13
   0   3   3 44.8585 38.3299  10
   0   3   3 94.1778 35.5145   7
   3  -3   3 62.8553 54.6423   6
   0   3   6 323273. 4949.27   9
   3  -3   6 377215. 5540.60  13
   3  -3   6 386047. 4883.90  12
   0   3   6 315477. 4489.33  10
   0   3   6 319732. 4495.52   2
   0   3   6 318989. 2766.93   7
   3  -3   6 312079. 1838.83   6
  -3   0   6 429648. 4243.44   4
  -3   0   6 417423. 5144.92   7
  -3   0   6 390939. 4097.36  10
   3  -3   6 371372. 4778.75   3
  -3   0   9 233.845 114.535  10
   0   3   9 30.8786 41.9239  10
   3  -3   9 66.4979 87.3736   9
  -3   0   9 99.5564 38.8737   9
   3  -3   9 186.135 138.044  13
   0   3   9 37.8645 63.2266   2
  -3   0   9 91.9326 42.9985   4
   0   3   9 127.244 77.1269   7
  -3   0   9 5.63366 30.1646   7
   3  -3   9 43.8177 64.1381   3
   0   3   9 98.3069 93.9867   9
   3  -3   9 55.2907 53.2201  12
   3  -3  12 436269. 7164.98   9
   3  -3  12 443440. 6535.57  13
  -3   0  12 465415. 6675.31   7
   0   3  12 405432. 6632.68  10
   0   3  12 404016. 6910.11   9
   0   3  12 418054. 5180.77   7
  -3   0  12 526309. 5884.36  10
   3  -3  12 496929. 5616.97   3
   3  -3  12 435223. 5835.98  12
   0   3  12 438980. 5228.27   2
   3  -3  15 337.337 199.683  13
   3  -3  15 39.0422 84.7991   9
  -3   0  15 947.361 260.846  10
   0   3  15 34.6653 52.9256   9
  -3   0  15 1215.97 385.381   7
   0   3  15 69.1001 91.9543   7
   3  -3  15 157.958 128.677  12
  -3   0  15 15.9241 50.0855  12
  -3   0  18 374322. 7555.77   7
   0   3  18 373294. 7941.10   9
  -3   0  18 358941. 7161.51  12
   3  -3  18 382254. 7906.13   9
   0   3  21 34.6298 34.5593   9
   3  -3  21 150.004 186.415   9
  -3   0  21 203.164 196.378   7
  -3   0  21 243.290 245.250  12
   3  -2 -22 245289. 6884.82   5
   1   2 -22 223916. 6326.97  11
   2  -3 -19 4974.27 965.645   1
  -2  -1 -19 5187.54 1020.34   1
   3  -2 -19 4463.04 846.643   6
  -1   3 -19 5095.28 953.697   5
  -1   3 -19 4751.44 801.343  11
   1   2 -19 4737.14 886.070   5
   2  -3 -19 4480.38 850.160  11
   3  -2 -19 4428.95 838.337   5
  -3   1 -19 4914.95 940.908   5
   3  -2 -19 5538.56 958.201  11
   1   2 -19 4284.64 821.017  11
   2  -3 -19 5068.63 920.721   6
   1   2 -16 381124. 7203.36   5
   1   2 -16 376270. 6684.42  11
  -3   1 -16 328130. 6882.28   5
  -3   1 -16 338285. 5999.47   4
  -3   1 -16 330688. 7147.49   1
  -1   3 -16 396890. 6572.29  11
   2  -3 -16 364217. 7387.23   1
   3  -2 -16 364413. 6999.82  11
  -2  -1 -16 332947. 7537.81   1
  -1   3 -16 369861. 7337.36   5
   1   2 -16 385849. 5907.48   6
   2  -3 -16 359296. 6907.43  11
   3  -2 -16 368022. 7119.62   6
   2  -3 -16 369059. 7397.70   6
   1   2 -13 8649.99 748.216   2
  -3   1 -13 9959.75 1101.97   1
  -1   3 -13 10372.9 1104.19   5
  -1   3 -13 9322.06 866.603  11
   1   2 -13 9098.41 996.501   5
   3  -2 -13 9101.18 1019.78   6
   1   2 -13 8336.89 820.290   6
   2  -3 -13 8798.81 955.882  11
   2  -3 -13 11299.8 1159.15   1
   3  -2 -13 8391.68 938.947  11
   2  -3 -13 10492.1 1166.85   6
  -2  -1 -13 10303.4 1178.78   1
  -3   1 -13 9801.15 986.974   4
  -1   3 -13 9494.08 659.260   2
   1   2 -13 8583.17 897.497  11
  -1   3 -10 569473. 5650.42  11
  -3   1 -10 451866. 6285.16   4
  -1   3 -10 556257. 5216.58   2
  -2  -1 -10 501982. 7377.63   1
   3  -2 -10 600374. 7012.83  11
   1   2 -10 564403. 5898.57   2
   3  -2 -10 560206. 3643.92  13
  -3   1 -10 499401. 6710.19   1
  -1   3 -10 579534. 7488.81   5
   2  -3 -10 500636. 6790.66   1
   2  -3 -10 512583. 7680.51   6
   2  -3 -10 540829. 6535.20  11
   1   2 -10 633283. 7496.55   5
   1   2 -10 587854. 6267.46   6
   1   2 -10 623775. 6701.10  11
   3  -2 -10 544737. 7235.54   6
  -1   3 -10 583954. 5131.96   4
  -2  -1  -7 21712.3 553.791   3
  -1   3  -7 22377.4 1314.17   5
   1   2  -7 22837.8 1250.49   5
  -1   3  -7 23150.1 1128.91   2
   3  -2  -7 19304.9 963.470   8
   3  -2  -7 21247.9 904.406  13
   2  -3  -7 23369.1 1264.21   1
   2  -3  -7 21179.5 1099.20  11
   2  -3  -7 22323.2 901.074  13
   3  -2  -7 21539.9 1307.98   6
  -2  -1  -7 24071.1 1433.96   1
  -3   1  -7 23688.4 1335.27   4
   1   2  -7 20365.7 1047.96  11
  -3   1  -7 23685.2 1231.65   1
   1   2  -7 19851.2 1023.53   2
   2  -3  -7 23641.9 1392.20   3
   1   2  -7 20703.4 1096.03   6
   3  -2  -7 20833.5 1172.62  11
  -3   1  -7 22879.4 597.444   6
  -1   3  -7 20925.4 828.114  11
  -1   3  -4 719097. 4505.95  10
   3  -2  -4 693756. 5906.09   8
   2  -3  -4 626963. 5661.00   1
  -3   1  -4 617302. 4179.94   3
  -1   3  -4 699956. 6274.66   2
  -1   3  -4 648088. 6233.24   5
  -1   3  -4 672171. 5807.26   4
  -2  -1  -4 566340. 4034.09   3
   2  -3  -4 608943. 6867.41   3
   2  -3  -4 574139. 4550.91  11
   1   2  -4 749716. 5986.95   2
   2  -3  -4 628557. 3875.82   8
  -2  -1  -4 596979. 6242.42   1
   3  -2  -4 689027. 5632.59  13
  -3   1  -4 626316. 6471.49   4
   3  -2  -4 724650. 6001.90  11
  -3   1  -4 680427. 5293.99   1
  -1   3  -4 609578. 2608.20  11
   3  -2  -4 689590. 6599.26   6
   1   2  -4 743378. 6032.52   6
   1   2  -4 765449. 6299.03   5
  -3   1  -4 666905. 3627.58  12
   1   2  -4 754443. 5499.10  11
   1   2  -1 40880.3 1384.13   2
   3  -2  -1 37230.6 1177.13  11
   3  -2  -1 42057.5 695.648   5
  -1   3  -1 38394.0 1373.51   5
  -3   1  -1 50140.8 1693.96   4
  -3   1  -1 47914.1 1019.59   1
  -1   3  -1 43364.8 1535.37   4
   3  -2  -1 41772.7 1388.84   6
  -3   1  -1 39442.5 584.966   5
  -2  -1  -1 40403.0 953.581  12
   3  -2  -1 42974.0 1502.46  13
  -1   3  -1 45112.5 1187.11  10
   2  -3  -1 37489.5 757.441  11
  -2  -1  -1 40163.6 1146.63   3
   2  -3  -1 42916.1 1717.54   3
   2  -3   2 574343. 6161.34   3
   3  -2   2 574538. 4120.23   6
   1   2   2 578080. 5095.84   9
  -2  -1   2 609813. 3788.18  10
  -1   3   2 507943. 5475.76   4
  -2  -1   2 644737. 2895.92   9
  -3   1   2 600940. 5570.54   4
  -1   3   2 492089. 4686.57  10
   3  -2   2 565549. 3192.30   1
  -2  -1   2 597440. 4103.07   7
   3  -2   2 571823. 5886.72  13
   3  -2   2 585195. 5050.01   3
   1   2   2 587599. 5202.68   2
  -2  -1   2 603925. 4635.24  12
   2  -3   2 557199. 5779.87  12
  -3   1   2 627625. 5533.96  10
  -3   1   5 30746.4 1189.98   4
   2  -3   5 28052.3 1291.66  12
   3  -2   5 30490.6 1455.22  13
  -1   3   5 27795.1 1329.35   9
  -2  -1   5 27305.0 1090.55   7
  -3   1   5 27154.2 1156.11  10
  -1   3   5 28663.4 1342.18   4
   1   2   5 32312.7 1389.55   9
  -2  -1   5 28085.1 564.043   9
  -2  -1   5 24507.7 540.393   9
  -1   3   5 28817.7 1337.84  10
   1   2   5 28249.1 859.433   8
   3  -2   5 32423.0 1095.88   3
   2  -3   5 28470.9 1308.91   3
  -2  -1   5 26502.2 737.509  10
   3  -2   5 23285.6 407.637   6
   1   2   5 28033.5 1125.46   2
  -2  -1   5 26510.4 1147.65  12
   1   2   8 430808. 4306.82   2
   1   2   8 482892. 3757.51   8
  -1   3   8 464855. 6054.55   9
  -1   3   8 460636. 4874.79   7
  -2  -1   8 592181. 3213.58   4
  -3   1   8 584875. 6720.74   7
  -3   1   8 598356. 4537.65   4
   1   2   8 448359. 5990.52   9
  -2  -1   8 593112. 4107.61  10
   3  -2   8 443424. 6082.22   9
  -3   1   8 573919. 5772.53  10
  -2  -1   8 571660. 6104.96  12
  -1   3   8 469071. 6086.55  10
   2  -3   8 481242. 5639.50  12
   1   2   8 429255. 3885.33   7
  -2  -1   8 559280. 5825.00   7
  -3   1   8 583827. 3942.37   9
   3  -2   8 534183. 4958.00  12
  -2  -1   8 604999. 3157.64   4
   3  -2   8 533778. 3987.43   3
   3  -2   8 465272. 6016.97  13
  -2  -1   8 611402. 3726.13   9
   2  -3   8 532077. 5742.26   3
  -1   3  11 9877.34 820.553   7
  -2  -1  11 8871.36 851.164  12
  -2  -1  11 9302.65 879.293   7
   2  -3  11 9775.32 880.633  12
  -2  -1  11 10140.2 629.474   9
   1   2  11 11967.4 641.026   8
  -3   1  11 9391.55 848.851  10
   1   2  11 10560.2 626.061   2
  -3   1  11 9704.78 640.535   9
   1   2  11 10582.3 777.243   7
   3  -2  11 10694.6 937.339  13
   3  -2  11 10258.1 739.204  12
  -2  -1  11 10318.8 643.494  10
   1   2  11 10613.4 1042.65   9
  -3   1  11 9961.56 969.847   7
  -1   3  11 10106.9 972.376  10
  -1   3  11 10192.5 980.884   9
   2  -3  11 10039.9 831.651   3
   2  -3  11 10709.6 1023.79   9
   1   2  14 418614. 5834.86   7
  -3   1  14 459959. 6456.45  10
  -1   3  14 415370. 7054.55   9
   2  -3  14 427344. 7084.24   9
   3  -2  14 405748. 7275.83   9
  -2  -1  14 476479. 5162.03   9
  -3   1  14 458849. 5225.64   9
   2  -3  14 425621. 6439.64  12
  -2  -1  14 434919. 6878.24   7
  -3   1  14 421320. 6858.26   7
   3  -2  14 413236. 6080.58  13
   1   2  14 402312. 7263.61   9
  -2  -1  14 434184. 6677.05  12
   2  -3  14 466642. 6159.65   3
   3  -2  14 455694. 5441.04  12
   2  -3  14 470805. 6895.26  13
  -1   3  14 420693. 6123.20   7
  -1   3  14 426209. 7126.55  10
  -2  -1  17 3703.00 696.093  12
   3  -2  17 4242.02 789.223   9
  -3   1  17 3904.00 649.582  10
   1   2  17 4079.92 660.149   7
   1   2  17 4329.33 828.658   9
  -1   3  17 3591.56 706.159   9
   2  -3  17 4135.42 772.395   9
  -2  -1  17 3803.40 723.118   7
  -1   3  17 4134.54 692.474   7
   2  -3  17 3923.57 670.296  12
  -3   1  17 4213.38 771.480   7
  -1   3  17 4025.68 767.580  10
  -3   1  20 237953. 5998.66  12
   1   2  20 246845. 6763.42   9
  -2  -1  20 241019. 6077.27  12
  -2  -1  20 234589. 5618.17   3
   3  -2  20 241488. 6563.06   9
  -2  -1  20 240790. 6334.30   7
  -1   3  20 241309. 5827.22   7
  -3   1  20 235443. 6314.16   7
   2  -3  20 232969. 6064.64   9
  -1   3  20 234558. 6148.57   9
   2   1 -20 260529. 6599.38   5
   1  -3 -20 283221. 7874.05   1
   3  -1 -20 263711. 6943.01  11
   3  -1 -20 270202. 6668.47   5
  -1  -2 -20 259645. 7598.36   1
   3  -1 -20 255031. 6183.95   6
  -3   2 -20 266765. 7129.61   5
   1  -3 -20 274207. 6922.34  11
   2   1 -20 261096. 6717.91  11
  -2   3 -20 270853. 7130.71   5
  -2   3 -20 274644. 6336.94  11
   1  -3 -20 275577. 6680.75   6
   3  -1 -17 3710.76 699.317   6
   3  -1 -17 3866.00 728.683   5
  -2   3 -17 4337.24 854.063   5
   1  -3 -17 4620.40 840.017   6
  -3   2 -17 4806.60 878.408   5
   1  -3 -17 4457.75 889.173   1
   2   1 -17 3920.31 661.538   6
  -2   3 -17 4315.72 731.930  11
   3  -1 -17 3554.30 727.777  11
   2   1 -17 3754.42 730.068  11
   2   1 -17 3792.44 722.531   5
  -1  -2 -17 4426.10 908.500   1
  -3   2 -14 410005. 7246.03   5
   3  -1 -14 501619. 7279.94   5
   1  -3 -14 424333. 7901.64   1
   2   1 -14 509248. 7446.93   5
   1  -3 -14 456133. 7984.56   6
   2   1 -14 502300. 7541.03  11
   2   1 -14 490092. 6784.59   6
  -3   2 -14 419606. 6273.85   4
  -2   3 -14 484469. 8137.79   5
   3  -1 -14 493130. 7538.79  11
   3  -1 -14 490375. 7508.88   6
  -1  -2 -14 416475. 8031.09   1
  -1  -2 -11 11309.5 1189.59   1
   3  -1 -11 9870.37 971.308  11
   2   1 -11 9971.20 939.444  11
  -3   2 -11 11254.5 1044.12   5
  -2   3 -11 11202.1 633.931   2
   2   1 -11 9090.86 763.925   2
   2   1 -11 12143.4 1017.57   5
   2   1 -11 11031.2 940.113   6
   3  -1 -11 9954.11 984.666   6
  -3   2 -11 10983.2 966.601   4
  -2   3 -11 10639.9 1031.36   5
   1  -3 -11 12652.7 1217.81   1
   3  -1 -11 10296.9 889.989   5
  -2   3 -11 10546.8 809.043   4
   3  -1  -8 674523. 5824.66   5
  -2   3  -8 548935. 6583.91   5
  -2   3  -8 582667. 5306.89   2
   1  -3  -8 487575. 6708.11   1
  -1  -2  -8 491696. 6904.37   1
   3  -1  -8 635082. 7167.73   6
  -2   3  -8 532612. 5748.35   4
   3  -1  -8 622207. 5049.08  13
   2   1  -8 710844. 6757.09   5
   2   1  -8 571509. 5714.18   2
  -3   2  -8 445303. 5900.63   4
   2   1  -8 670183. 6744.86   6
  -3   2  -8 412336. 5364.54   5
   3  -1  -8 670015. 7087.22  11
   1  -3  -8 503743. 6236.29   3
  -1  -2  -8 500997. 4647.77   3
   2   1  -8 681697. 6751.82  11
   2   1  -5 28173.2 1230.82  11
   3  -1  -5 28592.2 1314.28  11
  -3   2  -5 30406.4 1150.30   5
   3  -1  -5 33479.1 934.047   5
   3  -1  -5 27937.8 1129.32  13
  -1  -2  -5 29290.3 1207.10   3
   2   1  -5 29610.7 1331.42   6
  -2   3  -5 29318.1 1319.37   4
   3  -1  -5 29354.2 1391.32   6
   3  -1  -5 27126.3 1249.71   8
  -3   2  -5 31016.5 1473.50   4
   2   1  -5 27521.2 1205.57   2
   3  -1  -5 30152.5 679.373   9
   1  -3  -5 30969.0 1488.47   3
   2   1  -5 29008.1 1128.43   5
   1  -3  -5 32229.0 1508.02   1
  -1  -2  -5 35899.7 1660.89   1
  -2   3  -5 29402.9 1311.75   5
   3  -1  -2 653133. 5680.83   6
  -1  -2  -2 533422. 4932.52   3
   3  -1  -2 646959. 5549.79  11
  -2   3  -2 468932. 5218.31   4
  -2   3  -2 486811. 4837.61  10
  -3   2  -2 527223. 5782.04   4
  -3   2  -2 501986. 3256.66   5
  -2   3  -2 474867. 4662.37   5
   2   1  -2 694429. 5810.21  13
   2   1  -2 693784. 5841.03   6
   2   1  -2 649346. 5414.18   2
  -1  -2  -2 525555. 4399.68  12
   3  -1  -2 672288. 5759.28  13
   1  -3  -2 532884. 6119.97   3
   2   1   1 38571.6 1239.02   2
   1  -3   1 42059.5 1567.21  12
  -2   3   1 39726.2 1522.07   4
  -1  -2   1 41723.3 788.268  10
  -3   2   1 43348.7 1560.59   4
  -1  -2   1 40003.2 1336.05   3
   3  -1   1 40500.9 1206.03   6
  -3   2   1 42198.6 1530.72  10
   3  -1   1 43388.5 1153.77   9
   2   1   1 42050.2 1134.89   9
   2   1   1 38184.6 1270.40   6
   2   1   1 40396.3 1373.81   8
  -2   3   1 38554.6 1363.69  10
  -1  -2   1 39484.0 717.494   7
   3  -1   1 43430.9 1534.61  13
   2   1   1 42302.1 1439.41  13
   1  -3   1 40754.8 1578.65   3
  -1  -2   1 39648.9 1249.11  12
  -3   2   4 612471. 5674.73   4
  -2   3   4 525274. 5457.24   9
  -2   3   4 510481. 5441.05  10
   1  -3   4 610447. 5983.50  12
  -3   2   4 643103. 6002.42  10
   3  -1   4 577079. 3566.75   6
   3  -1   4 632546. 5563.65   9
   3  -1   4 615812. 6038.61  13
  -3   2   4 681002. 3556.20   1
   2   1   4 617519. 5410.15   9
  -2   3   4 498585. 5460.97   4
   1  -3   4 628521. 6146.97   3
  -1  -2   4 640103. 4490.76   7
  -1  -2   4 674783. 5931.40   3
   2   1   4 632497. 5604.44   8
   2   1   4 598803. 4658.45   2
  -1  -2   4 661888. 5674.95  12
   2   1   4 618617. 5462.11  13
   3  -1   7 21972.2 1216.98   9
  -1  -2   7 18768.9 1071.70  12
  -3   2   7 18938.1 1118.18  10
   1  -3   7 19888.6 1146.89  12
   1  -3   7 20516.9 1137.42   3
  -2   3   7 21826.5 1181.50   4
  -3   2   7 20687.9 1004.84   4
   2   1   7 21661.5 1184.76   9
  -2   3   7 20369.6 1168.47   9
  -3   2   7 19554.3 890.740   9
   2   1   7 20972.7 1013.19  13
  -2   3   7 20901.3 1256.28  10
  -1  -2   7 19974.9 1008.62   7
   2   1   7 18846.4 773.446   2
  -1  -2   7 19782.2 1112.02   3
   3  -1   7 21840.6 1184.22  13
   3  -1  10 437068. 6328.90   9
  -2   3  10 507774. 6869.23  10
  -1  -2  10 538597. 6179.28   7
   1  -3  10 509931. 6029.25   3
   1  -3  10 525074. 6650.90   9
  -2   3  10 501292. 5775.65   4
  -1  -2  10 591133. 5640.64   9
  -3   2  10 513017. 6650.14   7
  -1  -2  10 531291. 6330.84   3
   1  -3  10 505629. 6214.80   7
  -3   2  10 569514. 5085.66   4
   2   1  10 429622. 6219.93   9
  -1  -2  10 524079. 6375.45  12
  -2   3  10 492463. 6340.22   9
  -3   2  10 520061. 5317.68   9
   1  -3  10 512860. 6277.26  12
   2   1  10 428068. 3302.87   2
   2   1  10 417001. 4632.26  13
   3  -1  10 461662. 5737.27  13
  -2   3  10 492957. 6100.21   7
  -3   2  10 535425. 6656.32  10
   1  -3  13 7858.83 816.095   3
   1  -3  13 8608.11 942.003   9
   3  -1  13 8902.39 996.427   9
   2   1  13 8767.49 996.939   9
  -3   2  13 8720.12 792.446   9
  -3   2  13 8459.05 930.933  10
   1  -3  13 8322.70 903.972   7
  -1  -2  13 8509.60 901.895   7
  -2   3  13 8259.18 885.881   7
  -3   2  13 8205.32 934.849   7
  -1  -2  13 8406.50 901.991  12
  -2   3  13 8342.05 906.281   9
   2   1  13 9342.62 644.985  13
   3  -1  13 9779.12 875.438  13
  -1  -2  13 8006.55 858.473   3
   1  -3  13 8209.98 871.806  12
  -2   3  13 8713.38 989.440  10
  -1  -2  13 9125.77 803.512   9
  -2   3  16 340147. 6738.20  10
   1  -3  16 368179. 6125.78   3
   1  -3  16 334876. 6537.42   7
  -1  -2  16 337458. 6110.07   3
  -3   2  16 330118. 6173.70  10
   1  -3  16 337878. 6364.39   9
  -1  -2  16 367712. 5581.89   9
   2   1  16 320521. 6804.42   9
  -2   3  16 324937. 6185.87   9
  -3   2  16 345338. 5494.24   9
  -1  -2  16 333240. 6413.36   7
  -2   3  16 326680. 6177.24   7
  -3   2  16 334736. 6543.16   7
  -1  -2  16 332265. 6306.25  12
   3  -1  16 323450. 6789.64   9
   1  -3  16 331751. 6150.39  12
  -1  -2  19 4369.07 788.943  12
  -1  -2  19 4568.23 840.476   7
   1  -3  19 5768.23 885.606  12
   3  -1  19 4492.40 881.487   9
  -3   2  19 4459.63 785.193  10
  -2   3  19 4290.84 773.647   9
  -2   3  19 4435.53 800.543   7
  -3   2  19 4337.69 808.348   7
   2   1  19 4870.03 931.134   9
  -2   3  19 4686.65 865.163  10
   1  -3  19 4183.51 768.463   9
  -1  -2  19 4155.70 726.108   3
  -3   2  22 195942. 5651.08  12
   1  -3  22 201489. 5728.69   9
   1  -3  22 206085. 5740.26  12
  -1  -2  22 200442. 5808.81  12
  -2   3  22 196650. 5651.09   9
  -2   3  22 207566. 5902.01   7
   3   0 -21 101.231 118.881   6
  -3   3 -21 128.126 163.793   5
   3   0 -21 31.5866 97.9894   5
   0  -3 -21 119.402 164.933   1
   3   0 -21-50.7961 95.4601  11
  -3   3 -18 426742. 8746.00   5
   3   0 -18 411426. 7474.29   6
   3   0 -18 426526. 8376.19  11
   0  -3 -18 402090. 9028.98   1
   0  -3 -18 423441. 8037.59   6
   3   0 -15 108.663 137.707  11
   3   0 -15 443.858 226.219   5
  -3   3 -15 205.246 200.546   5
   3   0 -15 50.9037 92.2961   6
   3   0 -12 577525. 7233.52   5
   0  -3 -12 421481. 7671.64   1
  -3   3 -12 459102. 7289.50   5
  -3   3 -12 420622. 5881.84   4
   3   0 -12 515620. 7113.45   6
   3   0 -12 530219. 7458.13  11
   3   0  -9 213.273 111.572   5
   0  -3  -9 74.1715 71.8693   3
  -3   3  -9 110.281 90.7260   4
   0  -3  -9 37.8860 72.3146   1
   3   0  -9 14.3405 50.0937   6
   3   0  -9 110.252 106.871  11
   3   0  -6 492382. 4271.09   5
   3   0  -6 465353. 5751.94   6
   0  -3  -6 361933. 5725.20   1
   3   0  -6 452203. 4933.32  13
   3   0  -6 433045. 5098.93   2
  -3   3  -6 326620. 4828.46   4
  -3   3  -6 324164. 4373.79   5
   3   0  -6 471304. 5696.60  11
   0  -3  -6 343909. 4884.69   3
  -3   3  -3 89.0542 107.853   4
   3   0  -3 80.8644 73.2334  11
  -3   3  -3 48.2389 62.0472  10
   3   0  -3 50.3808 58.9873   2
  -3   3  -3 66.1922 58.7969   5
   0  -3  -3 227.291 132.979   3
   0  -3  -3 228.316 70.5982   8
   3   0  -3-0.71294 13.8917   8
   3   0  -3 30.4254 61.2431  13
   0  -3  -3 4.03599 27.8810   1
   3   0   0 937528. 6725.20   6
   0  -3   0 801560. 7131.81   3
   3   0   0 976794. 4336.07   9
  -3   3   0 681684. 6890.78   4
   3   0   0 937256. 6668.22   2
   3   0   0 940107. 7783.23   8
   0  -3   0 806798. 6882.63  12
  -3   3   0 731683. 6841.91  10
   3   0   0 977737. 7566.32  13
   3   0   3 66.6216 55.7699   6
  -3   3   3 45.8751 36.9843  10
   0  -3   3 16.7091 4.76017   3
   3   0   3 94.9530 63.5818   9
   3   0   3 135.415 96.3011   8
   3   0   3 70.4778 64.8848  13
  -3   3   3 18.6181 35.0163   4
   3   0   3 181.537 88.1263   2
   0  -3   3 6.46779 28.3795  12
  -3   3   6 391570. 4813.63   9
   3   0   6 399791. 4910.13   9
  -3   3   6 377189. 4940.79   4
  -3   3   6 377794. 5347.23  10
   0  -3   6 404689. 5207.98  12
   0  -3   6 385837. 4321.90   7
   3   0   6 399016. 5066.97  13
   0  -3   6 393467. 5127.59   3
   0  -3   9 48.3929 49.1111  12
  -3   3   9 75.5462 97.1313  10
   0  -3   9 41.6268 79.2408   3
   3   0   9 47.8661 72.4236   9
  -3   3   9 134.224 86.5997   9
  -3   3   9 167.481 118.989   4
   0  -3   9 282.777 148.436   7
   3   0   9 19.1701 33.5701  13
  -3   3   9 37.7855 69.5570   7
  -3   3  12 476607. 7207.06  10
   0  -3  12 487165. 6547.30   9
   0  -3  12 464077. 6488.81   3
  -3   3  12 504086. 5633.62   4
   3   0  12 396373. 6567.79   9
  -3   3  12 449911. 6764.86   7
  -3   3  12 437259. 6004.24   9
   0  -3  12 466977. 6593.11   7
   3   0  12 417792. 5476.99  13
   0  -3  12 455760. 6638.49  12
  -3   3  15 219.041 170.862  10
   0  -3  15 8.04676 12.4979  12
   0  -3  15 77.3891 119.793   7
   0  -3  15-16.9101 60.1119   3
   3   0  15 69.2893 124.826   9
  -3   3  15 155.281 137.813   9
  -3   3  15 194.170 135.573   7
   0  -3  18 374727. 6860.74   3
  -3   3  18 381010. 7480.11  10
   0  -3  18 386880. 6765.38   9
   3   0  18 365793. 7927.53   9
  -3   3  18 370211. 6631.99   9
   0  -3  18 376636. 7307.27  12
   0  -3  18 374975. 7452.59   7
  -3   3  18 372100. 7305.61   7
  -3   3  21-13.8848 100.491  10
   3   0  21 124.899 130.999   9
   0  -3  21 99.8420 150.215   7
  -3   3  21 144.238 175.582   7
   0  -3  21 40.3910 40.8022  12
   0   4 -19 117.501 125.262   5
   4  -4 -19 32.6426 76.9425  11
  -4   0 -19 140.359 105.503   1
   4  -4 -19 55.1025 106.544   6
   4  -4 -16 290496. 6406.15  11
   0   4 -16 308928. 7021.44   5
  -4   0 -16 299012. 7281.02   1
   4  -4 -16 299577. 7414.43   6
   0   4 -13 125.158 118.726   5
   0   4 -13-26.5766 64.1547   2
   4  -4 -13 33.9857 94.0017  11
  -4   0 -13 92.5610 111.786   1
  -4   0 -13 13.7083 39.9561   4
   0   4 -10 540473. 8168.42   5
   4  -4 -10 520126. 7041.17  11
   4  -4 -10 552954. 6262.78   1
   4  -4 -10 500361. 8241.16   6
  -4   0 -10 531262. 7900.91   1
   0   4 -10 529897. 6865.67   2
   0   4  -7 71.9194 87.6640   5
   0   4  -7 33.1371 63.9054   2
   4  -4  -7 38.2577 62.8701  11
   4  -4  -7 250.868 156.274   6
  -4   0  -7 32.0934 53.8401   1
   4  -4  -7 49.7961 42.1137   8
   4  -4  -7 108.550 82.3411  13
   4  -4  -7 195.428 92.0636   1
   0   4  -4 485618. 6623.83   5
  -4   0  -4 421775. 3743.51   3
  -4   0  -4 475306. 5954.51   1
   4  -4  -4 483124. 5654.68   8
   4  -4  -4 422632. 4680.53  11
   4  -4  -4 482318. 3637.30   1
   4  -4  -4 454687. 6126.25  13
   4  -4  -4 465118. 6606.52   6
   0   4  -4 501062. 6617.98   2
  -4   0  -1 1054.63 259.771   1
   0   4  -1 120.761 61.4673  10
   4  -4  -1 30.4827 63.6238   3
   0   4  -1 16.9074 43.6378   2
   4  -4  -1 173.406 122.350  13
   4  -4  -1 104.791 92.8160   6
   4  -4  -1 1148.49 156.532   1
  -4   0  -1 57.1290 41.5081  12
   4  -4   2 576429. 7256.53   3
   4  -4   2 558702. 7217.37  13
   0   4   2 574019. 5324.89  10
   4  -4   2 571496. 5719.46   6
   4  -4   5 44.8023 42.4253   6
   0   4   5 38.8592 64.3667  10
  -4   0   5 19.8526 16.3882  10
   4  -4   5 152.007 115.472   3
   0   4   5 105.103 81.9124   2
   0   4   5 57.8409 67.0254   9
  -4   0   5 59.0830 73.5331   4
  -4   0   5 36.2075 50.6227   7
   0   4   8 378905. 5745.01   2
   0   4   8 393053. 6033.47  10
  -4   0   8 471934. 5209.12  10
  -4   0   8 554617. 5488.31   4
   4  -4   8 463427. 6125.97   3
   0   4   8 374574. 6326.33   9
  -4   0   8 465505. 6350.25   7
   4  -4   8 426695. 6909.71  13
  -4   0  11 44.8261 64.0089  12
   0   4  11 44.5643 47.9282  10
   0   4  11 255.437 139.444   2
   4  -4  11 199.589 119.772   3
   4  -4  11 189.485 155.346  13
   4  -4  11 115.020 126.529   9
   0   4  11 54.7174 115.716   9
  -4   0  11-19.6021 42.9401   7
  -4   0  11 36.5739 43.9908  10
   4  -4  14 299400. 6752.14   9
  -4   0  14 304432. 6242.46  12
   4  -4  14 311531. 6470.93  13
   0   4  14 296882. 6801.21   9
  -4   0  14 298490. 6144.20   7
   4  -4  17 79.3726 127.619   9
   0   4  17-41.9469 125.201   9
  -4   0  17 329.443 230.422  12
  -4   0  17 269.804 193.490   7
   1   3 -20 285791. 7275.14   5
  -1   4 -20 281019. 7504.49   5
  -4   1 -20 243423. 6932.85   5
   3  -4 -20 272035. 6787.37  11
   3  -4 -20 261905. 7214.64   6
   4  -3 -20 274596. 7289.57   6
  -3  -1 -20 254764. 7573.80   1
   4  -3 -20 271241. 7102.98  11
   4  -3 -17 6684.24 1029.81  11
   1   3 -17 7104.29 1063.29   5
  -1   4 -17 7801.00 1164.23   5
   3  -4 -17 7700.99 1191.46   6
   3  -4 -17 7573.31 1051.46  11
  -4   1 -17 7780.86 1109.08   5
   1   3 -17 6851.35 926.404  11
   4  -3 -17 7465.15 1132.54   6
  -4   1 -17 8609.41 1218.33   1
   3  -4 -17 8173.62 1157.78   1
  -4   1 -17 8175.38 1071.57   4
  -3  -1 -17 8600.19 1289.54   1
   3  -4 -14 359534. 7776.72   6
   4  -3 -14 371519. 7023.82  11
   1   3 -14 392184. 5951.17   2
  -4   1 -14 363395. 7133.71   1
   3  -4 -14 365707. 6628.45  11
   1   3 -14 385343. 6167.71   6
  -3  -1 -14 361893. 7629.60   1
   3  -4 -14 376914. 7095.85   1
  -4   1 -14 334418. 6663.01   4
   1   3 -14 397781. 7348.03   5
  -1   4 -14 387580. 7497.85   5
   4  -3 -14 361093. 7361.54   6
   1   3 -14 398724. 6495.73  11
   3  -4 -11 15614.9 1501.82   6
   3  -4 -11 13660.5 1132.52  11
  -1   4 -11 16136.0 967.360   4
  -1   4 -11 14817.1 898.239  11
   4  -3 -11 13875.0 1204.01  11
  -3  -1 -11 15930.7 1455.39   1
  -4   1 -11 16616.2 1344.81   1
   3  -4 -11 15709.5 1263.90   1
  -1   4 -11 13536.1 1014.52   2
   1   3 -11 14656.8 1106.60  11
   1   3 -11 14358.2 1094.12   2
  -4   1 -11 15255.5 1338.63   4
   4  -3 -11 14301.2 1344.67   6
   1   3 -11 12786.6 1055.47   6
   1   3 -11 13869.7 1239.01   5
  -1   4 -11 13904.4 1275.79   5
  -1   4  -8 544221. 6537.15   2
   4  -3  -8 511048. 6368.15  11
   3  -4  -8 493556. 5794.63  11
   1   3  -8 557038. 7178.25   5
  -1   4  -8 508225. 7169.15   5
   3  -4  -8 499242. 5191.45  13
   1   3  -8 563936. 6092.26  11
  -3  -1  -8 484040. 7182.39   1
  -1   4  -8 562200. 3825.96  10
   3  -4  -8 471883. 6168.99   1
   4  -3  -8 520862. 5381.82  13
   4  -3  -8 496386. 5502.06   8
  -4   1  -8 487813. 7174.94   4
  -4   1  -8 526395. 6521.06   1
   1   3  -8 525892. 6279.30   2
  -1   4  -8 556078. 4214.20  11
   3  -4  -8 491893. 7891.94   6
   1   3  -8 523814. 6308.62   6
  -1   4  -8 546364. 6080.03   4
   4  -3  -8 495408. 7273.19   6
   3  -4  -5 25855.8 1107.09  11
   3  -4  -5 28877.0 1016.24   8
   1   3  -5 27577.8 1482.80   5
  -1   4  -5 28939.0 870.328  10
   3  -4  -5 30221.8 1788.65   3
  -1   4  -5 32665.2 1610.06   2
  -1   4  -5 29075.0 1440.89   4
   4  -3  -5 28945.6 1380.92  13
   3  -4  -5 31912.6 1403.41   1
   4  -3  -5 26889.5 1333.11   8
  -1   4  -5 28003.2 1581.23   5
  -4   1  -5 30563.6 1681.47   4
  -3  -1  -5 29210.9 1571.26   1
   4  -3  -5 25316.7 1262.31  11
   3  -4  -5 27398.0 1380.15  13
  -3  -1  -5 27924.5 971.243   3
   1   3  -5 25739.3 1339.15   2
  -4   1  -5 31929.5 1368.90   1
   4  -3  -5 27954.2 1548.92   6
  -3  -1  -2 575424. 4959.84   3
  -1   4  -2 632769. 6919.60   4
   3  -4  -2 577880. 7531.14   3
   4  -3  -2 584609. 5455.39  11
  -4   1  -2 568056. 2874.66   5
   3  -4  -2 588777. 5430.72   1
   4  -3  -2 654235. 7051.94   8
  -3  -1  -2 582294. 6430.60   1
   4  -3  -2 581458. 6539.36  13
   3  -4  -2 504250. 3602.81  11
  -4   1  -2 650045. 7289.22   4
  -4   1  -2 597752. 2945.06   5
  -4   1  -2 687448. 5112.04   1
   4  -3  -2 642523. 6614.39   6
  -1   4  -2 621501. 4683.59  10
   1   3  -2 647232. 6665.32   2
  -1   4  -2 625880. 7239.65   2
  -3  -1  -2 579036. 3799.07  12
  -4   1   1 39176.3 1056.49   1
  -3  -1   1 31111.7 1130.79  12
  -1   4   1 36097.1 1770.63   2
  -1   4   1 36047.3 1688.64   4
   1   3   1 34533.0 1541.38   2
   3  -4   1 36196.2 1799.37   3
  -4   1   1 35841.4 1577.32  10
   4  -3   1 35942.2 1331.32   6
  -4   1   1 37829.6 1679.22   4
   4  -3   1 34770.2 1687.42  13
  -3  -1   1 34167.3 1088.60   7
  -1   4   1 39529.5 1406.72  10
   1   3   1 34669.9 1454.94   9
   1   3   4 470884. 5703.43   2
  -4   1   4 499788. 5590.97  10
   4  -3   4 449958. 3612.48   6
  -3  -1   4 487251. 4009.22  10
   4  -3   4 486355. 6683.73  13
   1   3   4 453372. 5716.79   9
  -3  -1   4 518065. 5428.27  12
  -4   1   4 543335. 6055.11   4
  -1   4   4 429597. 6038.99   4
  -1   4   4 432780. 5416.11  10
  -3  -1   4 497232. 4920.91   7
   3  -4   4 464838. 6286.79   3
  -1   4   4 393633. 5725.26   9
   4  -3   4 493159. 5589.35   3
   3  -4   7 23380.0 1433.67   3
   1   3   7 22998.4 1244.35   2
  -3  -1   7 21160.6 1231.94  12
  -1   4   7 22973.3 1389.85  10
  -3  -1   7 22629.0 849.015  10
   4  -3   7 24590.8 1516.26   9
   1   3   7 23089.4 1423.62   9
  -1   4   7 22554.5 1452.65   9
  -4   1   7 23150.8 1134.95   4
   4  -3   7 26496.9 1184.95   3
   4  -3   7 24589.5 1550.00  13
  -3  -1   7 25007.7 1040.99   4
  -1   4   7 24215.7 1045.44   7
  -4   1   7 21064.3 1336.14   7
  -4   1   7 21247.4 1180.81  10
   3  -4   7 22272.3 1364.47  12
  -3  -1   7 21532.8 1170.08   7
  -3  -1  10 511919. 6763.37  12
   3  -4  10 488806. 6582.84   3
   1   3  10 437908. 5339.14   2
  -1   4  10 415242. 6487.58  10
  -4   1  10 518337. 6262.85  10
   4  -3  10 409890. 6867.07   9
   1   3  10 417062. 6872.54   9
  -1   4  10 426015. 6918.73   9
  -3  -1  10 522914. 6562.43   7
  -1   4  10 448304. 5111.31   7
  -4   1  10 522616. 7239.30   7
   4  -3  10 463996. 6992.69  13
   3  -4  10 488696. 6724.41  12
  -1   4  13 13586.4 1111.00   2
  -1   4  13 11625.7 1229.21  10
   3  -4  13 11207.5 1195.78   9
   1   3  13 11874.0 1288.47   9
  -1   4  13 12180.4 1284.74   9
  -3  -1  13 10268.3 1083.37  12
   3  -4  13 14078.8 1151.84   3
  -1   4  13 13250.6 1007.09   7
  -3  -1  13 10717.4 1068.28   7
  -4   1  13 10781.8 1144.13   7
   3  -4  13 11949.1 1211.72  13
   3  -4  13 11248.8 1089.35  12
   4  -3  13 12571.6 1188.87  13
   4  -3  13 11941.9 1269.64   9
  -4   1  13 11409.7 1019.71  10
  -3  -1  16 310760. 6574.88  12
  -1   4  16 306128. 6917.80  10
  -4   1  16 318692. 5724.87  10
   1   3  16 292976. 7038.17   9
  -1   4  16 299384. 6858.80   9
  -3  -1  16 299685. 6373.70   7
  -4   1  16 299971. 6538.57   7
   3  -4  16 324927. 6412.42  13
   4  -3  16 303340. 5955.27  13
   3  -4  16 309119. 6087.56  12
   3  -4  16 306553. 6784.16   9
   4  -3  16 291235. 6903.71   9
  -4   1  19 6432.35 1032.90  12
   4  -3  19 6141.82 1041.65   9
   1   3  19 6611.98 1144.42   9
  -1   4  19 6507.89 1083.17   9
  -3  -1  19 5451.26 901.135   3
  -3  -1  19 5770.52 964.887   7
  -4   1  19 5972.90 1001.32   7
   3  -4  19 6233.46 1053.73   9
  -3  -1  19 5923.31 983.168  12
   2   2 -21 8404.09 1203.40  11
   2   2 -21 9358.18 1305.46   5
   2  -4 -21 10764.0 1541.49   1
   2  -4 -21 10305.2 1397.66   6
   2  -4 -18 266863. 7013.52   6
   4  -2 -18 265174. 6553.20   6
   2   2 -18 260110. 6248.30  11
   2  -4 -18 254151. 6166.86  11
   2   2 -18 265067. 6497.82   5
  -2   4 -18 280884. 7156.14   5
  -4   2 -18 249890. 6505.64   5
   2  -4 -18 275973. 7300.45   1
  -2  -2 -18 257594. 7326.57   1
   2   2 -18 279601. 5894.04   6
   4  -2 -18 267711. 6824.52  11
   2  -4 -15 20885.7 1910.52   6
   2   2 -15 16811.6 1491.25   5
   2   2 -15 16713.3 1422.38  11
   4  -2 -15 16837.3 1560.20  11
   2  -4 -15 17374.7 1477.97  11
  -2   4 -15 18575.5 1691.69   5
  -4   2 -15 18526.9 1617.67   5
   4  -2 -15 19895.5 1474.10   5
   2   2 -15 16962.6 1372.14   6
   2   2 -15 22844.4 1444.67   2
  -4   2 -15 19780.0 1585.16   4
   2  -4 -15 20294.6 1790.36   1
   4  -2 -15 17470.0 1616.58   6
  -2  -2 -15 21328.9 1937.61   1
   2   2 -12 466775. 6870.79  11
   4  -2 -12 454422. 7141.98  11
   2  -4 -12 399661. 6282.42  11
   2   2 -12 473478. 7089.48   5
   2   2 -12 449592. 6568.64   6
   4  -2 -12 489261. 6234.81   5
  -2   4 -12 464017. 5808.68   4
  -2   4 -12 430901. 7334.08   5
  -4   2 -12 391816. 6674.76   1
  -2  -2 -12 397867. 7645.46   1
   2  -4 -12 406049. 7351.41   1
   2   2 -12 427503. 6031.88   2
  -4   2 -12 364183. 6527.87   4
  -2   4 -12 451420. 5211.38   2
   4  -2 -12 438564. 7385.49   6
  -2   4 -12 458053. 5300.93  11
  -4   2 -12 343620. 6111.39   5
  -2  -2  -9 39166.4 2166.22   1
   2   2  -9 37342.7 1720.33  11
   4  -2  -9 33723.1 1738.63  11
  -2   4  -9 41133.1 1750.14   2
  -2   4  -9 39313.4 1193.05  11
   2  -4  -9 35942.9 1621.09  11
   2   2  -9 35447.7 1700.01   5
  -2   4  -9 40214.6 1547.60  10
   4  -2  -9 34558.2 1909.92   6
   2  -4  -9 39201.6 2010.60   1
   4  -2  -9 35245.9 1354.16  13
  -2   4  -9 37086.1 1685.88   4
   4  -2  -9 40043.6 1423.66   5
  -4   2  -9 40801.9 1831.45   1
   2  -4  -9 40180.4 2051.74   3
  -4   2  -9 37406.4 1708.54   5
  -4   2  -9 38911.5 2020.43   4
   2   2  -9 34630.3 1678.96   2
  -2   4  -9 36554.8 1921.83   5
   2   2  -9 34351.2 1729.39   6
  -2  -2  -6 514199. 5075.79   3
   2   2  -6 681314. 7115.61   6
   2   2  -6 697720. 6815.60  11
   4  -2  -6 668054. 7005.28  11
   2  -4  -6 487503. 4999.58  11
   2   2  -6 660571. 6592.39   5
  -2   4  -6 580703. 6868.31   5
  -4   2  -6 485970. 4848.07   5
   4  -2  -6 692055. 3962.89   5
  -2   4  -6 574236. 6798.21   2
  -2   4  -6 629557. 5883.62  10
  -2   4  -6 547882. 6428.10   4
  -2  -2  -6 546659. 7269.89   1
  -4   2  -6 560062. 5513.96   1
   4  -2  -6 630212. 6769.15   8
   4  -2  -6 642234. 6335.43  13
  -4   2  -6 540705. 7159.97   4
   2  -4  -6 545928. 6709.58   1
   2   2  -6 663193. 6745.99   2
   2  -4  -6 578723. 7635.60   3
   4  -2  -6 624023. 7386.01   6
   4  -2  -3 56144.0 1860.66  11
   2  -4  -3 57837.4 1226.05  11
  -2   4  -3 59697.8 2044.27   5
  -2  -2  -3 61798.9 1817.36   3
  -4   2  -3 59351.1 1107.95   5
   2   2  -3 58478.5 1973.45   6
  -2   4  -3 62872.5 1769.91  10
  -2   4  -3 59673.5 2135.78   4
   4  -2  -3 63807.7 2071.56  13
   2  -4  -3 62915.5 2434.50   3
   4  -2  -3 64134.6 2244.93   8
   2  -4  -3 64012.1 2084.63   1
  -2  -2  -3 61851.6 2216.63   1
  -4   2  -3 67763.6 2454.03   4
   2   2  -3 58520.5 1925.73   2
  -2  -2  -3 59530.8 1402.83  12
   4  -2  -3 63581.2 2139.67   6
   4  -2   0 531606. 6200.70  13
  -2  -2   0 508208. 4734.71  12
  -2   4   0 445549. 4966.92  10
  -2  -2   0 512332. 5221.70   3
  -4   2   0 542157. 6402.22  10
   4  -2   0 542428. 5300.29   6
   2  -4   0 501003. 6745.52   3
  -2   4   0 434932. 5796.94   4
   2   2   0 597838. 4908.44   9
   4  -2   0 549891. 6871.96   8
   2   2   0 557526. 5664.28   2
  -4   2   0 544120. 6605.65   4
  -2  -2   0 474541. 2070.76   7
   2  -4   3 58568.7 2221.61   3
  -2  -2   3 55992.8 817.687  10
  -2   4   3 57132.0 1957.40  10
  -4   2   3 60616.4 2059.88  10
  -2  -2   3 51628.5 791.090  10
   4  -2   3 63303.8 1965.34   9
  -2  -2   3 58037.9 1903.19   3
  -2  -2   3 58278.7 1773.28  12
  -2   4   3 60054.3 2244.04   4
   2   2   3 61025.8 1824.58   9
  -4   2   3 63228.7 2107.76   4
   4  -2   3 61631.4 2188.68  13
   2   2   3 60731.3 1745.28   8
  -2  -2   3 57161.6 1279.67   7
   2   2   3 58254.1 1797.12   2
   4  -2   3 57167.3 1385.18   6
   2  -4   3 60160.6 2201.04  12
   2  -4   6 564688. 6858.69   3
  -2   4   6 464593. 6199.37  10
  -4   2   6 602916. 6610.07  10
   2  -4   6 570926. 6848.06  12
   4  -2   6 554626. 6679.37   9
  -2   4   6 484304. 6443.11   4
  -2  -2   6 629843. 6804.68   3
   2   2   6 551195. 6396.73   9
  -2   4   6 486636. 6483.64   9
  -4   2   6 621535. 6348.97   4
   2   2   6 548394. 5170.39   8
  -2  -2   6 615009. 5437.38   7
   2   2   6 530855. 5306.41   2
   4  -2   6 553423. 6843.91  13
  -2  -2   6 631836. 6500.76  12
   2  -4   9 35033.9 1753.61   3
   2   2   9 34700.5 1293.25   2
  -4   2   9 32867.3 1649.45  10
  -2   4   9 36100.4 1792.73   4
   4  -2   9 35801.1 1873.90   9
  -2  -2   9 37624.4 1118.14   9
  -2  -2   9 32590.0 1675.11   3
   2   2   9 37635.8 1917.91   9
  -2   4   9 34597.8 1827.48   9
   2   2   9 38395.8 1367.45   8
  -2  -2   9 32948.7 1518.45   7
  -2   4   9 36420.2 1939.78  10
  -2   4   9 34532.4 1572.39   7
  -4   2   9 32143.3 1765.52   7
  -2  -2   9 33011.5 1683.70  12
   4  -2   9 35348.9 1810.29  13
   2  -4   9 34015.3 1748.09  12
  -4   2   9 35307.4 1395.71   4
   2  -4  12 398315. 6317.42   3
  -2   4  12 388935. 6827.80  10
   4  -2  12 342102. 6574.42   9
   2  -4  12 388757. 6713.56   9
  -2  -2  12 402082. 6454.92   3
   2   2  12 360331. 6668.81   9
  -4   2  12 394669. 6283.08  10
  -2   4  12 367939. 6420.97   9
  -2  -2  12 392514. 6089.37   7
  -2   4  12 386007. 5828.13   7
  -4   2  12 390229. 6722.36   7
   4  -2  12 360513. 6048.03  13
   2  -4  12 389252. 6354.26  12
  -2  -2  12 392765. 6441.28  12
  -2  -2  15 16104.3 1405.41   3
   2  -4  15 18829.1 1450.20   3
  -2   4  15 17550.8 1585.21  10
  -4   2  15 17378.7 1429.09  10
   2  -4  15 17416.4 1549.16   9
   2  -4  15 16389.6 1423.51  12
   4  -2  15 17758.5 1620.22   9
   2   2  15 19552.1 1728.37   9
  -2   4  15 16597.6 1497.24   9
  -2  -2  15 15867.9 1376.19   7
  -2   4  15 17394.8 1365.79   7
  -4   2  15 16392.5 1484.20   7
   4  -2  15 19894.6 1459.20  13
  -2  -2  15 16016.7 1417.91  12
  -2   4  18 262053. 6692.68  10
  -4   2  18 245294. 5588.04  10
  -2  -2  18 248671. 5945.54   3
   2   2  18 246694. 6783.65   9
  -2   4  18 242440. 6121.97   9
   2  -4  18 242944. 6080.78   9
   4  -2  18 233435. 6418.59   9
  -2  -2  18 242332. 5946.08   7
  -2   4  18 254845. 5817.48   7
  -4   2  18 247183. 6192.70   7
   2  -4  18 241513. 5901.15  12
  -2  -2  18 247762. 6039.74  12
  -2  -2  21 8613.41 1154.49   3
   2  -4  21 9137.34 1249.49   9
   1  -4 -19 6778.74 1115.78   6
   3   1 -19 6143.34 980.365   5
   1  -4 -19 6295.05 1025.79  11
  -4   3 -19 6969.39 1153.73   5
  -3   4 -19 6810.93 1139.40   5
   3   1 -19 5737.32 987.197  11
   1  -4 -19 7920.88 1310.19   1
  -1  -3 -19 7494.31 1301.00   1
   3   1 -19 6054.23 922.950   6
   4  -1 -19 6008.51 978.278   6
   4  -1 -19 5905.38 1015.80  11
   3   1 -16 343072. 7082.45  11
   1  -4 -16 332849. 7746.45   6
  -3   4 -16 336293. 7326.78   5
   1  -4 -16 329886. 7789.71   1
  -4   3 -16 342603. 7493.51   5
   3   1 -16 336051. 6605.30   6
  -1  -3 -16 317770. 7775.24   1
   4  -1 -16 338809. 7168.37  11
   4  -1 -16 325553. 6869.42   6
   1  -4 -13 13368.9 1437.56   1
   3   1 -13 11215.8 1169.35  11
   4  -1 -13 10475.8 1147.42  11
  -1  -3 -13 13060.7 1460.53   1
   3   1 -13 11881.5 1102.00   5
  -3   4 -13 12252.4 1276.00   5
   4  -1 -13 13402.1 1075.49   5
  -4   3 -13 14354.3 1365.33   5
  -3   4 -13 12839.5 1081.72   4
  -4   3 -13 11953.5 1147.27   4
   3   1 -13 12347.4 1183.41   6
   4  -1 -13 11166.1 1197.78   6
   4  -1 -10 619422. 5770.35   5
   3   1 -10 584652. 7543.84  11
   1  -4 -10 473796. 6852.02   3
  -4   3 -10 404977. 6166.78   5
   1  -4 -10 456900. 7653.50   1
  -1  -3 -10 463460. 7887.16   1
  -3   4 -10 458313. 6434.42   4
   3   1 -10 548153. 6721.23   2
  -4   3 -10 430152. 6781.76   4
  -1  -3 -10 499575. 5545.29   3
   3   1 -10 577149. 7542.23   6
   4  -1 -10 558227. 7719.69   6
   3   1 -10 584982. 6569.54   5
  -3   4 -10 483866. 7075.57   5
  -3   4 -10 531189. 5812.17   2
   4  -1 -10 612831. 8055.32  11
   3   1  -7 23541.2 1400.02  11
  -3   4  -7 21811.6 1295.96   5
  -4   3  -7 22584.1 1168.62   5
   3   1  -7 22299.5 1126.43   5
   3   1  -7 22723.7 1398.35   6
  -3   4  -7 24674.4 1366.54  10
   4  -1  -7 23573.6 826.808   5
  -1  -3  -7 24721.7 1650.09   1
  -3   4  -7 23093.3 1408.45   4
   3   1  -7 21036.5 1248.69   2
  -4   3  -7 24945.1 1568.95   4
   4  -1  -7 22720.1 1231.58  13
  -1  -3  -7 24359.3 1297.64   3
   1  -4  -7 24952.7 1607.07   1
   4  -1  -7 22182.6 1417.44   6
   4  -1  -7 22103.8 1370.14  11
   1  -4  -7 25180.5 1552.35   3
   4  -1  -4 551804. 6414.64   6
  -3   4  -4 381203. 4916.59   5
  -4   3  -4 409118. 3954.06   5
   4  -1  -4 534873. 6067.70  13
  -3   4  -4 414651. 5534.67  10
  -1  -3  -4 421783. 5581.10   3
   4  -1  -4 542498. 6355.04  11
   1  -4  -4 438176. 6379.16   3
  -3   4  -4 396756. 5842.94   4
   1  -4  -4 436023. 6214.49   1
  -4   3  -4 428321. 6155.44   4
  -1  -3  -4 445762. 6471.64   1
   4  -1  -4 517264. 6532.64   8
   3   1  -4 557977. 6146.75   2
   3   1  -4 556156. 6429.54   6
   1  -4  -1 34978.1 1790.55   3
  -1  -3  -1 35016.5 1563.81   3
  -3   4  -1 33427.8 1530.30  10
  -4   3  -1 36441.6 1736.30  10
   4  -1  -1 37139.0 887.095   9
  -3   4  -1 34828.5 1710.42   4
  -4   3  -1 37226.9 1756.04   4
   4  -1  -1 35657.4 1772.53   8
   3   1  -1 33458.0 1544.94   8
   1  -4  -1 30665.1 695.030  11
   3   1  -1 33650.0 1480.23   2
   4  -1  -1 32471.7 1397.82   6
   3   1  -1 33155.6 1505.58  13
   3   1  -1 37233.2 1553.80   6
   4  -1  -1 35716.0 1618.47  13
  -1  -3  -1 34126.2 1416.83  12
   1  -4   2 571914. 6972.61   3
   3   1   2 676293. 6884.16  13
  -1  -3   2 624130. 6605.00   3
  -3   4   2 489688. 6067.58  10
  -4   3   2 596007. 6864.69  10
   4  -1   2 653571. 7008.30  13
   4  -1   2 695144. 5464.76   9
   3   1   2 636710. 5162.30   9
  -3   4   2 474202. 6255.82   4
  -4   3   2 573172. 6858.43   4
   4  -1   2 620567. 7481.63   8
   3   1   2 647376. 6686.78   8
   4  -1   2 618673. 5362.16   6
   3   1   2 627908. 6098.76   2
   1  -4   2 601496. 6943.76  12
  -1  -3   2 626407. 6290.87  12
  -3   4   5 26331.8 1484.04  10
  -4   3   5 26558.7 1471.96  10
  -1  -3   5 25734.4 1389.15   3
   4  -1   5 28631.4 1336.17   9
  -3   4   5 28877.0 1557.19   4
   3   1   5 27800.7 1320.27   9
   1  -4   5 25934.3 1461.91  12
  -4   3   5 28744.8 1500.84   4
   1  -4   5 26508.9 1499.64   3
   3   1   5 27856.6 1410.48   8
   3   1   5 26982.5 1403.41  13
  -1  -3   5 25563.0 1029.18   7
   3   1   5 26290.5 1189.78   2
   4  -1   5 27735.8 1501.43  13
  -1  -3   5 25530.6 1347.66  12
  -3   4   8 436447. 6666.03  10
  -4   3   8 456226. 6454.67  10
  -1  -3   8 478279. 6400.54   3
  -3   4   8 441452. 6280.77   4
   4  -1   8 453094. 6291.33  13
   3   1   8 450643. 6120.91   9
  -4   3   8 472130. 5888.78   4
  -3   4   8 432589. 6142.76   9
   1  -4   8 471280. 6598.07   3
   3   1   8 446637. 5838.39   8
   3   1   8 430155. 4453.24   2
  -1  -3   8 491746. 5498.91   7
   3   1   8 432182. 5660.56  13
   1  -4   8 467915. 6569.64  12
   4  -1   8 447067. 6094.72   9
  -1  -3   8 478237. 6380.44  12
   1  -4  11 13546.3 1184.32   3
  -4   3  11 13729.9 1233.08  10
  -3   4  11 13991.8 1295.91  10
  -1  -3  11 12855.1 1140.28   3
  -1  -3  11 15122.6 1029.39   9
  -3   4  11 14144.5 1125.34   4
   4  -1  11 13710.8 1202.36   9
  -4   3  11 15052.6 1020.70   4
   3   1  11 14789.3 1253.73   9
  -3   4  11 12825.6 1110.77   9
   3   1  11 15416.4 1122.69   8
  -1  -3  11 12720.8 1040.34   7
  -4   3  11 13930.4 999.545   9
   4  -1  11 14299.5 1138.51  13
  -3   4  11 13138.3 1133.19   7
  -4   3  11 13560.5 1250.16   7
   3   1  11 14352.4 1055.95  13
   1  -4  11 13478.6 1203.71  12
  -1  -3  11 12842.3 1157.93  12
  -4   3  14 364679. 6809.93  10
   1  -4  14 359249. 6523.04   3
  -1  -3  14 351512. 6433.48   3
   1  -4  14 358755. 6574.34   9
  -1  -3  14 389093. 5541.85   9
   4  -1  14 315474. 6588.10   9
   3   1  14 326520. 6688.64   9
  -3   4  14 334156. 6178.90   9
  -4   3  14 365557. 5481.12   9
  -1  -3  14 360052. 6409.70   7
  -3   4  14 348048. 6375.71   7
  -4   3  14 363143. 6943.22   7
   4  -1  14 334048. 5719.40  13
   1  -4  14 357845. 6713.75  12
  -1  -3  14 355923. 6695.86  12
  -3   4  17 6846.62 1032.07  10
  -4   3  17 7066.12 1000.30  10
   1  -4  17 7309.63 989.950   3
  -1  -3  17 6480.31 942.640   3
   4  -1  17 7155.15 1095.97   9
   3   1  17 7884.89 1164.90   9
  -3   4  17 6814.18 948.919   9
  -1  -3  17 6968.84 1017.74  12
  -1  -3  17 6773.18 980.277   7
  -3   4  17 6761.74 960.292   7
   1  -4  17 6732.69 954.734   9
  -4   3  17 6899.74 1011.49   7
   1  -4  17 7181.49 1030.05  12
   1  -4  20 234076. 5960.53   9
   4  -1  20 231625. 6772.91   9
   3   1  20 233169. 6965.94   9
  -3   4  20 224069. 5794.45   9
  -4   3  20 243563. 6220.41  10
  -1  -3  20 243069. 6400.50   7
  -3   4  20 242500. 6217.88   7
  -4   3  20 248248. 6560.74   7
  -1  -3  20 236131. 6028.51   3
  -3   4  20 255868. 6822.70  10
   1  -4  20 248885. 6529.13  12
  -1  -3  20 243471. 6440.20  12
   4   0 -20 245498. 6354.53   6
   4   0 -17 44.6158 115.618   6
   0  -4 -17 106.156 155.646   6
   4   0 -17 331.362 241.880  11
   0  -4 -17-10.8728 93.2756   1
  -4   4 -17 232.849 183.550   5
   0  -4 -14 304228. 7366.06   1
  -4   4 -14 312881. 6489.77   5
   4   0 -14 323025. 6499.74   6
  -4   4 -14 329695. 6124.10   4
   4   0 -11 148.654 100.971   5
  -4   4 -11 284.194 167.213   5
   0  -4 -11 1190.46 426.023   1
   0  -4 -11 1043.24 304.108   3
  -4   4 -11 43.0687 88.3493   4
   4   0 -11 140.888 125.193  11
   4   0 -11 561.821 243.015   6
   4   0  -8 540234. 7364.83  11
   4   0  -8 578455. 5126.89   5
  -4   4  -8 371691. 5514.89   5
  -4   4  -8 382167. 6268.83   4
   0  -4  -8 433020. 6342.74   3
   0  -4  -8 417551. 7220.55   1
   4   0  -8 513749. 7080.95   6
   4   0  -5 108.243 108.375   6
   0  -4  -5 117.782 130.469   3
  -4   4  -5 231.302 121.261   5
   4   0  -5 91.5394 93.3119   2
  -4   4  -5 563.963 229.093  10
  -4   4  -5 45.7602 79.6930   4
   4   0  -5 34.9714 58.8474  11
   0  -4  -5 415.133 213.463   1
   4   0  -5 235.014 135.119  13
   0  -4  -2 514017. 6947.33   3
   4   0  -2 626454. 6868.11   6
  -4   4  -2 489059. 6699.75  10
  -4   4  -2 483179. 6944.64   4
   4   0  -2 612523. 6525.74   2
   4   0  -2 599699. 7352.58   8
   4   0  -2 631447. 6989.13  13
   0  -4   1 10.0598 51.5683  12
   4   0   1 191.572 108.420   6
  -4   4   1-9.71499 37.4705  10
   4   0   1 65.2284 75.7726   2
   0  -4   1-18.4448 19.0067   3
   4   0   1 42.3993 44.4411   9
  -4   4   1 98.1659 120.205   4
   4   0   1 208.119 122.666  13
   0  -4   4 458343. 6478.22   3
  -4   4   4 418721. 6231.57  10
   0  -4   4 443370. 6130.60  12
   4   0   4 464472. 4998.27   9
  -4   4   4 412549. 6204.41   4
   4   0   4 426997. 4957.34   2
   4   0   4 452162. 6601.02   8
   4   0   4 447554. 6111.94  13
  -4   4   7 182.299 152.900  10
   0  -4   7 21.3075 63.5944  12
   0  -4   7 4.58809 39.3762   3
   4   0   7 27.6456 62.1956   9
   4   0   7 25.8438 30.8848   8
  -4   4   7 308.078 174.824   4
   4   0   7 181.826 124.191  13
   4   0  10 462361. 6490.38  13
  -4   4  10 479009. 7666.21  10
  -4   4  10 517195. 7009.03   4
   4   0  10 466673. 6885.02   9
   4   0  10 430146. 6813.39   8
  -4   4  10 470165. 7119.86   7
   0  -4  10 496054. 7329.29  12
   0  -4  10 501941. 7489.50   3
   0  -4  13-17.1981 73.8145  12
  -4   4  13 54.0338 112.829   7
  -4   4  13 315.219 226.878  10
   0  -4  13 47.9320 80.0816   9
   4   0  13 11.6680 45.5741   9
  -4   4  13 85.3373 106.128   9
   4   0  13 108.564 84.0342  13
  -4   4  13 49.4032 39.1332   4
  -4   4  16 280202. 6618.15  10
   0  -4  16 280675. 6356.88   3
   0  -4  16 290293. 5786.24   9
   4   0  16 257391. 6518.02   9
  -4   4  16 278541. 5690.56   9
  -4   4  16 274396. 6301.96   7
   0  -4  16 273901. 6420.22  12
   0  -4  19 64.5337 85.3042  12
  -4   4  19 59.2831 142.803  10
   0  -4  19-74.5860 143.048   3
   4   0  19 260.390 227.300   9
  -4   4  19 84.9301 149.640   7
   5  -5 -17 29.1103 85.0599   6
  -5   0 -17 33.9000 147.624   1
  -5   0 -17-42.1584 88.3348   4
   0   5 -17 244.724 228.332   5
   5  -5 -14 321888. 6467.25  11
   0   5 -14 348428. 7747.20   5
  -5   0 -14 345599. 7605.92   1
  -5   0 -14 327682. 7703.02   4
   5  -5 -14 327044. 8006.51   6
   5  -5 -11 60.1738 93.4664   6
   5  -5 -11 24.3996 71.9603  11
  -5   0 -11 20.9075 52.8075   1
   0   5 -11 88.8302 119.390   5
   0   5 -11 2.27164 71.8180   2
  -5   0 -11-2.01242 83.0874   4
   5  -5  -8 488073. 6399.61  11
   5  -5  -8 471345. 8206.82   6
  -5   0  -8 480986. 8195.83   4
   5  -5  -8 498130. 6608.61  13
   0   5  -8 489580. 7613.73   2
   5  -5  -5-0.35430 35.4229   6
   0   5  -5 64.6902 78.1340   2
   5  -5  -5 16.0437 35.2734   8
  -5   0  -5 125.407 117.775   1
  -5   0  -5 41.7637 76.0971   4
   5  -5  -5 70.4058 43.2510  13
   5  -5  -2 263309. 5113.83   6
   5  -5  -2 272232. 5142.16   8
   0   5  -2 270372. 5608.42   2
   5  -5  -2 261981. 5498.79  13
  -5   0  -2 270536. 5452.66   4
   5  -5   1 1095.61 286.376   6
  -5   0   1 1852.83 361.037   1
  -5   0   1 1686.23 380.237  10
   5  -5   1 146.035 137.643  13
   5  -5   1 36.6195 48.1294   3
   0   5   1 33.6362 66.0966   2
  -5   0   1 657.753 261.765   4
  -5   0   1 48.2780 51.6993  12
  -5   0   4 620903. 6721.29  12
   0   5   4 600032. 8474.88   2
  -5   0   4 646808. 6944.69  10
  -5   0   4 668952. 7931.91   4
  -5   0   4 578961. 7076.85   7
   5  -5   4 594525. 8197.53   3
   5  -5   4 562391. 8414.94  13
  -5   0   7 38.9749 52.2876  12
  -5   0   7 16.4298 42.4394  10
   5  -5   7 30.8290 29.9822   3
   0   5   7 2.98349 61.3359   2
  -5   0   7 18.6994 19.5855   4
  -5   0   7 91.6082 99.4025   7
   5  -5   7 80.8854 124.136  13
  -5   0  10 294587. 5831.43  12
   0   5  10 279763. 5656.45   2
   5  -5  10 265092. 6230.16   9
   0   5  10 262674. 6083.34   9
  -5   0  10 303684. 5897.58   7
   5  -5  10 288344. 6510.08  13
   5  -5  13 215.430 223.663   9
   0   5  13 29.9034 73.6361   9
  -5   0  13-11.1758 23.2836   7
  -5   0  16 199857. 5752.49  12
   5  -5  16 189816. 5581.84  13
   5  -5  16 188316. 5860.84   9
   0   5  16 192655. 6122.10   9
  -5   0  16 190064. 5506.53   7
   4  -5 -18 220295. 6886.91   6
   5  -4 -18 209474. 5899.40  11
   4  -5 -18 199459. 5563.75  11
   1   4 -18 218035. 6304.88   5
  -1   5 -18 218629. 6498.79   5
  -5   1 -18 192603. 6118.28   1
  -5   1 -18 198774. 5942.80   4
  -4  -1 -18 217103. 6818.32   1
  -4  -1 -18 190930. 5865.85   4
   5  -4 -18 216445. 6723.20   6
   5  -4 -15 5101.15 854.746  11
   4  -5 -15 5344.29 826.268  11
   1   4 -15 5738.13 962.313   5
  -1   5 -15 6166.54 1034.65   5
  -5   1 -15 6507.87 936.314   5
  -5   1 -15 6779.10 1043.50   1
  -5   1 -15 6156.39 1004.68   4
  -4  -1 -15 6933.07 1127.12   1
   4  -5 -15 6262.75 1112.52   6
   5  -4 -15 5742.29 1027.91   6
   4  -5 -12 349211. 7853.75   6
   5  -4 -12 348275. 6590.72  11
   4  -5 -12 350306. 6108.82  11
   1   4 -12 352262. 7077.58   5
  -1   5 -12 355366. 7340.80   5
  -1   5 -12 380789. 6295.16   2
  -5   1 -12 380950. 6932.23   1
  -5   1 -12 337172. 7286.41   4
   1   4 -12 359745. 6372.20   2
  -4  -1 -12 356889. 7531.75   1
   5  -4 -12 344421. 7433.84   6
   4  -5  -9 12598.3 1389.32   6
   5  -4  -9 9920.61 1015.88  11
   4  -5  -9 10551.1 928.130  11
  -1   5  -9 10471.2 1179.95   5
   1   4  -9 10477.1 1163.55   5
   4  -5  -9 12495.5 1025.24   1
  -1   5  -9 11867.2 1008.26   4
   5  -4  -9 11447.7 915.843  13
  -5   1  -9 11950.5 1275.44   4
  -5   1  -9 12960.4 1132.67   1
   1   4  -9 10271.2 1032.24   2
  -4  -1  -9 11533.6 1223.91   1
  -1   5  -9 11392.0 1106.82   2
   5  -4  -9 10549.4 1191.72   6
  -1   5  -6 531303. 7676.38   2
   4  -5  -6 491463. 5402.48  11
  -1   5  -6 501724. 7788.92   5
   4  -5  -6 518211. 5905.53   1
   1   4  -6 515059. 7079.93   2
  -5   1  -6 585380. 6561.24   1
   5  -4  -6 488586. 6244.60  11
   4  -5  -6 489789. 8005.60   6
  -1   5  -6 515938. 6968.09   4
  -4  -1  -6 495367. 7350.61   1
   5  -4  -6 494604. 6352.19   8
   5  -4  -6 507082. 6698.04  13
  -5   1  -6 477073. 7655.71   4
   4  -5  -6 473605. 8065.57   3
   1   4  -6 528986. 7610.86   5
   4  -5  -6 473917. 6456.24  13
   5  -4  -6 492356. 7370.16   6
   4  -5  -3 14544.4 719.656  11
  -1   5  -3 16315.5 1333.12   2
   5  -4  -3 16036.3 1205.22   6
  -4  -1  -3 16917.8 945.014   3
  -1   5  -3 16439.6 1269.01   4
   5  -4  -3 16577.2 1259.02   8
   4  -5  -3 16624.1 1283.07  13
  -5   1  -3 19972.2 1029.68   1
   4  -5  -3 19045.8 1021.90   1
  -5   1  -3 17010.1 1363.31   4
   4  -5  -3 17215.5 1480.72   3
   5  -4  -3 15629.8 1226.31  13
   1   4  -3 14752.1 1175.87   2
  -4  -1  -3 16275.7 1229.79   1
  -1   5   0 471086. 5005.57  10
  -1   5   0 435685. 6955.09   2
   5  -4   0 437917. 5622.24   6
  -5   1   0 444537. 6452.13  10
  -1   5   0 450742. 6803.44   4
  -4  -1   0 429947. 5332.69   3
  -5   1   0 478918. 6932.92   4
   5  -4   0 434576. 6804.86  13
  -4  -1   0 429832. 5930.19   1
   4  -5   0 449057. 4865.98   1
  -4  -1   0 442836. 4406.59   7
   4  -5   0 435566. 7147.42   3
   4  -5   0 418004. 6715.30  13
   1   4   0 461441. 6601.95   2
  -4  -1   0 437090. 4412.68  12
  -1   5   3 16727.4 1092.60  10
  -1   5   3 16629.6 1348.95   2
  -5   1   3 15966.8 1174.21  10
  -4  -1   3 15914.1 928.937  10
  -1   5   3 16099.6 1334.62   4
   1   4   3 19027.9 1328.98   9
  -5   1   3 16921.5 1252.68   4
  -4  -1   3 15980.0 939.559   7
   5  -4   3 16503.8 908.143   6
   4  -5   3 17504.2 1389.97   3
   5  -4   3 16075.7 1347.57  13
   1   4   3 15991.1 1230.88   2
  -4  -1   3 14961.0 971.669  12
  -4  -1   6 498396. 6388.15  12
  -1   5   6 414956. 6049.75  10
  -5   1   6 496377. 6336.46  10
  -1   5   6 429908. 6906.28   2
   4  -5   6 466377. 7060.22   3
   1   4   6 454305. 6718.22   9
  -1   5   6 409228. 6971.88   9
  -5   1   6 565633. 6924.86   4
  -4  -1   6 584484. 6447.58   4
  -4  -1   6 520727. 5994.66   7
  -5   1   6 472705. 6944.41   7
   5  -4   6 499780. 6290.75   3
   5  -4   6 432465. 7267.69  13
   1   4   6 460217. 6616.40   2
  -4  -1   9 10597.4 1038.47  12
  -1   5   9 11955.7 1154.82  10
  -5   1   9 10448.8 943.473  10
  -1   5   9 11464.1 1146.52   2
   5  -4   9 11178.9 1192.72   9
   1   4   9 11234.3 1180.08   9
  -1   5   9 10898.1 1194.95   9
  -4  -1   9 9918.32 931.954   7
  -5   1   9 10957.7 1126.27   7
   5  -4   9 12367.1 1267.65  13
   4  -5   9 11525.0 1272.90  13
   4  -5   9 10753.9 1075.28   3
   1   4   9 11501.2 1025.57   2
  -4  -1  12 304405. 6131.39  12
  -5   1  12 331280. 5595.77  10
  -1   5  12 294074. 5784.06   2
   4  -5  12 296468. 6607.85   9
   5  -4  12 275519. 6414.03   9
   1   4  12 289363. 6588.29   9
  -1   5  12 284400. 6554.17   9
  -4  -1  12 313023. 5899.27   7
  -5   1  12 312547. 6581.12   7
  -1   5  12 280444. 6217.24  10
   5  -4  12 298026. 6419.87  13
   4  -5  12 304097. 6037.75  12
   4  -5  12 330622. 5949.28   3
   4  -5  12 315491. 6872.17  13
  -5   1  15 6143.80 975.237  12
  -1   5  15 7161.60 1089.82  10
   4  -5  15 6718.77 941.178  12
   4  -5  15 6754.09 1057.69   9
   5  -4  15 6940.60 1075.63   9
   1   4  15 7271.33 1133.79   9
  -1   5  15 7037.10 1100.67   9
  -4  -1  15 6267.25 919.189   7
  -5   1  15 7816.14 1085.22   7
   5  -4  15 7053.10 1007.57  13
   4  -5  15 6627.65 1003.65  13
  -4  -1  15 6183.00 960.946  12
  -5   1  18 203116. 5999.91  12
  -4  -1  18 202964. 5907.21  12
   4  -5  18 202291. 6018.20   9
   5  -4  18 194058. 6138.83   9
  -4  -1  18 202452. 5808.79   3
   1   4  18 200598. 6445.32   9
  -1   5  18 203697. 6260.50   9
  -4  -1  18 201345. 5680.70   7
  -5   1  18 204344. 6015.30   7
   3  -5 -19 1390.44 466.571  11
   2   3 -19 1160.46 446.395   5
   3  -5 -19 1461.44 549.483   6
   2   3 -16 264458. 5902.25  11
   3  -5 -16 260667. 7270.32   6
   5  -3 -16 246446. 6662.34   6
   5  -3 -16 252136. 6316.01  11
   3  -5 -16 242591. 5687.15  11
   2   3 -16 248578. 6210.14   5
  -2   5 -16 256272. 6638.68   5
   2   3 -16 252745. 5740.57   6
  -5   2 -16 222396. 5663.14   5
  -5   2 -16 230168. 6112.24   4
   3  -5 -16 265451. 6675.06   1
  -3  -2 -16 252932. 7067.65   1
  -3  -2 -13 2237.64 614.387   1
   3  -5 -13 2064.76 637.086   6
   5  -3 -13 1786.37 501.043  11
   2   3 -13 2039.77 522.308   5
  -2   5 -13 1934.78 539.691   5
  -5   2 -13 3047.43 592.006   5
  -5   2 -13 2281.42 538.792   1
   2   3 -13 1724.37 436.927   2
  -5   2 -13 2415.00 610.727   4
   2   3 -13 3593.80 645.035  11
   3  -5 -13 2204.44 492.186  11
   2   3 -13 1827.49 468.203   6
   5  -3 -13 1944.56 560.697   6
   3  -5 -13 2305.78 570.919   1
  -2   5 -10 422354. 6534.50   2
   5  -3 -10 416563. 6895.12  11
   3  -5 -10 387999. 6753.65   1
   3  -5 -10 384511. 5657.42  11
   2   3 -10 408072. 6655.62   5
  -2   5 -10 382150. 7112.18   5
  -5   2 -10 365545. 5494.33   5
  -3  -2 -10 378320. 7329.16   1
  -2   5 -10 429421. 6392.26   4
  -5   2 -10 425170. 6360.76   1
  -5   2 -10 364038. 7140.37   4
   5  -3 -10 402071. 5088.03  13
   2   3 -10 405897. 6550.70   2
   2   3 -10 431073. 6360.47  11
   2   3 -10 394915. 6562.57   6
   5  -3 -10 377135. 7155.79   6
   5  -3  -7 2731.37 501.916  11
   3  -5  -7 3114.73 417.033  11
   2   3  -7 3062.55 540.352   5
  -2   5  -7 4232.42 693.578   5
  -2   5  -7 3133.88 569.402   2
  -5   2  -7 3320.65 408.076   5
  -2   5  -7 3502.53 409.569  10
   5  -3  -7 3665.46 540.878  13
  -2   5  -7 2929.37 538.715   4
   3  -5  -7 3627.25 588.868   1
  -5   2  -7 3773.49 494.738   1
   5  -3  -7 2975.89 511.197   8
  -3  -2  -7 3360.59 628.927   1
  -5   2  -7 3947.74 706.107   4
   2   3  -7 2871.55 511.978   2
   3  -5  -7 3479.57 673.790   3
   5  -3  -7 2989.95 574.152   6
   3  -5  -4 523313. 4097.98  11
  -2   5  -4 574562. 7506.29   5
  -3  -2  -4 598046. 7876.67   1
  -3  -2  -4 585825. 5994.98   3
   5  -3  -4 635885. 7465.74  13
  -2   5  -4 629147. 5747.20  10
  -2   5  -4 606879. 8142.64   2
   3  -5  -4 608907. 7109.51   1
  -2   5  -4 607445. 7807.86   4
   5  -3  -4 655235. 7760.33   6
  -5   2  -4 698908. 4940.60   1
   3  -5  -4 627378. 4953.74   8
   5  -3  -4 648423. 7871.07   8
  -5   2  -4 611090. 8320.96   4
   3  -5  -4 604216. 8577.00   3
   2   3  -4 680212. 7632.02   2
   5  -3  -4 632854. 7034.99  11
   3  -5  -1 3646.02 516.230   1
  -3  -2  -1 2902.96 437.185   3
  -5   2  -1 3379.03 575.312  10
  -2   5  -1 3669.15 610.912   4
   2   3  -1 3663.70 548.760   2
   5  -3  -1 3585.92 620.660   8
  -2   5  -1 3526.37 465.346  10
  -5   2  -1 3656.54 617.929   4
   5  -3  -1 3475.01 572.700  13
   3  -5  -1 3700.56 655.059   3
   5  -3  -1 3162.53 483.049   6
  -3  -2  -1 3377.83 550.471   1
  -3  -2  -1 4750.49 470.661  12
  -5   2   2 369046. 5902.33  10
  -3  -2   2 383828. 3630.47  10
  -3  -2   2 361268. 5184.06   3
  -2   5   2 332597. 5908.75   4
   2   3   2 382769. 5196.99   9
   3  -5   2 337687. 6009.06   3
  -2   5   2 319456. 4953.41  10
  -5   2   2 388416. 6105.23   4
  -3  -2   2 379454. 3310.97   7
   2   3   2 360192. 5343.17   2
   5  -3   2 356564. 5964.80  13
   5  -3   2 369013. 4399.14   6
  -3  -2   2 356482. 4602.49  12
  -2   5   5 3781.99 596.443  10
  -5   2   5 2705.94 478.536  10
   2   3   5 2959.98 476.522   2
   5  -3   5 3314.30 542.297   9
  -3  -2   5 4917.94 650.441   3
  -2   5   5 2799.10 549.167   4
   2   3   5 4091.34 586.960   9
  -5   2   5 3256.84 526.992   4
  -3  -2   5 2930.24 382.616   7
   5  -3   5 3515.35 616.425  13
  -3  -2   5 2702.74 447.148  12
   3  -5   5 2788.01 556.238   3
   3  -5   8 469354. 7356.86   3
  -2   5   8 405054. 6744.69  10
  -5   2   8 483434. 6801.69  10
  -2   5   8 411161. 6875.08   4
   5  -3   8 447923. 7028.22   9
  -3  -2   8 494083. 7104.78   3
   3  -5   8 454481. 7041.66  12
   2   3   8 442838. 6787.50   9
  -5   2   8 536170. 6402.96   4
  -3  -2   8 509860. 5881.06   7
  -2   5   8 422362. 5362.15   7
  -5   2   8 464922. 7300.09   7
   2   3   8 442137. 5767.86   2
   5  -3   8 441677. 7168.94  13
  -3  -2   8 481475. 6659.25  12
  -5   2  11 1322.71 377.372  10
   5  -3  11 1461.81 442.364   9
  -3  -2  11 1478.06 417.569   3
  -2   5  11 1449.14 437.684  10
   2   3  11 1271.11 399.092   9
  -2   5  11 1472.60 444.736   9
   5  -3  11 1520.49 433.686  13
  -3  -2  11 1333.02 359.251   7
  -2   5  11 1580.92 357.316   7
  -3  -2  11 1277.24 383.807  12
  -5   2  11 1326.42 414.590   7
   2   3  11 1472.73 315.355   2
   3  -5  11 1514.77 437.282   3
   3  -5  11 1656.09 450.786  12
   3  -5  14 367719. 6799.01   3
  -2   5  14 328271. 7074.64  10
  -5   2  14 347806. 6439.01  10
   5  -3  14 306688. 6408.85  13
   3  -5  14 324283. 6853.95   9
  -3  -2  14 333574. 6738.32   3
   5  -3  14 298314. 6917.85   9
   2   3  14 314150. 7107.59   9
  -2   5  14 316924. 6812.50   9
  -3  -2  14 336688. 6315.69   7
  -5   2  14 351447. 7317.69   7
   3  -5  14 331579. 6715.43  12
  -3  -2  14 334253. 6662.60  12
  -3  -2  17 635.199 312.527  12
  -2   5  17 664.450 341.694  10
  -3  -2  17 735.680 349.579   3
   3  -5  17 1015.59 415.582   9
   5  -3  17 797.301 372.310   9
   2   3  17 931.952 426.922   9
  -2   5  17 706.405 352.268   9
  -3  -2  17 599.052 300.550   7
  -5   2  17 734.835 351.580   7
   3  -5  17 949.137 400.494  13
   3  -5  17 833.088 355.165  12
   5  -2 -17 759.488 375.980  11
   2  -5 -17 833.353 422.893   6
   2  -5 -17 749.508 319.384  11
   3   2 -17 737.522 325.909   5
  -3   5 -17 993.379 429.051   5
   3   2 -17 736.739 326.147   6
  -2  -3 -17 885.292 430.669   1
  -5   3 -17 804.340 354.212   5
   3   2 -17 607.662 300.318  11
   5  -2 -17 1084.25 434.053   6
   2  -5 -17 858.575 419.197   1
   2  -5 -14 368321. 8588.04   6
   3   2 -14 382021. 7072.43  11
  -2  -3 -14 361275. 8156.88   1
   5  -2 -14 390202. 7802.13  11
  -3   5 -14 360095. 7355.94   5
   2  -5 -14 350870. 6354.25  11
   3   2 -14 397732. 6940.86   5
   3   2 -14 384687. 7135.19   6
  -5   3 -14 322448. 6417.59   5
   3   2 -14 360926. 6437.27   2
  -5   3 -14 319486. 6919.78   4
   5  -2 -14 361586. 7535.62   6
   2  -5 -14 356661. 7784.04   1
   3   2 -11 1484.99 403.555  11
  -3   5 -11 1646.01 381.913   2
   5  -2 -11 1458.36 429.860  11
   2  -5 -11 1500.20 369.579  11
  -3   5 -11 1519.24 440.741   5
   2  -5 -11 1648.79 485.411   1
   3   2 -11 1521.25 429.535   6
  -5   3 -11 1606.87 377.634   5
  -3   5 -11 2009.49 419.408  10
  -2  -3 -11 1609.76 508.134   1
   5  -2 -11 1253.10 409.030   6
  -3   5 -11 2104.14 477.075   4
   3   2 -11 1420.68 375.529   5
   3   2 -11 1373.12 383.694   2
  -5   3 -11 1437.98 449.815   4
   5  -2 -11 1338.59 303.723  13
   5  -2  -8 511329. 7338.36  11
   3   2  -8 564643. 6866.42   5
   2  -5  -8 429608. 5305.41  11
  -3   5  -8 448946. 6855.66   5
  -5   3  -8 441564. 5192.10   5
  -3   5  -8 509060. 7179.41   2
   2  -5  -8 468113. 7790.58   3
  -3   5  -8 532233. 6627.74  10
  -3   5  -8 443668. 6799.64   4
   2  -5  -8 456398. 7385.14   1
   3   2  -8 530349. 7424.81   6
  -5   3  -8 454635. 7703.26   4
   3   2  -8 508412. 6992.32   2
  -2  -3  -8 447636. 7660.74   1
  -2  -3  -8 468429. 5485.86   3
   5  -2  -8 520087. 6379.57  13
   5  -2  -8 489450. 7458.35   6
   3   2  -8 554138. 7385.59  11
   5  -2  -5 2985.08 519.563  11
  -2  -3  -5 3305.54 511.483   3
  -3   5  -5 2962.34 524.409   5
   2  -5  -5 3110.44 352.591  11
   2  -5  -5 3280.05 582.773   1
  -5   3  -5 3095.71 322.760   5
  -2  -3  -5 2923.73 582.185   1
  -3   5  -5 3481.10 520.213  10
  -3   5  -5 3163.41 578.356   4
   5  -2  -5 2840.45 533.113   8
  -5   3  -5 3341.39 635.024   4
   3   2  -5 2784.00 499.543   2
   3   2  -5 3060.84 540.074   6
   5  -2  -5 3080.17 518.069  13
   2  -5  -5 3036.43 610.024   3
   5  -2  -5 2812.38 519.210   6
   2  -5  -2 328971. 5450.59   1
  -2  -3  -2 355207. 5328.72   3
  -3   5  -2 325726. 4972.41  10
   5  -2  -2 381639. 5413.74   6
  -5   3  -2 367727. 6132.72  10
   5  -2  -2 412962. 3666.71   9
  -3   5  -2 317960. 5776.26   4
   5  -2  -2 368864. 6243.36   8
  -5   3  -2 372518. 6448.74   4
   3   2  -2 374907. 5512.27   2
   5  -2  -2 373271. 5810.03  13
  -2  -3  -2 345862. 5917.33   1
  -2  -3  -2 349714. 4502.20  12
   2  -5  -2 336530. 6155.25   3
  -2  -3   1 3435.83 524.116   3
  -3   5   1 3458.35 534.727  10
  -5   3   1 3356.02 586.092  10
   5  -2   1 3701.48 440.169   9
  -3   5   1 3482.27 601.817   4
   3   2   1 3520.10 413.535   9
   5  -2   1 3327.29 616.339   8
  -5   3   1 3486.94 587.073   4
   3   2   1 3050.52 479.875   2
   5  -2   1 3257.81 557.181  13
   5  -2   1 3614.71 467.161   6
  -2  -3   1 5104.27 582.615  12
   2  -5   1 3568.11 642.653   3
   2  -5   4 554270. 7850.80   3
  -3   5   4 467180. 6627.25  10
  -5   3   4 574664. 7328.80  10
  -2  -3   4 636175. 7429.75   3
   5  -2   4 614276. 6562.37   9
  -3   5   4 496287. 7439.15   4
   3   2   4 618246. 6449.27   9
   5  -2   4 580430. 8462.04   8
  -5   3   4 623552. 7723.77   4
   3   2   4 627981. 6746.94   8
  -2  -3   4 694020. 4840.50   7
   3   2   4 601654. 6588.05   2
   5  -2   4 597555. 5001.20   6
   5  -2   4 615278. 7889.66  13
   2  -5   4 591965. 7808.67  12
  -2  -3   4 623298. 6938.86  12
   2  -5   7 2881.68 576.027   3
  -3   5   7 3429.90 617.701  10
  -5   3   7 3165.74 570.136  10
  -2  -3   7 2797.92 521.024   3
   5  -2   7 3025.34 527.406   9
  -3   5   7 3607.39 635.974   4
   3   2   7 2804.96 507.172   9
  -5   3   7 2995.08 524.437   4
   5  -2   7 3046.49 574.683  13
   3   2   7 3347.25 489.603   8
  -2  -3   7 2878.07 399.801   7
   3   2   7 2730.72 432.518   2
   2  -5   7 2950.99 569.770  12
  -2  -3   7 2581.55 491.021  12
   2  -5  10 350791. 6466.59   3
  -3   5  10 344913. 6702.64  10
  -5   3  10 352510. 6333.25  10
  -2  -3  10 355576. 6451.19   3
   5  -2  10 340465. 6303.48  13
  -3   5  10 345036. 6320.60   4
   5  -2  10 334570. 6308.00   9
   3   2  10 351341. 6418.42   9
  -5   3  10 391168. 5517.90   4
  -3   5  10 345752. 6542.19   9
   3   2  10 364868. 5056.25   8
   3   2  10 371343. 4907.51   2
  -2  -3  10 376472. 5452.82   7
  -3   5  10 356753. 5979.01   7
  -5   3  10 355720. 6704.77   7
   2  -5  10 348003. 6437.44  12
  -2  -3  10 363229. 6381.86  12
   2  -5  13 1869.34 494.999   3
  -3   5  13 3493.56 728.190  10
  -5   3  13 1805.87 483.686  10
  -2  -3  13 1748.82 479.549   3
   2  -5  13 2070.78 531.607   9
   5  -2  13 2085.37 536.312   9
   3   2  13 2136.94 553.730   9
  -3   5  13 1783.38 488.263   9
  -2  -3  13 2084.03 474.462   7
  -3   5  13 2005.34 478.664   7
  -5   3  13 1829.61 513.220   7
   5  -2  13 1916.29 489.721  13
   2  -5  13 1868.58 497.184  12
  -2  -3  13 2193.91 539.273  12
   2  -5  16 257685. 6052.77   3
  -3   5  16 250056. 6488.84  10
  -5   3  16 241122. 5958.09  10
  -2  -3  16 245761. 6061.35   3
   2  -5  16 234496. 6009.69   9
   5  -2  16 214137. 6080.14   9
   3   2  16 232469. 6392.77   9
  -3   5  16 230623. 5858.90   9
  -2  -3  16 241118. 5718.98   7
  -3   5  16 245228. 5638.94   7
  -5   3  16 239560. 6251.13   7
   2  -5  16 237628. 6031.73  12
  -2  -3  16 244319. 6138.35  12
  -5   3  19 1230.40 419.851  10
  -2  -3  19 1453.63 500.661   3
   2  -5  19 1014.57 410.503   9
  -3   5  19 1311.22 463.687   9
  -2  -3  19 1181.91 438.108   7
   2  -5  19 1680.81 530.524  12
   1  -5 -18 218228. 6736.60   6
   4   1 -18 218305. 6145.06  11
   5  -1 -18 216879. 6313.60  11
   1  -5 -18 211640. 5747.12  11
  -4   5 -18 222979. 6444.26   5
   1  -5 -18 222672. 6980.31   1
  -1  -4 -18 214893. 7002.10   1
   4   1 -18 204395. 5661.39   6
   5  -1 -18 207496. 5938.33   6
  -1  -4 -15 8316.20 1295.41   1
   5  -1 -15 6306.60 1018.24  11
  -4   5 -15 6976.54 1047.45   5
  -5   4 -15 6736.45 965.357   5
  -5   4 -15 7440.40 1021.24   4
   4   1 -15 6231.09 979.092  11
   4   1 -15 6722.96 988.638   6
   5  -1 -15 6724.31 1025.35   6
   1  -5 -15 7905.79 1250.46   1
   4   1 -12 353806. 6893.75  11
   5  -1 -12 347813. 6962.42  11
  -4   5 -12 307751. 6160.15   5
  -5   4 -12 293726. 5633.95   5
   1  -5 -12 309745. 7160.89   1
  -1  -4 -12 316857. 7432.80   1
  -4   5 -12 352983. 6446.31  10
  -4   5 -12 326705. 6283.47   4
  -5   4 -12 284947. 6209.82   4
   4   1 -12 332369. 6597.30   6
   5  -1 -12 330906. 6743.01   6
   4   1  -9 10797.9 1113.62  11
   5  -1  -9 10352.8 1091.78  11
   4   1  -9 12120.5 920.906   5
  -4   5  -9 11834.3 1102.47   5
  -5   4  -9 11659.1 957.567   5
  -4   5  -9 12416.5 1168.77  10
  -4   5  -9 13475.4 1167.60   2
   4   1  -9 10455.4 1093.26   6
   4   1  -9 9504.19 995.743   2
  -5   4  -9 11423.9 1209.50   4
   1  -5  -9 12647.9 1345.24   1
  -1  -4  -9 12159.2 1340.14   1
   5  -1  -9 10565.4 975.166  13
   1  -5  -9 12696.3 1257.41   3
  -1  -4  -9 12707.5 1062.09   3
   5  -1  -9 10603.3 1118.48   6
   5  -1  -6 516120. 7378.49  11
   1  -5  -6 435705. 7451.58   1
  -1  -4  -6 435206. 7583.22   1
  -4   5  -6 407334. 5966.22   5
  -5   4  -6 437063. 4887.10   5
  -4   5  -6 431655. 6681.48  10
  -5   4  -6 435069. 6986.23  10
   5  -1  -6 528893. 7035.58  13
  -4   5  -6 401655. 6817.11   4
   4   1  -6 487804. 6730.75   2
  -5   4  -6 421978. 7112.37   4
   5  -1  -6 513096. 7633.58   8
   4   1  -6 499535. 7174.22   6
   5  -1  -6 514381. 7310.91   6
   1  -5  -6 447382. 7411.35   3
  -1  -4  -6 443992. 6701.40   3
  -1  -4  -3 15606.0 1261.26   3
  -4   5  -3 16171.4 1265.15  10
  -5   4  -3 16364.6 1345.08  10
   5  -1  -3 15539.4 1202.79  13
  -4   5  -3 16228.5 1350.80   4
  -5   4  -3 16706.3 1386.80   4
   4   1  -3 14083.6 1102.04   2
   5  -1  -3 15179.2 1319.08   8
  -1  -4  -3 15797.4 1352.17   1
   1  -5  -3 15920.5 1319.34   1
   4   1  -3 14765.5 1170.88  13
   4   1  -3 14777.2 1178.54   6
   5  -1  -3 15011.1 1141.42   6
   1  -5  -3 16677.9 1423.48   3
  -1  -4   0 426586. 6505.73   3
  -4   5   0 349863. 5841.54  10
   1  -5   0 400577. 6829.49   3
  -5   4   0 425361. 6829.87  10
   5  -1   0 458956. 6737.79  13
  -4   5   0 360993. 6519.98   4
   4   1   0 464333. 6536.16  13
  -5   4   0 410461. 6811.03   4
   4   1   0 447426. 6131.25   6
   5  -1   0 425301. 6932.74   8
   4   1   0 445511. 6002.09   2
   4   1   0 456126. 6606.11   8
   5  -1   0 446461. 5763.59   6
  -1  -4   0 430089. 6012.69  12
   1  -5   3 14621.7 1285.89   3
  -1  -4   3 15152.8 1236.31   3
  -4   5   3 15863.8 1280.35  10
  -5   4   3 14527.1 1217.65  10
   5  -1   3 16321.0 925.935   9
  -4   5   3 16058.5 1353.30   4
   4   1   3 16900.7 968.825   9
  -5   4   3 16839.6 1376.16   4
   5  -1   3 16829.8 1423.03   8
   4   1   3 15200.8 1190.47   8
   4   1   3 14049.2 1027.69   2
   5  -1   3 14473.8 930.076   6
   4   1   3 16038.6 1230.91  13
   5  -1   3 15173.2 1249.37  13
   1  -5   3 15678.8 1282.36  12
  -1  -4   3 14616.6 1141.15  12
   1  -5   6 473954. 7426.70   3
  -1  -4   6 475597. 7193.88   3
  -4   5   6 435673. 7031.50  10
  -5   4   6 442704. 7052.49  10
   4   1   6 495235. 6898.90  13
   1  -5   6 452566. 7042.47  12
   5  -1   6 500672. 6164.20   9
  -4   5   6 429632. 7025.45   4
   4   1   6 493234. 6314.88   9
  -5   4   6 486591. 7214.63   4
   5  -1   6 455121. 7483.08   8
   4   1   6 463150. 5703.72   2
   4   1   6 462555. 6627.56   8
   5  -1   6 481094. 7150.20  13
  -1  -4   6 489281. 7076.16  12
   1  -5   9 10279.8 1136.93   3
  -4   5   9 10476.8 1181.55  10
  -5   4   9 10070.5 1121.38  10
  -1  -4   9 9912.93 1098.37   3
  -4   5   9 12310.1 1208.29   4
   5  -1   9 10855.2 1054.26   9
   4   1   9 10722.7 1059.38   9
  -5   4   9 11465.5 1077.73   4
   4   1   9 10401.0 789.867   2
   5  -1   9 11483.3 1247.18   8
   4   1   9 10694.2 1032.96   8
   4   1   9 10984.6 1041.10  13
   5  -1   9 10590.9 1090.42  13
   1  -5   9 9749.41 1089.02  12
  -1  -4   9 9337.43 1041.68  12
   1  -5  12 326782. 6731.68   3
  -4   5  12 332669. 7143.21  10
  -5   4  12 329576. 6854.56  10
  -1  -4  12 321584. 6587.09   3
   5  -1  12 311030. 6080.85  13
  -4   5  12 334136. 6247.49   4
   5  -1  12 312417. 6347.94   9
  -1  -4  12 325145. 6578.84  12
   4   1  12 317083. 6456.08   9
   1  -5  12 315749. 6610.00  12
   4   1  12 345946. 6114.15   8
  -1  -4  12 331825. 5713.21   7
  -4   5  12 313747. 6235.80   7
  -5   4  12 336663. 6973.21   7
   4   1  12 310523. 5524.41  13
   1  -5  15 5762.36 940.326   3
  -4   5  15 6067.97 1020.84  10
  -5   4  15 5738.27 958.330  10
  -1  -4  15 5734.40 944.515   3
   1  -5  15 5820.78 909.421   9
   5  -1  15 5932.18 967.622   9
   4   1  15 6179.61 1005.40   9
  -4   5  15 5406.87 865.394   9
  -1  -4  15 5467.70 832.187   7
  -4   5  15 5687.33 893.963   7
  -5   4  15 5960.42 977.538   7
   1  -5  15 8431.12 1154.55  12
  -1  -4  15 5832.03 947.902  12
   1  -5  18 204849. 5833.32   3
  -4   5  18 206578. 6151.86  10
  -5   4  18 204388. 5873.16  10
  -1  -4  18 206061. 5952.18   3
   5  -1  18 192856. 6142.51   9
   4   1  18 198117. 6219.90   9
  -4   5  18 198889. 5469.09   9
  -4   5  18 200562. 5628.11   7
  -5   4  18 199183. 5835.22   7
   1  -5  18 202076. 5986.79  12
  -1  -4  18 199105. 5954.53  12
  -5   5 -16 191170. 5474.70   5
   5   0 -16 203922. 5844.25   6
   0  -5 -16 204480. 6776.95   1
   5   0 -13 105.453 140.727  11
  -5   5 -13 886.201 327.469   5
   0  -5 -13 2.82738 67.5028   1
  -5   5 -13 336.165 219.378   4
   5   0 -13 1031.29 407.573   6
   5   0 -10 339201. 6809.57  11
  -5   5 -10 276312. 5269.64   5
  -5   5 -10 293323. 6310.00  10
  -5   5 -10 288723. 6429.58   4
   0  -5 -10 297172. 7066.04   1
   0  -5 -10 333914. 6274.07   3
   5   0 -10 335189. 6700.10   6
   5   0  -7 30.2072 76.3109   6
  -5   5  -7 204.214 136.230   5
   0  -5  -7 46.2309 103.267   1
  -5   5  -7 129.397 121.803  10
   0  -5  -7 120.988 138.495   3
   5   0  -4 644995. 8159.11  13
  -5   5  -4 513999. 7951.37  10
   5   0  -4 655458. 8326.28   6
  -5   5  -4 497856. 8107.72   4
   0  -5  -4 537458. 8520.04   1
   5   0  -4 642761. 8822.19   8
   0  -5  -4 553306. 8499.69   3
   5   0  -1 72.4535 88.9277   6
   5   0  -1 69.2339 109.922   2
  -5   5  -1 302.290 187.245  10
   0  -5  -1 81.5730 125.445   3
   5   0  -1 7.40633 71.1537   8
  -5   5  -1 157.856 177.450   4
   5   0  -1 98.5461 118.168  13
   0  -5   2 239625. 5409.63   3
  -5   5   2 226084. 5161.12  10
   5   0   2 247562. 5108.60  13
  -5   5   2 239119. 5579.18   4
   5   0   2 243000. 5291.68   8
   5   0   2 238041. 4366.87   6
   0  -5   2 246742. 5187.11  12
   0  -5   5 32.4092 80.1731  12
  -5   5   5 116.363 139.974  10
   0  -5   5 54.5959 96.0440   3
   5   0   5 254.842 132.241   9
   5   0   5 0.96178 45.5520   8
  -5   5   5 273.220 189.701   4
   5   0   5-0.21107 37.9346  13
   0  -5   8 465134. 7923.19   3
  -5   5   8 449600. 7833.14  10
   5   0   8 467705. 6610.71   9
  -5   5   8 451015. 7495.05   4
   5   0   8 440517. 7633.39   8
   5   0   8 440845. 6959.71  13
   0  -5   8 452915. 7575.81  12
   0  -5  11 135.062 154.775  12
  -5   5  11 107.735 101.969   7
  -5   5  11 291.058 207.066  10
   0  -5  11 56.6423 80.6051   3
   5   0  11 16.9756 71.4280   9
   5   0  11 84.0453 113.974   8
  -5   5  11 275.248 193.167   4
   5   0  11 19.0795 24.6352  13
   0  -5  14 320299. 7279.13   3
  -5   5  14 321548. 7460.23  10
   5   0  14 305209. 6611.97   8
  -5   5  14 318020. 7021.32   7
   0  -5  14 315177. 7162.15  12
   0  -5  17-53.0213 72.4922  12
  -5   5  17 20.7187 75.2736  10
   0  -5  17 33.3758 121.398   3
   5   0  17 383.261 240.913   9
  -5   5  17 184.218 172.932   7
   0   6 -12 245015. 6834.85   5
  -6   0 -12 231225. 6732.10   4
   0   6 -12 224684. 5924.09   2
   6  -6 -12 228372. 6685.79   6
   6  -6  -9-71.8704 107.726   6
   0   6  -9 45.4816 81.5087   2
  -6   0  -9 189.153 190.799   4
  -6   0  -6 305196. 7061.63   4
   0   6  -6 304078. 6789.03   2
   6  -6  -6 302067. 6157.29  13
   6  -6  -6 281076. 6417.46   6
   6  -6  -3 138.873 137.360   6
   0   6  -3 24.8706 56.0502   2
  -6   0  -3-4.83603 13.6011   4
   6  -6  -3 168.483 156.164  13
  -6   0   0 438682. 7170.62  10
  -6   0   0 409839. 6032.73   3
  -6   0   0 420588. 7482.47   4
   6  -6   0 428498. 6584.96   6
   0   6   0 419019. 7918.36   2
   0   6   3 124.129 141.458   2
  -6   0   3 103.170 106.719   4
  -6   0   3 107.142 99.9720   7
   6  -6   3 123.869 152.781  13
  -6   0   6 247868. 5075.75  12
   0   6   6 247365. 5998.78   2
  -6   0   6 260500. 5357.34   7
   6  -6   6 256583. 6579.02  13
  -6   0   9 36.9353 92.8786  12
   0   6   9 17.6234 79.2933   2
  -6   0   9 15.2958 10.2621   7
  -6   0  12 248438. 6156.79  12
   0   6  12 234920. 6730.72   9
  -6   0  12 242873. 5873.43   7
   6  -6  12 257402. 6946.75  13
   6  -5 -16 213336. 5778.18  11
  -6   1 -16 214901. 6624.41   4
  -5  -1 -16 227988. 6780.63   1
   6  -5 -13 4324.38 763.985  11
   1   5 -13 4641.72 916.007   5
  -1   6 -13 4972.90 975.116   5
  -6   1 -13 4859.96 958.079   4
   1   5 -13 4275.48 801.828   2
  -5  -1 -13 4936.12 962.327   4
  -5  -1 -13 5160.89 955.437   1
   6  -5 -13 4489.94 930.617   6
   5  -6 -13 5158.82 1017.96   6
   5  -6 -10 290609. 7198.64   6
  -5  -1 -10 308214. 6958.92   1
   6  -5 -10 288952. 5801.00  11
   1   5 -10 308998. 7008.06   5
  -1   6 -10 306485. 7391.25   5
  -6   1 -10 299523. 7246.22   4
   1   5 -10 293090. 6394.30   2
  -1   6 -10 301112. 6487.37   2
   6  -5 -10 290267. 6876.70   6
   5  -6  -7 6337.80 994.955   6
   6  -5  -7 6054.14 761.781  11
  -5  -1  -7 6670.31 944.954   1
   6  -5  -7 5927.12 748.286   8
  -6   1  -7 6771.52 1034.04   4
   1   5  -7 5621.44 858.087   2
   6  -5  -7 7531.28 913.392  13
   5  -6  -7 6962.93 866.763  13
   6  -5  -7 6181.85 923.921   6
  -1   6  -7 7947.30 1061.24   2
   5  -6  -4 391646. 7282.52   6
  -1   6  -4 424580. 7934.97   2
   5  -6  -4 390303. 6856.34  13
   6  -5  -4 418936. 6896.33   8
  -5  -1  -4 437406. 7116.71   1
  -6   1  -4 412962. 7714.34   4
   5  -6  -4 403509. 8089.91   3
   6  -5  -4 402162. 7047.78  13
   6  -5  -4 398511. 6826.35   6
   5  -6  -1 7000.42 905.164   6
  -5  -1  -1 8046.50 921.655   1
  -1   6  -1 7276.18 1045.30   2
   1   5  -1 6624.74 915.306   2
   6  -5  -1 7127.03 821.985   6
  -6   1  -1 6752.22 904.949  10
  -5  -1  -1 6721.31 738.680   3
   6  -5  -1 7387.18 972.611   8
  -6   1  -1 6347.51 900.976   4
   5  -6  -1 7132.75 1029.62   3
   6  -5  -1 6819.22 948.442  13
   5  -6  -1 6906.11 945.688  13
   5  -6   2 388599. 6013.57   6
  -1   6   2 350487. 7002.30   2
  -6   1   2 373424. 6542.19  10
  -5  -1   2 358136. 5878.38   3
  -6   1   2 383304. 6823.45   4
  -5  -1   2 392261. 6198.22   1
  -5  -1   2 390546. 6514.15   4
   5  -6   2 365044. 7166.89   3
   6  -5   2 357715. 7021.74  13
   5  -6   2 343251. 6955.25  13
   1   5   2 354106. 6585.52   2
  -1   6   5 5411.06 863.286   2
  -1   6   5 6024.67 751.475  10
  -6   1   5 5096.63 709.618  10
  -5  -1   5 5128.75 750.009   3
  -6   1   5 5552.21 795.915   4
  -5  -1   5 5722.85 754.300   4
  -6   1   5 5197.30 789.537   7
   5  -6   5 5461.79 914.142  13
   6  -5   5 5689.55 912.793  13
   5  -6   5 5356.67 854.561   3
   1   5   5 6801.11 919.844   2
  -5  -1   5 5181.08 677.376  12
  -1   6   8 267371. 6106.13   2
  -1   6   8 282516. 5794.61  10
  -6   1   8 320178. 5709.06  10
   6  -5   8 272940. 6285.79   9
   1   5   8 294471. 6411.11   9
  -5  -1   8 314188. 5364.75   7
  -6   1   8 297521. 6293.18   7
   6  -5   8 296948. 6797.97  13
   5  -6   8 307064. 6328.82   3
   1   5   8 286962. 5851.26   2
  -5  -1   8 299541. 5766.13  12
   5  -6   8 283227. 6807.95  13
  -6   1  11 3187.53 677.760  12
  -1   6  11 3999.08 743.820   2
  -1   6  11 3618.99 719.896  10
   5  -6  11 4913.61 905.317   9
   6  -5  11 3547.20 766.878   9
   1   5  11 3238.34 713.280   9
  -1   6  11 3687.34 813.417   9
   6  -5  11 3781.87 787.947  13
  -5  -1  11 3440.24 625.807   7
  -6   1  11 3227.48 700.596   7
   5  -6  11 3757.98 801.765  13
   1   5  11 3633.65 635.684   2
  -5  -1  11 3165.75 651.789  12
  -6   1  14 267010. 6692.58  12
   6  -5  14 221214. 6334.26   9
  -5  -1  14 254779. 6519.74   3
   1   5  14 237668. 6670.89   9
  -1   6  14 242432. 6927.52   9
  -5  -1  14 252803. 5840.78   7
  -6   1  14 231487. 6147.48   7
   6  -5  14 236454. 6361.39  13
   5  -6  14 255824. 6795.86  13
  -5  -1  14 230897. 6072.89  12
   2   4 -17 8838.53 1282.31   5
  -6   2 -17 9820.72 1385.37   4
   4  -6 -14 284892. 7780.90   6
   6  -4 -14 273245. 6467.60  11
   2   4 -14 284827. 6944.03   5
  -2   6 -14 289080. 7252.14   5
   2   4 -14 273737. 6214.91   2
  -6   2 -14 272575. 7238.64   4
  -4  -2 -14 282565. 7448.36   1
   6  -4 -14 277835. 7330.62   6
   4  -6 -11 15900.7 1744.72   6
   6  -4 -11 14077.9 1368.51  11
   2   4 -11 13927.7 1429.51   5
  -2   6 -11 15304.2 1621.50   5
  -4  -2 -11 16070.6 1645.44   1
  -6   2 -11 16232.4 1687.57   4
   2   4 -11 14141.3 1403.02   2
  -2   6 -11 16370.8 1424.42   2
   6  -4 -11 14827.6 1559.96   6
  -2   6  -8 344889. 6913.97   2
   4  -6  -8 320292. 7417.92   6
   6  -4  -8 308350. 5870.35  11
  -2   6  -8 329254. 7055.98   5
  -2   6  -8 340765. 6318.16   4
  -4  -2  -8 324263. 6924.10   1
   6  -4  -8 309999. 5682.86   8
  -6   2  -8 325297. 7192.46   4
   2   4  -8 317799. 6255.44   2
   6  -4  -8 342196. 5894.65  13
   6  -4  -8 313881. 6634.92   6
  -2   6  -5 22528.2 1776.59   2
  -2   6  -5 21597.7 1615.36   4
   6  -4  -5 20460.5 1525.64   8
  -6   2  -5 22492.6 1804.66   4
   4  -6  -5 23183.2 1898.67   3
  -4  -2  -5 21606.9 1663.13   1
   2   4  -5 20108.6 1532.47   2
   6  -4  -5 21255.6 1541.01  13
   4  -6  -5 22148.5 1563.76  13
   6  -4  -5 20549.4 1550.44   6
   4  -6  -2 484052. 6357.37   1
  -2   6  -2 450276. 7941.30   2
  -4  -2  -2 458336. 6108.74   3
  -6   2  -2 438861. 7390.50  10
  -4  -2  -2 442804. 7138.26   1
  -2   6  -2 434839. 7373.69   4
   6  -4  -2 482270. 7943.12   8
  -6   2  -2 483633. 8013.98   4
   2   4  -2 460135. 7067.71   2
   6  -4  -2 460159. 7470.85  13
   4  -6  -2 449495. 7981.14   3
   6  -4  -2 459510. 6721.60   6
   6  -4   1 24592.0 1778.14  13
  -4  -2   1 24707.7 1637.41   1
  -2   6   1 27088.4 1475.51  10
  -2   6   1 25840.4 1927.77   2
  -6   2   1 26136.7 1783.88  10
  -4  -2   1 22739.6 1433.78   3
  -2   6   1 25765.3 1836.21   4
   6  -4   1 25777.0 1897.53   8
   2   4   1 23761.9 1602.09   2
  -6   2   1 25910.2 1789.01   4
   4  -6   1 24450.6 1833.98   3
   6  -4   1 24798.5 1317.78   6
  -4  -2   1 32178.9 1445.59  12
  -2   6   4 341714. 5881.72  10
  -6   2   4 344661. 6164.12  10
  -2   6   4 330380. 6904.91   2
  -4  -2   4 357906. 6145.88   3
   6  -4   4 364777. 6198.10   9
  -2   6   4 335844. 6778.56   4
   2   4   4 377735. 6279.68   9
  -6   2   4 397908. 6721.75   4
   2   4   4 348386. 6105.64   2
   6  -4   4 345224. 6816.79  13
   4  -6   4 336509. 6726.14   3
  -4  -2   4 371103. 5627.76  12
  -2   6   7 21419.7 1592.53  10
  -6   2   7 20257.7 1506.16  10
  -2   6   7 21569.1 1768.55   2
   6  -4   7 21035.7 1583.47   9
  -4  -2   7 19183.2 1523.37   3
   2   4   7 20135.2 1516.69   9
  -6   2   7 22150.2 1504.87   4
   2   4   7 19674.1 1422.13   2
   6  -4   7 21210.9 1720.04  13
   4  -6   7 19976.9 1633.27   3
  -4  -2   7 19116.1 1395.84  12
  -2   6  10 274718. 6102.36  10
  -6   2  10 335069. 6245.13  10
  -2   6  10 291873. 6567.47   2
   6  -4  10 299540. 6522.64   9
  -4  -2  10 329953. 6668.88   3
   2   4  10 321255. 6682.09   9
  -4  -2  10 346733. 5641.50   7
  -6   2  10 321818. 6968.67   7
   2   4  10 325632. 5600.64   2
   6  -4  10 314525. 6813.31  13
   4  -6  10 315812. 6580.64   3
  -4  -2  10 316234. 6167.33  12
  -2   6  13 14602.0 1543.46  10
  -6   2  13 14011.2 1326.48  10
  -2   6  13 15816.6 1502.01   2
   4  -6  13 14187.5 1531.80   9
  -4  -2  13 13030.9 1425.68   3
   6  -4  13 13881.0 1494.06   9
   2   4  13 15012.4 1577.65   9
  -2   6  13 14990.1 1633.08   9
  -4  -2  13 13633.9 1259.35   7
  -6   2  13 13949.5 1542.98   7
   4  -6  13 14853.2 1625.86  13
   6  -4  13 14749.9 1518.30  13
  -4  -2  13 12738.7 1346.11  12
  -2   6  16 236051. 6692.03  10
  -4  -2  16 235588. 6424.47   3
   4  -6  16 229417. 6503.56   9
   6  -4  16 207223. 6255.05   9
   2   4  16 223817. 6615.24   9
  -2   6  16 234800. 6778.85   9
  -4  -2  16 217714. 5529.58   7
  -6   2  16 229374. 6410.27   7
   6  -4  16 210007. 5785.98  13
   4  -6  16 238056. 6501.65  13
  -4  -2  16 229455. 6143.76  12
   3  -6 -15 1299.32 545.597   6
   6  -3 -15 447.359 301.484   6
   3  -6 -15 753.290 363.431   1
   3   3 -15 496.743 273.578  11
   6  -3 -15 540.932 306.090  11
   3   3 -15 494.126 264.658   5
  -3   6 -15 678.849 353.978   5
   3   3 -15 405.762 237.520   2
  -3  -3 -15 486.601 312.336   1
  -6   3 -15 710.010 357.997   4
   3   3 -15 830.190 350.180   6
   3  -6 -12 315558. 7051.14   1
   6  -3 -12 310237. 6788.52  11
   3   3 -12 321630. 6450.94   5
  -3   6 -12 303147. 6930.80   5
  -3  -3 -12 298315. 7318.56   1
   3   3 -12 294969. 6273.48   2
  -6   3 -12 300528. 7288.56   4
   3   3 -12 305088. 6584.41   6
   6  -3 -12 284546. 6856.88   6
   6  -3  -9 750.090 307.778  11
  -3   6  -9 1276.04 405.974   2
  -3   6  -9 1014.40 382.232   5
   3  -6  -9 1225.66 406.663   1
   3  -6  -9 767.191 339.428   3
  -3   6  -9 2012.59 517.224   4
  -3  -3  -9 2519.28 635.310   1
  -6   3  -9 1119.25 443.038   4
   3   3  -9 650.437 286.149   2
   3   3  -9 837.464 334.651   6
   6  -3  -9 939.680 298.903  13
   6  -3  -9 920.132 356.603   6
   3  -6  -6 321276. 7084.08   3
  -3   6  -6 300993. 6096.08   5
  -3   6  -6 330072. 6708.01   2
  -3   6  -6 318018. 6509.47   4
   6  -3  -6 313774. 6162.67   8
  -6   3  -6 334105. 7138.57   4
   3   3  -6 331560. 6276.42   2
   3  -6  -6 325873. 6173.07   1
   6  -3  -6 327440. 5921.86  13
  -3  -3  -6 308126. 6591.14   1
   6  -3  -6 310635. 6021.30   6
  -3   6  -3 1332.30 336.044  10
  -6   3  -3 995.778 364.605  10
  -3   6  -3 1214.71 418.890   2
   3  -6  -3 1162.31 349.113   1
  -3   6  -3 1022.77 371.487   4
  -3  -3  -3 951.327 344.087   1
   6  -3  -3 1155.33 380.513   8
  -6   3  -3 1028.66 374.055   4
   6  -3  -3 829.267 301.221  13
   3   3  -3 1052.62 333.305   2
   3  -6  -3 1237.76 428.193   3
   6  -3  -3 1106.20 331.659   6
  -3  -3   0 551745. 7344.86   3
  -3   6   0 464138. 6562.08  10
  -3  -3   0 504995. 7789.31   1
  -6   3   0 543795. 8352.12  10
   6  -3   0 612946. 6192.52   9
  -3   6   0 466492. 7914.60   4
   6  -3   0 551018. 8786.20   8
  -6   3   0 542167. 8167.11   4
   3   3   0 563454. 7532.34   2
   6  -3   0 557436. 6512.23   6
   6  -3   0 538736. 8013.11  13
  -3  -3   0 565961. 6272.15  12
   3  -6   0 507228. 8325.58   3
  -3   6   3 1010.08 333.895  10
  -6   3   3 1007.47 355.401  10
  -3  -3   3 882.481 307.606   3
   6  -3   3 1128.77 307.448   9
  -3   6   3 922.561 350.757   4
   3   3   3 1229.97 315.765   9
   6  -3   3 1169.53 420.650   8
  -6   3   3 1384.83 408.666   4
   3   3   3 1403.58 368.047   2
   6  -3   3 1003.56 362.440  13
   6  -3   3 1070.28 241.921   6
  -3  -3   3 1326.96 342.733  12
   3  -6   3 1433.86 447.209   3
  -3   6   6 275179. 5872.33  10
  -6   3   6 305810. 6039.41  10
  -3  -3   6 302029. 5903.88   3
   6  -3   6 316423. 5687.62   9
  -3   6   6 271752. 6119.55   4
   3   3   6 314603. 5568.01   9
  -6   3   6 337438. 6146.85   4
   3   3   6 309062. 5466.90   2
   6  -3   6 305388. 6447.21  13
  -3  -3   6 306510. 5566.37  12
   3  -6   6 310069. 6644.28   3
   3  -6   9 1679.38 510.106   3
  -3   6   9 971.743 370.306  10
  -6   3   9 805.394 320.439  10
  -3  -3   9 785.429 317.723   3
  -3   6   9 890.113 359.197   4
   6  -3   9 964.918 343.401   9
   3   3   9 851.414 326.366   9
  -6   3   9 1139.29 336.583   4
   3   3   9 968.794 287.788   2
  -3   6   9 906.208 298.086   7
  -6   3   9 882.873 366.423   7
   6  -3   9 899.327 358.069  13
   3  -6   9 1279.86 428.257  12
  -3  -3   9 1664.71 435.870  12
   3  -6  12 293759. 6756.69   3
  -3   6  12 286571. 6788.12  10
  -6   3  12 289370. 6393.26  10
  -3  -3  12 293044. 6556.39   3
   6  -3  12 278673. 6461.53   9
   3   3  12 281521. 6416.07   9
  -6   3  12 296669. 6966.05   7
   6  -3  12 283378. 6457.19  13
   3  -6  12 290324. 6667.97  12
  -3  -3  12 290715. 6388.22  12
   3  -6  15 806.951 362.738  12
  -3   6  15 640.857 339.240  10
  -6   3  15 576.758 295.732  10
  -3  -3  15 564.295 304.774   3
  -3   6  15 706.510 369.227   9
   3  -6  15 587.744 314.027   9
   6  -3  15 628.181 325.285   9
   3   3  15 529.001 310.325   9
  -6   3  15 665.669 347.764   7
   6  -3  15 1196.73 417.718  13
  -3  -3  15 772.373 356.399  12
   2  -6 -16 259326. 7751.04   6
   4   2 -16 253644. 6475.48  11
   6  -2 -16 267993. 7003.57  11
  -4   6 -16 249514. 6754.70   5
  -6   4 -16 221588. 6155.71   4
   4   2 -16 243067. 6288.24   6
   2  -6 -16 239920. 7006.81   1
   6  -2 -16 241421. 6613.20   6
  -2  -4 -16 253299. 7564.74   1
   4   2 -13 13674.3 1432.80  11
   6  -2 -13 13058.8 1431.55  11
   2  -6 -13 15842.4 1701.95   1
  -4   6 -13 14273.7 1481.48   5
  -2  -4 -13 15992.3 1770.28   1
   4   2 -13 13468.4 1430.41   6
   4   2 -13 12340.8 1303.56   2
  -6   4 -13 14492.5 1556.05   4
   6  -2 -13 13109.6 1471.03   6
   6  -2 -10 340887. 6958.09  11
  -4   6 -10 321990. 6612.38   5
  -4   6 -10 377691. 6625.34   2
   2  -6 -10 316322. 7171.73   1
  -4   6 -10 317726. 6611.50   4
  -2  -4 -10 323010. 7494.95   1
   4   2 -10 334051. 6496.40   2
  -6   4 -10 308410. 6999.28   4
   6  -2 -10 356512. 5947.36  13
   2  -6 -10 321646. 7070.74   3
   4   2 -10 343654. 6929.12   6
   6  -2 -10 322355. 6817.84   6
  -4   6  -7 21208.5 1580.03   5
  -4   6  -7 23222.5 1556.30  10
  -4   6  -7 23224.2 1783.24   2
  -6   4  -7 20934.8 1706.88  10
  -4   6  -7 20171.6 1664.93   4
  -6   4  -7 22562.9 1828.96   4
   4   2  -7 18582.6 1475.50   2
   6  -2  -7 20143.8 1630.67   8
   2  -6  -7 22519.0 1784.06   1
   6  -2  -7 20263.1 1478.90  13
   4   2  -7 19641.0 1588.21   6
  -2  -4  -7 21229.6 1820.26   1
   2  -6  -7 22042.2 1824.45   3
   6  -2  -7 18774.0 1529.68   6
  -2  -4  -4 350923. 6250.75   3
  -4   6  -4 334411. 5926.35  10
  -6   4  -4 366404. 6984.75  10
   2  -6  -4 345393. 6643.46   1
  -2  -4  -4 342739. 6951.37   1
  -4   6  -4 318268. 6669.66   4
   6  -2  -4 358244. 6309.66  13
  -6   4  -4 358443. 7109.59   4
   6  -2  -4 363588. 6960.97   8
   4   2  -4 375441. 6427.20   2
   4   2  -4 380955. 6760.25   6
   6  -2  -4 366979. 6125.03   6
   2  -6  -4 352252. 7209.16   3
  -2  -4  -1 24034.7 1767.62   1
  -2  -4  -1 24922.2 1668.22   3
   2  -6  -1 24729.3 1704.89   1
  -4   6  -1 24809.1 1653.87  10
  -6   4  -1 27434.5 1919.11  10
  -4   6  -1 25598.9 1876.28   4
  -6   4  -1 24911.2 1838.77   4
   6  -2  -1 23844.9 1810.78   8
   4   2  -1 24047.1 1623.19   2
   6  -2  -1 23318.5 1658.82  13
   6  -2  -1 23339.3 1442.60   6
  -2  -4  -1 24953.4 1437.50  12
   2  -6  -1 23933.6 1848.40   3
   2  -6   2 448908. 8095.33   3
  -2  -4   2 460250. 7283.23   3
  -4   6   2 357615. 6441.11  10
  -6   4   2 439666. 7559.15  10
  -4   6   2 378551. 7277.09   4
  -6   4   2 456056. 7674.31   4
   6  -2   2 455794. 8282.17   8
   4   2   2 490219. 7217.72   2
   6  -2   2 460953. 7488.64  13
   6  -2   2 448008. 5577.06   6
  -2  -4   2 450918. 6570.95  12
   2  -6   5 19953.7 1677.06   3
  -4   6   5 20447.6 1621.97  10
  -2  -4   5 19854.8 1571.15   3
  -6   4   5 19973.2 1606.98  10
   6  -2   5 21253.9 1298.42   9
  -4   6   5 21864.9 1776.51   4
   4   2   5 23071.6 1369.48   9
  -6   4   5 21314.1 1650.05   4
   6  -2   5 21187.7 1799.55   8
   4   2   5 19802.5 1383.46   8
   4   2   5 19558.6 1361.85   2
   6  -2   5 20521.5 1620.56  13
   2  -6   5 20068.2 1624.68  12
  -2  -4   5 20183.5 1480.54  12
   2  -6   8 288072. 6541.30   3
  -4   6   8 281572. 6440.04  10
  -6   4   8 303237. 6455.42  10
  -2  -4   8 292706. 6279.62   3
  -4   6   8 287836. 6490.33   4
   6  -2   8 298394. 5560.21   9
   4   2   8 300228. 5620.45   9
  -6   4   8 318571. 6129.48   4
   6  -2   8 277054. 6780.10   8
   4   2   8 313693. 5166.01   2
   4   2   8 312512. 5399.76   8
   6  -2   8 295591. 6311.03  13
   2  -6   8 297234. 6485.75  12
  -2  -4   8 298941. 6088.99  12
   2  -6  11 14078.1 1489.14   3
  -4   6  11 15216.2 1583.36  10
  -6   4  11 14593.8 1461.77  10
  -2  -4  11 13883.7 1439.16   3
  -4   6  11 14692.3 1457.99   4
   6  -2  11 14433.0 1380.74   9
   4   2  11 15008.1 1432.67   9
  -4   6  11 14874.4 1361.28   7
  -6   4  11 14643.3 1527.50   7
   6  -2  11 16336.3 1519.72  13
   2  -6  11 13282.6 1438.34  12
  -2  -4  11 13706.8 1392.95  12
   2  -6  14 261434. 6604.74   3
  -4   6  14 277951. 7179.49  10
  -6   4  14 268972. 6599.86  10
  -2  -4  14 275312. 6782.86   3
   2  -6  14 251938. 6268.42   9
   6  -2  14 252351. 6371.75   9
   4   2  14 255357. 6400.10   9
  -4   6  14 272193. 6100.07   7
  -6   4  14 277690. 6942.36   7
   6  -2  14 255011. 6138.80  13
   2  -6  14 269826. 6771.07  12
  -2  -4  14 274185. 6656.20  12
   2  -6  17 7972.77 1149.07   9
   5   1 -14 293796. 7052.76  11
   6  -1 -14 284483. 7059.93  11
   1  -6 -14 253112. 7318.82   1
  -5   6 -14 244141. 6026.48   5
  -1  -5 -14 266088. 7649.34   1
  -6   5 -14 230551. 6368.53  10
  -6   5 -14 236356. 6477.39   4
   5   1 -14 272397. 6736.06   6
   6  -1 -14 261979. 6667.09   6
   6  -1 -11 5243.88 918.086  11
  -5   6 -11 3578.84 671.076   5
  -5   6 -11 4580.51 805.672  10
  -6   5 -11 3657.55 773.148  10
   1  -6 -11 3800.29 844.088   1
  -1  -5 -11 4022.05 884.409   1
  -5   6 -11 3474.38 726.434   4
  -6   5 -11 3818.13 797.323   4
   1  -6 -11 3996.16 754.262   3
   5   1 -11 3381.63 723.565   6
   6  -1 -11 3127.71 695.867   6
  -5   6  -8 271185. 5492.19   5
  -5   6  -8 292086. 6298.78  10
  -6   5  -8 280371. 6538.40  10
  -5   6  -8 271581. 6382.09   4
   5   1  -8 300207. 6151.03   2
  -6   5  -8 288354. 6827.12   4
   1  -6  -8 293491. 6942.37   1
  -1  -5  -8 295544. 7116.59   1
   6  -1  -8 300152. 5991.59  13
   5   1  -8 323566. 6706.41   6
   6  -1  -8 311809. 6565.26   6
   1  -6  -8 295582. 6653.10   3
  -1  -5  -8 310053. 6083.21   3
   1  -6  -5 5812.60 947.629   1
  -1  -5  -5 5009.43 891.908   1
  -5   6  -5 5751.56 860.423  10
  -6   5  -5 5631.68 908.542  10
  -5   6  -5 5625.06 915.845   4
   5   1  -5 5400.98 792.027   2
  -6   5  -5 5556.59 930.332   4
   6  -1  -5 5071.93 855.650   8
   6  -1  -5 4924.02 771.610  13
   5   1  -5 4863.68 785.322   6
   6  -1  -5 4718.39 760.310   6
   1  -6  -5 5475.53 912.334   3
  -1  -5  -5 5573.93 867.168   3
  -1  -5  -2 342163. 6815.05   3
   5   1  -2 376284. 6671.20   6
  -5   6  -2 288582. 6004.23  10
  -6   5  -2 350451. 6929.22  10
  -5   6  -2 314432. 6888.19   4
  -6   5  -2 359463. 7467.62   4
   5   1  -2 362845. 6294.81   2
   6  -1  -2 353676. 7068.55   8
  -1  -5  -2 345634. 7046.40   1
   6  -1  -2 353320. 6527.48  13
   1  -6  -2 337522. 6838.16   1
   6  -1  -2 360730. 6087.79   6
   1  -6  -2 349392. 7333.17   3
   1  -6   1 6525.17 997.524   3
  -1  -5   1 6786.60 950.851   3
  -5   6   1 7420.13 1002.07  10
  -6   5   1 6608.58 953.292  10
  -5   6   1 6814.40 1011.97   4
  -6   5   1 7018.43 1030.86   4
   5   1   1 5875.41 778.614   2
   6  -1   1 6642.58 979.721   8
   5   1   1 6708.94 902.425   8
   5   1   1 6321.86 870.510  13
   6  -1   1 6280.81 881.547  13
   6  -1   1 7001.33 787.797   6
  -1  -5   1 6359.42 845.243  12
   1  -6   4 370339. 7462.02   3
  -1  -5   4 387796. 7350.41   3
  -5   6   4 359919. 7047.14  10
  -6   5   4 374493. 7294.75  10
   6  -1   4 386475. 7054.57  13
  -5   6   4 346057. 7188.43   4
  -6   5   4 392333. 7638.01   4
   5   1   4 385954. 6118.14   2
   6  -1   4 373165. 7426.54   8
   5   1   4 366217. 6599.70   8
   5   1   4 384927. 6834.64  13
   1  -6   4 370518. 7051.53  12
  -1  -5   4 388566. 6815.49  12
   1  -6   7 5504.10 928.564   3
  -1  -5   7 6161.03 960.008   3
  -5   6   7 6004.15 952.511  10
  -6   5   7 8852.16 1140.84  10
   6  -1   7 5991.39 891.254  13
  -5   6   7 6442.78 1003.15   4
  -6   5   7 7124.54 995.884   4
   5   1   7 5740.71 708.201   2
   6  -1   7 6047.35 980.413   8
   5   1   7 5822.48 845.565   8
   5   1   7 5777.66 840.893  13
   1  -6   7 5465.00 887.311  12
  -1  -5   7 5769.05 872.792  12
   1  -6  10 278711. 6731.07   3
  -1  -5  10 286269. 6767.62   3
  -5   6  10 285534. 6967.57  10
  -6   5  10 281805. 6707.36  10
  -5   6  10 287102. 6562.21   4
   6  -1  10 288269. 5827.44   9
  -6   5  10 293543. 6156.29   4
   5   1  10 291310. 5965.48   9
   6  -1  10 265042. 6563.35   8
   5   1  10 275988. 5836.86   8
  -5   6  10 272302. 6164.21   7
  -6   5  10 278934. 6650.33   7
   5   1  10 267363. 5787.18  13
   6  -1  10 261085. 5969.04  13
   1  -6  10 278426. 6581.57  12
  -1  -5  10 279866. 6452.75  12
   1  -6  13 4240.93 862.712   3
  -5   6  13 4765.77 947.234  10
  -6   5  13 4525.91 901.039  10
  -1  -5  13 4499.33 899.572   3
   1  -6  13 4520.26 800.715   9
   6  -1  13 4588.68 831.109   9
   5   1  13 5041.04 873.568   9
   6  -1  13 4431.90 883.389   8
  -5   6  13 4507.11 830.982   7
  -6   5  13 4751.82 905.563   7
   6  -1  13 4398.26 784.308  13
   1  -6  13 8080.59 1168.59  12
  -1  -5  13 4319.92 857.889  12
   1  -6  16 207393. 6251.46   3
   6  -1  16 195527. 5818.65   9
   5   1  16 201347. 6001.34   9
  -5   6  16 206738. 5828.12   7
  -6   6 -12 232872. 6364.49  10
   0  -6 -12 259986. 7440.53   1
  -6   6 -12 222028. 6291.61   4
   6   0 -12 256863. 6555.26   6
   0  -6  -9 71.0166 146.722   1
   6   0  -9 200.150 181.208   6
  -6   6  -9 66.1346 101.792  10
   0  -6  -9 21.3468 125.457   3
  -6   6  -9 1.90475 37.4989   4
   0  -6  -6 250226. 6630.16   1
  -6   6  -6 233273. 6011.18  10
  -6   6  -6 241465. 6391.27   4
   6   0  -6 257114. 6020.62   6
   0  -6  -6 240623. 6055.85   3
   6   0  -3 213.164 166.036   6
  -6   6  -3 179.885 151.813  10
   0  -6  -3-11.9042 68.6180   1
   0  -6  -3-16.9580 124.109   3
  -6   6  -3 92.2438 93.8582   4
   6   0  -3 25.0829 46.4750  13
   0  -6   0 385666. 7771.66   3
  -6   6   0 370848. 7476.51  10
  -6   6   0 375750. 7906.64   4
   6   0   0 393169. 7622.08   8
   6   0   0 398331. 6689.84   6
  -6   6   3 8.37889 54.0967  10
   0  -6   3 26.0343 47.2906   3
   6   0   3 77.0488 101.680   8
  -6   6   3 75.4396 99.7683   4
   6   0   3 271.691 201.549  13
  -6   6   6 274075. 6671.78  10
  -6   6   6 272838. 6672.42   4
   6   0   6 261997. 6229.73   8
   6   0   6 283586. 6347.04  13
   0  -6   6 273188. 6357.57  12
   0  -6   9 455.798 249.496  12
  -6   6   9 31.0853 74.1942  10
   0  -6   9-30.7663 91.2175   3
   6   0   9 619.781 300.266   8
  -6   6   9 129.117 147.544   4
   6   0   9 279.544 207.621  13
   0  -6  12 222942. 6532.11   3
  -6   6  12 226298. 6563.26  10
   6   0  12 215664. 5802.95   8
  -6   6  12 235452. 6483.00   7
   6   0  12 203075. 5433.01  13
   0  -6  12 212791. 6148.18  12
   0   7  -7 58.6559 69.3285   2
  -7   0  -7 29.1010 39.6909   4
  -7   0  -4 215701. 5884.94  10
  -7   0  -4 201135. 6112.57   4
   7  -7  -4 212306. 5765.43  13
   0   7  -4 224727. 6462.53   2
   7  -7  -4 215837. 5598.00   6
   0   7  -1 0.17931 55.4729   2
  -7   0  -1 108.414 126.470   4
   7  -7  -1 52.3511 104.723  13
   7  -7   2 247606. 6295.37   8
  -7   0   2 246276. 6184.11   4
   7  -7   2 243937. 6636.85  13
   0   7   2 247333. 6655.88   2
   0   7   5 159.643 167.317   2
  -7   0   5-40.2760 93.4622   3
   7  -7   5-207.301 193.807  13
   7  -7   8 210653. 6229.59   9
   0   7   8 220124. 6095.52   2
  -7   1 -11 14905.8 1770.93   4
   1   6 -11 14445.4 1583.97   2
  -1   7 -11 14970.9 1597.53   2
   7  -6 -11 15124.1 1681.76   6
   6  -7 -11 15135.3 1745.30   6
  -7   1  -8 243165. 6826.33   4
  -6  -1  -8 252391. 6857.84   4
   1   6  -8 246796. 6483.93   2
  -1   7  -8 240902. 6520.21   2
   7  -6  -8 226210. 6060.37   6
   6  -7  -8 229088. 6405.19   6
   6  -7  -5 18528.7 1705.65   6
  -7   1  -5 18115.0 1678.06  10
  -7   1  -5 20572.0 1902.87   4
  -6  -1  -5 19501.2 1801.19   4
   1   6  -5 19046.9 1776.26   2
   7  -6  -5 19507.4 1693.75  13
   6  -7  -5 20802.8 1704.65  13
   7  -6  -5 17600.3 1572.17   6
  -1   7  -5 19862.7 1893.57   2
   6  -7  -2 337924. 6763.36   6
  -1   7  -2 357722. 8004.47   2
  -7   1  -2 332137. 7104.79  10
   7  -6  -2 349065. 7288.46   8
  -7   1  -2 340577. 7487.35   4
  -6  -1  -2 338709. 7204.58   4
   1   6  -2 345519. 7358.76   2
   7  -6  -2 324982. 7167.16  13
   6  -7  -2 324926. 7151.06  13
  -1   7   1 21842.9 1953.59   2
  -7   1   1 20040.7 1685.35  10
   7  -6   1 20985.7 1839.51   8
  -7   1   1 19645.1 1732.84   4
  -6  -1   1 19570.4 1676.78   4
   6  -7   1 21236.1 1898.52   3
   7  -6   1 20422.8 1818.73  13
   6  -7   1 20296.2 1812.77  13
   1   6   1 19742.0 1750.21   2
  -1   7   4 230327. 6293.80   2
  -6  -1   4 216740. 5327.90   3
  -7   1   4 242490. 5863.95   4
  -6  -1   4 242661. 5629.45   4
  -7   1   4 238837. 5743.24   7
   6  -7   4 219675. 5958.57   3
   7  -6   4 221459. 6133.39  13
   6  -7   4 220400. 6205.01  13
   1   6   4 230276. 5901.63   2
  -1   7   7 19484.0 1816.09   2
   7  -6   7 17190.6 1664.23   9
  -6  -1   7 15624.4 1510.88   3
  -7   1   7 16580.2 1573.41   7
   6  -7   7 19036.4 1715.59   3
   7  -6   7 17854.1 1785.25  13
   6  -7   7 17441.9 1807.48  13
   1   6   7 16679.0 1570.09   2
  -7   1  10 248090. 6050.19  12
  -1   7  10 250828. 6464.79   2
   6  -7  10 227785. 6537.10   9
   7  -6  10 236877. 6533.87   9
  -6  -1  10 254845. 6546.50   3
  -7   1  10 260020. 6591.14   7
   7  -6  10 253964. 6923.08  13
   6  -7  10 251017. 7044.64  13
  -6  -1  10 246006. 5853.73  12
  -5  -2 -12 217987. 6506.19   1
   5  -7 -12 237800. 7083.73   6
   7  -5 -12 224421. 5712.75  11
  -2   7 -12 244918. 7020.51   5
  -7   2 -12 243875. 7196.98   4
   2   5 -12 245407. 6631.71   2
   7  -5 -12 231162. 6654.16   6
   5  -7  -9 2683.18 723.504   6
  -5  -2  -9 2399.14 642.330   1
  -7   2  -9 2930.98 764.502   4
   2   5  -9 2247.54 594.884   2
   7  -5  -9 2299.40 616.206   6
  -2   7  -9 2431.63 635.666   2
   5  -7  -6 275741. 6915.35   6
  -2   7  -6 298903. 7190.47   2
  -7   2  -6 263680. 6414.60  10
  -2   7  -6 291879. 6584.89   4
  -5  -2  -6 281646. 6597.12   1
   7  -5  -6 273823. 5919.93   8
  -7   2  -6 295012. 7272.59   4
   2   5  -6 282629. 6563.11   2
   7  -5  -6 282195. 6136.24  13
   7  -5  -6 266783. 6174.01   6
   5  -7  -3 3758.50 760.550   6
  -2   7  -3 3672.54 820.053   2
  -7   2  -3 3376.70 713.369  10
  -2   7  -3 3534.87 739.713   4
   7  -5  -3 3631.55 719.707   8
  -7   2  -3 3702.52 787.779   4
   2   5  -3 3607.37 718.105   2
  -5  -2  -3 3832.25 731.400   1
   5  -7  -3 3901.25 825.050   3
   7  -5  -3 3390.82 711.437  13
   5  -7  -3 3667.57 719.288  13
   7  -5  -3 3455.33 638.121   6
   5  -7   0 338007. 6737.64   6
  -2   7   0 334519. 7528.92   2
  -5  -2   0 340196. 6017.15   3
  -5  -2   0 346896. 6751.12   1
  -7   2   0 337608. 7127.66  10
  -2   7   0 350755. 7506.81   4
   7  -5   0 348301. 7494.94   8
  -7   2   0 349999. 7306.76   4
   2   5   0 333142. 6792.48   2
   7  -5   0 332610. 7219.71  13
   5  -7   0 347838. 7702.40   3
   5  -7   0 317897. 7061.06  13
  -2   7   3 4139.45 830.976   2
  -7   2   3 3500.20 692.310  10
  -5  -2   3 3313.42 633.025   3
   7  -5   3 4176.47 709.990   9
   7  -5   3 3716.45 803.520   8
  -7   2   3 4120.61 764.299   4
   2   5   3 3388.39 685.226   2
   7  -5   3 3919.19 792.236  13
   5  -7   3 3687.13 771.113   3
  -5  -2   3 3826.87 697.116   1
   5  -7   3 3983.69 822.185  13
  -2   7   6 267286. 6820.55   2
  -7   2   6 284458. 6112.60  10
  -5  -2   6 271647. 6116.08   3
   7  -5   6 268864. 6021.35   9
  -7   2   6 273184. 6637.38   7
   2   5   6 279191. 6111.60   2
   7  -5   6 285281. 6881.82  13
   5  -7   6 278648. 7153.87  13
   5  -7   6 270666. 6558.65   3
  -5  -2   6 288265. 5623.91  12
  -2   7   9 3446.87 706.138  10
  -2   7   9 3467.93 774.462   2
  -5  -2   9 3025.14 681.974   3
   7  -5   9 3378.71 730.752   9
   2   5   9 3339.54 722.722   9
  -7   2   9 3030.49 724.496   7
   2   5   9 4347.32 739.308   2
   7  -5   9 3046.77 734.447  13
   5  -7   9 3397.17 826.298  13
   5  -7   9 3300.83 725.919   3
  -5  -2   9 3145.37 645.779  12
  -2   7  12 177127. 5493.75  10
  -2   7  12 192833. 5621.63   2
   5  -7  12 192734. 5986.56   9
  -5  -2  12 208407. 6016.63   3
   7  -5  12 189247. 5719.98   9
   2   5  12 199908. 5910.56   9
  -7   2  12 217176. 6447.14   7
   7  -5  12 208975. 6202.18  13
   5  -7  12 213031. 6528.81  13
  -5  -2  12 192587. 5458.68  12
   4  -7 -13 6042.22 1159.01   6
   7  -4 -13 5103.68 913.249  11
  -4  -3 -13 5352.84 1045.92   1
  -3   7 -13 5525.51 1049.91   5
   3   4 -13 4533.87 856.416   2
  -7   3 -13 5697.45 1097.55   4
   7  -4 -13 5174.49 991.007   6
   7  -4 -10 309629. 6740.52  11
   4  -7 -10 325713. 8183.94   6
  -3   7 -10 319217. 7465.64   5
  -4  -3 -10 303805. 7494.21   1
  -7   3 -10 332629. 8163.14   4
   3   4 -10 325928. 7106.88   2
   7  -4 -10 307457. 7039.36   6
  -3   7 -10 346959. 7247.54   2
  -3   7  -7 7599.86 1140.31   2
  -7   3  -7 6966.65 1048.98  10
  -3   7  -7 7172.09 1053.64   4
  -4  -3  -7 7043.20 1078.75   1
   7  -4  -7 6436.55 933.870   8
  -7   3  -7 7655.96 1192.82   4
   3   4  -7 7688.98 1074.66   2
   4  -7  -7 8192.19 1233.92   3
   7  -4  -7 7595.44 994.583  13
   7  -4  -7 6738.21 977.873   6
  -3   7  -4 276901. 6863.88   2
  -7   3  -4 270447. 6489.84  10
  -3   7  -4 275506. 6620.80   4
   7  -4  -4 268238. 6263.19   8
  -7   3  -4 287442. 7047.02   4
   3   4  -4 273022. 6120.05   2
   7  -4  -4 261619. 6000.69  13
   4  -7  -4 284722. 7140.82   3
   7  -4  -4 264200. 5631.59   6
  -4  -3  -4 268552. 6448.31   1
  -4  -3  -1 9241.97 1025.47   3
  -3   7  -1 12291.0 1441.21   2
  -7   3  -1 8781.71 1164.77  10
  -3   7  -1 9380.97 1214.36   4
  -4  -3  -1 8364.20 1108.85   1
   7  -4  -1 9413.83 1222.16   8
  -7   3  -1 9230.70 1209.43   4
   3   4  -1 7911.52 1015.02   2
   7  -4  -1 8646.73 1126.99  13
   4  -7  -1 8937.90 1217.57   3
   7  -4  -1 9035.46 923.823   6
  -3   7   2 346497. 6286.95  10
  -4  -3   2 343339. 6919.68   1
  -4  -3   2 352249. 6580.20   3
  -7   3   2 346371. 7107.14  10
  -3   7   2 342683. 7744.40   2
  -3   7   2 332974. 7368.45   4
   7  -4   2 364810. 8023.80   8
  -7   3   2 356896. 7099.57   4
   3   4   2 353372. 6763.08   2
   7  -4   2 350001. 7346.24  13
   4  -7   2 346761. 7529.64   3
  -3   7   5 8957.13 1086.47  10
  -7   3   5 8216.66 1074.16  10
  -4  -3   5 7522.89 1007.68   3
  -3   7   5 9036.26 1278.85   2
  -3   7   5 9449.63 1257.58   4
   7  -4   5 8988.89 1011.84   9
   7  -4   5 8921.49 1283.84   8
  -7   3   5 8956.72 1099.62   4
   3   4   5 7847.96 988.247   2
   7  -4   5 8558.55 1169.67  13
   4  -7   5 8779.28 1186.38   3
  -4  -3   5 8279.34 959.803  12
  -3   7   8 245404. 6004.96  10
  -7   3   8 279192. 6373.53  10
  -4  -3   8 275808. 6374.28   3
  -3   7   8 262953. 6907.84   2
   7  -4   8 278934. 6072.99   9
   3   4   8 279690. 5960.34   9
   3   4   8 282516. 5780.03   2
  -7   3   8 290247. 7052.61   7
   7  -4   8 284326. 6837.33  13
   4  -7   8 262316. 6498.95   3
  -4  -3   8 270713. 5912.20  12
  -3   7  11 6429.74 1032.77  10
  -7   3  11 6247.01 966.865  10
  -3   7  11 7144.41 1135.34   2
  -4  -3  11 5994.04 1000.59   3
   7  -4  11 6515.04 1014.68   9
   3   4  11 6791.88 1019.91   9
  -7   3  11 6869.44 1134.66   7
   7  -4  11 6538.75 1064.98  13
   4  -7  11 5900.72 980.645   3
  -4  -3  11 5859.42 931.986  12
   7  -4  14 169180. 5417.21   9
   3   4  14 183556. 5691.90   9
   7  -4  14 185347. 5699.08  13
   4   3 -14 192851. 5564.35   2
  -7   4 -14 189475. 6110.35   4
   7  -3 -11 6626.96 1040.41  11
  -4   7 -11 6700.50 1071.27   5
   3  -7 -11 7557.77 1138.96   1
  -3  -4 -11 7207.37 1196.09   1
   4   3 -11 6372.39 991.186   2
  -7   4 -11 7087.13 1164.98   4
   7  -3 -11 6170.06 1022.68   6
  -4   7  -8 299266. 6852.35   2
  -7   4  -8 284089. 6958.84  10
  -4   7  -8 287227. 6864.11   4
   3  -7  -8 298241. 6845.78   1
  -7   4  -8 291165. 7279.76   4
   4   3  -8 295546. 6547.36   2
  -3  -4  -8 283649. 7138.85   1
   7  -3  -8 297864. 6093.30  13
   3  -7  -8 294470. 7335.99   3
   7  -3  -8 291727. 6493.32   6
  -4   7  -5 9202.91 1242.15   2
  -7   4  -5 8938.84 1198.45  10
  -4   7  -5 10174.1 1303.52   4
  -7   4  -5 8638.70 1211.30   4
   7  -3  -5 7929.96 1097.17   8
   4   3  -5 7909.94 1041.78   2
   7  -3  -5 7783.37 1010.33  13
   3  -7  -5 9529.61 1175.42   1
   3  -7  -5 9136.98 1267.33   3
   7  -3  -5 7465.29 965.013   6
  -3  -4  -5 8531.03 1204.24   1
  -3  -4  -2 349666. 6628.53   3
  -4   7  -2 345051. 6207.88  10
  -7   4  -2 358890. 7580.03  10
  -4   7  -2 329417. 7525.22   4
   3  -7  -2 344239. 6855.63   1
  -3  -4  -2 341226. 7411.36   1
  -7   4  -2 353883. 7542.29   4
   7  -3  -2 349397. 7445.08   8
   7  -3  -2 345058. 6988.64  13
   7  -3  -2 347416. 5962.04   6
   3  -7  -2 344969. 7683.64   3
  -3  -4   1 8677.67 1074.93   3
  -4   7   1 9305.63 1069.67  10
  -3  -4   1 8364.53 1127.77   1
  -7   4   1 8894.74 1161.16  10
  -4   7   1 10041.2 1306.62   4
  -7   4   1 9098.29 1186.37   4
   7  -3   1 8872.89 1230.12   8
   4   3   1 8612.72 1063.88   2
   7  -3   1 8694.43 1126.11  13
   3  -7   1 8390.06 1178.02   3
  -4   7   4 238022. 5783.46  10
  -3  -4   4 262599. 6121.56   3
  -7   4   4 261803. 6307.20  10
  -4   7   4 246924. 6518.63   4
  -7   4   4 277581. 6392.29   4
   4   3   4 279883. 6007.27   2
   7  -3   4 259261. 6325.57  13
  -3  -4   4 266464. 5556.91  12
   3  -7   4 254740. 6534.66   3
  -4   7   7 7150.72 1071.43  10
  -7   4   7 6629.33 1010.29  10
  -3  -4   7 6656.61 1004.81   3
  -4   7   7 7522.86 1140.51   4
  -7   4   7 7089.28 998.626   4
   7  -3   7 7166.48 1165.05   8
   4   3   7 7402.20 949.346   2
   7  -3   7 6933.10 1047.61  13
  -3  -4   7 6542.28 948.667  12
   3  -7   7 6905.06 1108.33   3
  -4   7  10 296651. 7293.81  10
  -7   4  10 302899. 7001.24  10
  -3  -4  10 308052. 7159.42   3
  -4   7  10 296884. 7230.10   4
   7  -3  10 299898. 6267.02   9
   4   3  10 311649. 6477.54   9
   7  -3  10 304142. 7752.82   8
  -7   4  10 320983. 7695.71   7
   7  -3  10 299370. 7107.79  13
  -3  -4  10 295889. 6753.62  12
   3  -7  10 312979. 7593.01   3
   3  -7  13 5007.63 979.525   3
  -4   7  13 5283.39 998.263  10
  -7   4  13 4696.42 902.952  10
  -3  -4  13 4391.42 895.823   3
   3  -7  13 6016.94 1013.33   9
   7  -3  13 4863.08 878.791   9
   4   3  13 4888.87 895.493   9
   7  -3  13 5777.13 1088.49   8
  -7   4  13 4903.35 979.528   7
   7  -3  13 4767.45 895.721  13
   3  -7  13 4902.60 940.490  12
  -3  -4  13 4578.03 881.972  12
  -5   7 -12 215130. 5898.25   5
   2  -7 -12 214380. 6525.92   1
  -7   5 -12 208820. 6356.12  10
  -2  -5 -12 218828. 6857.12   1
  -7   5 -12 213455. 6479.18   4
   5   2 -12 215716. 6090.16   6
   7  -2 -12 211323. 6083.11   6
  -7   5  -9 4135.89 860.563  10
  -5   7  -9 3358.16 748.945   4
   5   2  -9 2586.26 624.835   2
   2  -7  -9 4045.61 861.019   1
  -7   5  -9 3550.23 827.901   4
  -2  -5  -9 3284.81 806.116   1
   7  -2  -9 3170.37 641.064  13
   5   2  -9 2965.62 700.435   6
   2  -7  -9 3622.22 805.968   3
   7  -2  -9 2691.67 645.448   6
  -5   7  -6 284067. 6067.27  10
  -7   5  -6 284222. 6958.31  10
  -5   7  -6 261060. 6627.08   4
  -7   5  -6 285579. 7233.41   4
   5   2  -6 290417. 6340.22   2
   7  -2  -6 287420. 6982.58   8
   7  -2  -6 289765. 6391.70  13
   2  -7  -6 268876. 6789.50   1
   7  -2  -6 282466. 6236.65   6
   2  -7  -6 279913. 7064.78   3
  -2  -5  -6 287302. 7253.01   1
  -2  -5  -3 4092.93 770.701   3
  -5   7  -3 4111.28 753.047  10
  -7   5  -3 3744.80 788.362  10
   2  -7  -3 3579.97 747.549   1
  -5   7  -3 3877.36 818.011   4
  -2  -5  -3 3747.54 797.525   1
  -7   5  -3 3950.18 837.580   4
   5   2  -3 3393.42 671.297   2
   7  -2  -3 3608.52 776.892   8
   7  -2  -3 3620.22 704.639  13
   7  -2  -3 3328.61 632.770   6
   2  -7  -3 3723.72 816.428   3
   2  -7   0 310228. 6820.41   1
  -2  -5   0 311513. 6736.08   3
  -5   7   0 280205. 6401.15  10
  -7   5   0 331795. 7326.64  10
  -5   7   0 281485. 7063.71   4
  -7   5   0 349082. 7787.29   4
   5   2   0 330215. 6500.17   2
   7  -2   0 324760. 7353.27   8
   7  -2   0 320002. 6739.03  13
   7  -2   0 338104. 5860.76   6
   2  -7   0 322129. 7469.70   3
  -2  -5   0 325228. 7324.88   1
  -2  -5   3 3126.25 687.853   3
  -5   7   3 3288.99 708.964  10
  -7   5   3 3851.48 787.771  10
  -7   5   3 3672.32 772.485   4
   5   2   3 3218.62 623.372   2
   7  -2   3 3794.26 800.547   8
   7  -2   3 3397.46 707.207  13
  -2  -5   3 3360.49 656.580  12
   2  -7   3 3341.34 767.585   3
   2  -7   6 269083. 6996.74   3
  -2  -5   6 278337. 6790.30   3
  -5   7   6 263309. 6662.88  10
  -7   5   6 283929. 6829.76  10
  -5   7   6 264956. 6931.54   4
  -7   5   6 273509. 6570.44   4
   5   2   6 279384. 5578.43   2
   7  -2   6 275679. 7176.54   8
   5   2   6 272875. 5769.29   8
   7  -2   6 271740. 6559.69  13
  -2  -5   6 257226. 5983.10  12
   2  -7   9 2789.13 719.280   3
  -5   7   9 2517.16 679.412  10
  -2  -5   9 2382.30 653.723   3
  -7   5   9 2441.57 646.074  10
  -5   7   9 2727.81 688.140   4
  -7   5   9 2583.56 614.565   4
   7  -2   9 2665.66 712.573   8
  -5   7   9 2380.73 573.985   7
   7  -2   9 2576.35 665.583  13
   2  -7   9 2595.78 661.567  12
  -2  -5   9 2256.48 603.321  12
   2  -7  12 215258. 6452.81   3
  -5   7  12 238614. 6971.71  10
  -2  -5  12 223824. 6577.08   3
  -7   5  12 233501. 6596.59  10
  -5   7  12 206057. 5987.87   4
   7  -2  12 219161. 6599.98   8
  -7   5  12 239032. 6958.31   7
   7  -2  12 211869. 5917.28  13
   2  -7  12 218841. 6375.38  12
  -2  -5  12 219098. 6251.04  12
  -7   6 -10 240823. 6749.23  10
   1  -7 -10 248367. 7184.63   1
  -6   7 -10 235441. 6591.16   4
  -7   6 -10 253938. 7176.67   4
  -1  -6 -10 254091. 7390.01   1
   6   1 -10 262050. 6725.50   6
   7  -1 -10 264764. 6740.71   6
  -6   7  -7 18652.2 1710.47  10
  -7   6  -7 18832.3 1848.16  10
  -6   7  -7 17971.0 1829.82   4
  -7   6  -7 18234.3 1908.70   4
   1  -7  -7 18164.8 1879.80   1
  -1  -6  -7 18222.2 1903.25   1
   6   1  -7 15581.9 1591.64   6
   7  -1  -7 16952.9 1595.55   6
   1  -7  -7 17032.3 1735.57   3
   1  -7  -4 226519. 6426.35   1
  -6   7  -4 200422. 5608.81  10
  -1  -6  -4 230536. 6612.83   1
  -7   6  -4 226853. 6237.71  10
  -6   7  -4 210320. 6233.38   4
  -7   6  -4 232257. 6708.29   4
   7  -1  -4 220008. 5682.43  13
   6   1  -4 226588. 5836.29   6
   7  -1  -4 214272. 5436.76   6
   1  -7  -4 214817. 6228.00   3
  -1  -6  -4 219073. 6056.58   3
  -1  -6  -1 19052.2 1786.60   3
  -6   7  -1 20318.5 1824.42  10
  -7   6  -1 19326.2 1775.41  10
  -6   7  -1 21307.4 2013.88   4
  -7   6  -1 21689.2 2022.26   4
   7  -1  -1 19891.8 1846.55   8
  -1  -6  -1 19802.5 1881.54   1
   1  -7  -1 20546.4 1881.26   1
   7  -1  -1 19805.7 1749.87  13
   7  -1  -1 18201.3 1472.65   6
   1  -7  -1 19710.1 1895.38   3
   1  -7   2 323358. 7876.87   3
  -1  -6   2 321783. 7402.18   3
  -6   7   2 313492. 7348.74  10
  -7   6   2 328456. 7529.22  10
  -6   7   2 308835. 7624.80   4
  -7   6   2 339037. 7876.55   4
   7  -1   2 320617. 7387.65   8
   6   1   2 322379. 6953.35   8
   6   1   2 333906. 7016.35  13
   7  -1   2 329855. 7062.94  13
   1  -7   5 18138.4 1840.21   3
  -1  -6   5 17699.0 1772.65   3
  -6   7   5 19853.4 1886.42  10
  -7   6   5 19186.8 1864.61  10
  -6   7   5 20358.9 1984.38   4
  -7   6   5 18975.1 1835.26   4
   7  -1   5 18556.0 1797.28   8
   6   1   5 16423.0 1556.73   8
   6   1   5 17341.4 1614.31  13
   7  -1   5 17348.5 1637.49  13
  -1  -6   5 17558.5 1646.30  12
   1  -7   8 221865. 6602.99   3
  -1  -6   8 235768. 6687.89   3
  -6   7   8 234130. 6748.58  10
  -7   6   8 241947. 6700.40  10
  -6   7   8 231848. 6673.80   4
  -7   6   8 219706. 6099.49   4
   7  -1   8 203976. 5987.70   8
   6   1   8 205396. 5449.00   8
   6   1   8 208740. 5613.69  13
   7  -1   8 213908. 5826.13  13
   1  -7   8 216172. 6182.20  12
  -1  -6   8 209976. 5924.78  12
   1  -7  11 14336.5 1710.40   3
  -6   7  11 15594.6 1808.55  10
  -6   7  11 14972.9 1608.11   4
   7  -1  11 13955.0 1605.37   8
  -6   7  11 15664.7 1671.35   7
  -7   6  11 15224.7 1720.47   7
   7  -1  11 13650.6 1479.77  13
  -1  -6  11 13754.2 1583.15  12
  -7   7  -8 224743. 6842.05   4
   0  -7  -8 231252. 7019.38   1
   7   0  -8 234714. 6366.86   6
   7   0  -5 20.3242 81.2212   6
  -7   7  -5 47.7022 119.314  10
   0  -7  -5 159.892 195.893   3
   0  -7  -5 60.6023 110.436   1
  -7   7  -5 148.423 201.578   4
  -7   7  -2 232246. 6470.26  10
  -7   7  -2 247873. 7254.53   4
   0  -7  -2 245799. 7016.01   1
   7   0  -2 227485. 6086.35  13
   0  -7  -2 226906. 6583.90   3
   0  -7   1-1.71094 93.7314   1
  -7   7   1 65.4406 150.860  10
   7   0   1 39.7532 93.2835   8
  -7   7   1 253.746 248.940   4
   7   0   1 81.8923 133.382  13
   0  -7   4 210217. 6446.27   3
  -7   7   4 219224. 6518.06  10
  -7   7   4 204560. 6431.36   4
   7   0   4 201716. 5836.48   8
   7   0   4 212897. 5872.02  13
  -7   7   7 73.8531 114.364  10
   0  -7   7-4.88459 140.086   3
   7   0   7 111.020 152.787   8
  -7   7   7 58.5511 64.9120   4
   7   0   7 158.705 163.680  13
  -8   1   0 201246. 6051.71   4
  -7  -1   0 207804. 6042.62   4
   7  -8   0 197224. 5993.08  13
   8  -7   3 918.238 399.209   8
   6  -8  -7 1560.01 547.964   6
   8  -6  -7 1389.79 465.437   6
  -2   8  -7 1762.08 596.856   2
  -2   8  -4 286544. 7643.83   2
   6  -8  -4 253175. 6546.36   6
  -8   2  -4 261909. 6900.82  10
   8  -6  -4 271607. 6497.95   8
  -8   2  -4 283209. 7480.86   4
  -6  -2  -4 271302. 7069.17   4
   2   6  -4 271327. 7021.97   2
   8  -6  -4 251671. 6533.43  13
  -2   8  -1 1407.79 533.827   2
  -8   2  -1 1344.91 484.622  10
   8  -6  -1 1492.27 512.819   8
  -8   2  -1 1340.01 497.507   4
  -6  -2  -1 1228.55 448.252   4
   2   6  -1 1245.06 467.667   2
   6  -8  -1 1378.66 516.876   3
   8  -6  -1 1500.27 522.481  13
   6  -8  -1 1312.63 473.389  13
  -2   8   2 201270. 6531.20   2
  -8   2   2 178693. 5371.67  10
   8  -6   2 183144. 5947.19   8
  -8   2   2 181796. 5552.57   4
  -6  -2   2 187678. 5407.48   4
   2   6   2 187054. 5630.50   2
   6  -8   2 192705. 6011.89   3
   8  -6   2 188731. 5926.41  13
   6  -8   2 177134. 5706.68  13
  -2   8   5 1777.71 607.223   2
  -6  -2   5 1383.26 460.266   3
   8  -6   5 1665.11 574.209   8
  -8   2   5 1455.90 507.782   7
   2   6   5 1232.15 447.916   2
   6  -8   5 1664.60 565.008   3
   8  -6   5 1598.28 555.429  13
   6  -8   5 1645.83 575.073  13
   5  -8  -8 276243. 7476.22   6
  -5  -3  -8 271502. 7198.44   1
   3   5  -8 297983. 7548.64   2
   8  -5  -8 263482. 6531.23   6
  -3   8  -8 293185. 7464.34   2
   5  -8  -5 935.354 426.917   6
   8  -5  -5 618.310 270.726   6
  -3   8  -5 1061.66 445.361   2
  -8   3  -5 991.147 424.352  10
  -3   8  -5 1382.17 500.691   4
  -8   3  -5 980.091 443.378   4
   8  -5  -5 1238.00 438.974   8
   3   5  -5 802.851 374.114   2
   5  -8  -5 1078.82 460.317   3
   8  -5  -5 522.637 285.551  13
  -5  -3  -5 762.472 359.178   1
   5  -8  -2 148375. 5046.17   6
  -3   8  -2 159782. 5565.24   2
  -8   3  -2 148727. 5197.62  10
  -3   8  -2 154246. 5389.33   4
   8  -5  -2 141371. 4980.07   8
  -8   3  -2 145013. 5107.88   4
   3   5  -2 145110. 4915.70   2
   8  -5  -2 140730. 4881.83  13
   5  -8  -2 143906. 5378.19   3
   5  -8  -2 139774. 4805.34  13
  -5  -3  -2 143205. 4943.63   1
  -5  -3   1 626.993 289.093   1
  -3   8   1 888.859 412.471   2
  -8   3   1 885.934 389.213  10
   3   5   1 659.035 317.637   2
   5  -8   1 862.872 406.227   3
   8  -5   1 696.829 363.655   8
  -3   8   1 880.932 406.694   4
  -8   3   1 753.215 357.782   4
   8  -5   1 780.105 376.712  13
   5  -8   1 1483.29 532.582  13
  -3   8   4 331758. 8202.39   2
  -5  -3   4 328300. 7137.59   3
  -8   3   4 331398. 7428.56  10
  -8   3   4 339016. 7310.40   4
   8  -5   4 356507. 8557.43   8
   3   5   4 338102. 7257.27   2
   8  -5   4 345784. 7951.11  13
  -5  -3   4 342578. 7414.35   1
   5  -8   4 342248. 7992.80   3
   5  -8   4 331909. 8065.07  13
  -3   8   7 1531.52 558.188   2
  -8   3   7 769.191 347.649  10
   3   5   7 821.596 341.914   2
   5  -8   7 764.273 382.787   3
  -5  -3   7 751.914 362.069   3
   8  -5   7 1166.75 485.303   8
  -8   3   7 595.814 352.794   7
   5  -8   7 1399.91 553.398  13
   8  -5   7 635.707 352.578  13
   8  -4  -9 81.9265 134.469   6
  -4  -4  -9 43.9779 132.924   1
  -4   8  -6 268788. 7090.86   2
  -8   4  -6 259484. 7030.01  10
  -4   8  -6 257226. 6984.29   4
  -8   4  -6 267003. 7302.34   4
   8  -4  -6 251271. 6494.43   8
   4   4  -6 268123. 6732.73   2
  -4  -4  -6 243431. 6837.84   1
   8  -4  -6 241476. 6066.20  13
   4  -8  -6 266541. 7422.01   3
   8  -4  -6 240536. 5856.75   6
  -8   4  -3 201.567 216.520  10
   4   4  -3 76.2573 30.8434   2
   4  -8  -3 94.1632 180.573   3
  -4   8  -3 31.0672 60.5033   2
  -4  -4  -3 29.0949 66.5418   1
   8  -4  -3 294.288 229.093   8
  -4   8  -3-3.88691 152.579   4
  -8   4  -3 288.277 247.562   4
   8  -4  -3 124.414 143.878  13
  -4   8   0 225836. 6759.11   2
  -8   4   0 222318. 6274.21  10
  -4   8   0 222916. 6575.83   4
  -4  -4   0 217845. 6275.39   1
  -8   4   0 235594. 6457.79   4
   8  -4   0 222186. 6509.83   8
   4   4   0 238908. 6311.10   2
   8  -4   0 219496. 6140.55  13
   4  -8   0 224716. 6552.44   3
  -8   4   3 227.370 200.047  10
   4  -8   3 62.9225 135.870   3
  -4   8   3 139.888 221.934   2
  -4  -4   3 93.6942 85.4004   3
   8  -4   3 66.5182 77.2008   8
  -4   8   3 85.4470 91.3639   4
  -8   4   3-8.30360 45.7039   4
   8  -4   3 105.546 146.886  13
  -4   8   6 239493. 6264.89  10
  -4  -4   6 265195. 6819.99   3
  -8   4   6 231776. 6440.41  10
  -4   8   6 257908. 7353.95   2
  -4   8   6 249189. 7089.41   4
  -8   4   6 265258. 6524.94   4
   8  -4   6 260378. 7521.65   8
   4   4   6 274250. 6531.25   2
   8  -4   6 260087. 6900.35  13
   4  -8   6 255657. 7014.51   3
  -4   8   9 38.4338 105.599  10
  -8   4   9 316.920 203.240  10
   4  -8   9 74.7955 142.123   3
  -3  -5  -7 796.222 397.527   1
  -8   5  -7 882.775 431.278  10
   5   3  -7 618.195 324.323   2
  -5   8  -7 846.477 399.177   2
  -5   8  -7 913.143 421.437   4
  -8   5  -7 952.245 450.311   4
   3  -8  -7 1065.54 467.623   3
   8  -3  -7 799.971 345.097   6
   8  -3  -7 848.893 351.622  13
  -3  -5  -4 349489. 8381.33   1
  -5   8  -4 347253. 8280.03   2
  -8   5  -4 344477. 8132.98  10
  -5   8  -4 319882. 8032.34   4
  -8   5  -4 351162. 8413.24   4
   5   3  -4 347382. 7463.95   2
   8  -3  -4 342827. 8012.75   8
   8  -3  -4 311301. 6983.05  13
   8  -3  -4 326531. 6589.37   6
   3  -8  -4 337806. 8262.58   3
   3  -8  -4 332872. 7557.29   1
  -3  -5  -1 2152.14 583.324   3
  -8   5  -1 744.280 364.832  10
  -5   8  -1 941.230 452.167   4
   3  -8  -1 545.162 269.105   1
   5   3  -1 661.025 325.112   2
   8  -3  -1 654.444 363.751   8
  -8   5  -1 760.202 387.775   4
   8  -3  -1 754.926 348.401  13
  -3  -5  -1 986.535 424.992   1
   3  -8   2 137948. 4695.80   1
  -3  -5   2 133204. 4731.78   3
  -5   8   2 136836. 4725.49  10
  -8   5   2 136776. 5032.32  10
  -5   8   2 150474. 5652.00   4
  -8   5   2 151079. 5338.80   4
   8  -3   2 136349. 5205.41   8
   5   3   2 139687. 4570.80   2
   8  -3   2 138730. 4879.27  13
  -3  -5   2 145083. 5195.35   1
   3  -8   2 144388. 5342.37   3
  -5   8   5 791.132 378.198  10
  -8   5   5 798.290 381.918  10
  -5   8   5 1193.19 484.289   4
   3  -8   5 715.751 383.457   3
  -3  -5   5 828.332 380.676   3
   5   3   5 889.648 352.823   2
   8  -3   5 847.265 417.605   8
  -8   5   5 824.039 377.674   4
   8  -3   5 746.488 360.491  13
  -5   8   8 257714. 7029.32  10
  -3  -5   8 280787. 7415.81   3
  -8   5   8 280288. 7289.58  10
  -5   8   8 270679. 7443.63   4
   8  -3   8 275099. 7834.10   8
   8  -3   8 265735. 7104.76  13
  -3  -5   8 260835. 6526.78  12
   3  -8   8 274691. 7493.46   3
   2  -8  -8 209122. 6519.22   1
  -8   6  -5 1531.84 551.640  10
  -6   8  -5 1578.11 569.290   4
   6   2  -5 1490.95 493.635   2
  -8   6  -5 1944.04 668.847   4
   8  -2  -5 1719.94 529.641  13
   8  -2  -5 1345.04 443.354   6
   2  -8  -5 1532.32 548.844   1
   2  -8  -5 1903.74 626.487   3
  -2  -6  -5 1561.55 569.788   1
  -2  -6  -2 176697. 5655.13   3
  -6   8  -2 164996. 5283.76  10
  -8   6  -2 185790. 5931.46  10
   2  -8  -2 176203. 5754.01   1
  -2  -6  -2 185922. 6164.28   1
  -6   8  -2 180112. 6193.91   4
  -8   6  -2 197770. 6476.94   4
   6   2  -2 183607. 5387.79   2
   8  -2  -2 177783. 5948.15   8
   8  -2  -2 182862. 5599.29  13
   2  -8  -2 183240. 6070.44   3
  -2  -6   1 1212.27 469.754   3
  -6   8   1 1365.23 496.564  10
  -8   6   1 2041.06 622.503  10
  -6   8   1 2904.96 800.708   4
  -8   6   1 1591.08 569.916   4
   6   2   1 1324.60 443.615   2
   8  -2   1 2123.81 647.702   8
  -2  -6   1 1259.93 500.230   1
   8  -2   1 1280.23 458.681  13
   2  -8   1 1398.41 505.072   1
   2  -8   1 1177.32 486.378   3
  -2  -6   4 248805. 6871.10   3
  -6   8   4 248216. 6891.07  10
  -8   6   4 273223. 7345.68  10
  -6   8   4 261285. 7628.83   4
  -8   6   4 274438. 7266.41   4
   6   2   4 250961. 5962.91   2
   8  -2   4 246130. 6992.72   8
   8  -2   4 250546. 6603.67  13
   2  -8   4 259355. 7376.86   3
  -6   8   7 1396.44 532.829  10
  -8   6   7 1451.93 517.541   4
  -2  -6   7 1220.08 459.546  12
  -7   8  -3 723.233 362.098  10
  -1  -7   0 197794. 6399.83   3
  -7   8   0 194387. 6193.91  10
   0   0   0    0.00    0.00   0
TITL exp_2048_red_abs_2016 in R3c
REM R3c (#161 in standard setting)
CELL 0.71073   5.145669   5.145669  13.858744  90.0000  90.0000 120.0000
ZERR    6.00   0.000147   0.000147   0.000440   0.0000   0.0000   0.0000
LATT -3
SYMM -y, x-y, z
SYMM -x+y,-x, z
SYMM -y,-x, z+1/2
SYMM -x+y, y, z+1/2
SYMM  x, x-y, z+1/2
SFAC Li O Nb
UNIT 6.00 18.00 6.00
TREF
HKLF 4
END
;
_shelx_hkl_checksum              37899
_shelx_res_file
;
    exp_2048_red_abs_2016.res created by SHELXL-2014/7
TITL exp_2048_red_abs_2016 in R3c
REM R3c (#161 in standard setting)
CELL 0.71073 5.146 5.146 13.859 90 90 120
ZERR 6 0.001 0.001 0.005 0 0 0
LATT -3
SYMM -Y,+X-Y,+Z
SYMM +Y-X,-X,+Z
SYMM -Y,-X,0.5+Z
SYMM +Y-X,+Y,0.5+Z
SYMM +X,+X-Y,0.5+Z
SFAC Li O Nb
UNIT 6 18 6
L.S. 10
PLAN  25
LIST 3
fmap 2
acta
MERG 2
REM <olex2.extras>
REM <HklSrc "%.\\exp_2048_red_abs_2016.hkl">
REM </olex2.extras>
WGHT    0.035800
EXTI    0.250749
FVAR       8.28257
NB01  3    0.000000    0.000000    0.967713    10.33333    0.00481    0.00481 =
         0.00412    0.00000    0.00000    0.00240
O002  2    0.952270    0.656652    0.904308    11.00000    0.00758    0.00618 =
         0.00727   -0.00190   -0.00126    0.00323
LI01  1    0.000000    0.000000    0.688311    10.33333    0.01200    0.01200 =
         0.01783    0.00000    0.00000    0.00600
HKLF 4
REM  exp_2048_red_abs_2016 in R3c
REM R1 =  0.0210 for     375 Fo > 4sig(Fo)  and  0.0211 for all     378 data
REM     17 parameters refined using      1 restraints
END
WGHT      0.0358      0.0000
REM Highest difference peak  0.434,  deepest hole -1.131,  1-sigma level  0.174
Q1    1   0.7511  0.4781  0.8700  11.00000  0.05    0.43
Q2    1   0.9341  0.8459  0.8988  11.00000  0.05    0.43
Q3    1   1.0020  0.5651  0.9696  11.00000  0.05    0.38
Q4    1   0.8467  0.5920  0.8808  11.00000  0.05    0.35
Q5    1  -0.1657 -0.1017  0.7423  11.00000  0.05    0.33
Q6    1   0.8899  0.7702  0.8241  11.00000  0.05    0.30
Q7    1  -0.0939 -0.1709  0.6918  11.00000  0.05    0.29
Q8    1   0.8579  0.5261  0.8502  11.00000  0.05    0.27
Q9    1   0.7813  0.5491  0.9495  11.00000  0.05    0.25
Q10   1   1.1378  0.8563  0.8378  11.00000  0.05    0.25
Q11   1   1.0565  0.8529  0.9250  11.00000  0.05    0.25
Q12   1   0.0000  0.0000  0.7574  10.33333  0.05    0.24
Q13   1   0.9434  0.4781  0.9327  11.00000  0.05    0.23
Q14   1   0.7613  0.6190  0.8825  11.00000  0.05    0.22
Q15   1   0.9006  0.7436  0.9484  11.00000  0.05    0.19
Q16   1  -0.2524 -0.1087  0.9848  11.00000  0.05    0.17
Q17   1   0.0000  0.0000  1.0765  10.33333  0.05    0.12
Q18   1   0.0000  0.0000  0.8453  10.33333  0.05    0.11
Q19   1   1.0675  0.8851  0.8800  11.00000  0.05    0.10
;
_shelx_res_checksum              12571
loop_
_space_group_symop_operation_xyz
'x, y, z'
'-y, x-y, z'
'-x+y, -x, z'
'-y, -x, z+1/2'
'-x+y, y, z+1/2'
'x, x-y, z+1/2'
'x+2/3, y+1/3, z+1/3'
'-y+2/3, x-y+1/3, z+1/3'
'-x+y+2/3, -x+1/3, z+1/3'
'-y+2/3, -x+1/3, z+5/6'
'-x+y+2/3, y+1/3, z+5/6'
'x+2/3, x-y+1/3, z+5/6'
'x+1/3, y+2/3, z+2/3'
'-y+1/3, x-y+2/3, z+2/3'
'-x+y+1/3, -x+2/3, z+2/3'
'-y+1/3, -x+2/3, z+7/6'
'-x+y+1/3, y+2/3, z+7/6'
'x+1/3, x-y+2/3, z+7/6'
loop_
_atom_site_type_symbol
_atom_site_label
_atom_site_fract_x
_atom_site_fract_y
_atom_site_fract_z
_atom_site_U_iso_or_equiv
_atom_site_adp_type
_atom_site_calc_flag
_atom_site_occupancy
Nb Nb01 0.0000 0.0000 0.9677(3) 0.00458(17) Uani d 1
O O002 0.9523(2) 0.6567(2) 0.9043(3) 0.0071(3) Uani d 1
Li Li01 0.0000 0.0000 0.688(2) 0.014(3) Uani d 1
loop_
_atom_site_aniso_label
_atom_site_aniso_U_11
_atom_site_aniso_U_22
_atom_site_aniso_U_33
_atom_site_aniso_U_12
_atom_site_aniso_U_13
_atom_site_aniso_U_23
Nb01 0.00481(19) 0.00481(19) 0.0041(2) 0.00240(10) 0.000 0.000
O002 0.0076(6) 0.0062(4) 0.0073(4) 0.0032(5) -0.0013(5) -0.0019(2)
Li01 0.012(5) 0.012(5) 0.018(7) 0.006(2) 0.000 0.000
loop_
_atom_type_symbol
_atom_type_description
_atom_type_scat_dispersion_real
_atom_type_scat_dispersion_imag
_atom_type_scat_source
Li Li -0.0003 0.0001 'International Tables Vol C Tables 4.2.6.8 and 6.1.1.4'
O O 0.0106 0.0060 'International Tables Vol C Tables 4.2.6.8 and 6.1.1.4'
Nb Nb -2.0727 0.6215 'International Tables Vol C Tables 4.2.6.8 and 6.1.1.4'
loop_
_exptl_crystal_face_index_h
_exptl_crystal_face_index_k
_exptl_crystal_face_index_l
_exptl_crystal_face_perp_dist
5 0 -11 0.1217
-4 -1 -14 0.1328
-3 5 -14 0.1267
4 2 -7 0.1472
4 -4 -15 0.1363
7 -2 -3 0.1397
-4 5 14 0.1328
4 2 5 0.1650
-5 3 -15 0.1260
7 -1 1 0.1519
-3 6 12 0.1216
3 1 15 0.1584
-2 6 10 0.1143
4 1 14 0.1664
0 -5 -11 0.1029
5 -5 11 0.1125
-1 -2 18 0.1415
-6 6 -9 0.0856
-5 0 10 0.1160
2 -6 -12 0.1127
6 -5 10 0.1239
-3 7 8 0.1199
-6 5 -9 0.0944
5 0 -12 0.1180
loop_
_geom_angle_atom_site_label_1
_geom_angle_atom_site_label_2
_geom_angle_atom_site_label_3
_geom_angle_site_symmetry_1
_geom_angle_site_symmetry_3
_geom_angle
_geom_angle_publ_flag
O002 Nb01 O002 1_445 3_565 99.85(16) n
O002 Nb01 O002 3_565 17_544 88.60(4) n
O002 Nb01 O002 1_445 16_554 88.60(4) n
O002 Nb01 O002 17_544 16_554 79.75(15) n
O002 Nb01 O002 2_655 17_544 90.01(5) n
O002 Nb01 O002 17_544 18_444 79.75(15) n
O002 Nb01 O002 1_445 2_655 99.85(16) n
O002 Nb01 O002 2_655 16_554 165.6(2) n
O002 Nb01 O002 1_445 18_444 90.01(4) n
O002 Nb01 O002 3_565 18_444 165.6(2) n
O002 Nb01 O002 3_565 2_655 99.85(16) n
O002 Nb01 O002 2_655 18_444 88.60(4) n
O002 Nb01 O002 3_565 16_554 90.02(4) n
O002 Nb01 O002 1_445 17_544 165.6(2) n
O002 Nb01 O002 16_554 18_444 79.75(15) n
O002 Nb01 Li01 1_445 4 117.93(13) n
O002 Nb01 Li01 16_554 16_554 147.4(3) n
O002 Nb01 Li01 16_554 16_444 73.4(4) n
O002 Nb01 Li01 3_565 4 117.93(13) n
O002 Nb01 Li01 2_655 16_444 120.3(4) n
O002 Nb01 Li01 1_445 7_445 47.4(5) n
O002 Nb01 Li01 3_565 7 142.7(3) n
O002 Nb01 Li01 1_445 7_455 142.7(3) n
O002 Nb01 Li01 1_445 16_444 71.44(19) n
O002 Nb01 Li01 16_554 7 119.5(5) n
O002 Nb01 Li01 18_444 4 47.75(10) n
O002 Nb01 Li01 2_655 7_455 103.0(2) n
O002 Nb01 Li01 1_445 7 103.0(2) n
O002 Nb01 Li01 2_655 7_445 142.7(3) n
O002 Nb01 Li01 16_554 7_455 76.1(4) n
O002 Nb01 Li01 17_544 7_445 119.5(5) n
O002 Nb01 Li01 18_444 7_445 76.1(4) n
O002 Nb01 Li01 2_655 16_554 32.92(8) n
O002 Nb01 Li01 2_655 7 47.4(5) n
O002 Nb01 Li01 3_565 16_444 32.92(9) n
O002 Nb01 Li01 3_565 7_445 103.0(2) n
O002 Nb01 Li01 17_544 16_444 112.5(3) n
O002 Nb01 Li01 3_565 7_455 47.4(5) n
O002 Nb01 Li01 18_444 16_444 147.4(3) n
O002 Nb01 Li01 18_444 7 41.9(4) n
O002 Nb01 Li01 3_565 16_554 71.44(19) n
O002 Nb01 Li01 2_655 4 117.93(13) n
O002 Nb01 Li01 17_544 16_554 73.4(4) n
O002 Nb01 Li01 1_445 16_554 120.3(4) n
O002 Nb01 Li01 18_444 16_554 112.5(3) n
O002 Nb01 Li01 17_544 4 47.75(10) n
O002 Nb01 Li01 16_554 7_445 41.9(4) n
O002 Nb01 Li01 17_544 7 76.1(4) n
O002 Nb01 Li01 17_544 7_455 41.9(4) n
O002 Nb01 Li01 16_554 4 47.75(10) n
O002 Nb01 Li01 18_444 7_455 119.5(5) n
Li01 Nb01 Li01 7 16_444 166.4(10) n
Li01 Nb01 Li01 7 16_554 71.60(11) n
Li01 Nb01 Li01 7 7_455 114.2(4) n
Li01 Nb01 Li01 4 7 75.9(5) n
Li01 Nb01 Li01 7_455 16_444 71.60(11) n
Li01 Nb01 Li01 4 7_455 75.9(5) n
Li01 Nb01 Li01 7_445 16_444 71.60(11) n
Li01 Nb01 Li01 7_445 7_455 114.2(4) n
Li01 Nb01 Li01 4 16_444 117.7(4) n
Li01 Nb01 Li01 7 7_445 114.3(4) n
Li01 Nb01 Li01 4 7_445 75.9(5) n
Li01 Nb01 Li01 7_455 16_554 71.60(11) n
Li01 Nb01 Li01 4 16_554 117.7(5) n
Li01 Nb01 Li01 16_444 16_554 100.1(6) n
Li01 Nb01 Li01 7_445 16_554 166.4(10) n
Nb01 O002 Nb01 1_665 10_554 139.91(9) n
Nb01 O002 Li01 1_665 16_654 117.3(3) n
Nb01 O002 Li01 1_665 7 95.0(4) n
Nb01 O002 Li01 10_554 7 88.1(5) n
Li01 O002 Nb01 16_654 10_554 94.2(6) n
Li01 O002 Li01 16_654 7 121.2(6) n
Nb01 Li01 Nb01 13_444 10_554 166.4(10) n
Nb01 Li01 Nb01 13_444 10_444 71.60(11) n
Nb01 Li01 Nb01 13_544 10_554 71.60(11) n
Nb01 Li01 Nb01 4_554 13_554 75.9(5) n
Nb01 Li01 Nb01 13_554 13_544 114.2(4) n
Nb01 Li01 Nb01 4_554 13_544 75.9(5) n
Nb01 Li01 Nb01 13_544 10_444 71.60(11) n
Nb01 Li01 Nb01 13_444 13_554 114.3(4) n
Nb01 Li01 Nb01 13_554 10_554 71.60(11) n
Nb01 Li01 Nb01 10_554 10_444 100.1(6) n
Nb01 Li01 Nb01 4_554 13_444 75.9(5) n
Nb01 Li01 Nb01 13_444 13_544 114.2(4) n
Nb01 Li01 Nb01 13_554 10_444 166.4(10) n
Nb01 Li01 Nb01 4_554 10_444 117.7(4) n
Nb01 Li01 Nb01 4_554 10_554 117.7(4) n
O002 Li01 Nb01 10_564 13_554 43.86(19) n
O002 Li01 Nb01 14_544 13_544 111.7(9) n
O002 Li01 Nb01 12_344 13_544 95.87(4) n
O002 Li01 Nb01 12_344 4_554 109.5(8) n
O002 Li01 Nb01 14_544 4_554 44.1(5) n
O002 Li01 Nb01 13_444 13_444 111.7(9) n
O002 Li01 Nb01 11_544 13_544 43.86(19) n
O002 Li01 Nb01 14_544 13_554 84.1(5) n
O002 Li01 Nb01 10_564 10_444 125.2(10) n
O002 Li01 Nb01 15_554 10_554 105.58(11) n
O002 Li01 Nb01 13_444 10_444 153.8(6) n
O002 Li01 Nb01 11_544 4_554 109.5(8) n
O002 Li01 Nb01 15_554 13_444 84.1(5) n
O002 Li01 Nb01 14_544 10_444 105.58(11) n
O002 Li01 Nb01 12_344 13_554 149.6(2) n
O002 Li01 Nb01 15_554 13_554 111.7(9) n
O002 Li01 Nb01 14_544 10_554 153.8(6) n
O002 Li01 Nb01 13_444 13_544 84.1(5) n
O002 Li01 Nb01 13_444 10_554 80.61(8) n
O002 Li01 Nb01 15_554 13_544 37.60(11) n
O002 Li01 Nb01 10_564 13_544 149.6(2) n
O002 Li01 Nb01 13_444 4_554 44.1(5) n
O002 Li01 Nb01 11_544 10_444 80.0(5) n
O002 Li01 Nb01 15_554 4_554 44.1(5) n
O002 Li01 Nb01 11_544 13_444 149.6(2) n
O002 Li01 Nb01 12_344 13_444 43.86(19) n
O002 Li01 Nb01 10_564 13_444 95.87(4) n
O002 Li01 Nb01 12_344 10_554 125.2(10) n
O002 Li01 Nb01 14_544 13_444 37.60(11) n
O002 Li01 Nb01 11_544 10_554 29.8(2) n
O002 Li01 Nb01 15_554 10_444 80.61(8) n
O002 Li01 Nb01 13_444 13_554 37.60(11) n
O002 Li01 Nb01 12_344 10_444 29.8(2) n
O002 Li01 Nb01 11_544 13_554 95.87(4) n
O002 Li01 Nb01 10_564 4_554 109.5(8) n
O002 Li01 Nb01 10_564 10_554 80.0(5) n
O002 Li01 O002 12_344 13_444 152.8(13) n
O002 Li01 O002 12_344 15_554 89.3(3) n
O002 Li01 O002 10_564 15_554 152.8(13) n
O002 Li01 O002 12_344 11_544 109.5(8) n
O002 Li01 O002 11_544 15_554 80.8(3) n
O002 Li01 O002 11_544 14_544 152.8(13) n
O002 Li01 O002 14_544 13_444 74.1(8) n
O002 Li01 O002 13_444 15_554 74.1(8) n
O002 Li01 O002 12_344 10_564 109.5(8) n
O002 Li01 O002 11_544 10_564 109.5(8) n
O002 Li01 O002 10_564 13_444 80.8(3) n
O002 Li01 O002 12_344 14_544 80.8(3) n
O002 Li01 O002 10_564 14_544 89.3(3) n
O002 Li01 O002 14_544 15_554 74.1(8) n
O002 Li01 O002 11_544 13_444 89.3(3) n
loop_
_geom_bond_atom_site_label_1
_geom_bond_atom_site_label_2
_geom_bond_site_symmetry_2
_geom_bond_distance
_geom_bond_publ_flag
Nb01 O002 1_445 1.876(2) n
Nb01 O002 17_544 2.129(3) n
Nb01 O002 16_554 2.129(3) n
Nb01 O002 2_655 1.876(2) n
Nb01 O002 3_565 1.876(2) n
Nb01 O002 18_444 2.129(3) n
Nb01 Li01 7 3.064(7) n
Nb01 Li01 4 3.06(3) n
Nb01 Li01 7_445 3.064(7) n
Nb01 Li01 7_455 3.064(7) n
Nb01 Li01 16_444 3.357(14) n
Nb01 Li01 16_554 3.357(14) n
O002 Nb01 1_665 1.876(2) n
O002 Nb01 10_554 2.129(3) n
O002 Li01 7 2.26(2) n
O002 Li01 16_654 2.053(10) n
Li01 Nb01 4_554 3.06(3) n
Li01 Nb01 13_444 3.064(7) n
Li01 Nb01 10_554 3.357(14) n
Li01 Nb01 13_554 3.064(7) n
Li01 Nb01 10_444 3.357(14) n
Li01 Nb01 13_544 3.064(7) n
Li01 O002 11_544 2.053(10) n
Li01 O002 15_554 2.26(2) n
Li01 O002 12_344 2.053(10) n
Li01 O002 14_544 2.26(2) n
Li01 O002 13_444 2.26(2) n
Li01 O002 10_564 2.053(10) n
