#------------------------------------------------------------------------------
#$Date: 2019-12-26 21:24:38 +0200 (Thu, 26 Dec 2019) $
#$Revision: 246104 $
#$URL: file:///home/coder/svn-repositories/cod/cif/2/31/17/2311779.cif $
#------------------------------------------------------------------------------
#
# This file is available in the Crystallography Open Database (COD),
# http://www.crystallography.net/. The original data for this entry
# were provided by IUCr Journals, http://journals.iucr.org/.
#
# The file may be used within the scientific community so long as
# proper attribution is given to the journal article from which the
# data were obtained.
#
data_2311779
loop_
_publ_author_name
'Fulle, Kyle'
'Sanjeewa, Liurukara D.'
'McMillen, Colin D.'
'Kolis, Joseph W.'
_publ_section_title
;
 Crystal chemistry and the role of ionic radius in rare earth
 tetrasilicates:
 Ba<sub>2</sub>RE<sub>2</sub>Si<sub>4</sub>O<sub>12</sub>F<sub>2</sub> (RE
 = Er<sup>3+</sup>-Lu<sup>3+</sup>) and
 Ba<sub>2</sub>RE<sub>2</sub>Si<sub>4</sub>O<sub>13</sub> (RE =
 La<sup>3+</sup>-Ho<sup>3+</sup>).
;
_journal_issue                   'Pt 5'
_journal_name_full
'Acta crystallographica Section B, Structural science, crystal engineering and materials'
_journal_page_first              907
_journal_page_last               915
_journal_paper_doi               10.1107/S2052520617009544
_journal_volume                  73
_journal_year                    2017
_chemical_formula_sum            'Ba2 O13 Si4 Sm2'
_chemical_formula_weight         895.74
_space_group_crystal_system      monoclinic
_space_group_IT_number           15
_space_group_name_Hall           '-C 2yc'
_space_group_name_H-M_alt        'C 1 2/c 1'
_atom_sites_solution_primary     direct
_atom_sites_solution_secondary   difmap
_audit_creation_method           SHELXL-2014/7
_cell_angle_alpha                90
_cell_angle_beta                 104.148(18)
_cell_angle_gamma                90
_cell_formula_units_Z            4
_cell_length_a                   12.9961(9)
_cell_length_b                   5.2355(7)
_cell_length_c                   17.626(3)
_cell_measurement_reflns_used    3082
_cell_measurement_temperature    298(2)
_cell_measurement_theta_max      26.7334
_cell_measurement_theta_min      3.1607
_cell_volume                     1162.9(3)
_computing_cell_refinement       'CrystalClear (Rigaku/MSC, 2008)'
_computing_data_collection       'CrystalClear (Rigaku/MSC, 2008)'
_computing_data_reduction        'CrystalClear (Rigaku/MSC, 2008)'
_computing_molecular_graphics    'DIAMOND (Bradenburg, 1999)'
_computing_publication_material  'SHELXL-2014/7 (Sheldrick, 2014)'
_computing_structure_refinement  'SHELXL-2014/7 (Sheldrick, 2014)'
_computing_structure_solution    'SHELXL-2014/7 (Sheldrick, 2014)'
_diffrn_ambient_temperature      298(2)
_diffrn_detector_area_resol_mean 14.6199
_diffrn_measured_fraction_theta_full 0.996
_diffrn_measured_fraction_theta_max 0.972
_diffrn_measurement_device_type  'Rigaku AFC8S'
_diffrn_measurement_method       '\w scans'
_diffrn_radiation_type           MoK\a
_diffrn_radiation_wavelength     0.71073
_diffrn_reflns_av_R_equivalents  0.0836
_diffrn_reflns_av_unetI/netI     0.0561
_diffrn_reflns_Laue_measured_fraction_full 0.996
_diffrn_reflns_Laue_measured_fraction_max 0.972
_diffrn_reflns_limit_h_max       16
_diffrn_reflns_limit_h_min       -16
_diffrn_reflns_limit_k_max       6
_diffrn_reflns_limit_k_min       -6
_diffrn_reflns_limit_l_max       21
_diffrn_reflns_limit_l_min       -21
_diffrn_reflns_number            4506
_diffrn_reflns_point_group_measured_fraction_full 0.996
_diffrn_reflns_point_group_measured_fraction_max 0.972
_diffrn_reflns_theta_full        25.242
_diffrn_reflns_theta_max         26.500
_diffrn_reflns_theta_min         3.233
_diffrn_source                   'fine-focus sealed tube'
_exptl_absorpt_coefficient_mu    17.117
_exptl_absorpt_correction_T_max  1.0000
_exptl_absorpt_correction_T_min  0.4490
_exptl_absorpt_correction_type   multi-scan
_exptl_absorpt_process_details   'REQAB, CrystalClear'
_exptl_crystal_colour            yellow
_exptl_crystal_density_diffrn    5.116
_exptl_crystal_description       block
_exptl_crystal_F_000             1584
_exptl_crystal_size_max          0.220
_exptl_crystal_size_mid          0.150
_exptl_crystal_size_min          0.150
_refine_diff_density_max         2.128
_refine_diff_density_min         -3.883
_refine_diff_density_rms         0.594
_refine_ls_extinction_coef       0.0062(4)
_refine_ls_extinction_expression Fc^*^=kFc[1+0.001xFc^2^\l^3^/sin(2\q)]^-1/4^
_refine_ls_extinction_method     'SHELXL-2014/7 (Sheldrick 2014'
_refine_ls_goodness_of_fit_ref   1.177
_refine_ls_hydrogen_treatment    undef
_refine_ls_matrix_type           full
_refine_ls_number_parameters     97
_refine_ls_number_reflns         1174
_refine_ls_number_restraints     0
_refine_ls_restrained_S_all      1.177
_refine_ls_R_factor_all          0.0509
_refine_ls_R_factor_gt           0.0490
_refine_ls_shift/su_max          0.000
_refine_ls_shift/su_mean         0.000
_refine_ls_structure_factor_coef Fsqd
_refine_ls_weighting_details
'w=1/[\s^2^(Fo^2^)+(0.0790P)^2^+31.2028P] where P=(Fo^2^+2Fc^2^)/3'
_refine_ls_weighting_scheme      calc
_refine_ls_wR_factor_gt          0.1447
_refine_ls_wR_factor_ref         0.1464
_reflns_Friedel_coverage         0.000
_reflns_number_gt                1129
_reflns_number_total             1174
_reflns_threshold_expression     'I > 2\s(I)'
_cod_data_source_file            rm5005sup1.cif
_cod_data_source_block           Sm
_cod_original_sg_symbol_H-M      'C 2/c'
_cod_database_code               2311779
_shelx_shelxl_version_number     2014/7
_shelx_space_group_comment
;
The symmetry employed for this shelxl refinement is uniquely defined
by the following loop, which should always be used as a source of
symmetry information in preference to the above space-group names.
They are only intended as comments.
;
_shelx_estimated_absorpt_t_min   0.117
_shelx_estimated_absorpt_t_max   0.183
_shelx_res_file
;

    c2c.res created by SHELXL-2014/7


TITL c2c in C2/c
CELL 0.71073  12.9961   5.2355  17.6258  90.000 104.148  90.000
ZERR    4.00   0.0009   0.0007   0.0034   0.000   0.018   0.000
LATT  7
SYMM -X, Y, 0.5-Z
SFAC O SI BA SM
UNIT 52 16 8 8

L.S. 20
BOND
FMAP 2
PLAN 20
acta
size 0.22 0.15 0.15
OMIT -3 53
WGHT    0.079000   31.202806
EXTI    0.006185
FVAR       0.15855
SM1   4    0.885048    0.008947    0.415178    11.00000    0.00583    0.01087 =
         0.00802   -0.00011    0.00302   -0.00020
BA1   3    0.662143    0.495130    0.332899    11.00000    0.00900    0.01195 =
         0.01045   -0.00090    0.00345   -0.00173
SI1   2    0.882039   -0.466705    0.544696    11.00000    0.00677    0.01090 =
         0.00767   -0.00105    0.00359   -0.00137
SI2   2    1.062702   -0.544114    0.684542    11.00000    0.00732    0.01226 =
         0.00722   -0.00041    0.00237    0.00024
O1    1    0.981938   -0.642402    0.599786    11.00000    0.00952    0.01101 =
         0.01411   -0.00158    0.00641   -0.00061
O2    1    0.794855   -0.462033    0.596827    11.00000    0.00807    0.01701 =
         0.00706   -0.00059    0.00426   -0.00140
O3    1    0.929038   -0.174782    0.538849    11.00000    0.01193    0.01290 =
         0.00384    0.00144   -0.00054   -0.00038
O4    1    0.842969   -0.594756    0.459965    11.00000    0.01526    0.01388 =
         0.00885   -0.00512    0.00462    0.00081
O5    1    0.500000    0.147789    0.250000    10.50000    0.01447    0.01182 =
         0.00712    0.00000    0.00571    0.00000
O6    1    0.919617    0.242744    0.309847    11.00000    0.02095    0.01417 =
         0.01130    0.00160    0.00856   -0.00578
O7    1    0.835409   -0.276035    0.306014    11.00000    0.00833    0.01626 =
         0.01368    0.00277    0.00544    0.00212

MOLE   2
HKLF 4

REM  c2c in C2/c
REM R1 =  0.0490 for    1129 Fo > 4sig(Fo)  and  0.0509 for all    1174 data
REM     97 parameters refined using      0 restraints

END

WGHT      0.0639     28.1527

REM Highest difference peak  2.128,  deepest hole -3.883,  1-sigma level  0.594
Q1    1   0.6799  0.3277  0.2848  11.00000  0.05    2.13
Q2    1   0.8671 -0.8264  0.4682  11.00000  0.05    1.84
Q3    1   0.5755  0.5051  0.3447  11.00000  0.05    1.77
Q4    1   0.8955 -0.5032  0.4054  11.00000  0.05    1.71
Q5    1   0.8305 -0.6711  0.6644  11.00000  0.05    1.66
Q6    1   0.6824  0.6738  0.2835  11.00000  0.05    1.65
Q7    1   0.7536 -0.7101  0.3941  11.00000  0.05    1.65
Q8    1   0.8839 -0.3473  0.4198  11.00000  0.05    1.63
Q9    1   0.8280 -0.3297  0.6557  11.00000  0.05    1.57
Q10   1   0.8619 -0.1696  0.4623  11.00000  0.05    1.56
Q11   1   0.7556  0.4836  0.3722  11.00000  0.05    1.55
Q12   1   0.9029  0.1824  0.3582  11.00000  0.05    1.54
Q13   1   0.8226 -0.4997  0.6778  11.00000  0.05    1.52
Q14   1   0.7456 -0.2372  0.6029  11.00000  0.05    1.46
Q15   1   1.0223 -0.7443  0.5361  11.00000  0.05    1.43
Q16   1   0.9010 -0.6573  0.4384  11.00000  0.05    1.41
Q17   1   0.9453  0.2058  0.4188  11.00000  0.05    1.41
Q18   1   0.8992 -0.1725  0.3614  11.00000  0.05    1.38
Q19   1   0.9587 -0.5069  0.6499  11.00000  0.05    1.36
Q20   1   0.9654  0.2476  0.3401  11.00000  0.05    1.34
;
_shelx_res_checksum              2055
_shelx_hkl_file
;
   0   0  -3    0.26    0.77
   0   0  -4 2454.36   36.93
   0   0   4 2324.80   34.99
   0   0   4 2351.99   35.33
   0   0  -5    5.77    1.71
   0   0   5    8.77    1.79
   0   0  -5    1.30    0.54
   0   0   5    6.39    1.44
   0   0  -6   56.44    5.60
   0   0   6   47.88    4.79
   0   0   6   49.71    4.93
   0   0  -7    2.31    1.54
   0   0   8 4366.00   65.71
   0   0   8 4144.89   62.38
   0   0 -10  211.08    5.06
   0   0  10  167.13    4.07
   0   0  10  165.87    4.00
   0   0 -12 5076.68  104.89
   0   0  12 4215.13   87.32
   0   0  12 4270.53   88.37
   0   0 -14  939.61   17.06
   0   0 -16 1529.12   48.02
   0   0 -17   12.22    1.39
   0   0  17    3.21    2.00
   0   0 -18  141.86    5.31
   0   0  18  129.55    5.01
   0   0 -20  238.61    8.72
   0   0  20  160.93    6.44
  -2   0  20 1543.86   33.21
  -2   0  20 1580.96   34.06
  -2   0  19   74.60    3.31
  -2   0  19   33.97    3.73
   2   0 -18  247.55    9.17
  -2   0  18  199.83    7.63
  -2   0  18  203.90   11.88
  -2   0  17    5.86    1.09
  -2   0  17    2.20    1.70
   2   0 -16 5879.67  365.86
  -2   0  16 3893.96  242.42
  -2   0  16 4176.62  260.03
  -2   0  15    2.86    0.90
  -2   0  15   21.69    3.25
  -2   0  14   76.97    3.42
  -2   0  14   77.28    5.77
  -2   0  13    0.84    1.13
  -2   0  13    0.65    0.48
   2   0 -12   47.01    4.24
  -2   0  12   38.96    3.50
  -2   0  12   53.00    6.45
   2   0 -11    3.96    1.34
  -2   0  11    3.16    0.84
  -2   0  11    3.39    0.98
   2   0 -10   38.00    3.44
  -2   0  10   33.43    3.06
   2   0  -9    5.26    1.08
  -2   0   9    3.69    1.48
   2   0  -8 6321.41  504.84
  -2   0   8 5750.53  459.26
   2   0  -7    3.53    0.81
  -2   0   7    1.98    1.02
   2   0  -6  690.88   11.24
  -2   0   6  708.51   11.58
   2   0  -5   10.55    1.28
  -2   0   5   11.35    1.45
   2   0  -4 3634.19   54.69
  -2   0   4 3701.23   55.64
   2   0  -3    5.86    1.89
  -2   0   3    1.63    1.12
   2   0  -2  555.21    9.12
  -2   0   2  455.91    7.49
   2   0  -1    5.81    1.01
  -2   0   1    5.28    1.21
   2   0   0   41.19    4.04
  -2   0   0   26.97    2.86
   2   0   1   17.17    2.33
  -2   0  -1   15.58    1.63
  -2   0  -2   70.69    5.79
  -2   0  -2   73.15    1.97
  -2   0  -2   69.90    5.71
  -2   0  -3   11.93    1.85
  -2   0  -3    7.96    1.14
   2   0   3    4.74    1.17
  -2   0  -4 1973.93   30.03
   2   0   4 1887.97   28.82
  -2   0  -4 2144.06   32.46
   2   0   4 1966.04   29.72
  -2   0  -5    3.39    1.01
   2   0   5    3.04    1.06
  -2   0  -5    2.67    0.49
   2   0   5    3.61    0.90
  -2   0  -6  909.00   14.49
   2   0   6  935.16   15.11
  -2   0  -6  844.86   13.32
   2   0   6  852.88   13.51
  -2   0  -7    1.20    0.89
   2   0   7    4.25    5.57
  -2   0  -7    1.06    0.62
   2   0   7    1.82    0.71
  -2   0  -8 5150.47   77.31
   2   0   8 5959.83  476.05
  -2   0  -8 5776.01  461.27
   2   0   8 4347.49   65.25
  -2   0  -9    0.71    0.80
  -2   0  -9   -0.05    0.67
   2   0   9   -2.52    0.66
  -2   0 -10  954.11   18.56
   2   0  10 1025.73   20.29
  -2   0 -11    0.00    0.93
   2   0  11    7.70    4.61
  -2   0 -11   -0.16    0.50
  -2   0 -12  657.76   14.65
   2   0  12  708.87   16.31
  -2   0 -13    2.05    1.21
   2   0  13    3.56    1.51
  -2   0 -13    1.06    0.68
  -2   0 -14   44.54    6.39
   2   0  14   32.39    4.69
   2   0  14   26.94    4.13
  -2   0 -15    4.26    1.05
  -2   0 -16 2935.15   73.19
  -2   0 -17    9.90    1.69
  -2   0 -18  573.69   13.49
   2   0  18  433.28   10.71
   2   0  18  514.23   12.24
   2   0  20 2627.91  184.16
  -4   0  21   13.93    1.43
  -4   0  21   20.39    3.41
  -4   0  20  493.39   11.85
   4   0 -19   33.78    4.80
  -4   0  19    4.99    0.97
  -4   0  19    1.03    0.54
  -4   0  18  649.40   22.30
  -4   0  18  576.60   20.32
  -4   0  17    2.88    1.08
  -4   0  17    0.12    0.60
   4   0 -16  397.73   13.50
  -4   0  16  248.53    8.62
  -4   0  16  350.83   12.33
   4   0 -15    0.50    0.93
  -4   0  15    2.16    0.96
  -4   0  15    0.87    0.54
  -4   0  14 1115.17   20.12
  -4   0  14 1142.36   21.05
   4   0 -13    0.07    2.22
  -4   0  13    1.84    1.52
   4   0 -12 1905.36   40.52
  -4   0  12 1721.61   36.79
   4   0 -11    5.50    1.18
  -4   0  11    5.21    1.28
   4   0 -10 3748.93   70.14
  -4   0  10 3737.02   69.98
   4   0  -9    3.14    0.91
  -4   0   9    3.61    0.89
   4   0  -8 3477.68   53.02
  -4   0   8 3794.93   57.86
   4   0  -7    6.84    1.18
  -4   0   7    3.33    1.69
   4   0  -6   23.59    2.58
  -4   0   6   23.25    2.82
   4   0  -5   12.80    1.55
  -4   0   5   14.24    2.02
   4   0  -4  240.58    5.27
  -4   0   4  194.77    4.54
   4   0  -3   10.72    2.63
  -4   0   3   10.94    1.68
   4   0  -1    1.83    0.69
  -4   0   1    0.81    0.38
   4   0   0 3868.64   58.17
  -4   0   0 5800.45  463.31
   4   0   1   17.05    2.66
  -4   0  -1   23.15    2.73
   4   0   2 4025.54   60.68
  -4   0  -2 3999.99   60.24
  -4   0  -3   14.89    3.03
  -4   0  -3    9.23    1.39
  -4   0  -3    7.89    1.11
  -4   0  -4 3805.68   57.44
  -4   0  -4 4160.59   62.91
  -4   0  -4 4092.42   61.48
  -4   0  -5    2.97    0.66
  -4   0  -5    3.08    1.07
  -4   0  -5    3.26    0.84
  -4   0  -6  373.11    6.79
  -4   0  -6  369.21    6.73
  -4   0  -6  336.90    5.98
   4   0   6  364.32    6.42
  -4   0  -7    7.13    1.49
  -4   0  -7    7.45    1.36
  -4   0  -7    7.15    1.33
   4   0   7    4.73    0.88
  -4   0  -8 1543.82   29.53
  -4   0  -8 1357.94   25.71
   4   0   8 1489.04   28.25
  -4   0  -9    0.39   12.96
  -4   0  -9    1.02    0.95
  -4   0  -9    3.43    0.60
   4   0   9    1.99    1.05
  -4   0 -10 2170.74   45.86
  -4   0 -10 2192.57   46.21
  -4   0 -10 1972.48   41.38
   4   0  10 2040.69   42.83
  -4   0 -11    0.17    0.80
  -4   0 -11    1.11    0.65
   4   0  11   -0.47    4.58
  -4   0 -12 3284.34   56.21
  -4   0 -12 2955.77   50.34
  -4   0 -12 2895.41   49.21
   4   0  12 3094.74   52.59
  -4   0 -13    0.36   23.16
  -4   0 -13    0.82    0.88
  -4   0 -13    1.07    0.55
   4   0  13    4.42    2.63
  -4   0 -14 1052.52   33.58
  -4   0 -14 1180.53   37.62
  -4   0 -14 1032.84   32.78
  -4   0 -15   -0.07    0.68
  -4   0 -15   -0.01    0.90
  -4   0 -15    3.46    0.95
   4   0  15    0.15    2.92
  -4   0 -16 1571.57   47.26
  -4   0 -16 1788.08   53.55
  -4   0 -16 1718.81   51.40
   4   0  16 1650.94   49.45
  -4   0 -17    2.47    1.54
  -4   0 -18   24.09    6.86
  -4   0 -18   39.56    6.36
   4   0  18   41.41    6.53
  -4   0 -19    0.97    0.63
   4   0  19    2.77    1.10
  -6   0  22   35.30    3.20
  -6   0  21    1.73    0.72
  -6   0  20  456.06   12.54
   6   0 -19   -4.16    1.01
  -6   0  19   -0.58    0.63
  -6   0  19    0.37    0.70
   6   0 -18 2906.73   96.10
  -6   0  18 2713.06   89.90
  -6   0  18 6197.58  601.73
   6   0 -17    3.30    1.52
  -6   0  17    1.01    0.87
  -6   0  17   -0.07    0.70
   6   0 -16 2723.06   84.92
  -6   0  16 2618.59   81.78
   6   0 -15    1.66    3.93
  -6   0  15    0.30    1.06
   6   0 -14 4508.13  364.83
  -6   0  14 3354.41   57.32
   6   0 -13    1.28    1.15
  -6   0  13    0.69    1.39
   6   0 -12  342.97    8.71
  -6   0  12  285.87    7.40
   6   0 -11    8.02    1.56
  -6   0  11    8.53    1.98
   6   0 -10    8.16    1.20
  -6   0  10    4.49    1.22
   6   0  -9    4.16    1.03
  -6   0   9    3.66    1.75
   6   0  -8 2667.87   50.06
  -6   0   8 2787.15   53.03
   6   0  -7    1.88    1.07
  -6   0   7   -0.76    1.40
   6   0  -6 3373.52   51.57
  -6   0   6 3848.21   59.40
   6   0  -5    9.40    2.19
  -6   0   5   11.15    1.76
   6   0  -4 2757.18   42.51
  -6   0   4 3256.80   49.84
   6   0  -3   11.66    2.42
  -6   0   3   11.26    2.26
   6   0  -2 3142.10   47.99
  -6   0   2 3023.70   46.12
   6   0  -1    2.29    0.83
  -6   0   1    1.00    0.45
   6   0   0  568.54    9.72
  -6   0   0  549.20    9.46
   6   0   1    5.64    1.41
  -6   0  -1    9.33    1.91
   6   0   2   40.17    4.67
  -6   0  -2   34.98    3.63
  -6   0  -3   13.44    3.00
  -6   0  -3    6.39    0.98
  -6   0  -4 1527.58   29.24
  -6   0  -4 1479.62   28.40
  -6   0  -4 1525.23   28.92
  -6   0  -5   -0.03    0.69
  -6   0  -5    0.93    1.05
  -6   0  -5    0.57    1.06
  -6   0  -6  987.41   19.44
  -6   0  -6 1026.74   20.32
  -6   0  -6  996.20   19.32
  -6   0  -7    4.52    1.23
  -6   0  -7    3.18    0.97
  -6   0  -7    1.68    0.71
  -6   0  -8 2719.29   57.03
  -6   0  -8 2875.22   60.21
  -6   0  -8 2835.84   59.13
  -6   0  -9    0.66    0.68
  -6   0  -9    3.03    1.47
  -6   0  -9    2.06    0.75
  -6   0 -10 2116.00   36.79
  -6   0 -10 2331.52   40.45
  -6   0 -10 1916.68   32.87
  -6   0 -11   -1.30    0.89
  -6   0 -11    0.23    0.95
  -6   0 -11    2.19    0.64
  -6   0 -13    0.69    0.35
  -6   0 -13    0.71    0.79
  -6   0 -13    1.45    0.44
  -6   0 -14  292.89   10.75
  -6   0 -14  294.14   10.81
  -6   0 -14  277.52   10.02
  -6   0 -15    0.68    0.81
  -6   0 -15    0.69    0.57
  -6   0 -16  675.09   16.45
  -6   0 -16  562.96   13.51
  -8   0  21    2.16    1.26
  -8   0  21    0.45    1.08
   8   0 -20   84.53    3.94
  -8   0  20   76.25    3.78
  -8   0  20   80.93    4.44
   8   0 -19   -0.75    3.20
  -8   0  19    3.00    1.74
   8   0 -18 1339.77   40.53
  -8   0  18 1431.06   43.56
   8   0 -17   -0.69    1.23
  -8   0  17    1.03    0.98
   8   0 -16  257.22    7.99
  -8   0  16  220.53    7.14
   8   0 -15   -0.44    0.67
  -8   0  15   -1.02    0.97
   8   0 -14  684.63   22.13
  -8   0  14  675.85   22.07
   8   0 -13    0.26    0.65
  -8   0  13   -0.27    1.17
   8   0 -12  412.93    8.85
  -8   0  12  360.67    8.41
   8   0 -11    3.76    1.45
  -8   0  11   -0.32    1.30
   8   0 -10 4597.58   95.62
  -8   0  10 4164.96   87.54
   8   0  -9    3.92    1.72
  -8   0   9    2.70    1.39
   8   0  -8   45.80    4.78
  -8   0   8   42.36    4.25
   8   0  -7    0.66    0.61
  -8   0   7    4.33    2.09
   8   0  -6 2397.86   45.33
  -8   0   6 2619.13   50.00
   8   0  -5    3.23    1.15
  -8   0   5    0.67    0.97
   8   0  -4   89.11    3.03
  -8   0   4  100.73    3.54
   8   0  -3    4.12    0.69
  -8   0   3    0.96    0.80
   8   0  -2  175.87    4.71
  -8   0   2  133.92    3.80
   8   0  -1   -0.10    0.59
  -8   0   1    0.91    0.50
   8   0   0  545.54   11.41
  -8   0   0  595.37   12.55
   8   0   1    3.85    1.23
  -8   0  -1    3.68    0.65
   8   0   2 5759.83  831.69
  -8   0  -2 6569.19  948.56
  -8   0  -3    2.40    1.18
  -8   0  -3    2.80    1.51
  -8   0  -3    6.48    1.92
  -8   0  -4  886.48   19.75
  -8   0  -4  972.73   21.47
  -8   0  -4 1021.12   22.16
  -8   0  -5    1.26    0.38
  -8   0  -5    3.44    1.71
  -8   0  -5    3.29    1.34
  -8   0  -6 4104.09   69.73
  -8   0  -6 3964.05   67.39
  -8   0  -6 4041.22   68.08
  -8   0  -7    1.23    0.85
  -8   0  -7    4.06    1.66
  -8   0  -7    0.59    0.52
  -8   0  -8   11.00    1.59
  -8   0  -8   15.43    2.00
  -8   0  -8   13.39    2.60
  -8   0  -9    1.72    0.49
  -8   0  -9    1.33    1.12
  -8   0  -9    3.65    0.63
  -8   0 -10  980.84   25.53
  -8   0 -10 1027.45   26.73
  -8   0 -10 1037.15   26.60
  -8   0 -11   -0.66    0.99
  -8   0 -11    1.87    1.30
  -8   0 -11   -0.67    0.53
  -8   0 -12  416.25   13.52
  -8   0 -12  468.51   15.21
  -8   0 -12  427.72   13.57
  -8   0 -13   -1.76    9.84
  -8   0 -13    1.30    1.08
  -8   0 -13    0.93    0.73
  -8   0 -14 2317.80   49.43
  -8   0 -14 2542.32   53.91
  -8   0 -14 2484.05   52.21
  -8   0 -15   -8.36    0.75
  -8   0 -15    3.53    1.50
  -8   0 -16  505.41   36.05
 -10   0  20   75.35    6.36
 -10   0  19   -0.65    0.97
 -10   0  18 1476.70   32.60
  10   0 -17    0.71    0.54
 -10   0  17    1.45    0.96
  10   0 -16    8.09    2.03
 -10   0  16    6.66    1.37
  10   0 -15    1.08    0.97
 -10   0  15    1.54    1.07
  10   0 -14 5211.00  282.64
 -10   0  14 4798.32  260.60
  10   0 -13    0.00    0.42
 -10   0  13    2.84    1.70
  10   0 -12   26.24    5.57
 -10   0  12   16.81    2.06
  10   0 -11    0.98    0.44
 -10   0  11    3.92    1.90
  10   0 -10  434.32    9.28
 -10   0  10  382.30    9.06
  10   0  -9    0.13    0.43
 -10   0   9    0.44    1.31
  10   0  -8   15.29    3.50
 -10   0   8    9.51    2.15
  10   0  -7    3.91    1.25
 -10   0   7    5.15    1.85
  10   0  -6 3874.15   80.75
 -10   0   6 4335.95   90.67
  10   0  -5    0.83    1.13
 -10   0   5    1.88    1.00
  10   0  -4   85.13    3.76
 -10   0   4   79.24    3.96
  10   0  -3    4.27    1.17
 -10   0   3    2.74    1.58
  10   0  -2 3621.21   75.98
 -10   0   2 3637.08   76.30
  10   0  -1    1.19    0.60
 -10   0   1    3.00    1.12
  10   0   0    9.29    2.14
 -10   0   0   12.15    2.84
  10   0   1    1.64    1.00
 -10   0  -1    1.08    0.80
  10   0   2   67.21    2.74
 -10   0  -2   62.99    5.07
 -10   0  -3    2.14    0.70
 -10   0  -3    1.02    1.14
 -10   0  -3    1.42    0.90
 -10   0  -4  206.32   14.66
 -10   0  -4  174.89   11.76
 -10   0  -4  169.19   14.92
 -10   0  -5    0.95    0.48
 -10   0  -5    0.30    1.48
 -10   0  -5    6.16    1.13
 -10   0  -6 1871.42   59.20
 -10   0  -6 1859.87   58.51
 -10   0  -6 1935.60   60.48
 -10   0  -7    1.18    0.42
 -10   0  -7    5.24    1.91
 -10   0  -7    4.05    1.07
 -10   0  -8  289.38   10.68
 -10   0  -8  285.67   10.63
 -10   0  -8  241.07    8.65
 -10   0  -9   -0.52    2.72
 -10   0  -9    3.72    1.50
 -10   0  -9    1.16    0.71
 -10   0 -10 2633.60   78.49
 -10   0 -10 2784.52   82.91
 -10   0 -10 2806.41   83.06
 -10   0 -11    0.75    0.91
 -10   0 -11    4.38    2.16
 -10   0 -11    0.54    0.62
 -10   0 -12   70.87    7.49
 -10   0 -12   31.09    5.18
 -10   0 -13    2.88    0.91
 -10   0 -13    0.34    0.36
 -12   0  17    3.22    1.39
  12   0 -16  636.72   21.26
 -12   0  16  653.76   22.52
  12   0 -15    1.11    0.59
 -12   0  15    4.59    2.25
  12   0 -14  104.80    4.20
 -12   0  14  130.18    5.93
  12   0 -13    0.48    0.34
 -12   0  13    3.19    1.18
  12   0 -12    9.33    1.68
 -12   0  12   17.83    2.37
  12   0 -11    3.82    1.34
 -12   0  11    1.24    1.11
  12   0 -10 2700.58   67.61
 -12   0  10 2798.66   70.99
  12   0  -9    0.79    0.54
 -12   0   9    0.93    1.07
  12   0  -8  416.00   14.09
 -12   0   8  398.17   14.06
 -12   0   7    3.38    1.42
 -12   0   5    1.06    0.93
 -12   0   4  401.49   14.12
  12   0  -3    0.42    0.42
 -12   0   3    1.35    1.26
  12   0  -2  200.80    7.37
 -12   0   2  281.21   11.60
  12   0  -1    0.95    0.44
 -12   0   1    1.53    0.48
  12   0   0   15.07    2.98
 -12   0   0   48.48    8.93
  12   0   1    1.59    0.88
 -12   0  -1    1.62    0.94
 -12   0  -2 2873.31   72.46
 -12   0  -2 2973.60   74.63
 -12   0  -3    3.06    1.24
 -12   0  -3    0.44    1.26
 -12   0  -3    3.76    1.18
 -12   0  -4  163.28    6.67
 -12   0  -4  176.57    7.41
 -12   0  -4  149.05    6.08
 -12   0  -5    1.09    0.59
 -12   0  -5    8.07    2.31
 -12   0  -5    0.37    0.94
 -12   0  -6 3037.62   90.20
 -12   0  -6 3633.74  107.82
 -12   0  -6 3570.03  105.53
 -12   0  -7    1.68    1.21
 -12   0  -7    0.36    1.00
 -12   0  -7    2.37    1.20
 -12   0  -8   85.32   10.08
 -12   0  -8   85.52    4.28
 -12   0  -8   59.40   10.98
 -12   0  -9    1.44    1.02
 -12   0 -10    3.20    0.80
 -14   0  16  558.62   40.06
 -14   0  15    1.59    1.22
  14   0 -14 3786.64  265.11
 -14   0  14 3242.42  227.37
 -14   0  13    1.48    1.30
 -14   0  12 1069.65   35.91
  14   0 -11   -0.28    0.96
 -14   0  11    6.55    2.86
  14   0 -10 1460.34   31.98
 -14   0  10 1429.66   32.38
 -14   0   9    3.07    2.03
  14   0  -8  131.42    5.19
 -14   0   8  164.46    7.20
  14   0  -7    6.52    1.47
 -14   0   7    0.69    1.15
  14   0  -6 1098.23   33.65
 -14   0   6 1214.92   37.57
  14   0  -5    0.39    0.67
 -14   0   5    1.64    1.49
  14   0  -4  666.35   20.91
 -14   0   4  848.01   26.87
  14   0  -3    0.71    0.79
 -14   0   3   14.98    2.43
  14   0  -2 2845.43   84.77
 -14   0   2 4062.65  121.15
  14   0  -1    1.88    1.21
 -14   0   1    2.05    1.64
 -14   0   0  689.41   17.35
 -14   0  -1   -0.20    0.93
 -14   0  -1    0.02    1.06
 -14   0  -2  597.45   14.97
 -14   0  -2  665.73   16.60
 -14   0  -2  481.26   11.79
 -14   0  -3    1.19    0.88
 -14   0  -3    0.33    1.03
 -14   0  -4   10.44    2.14
 -14   0  -5    1.61    1.05
 -16   0   8 1547.49  109.25
  16   0  -7    0.05    0.58
 -16   0   7    5.18    1.79
 -16   0   6  885.66   63.05
 -16   0   5    6.01    1.82
 -16   0   4  945.82   67.18
 -16   0   3    2.05    1.35
 -15  -1  -3    1.78    1.01
 -15  -1  -1    3.99    0.85
 -15  -1   0 1020.12   33.91
 -15  -1   1   14.82    1.93
 -15  -1   2  623.65   21.75
 -15  -1   2  591.91   20.57
 -15  -1   3    6.24    2.85
 -15  -1   3    2.13    0.96
 -15  -1   4   94.51    5.13
 -15  -1   4   74.00    4.02
  15   1  -5    7.72    1.36
 -15  -1   5    6.24    1.32
  15   1  -6  721.35   24.51
 -15  -1   6  657.01   22.60
  15   1  -7    5.89    1.71
 -15  -1   7    7.69    1.63
 -15  -1   8  953.49   32.07
  15   1  -9    0.67    0.70
 -15  -1  10 1542.42   51.10
  15   1 -11    5.48    1.06
 -15  -1  11    5.05    1.38
 -15  -1  13   16.19    2.51
 -13  -1  -6 2218.36   71.54
 -13  -1  -5    0.54    0.55
 -13  -1  -5    0.01    0.96
 -13  -1  -5    1.56    0.83
 -13  -1  -4    0.33    0.53
 -13  -1  -4    8.08    2.63
 -13  -1  -4    1.78    1.12
 -13  -1  -3    1.48    1.13
 -13  -1  -3    2.96    1.27
 -13  -1  -3    2.82    1.16
 -13  -1  -2   72.32    5.47
 -13  -1  -2  107.33    4.98
 -13  -1  -1    1.55    0.92
 -13  -1  -1    5.17    1.86
 -13  -1   0   87.27    6.20
 -13  -1   0   85.12    4.16
 -13  -1   1   43.40    6.16
 -13  -1   1   41.07    3.30
 -13  -1   2 1113.80   37.74
 -13  -1   2 1016.57   34.52
 -13  -1   3    5.89    2.09
  13   1  -4  417.29   15.14
  13   1  -5    2.38    0.85
 -13  -1   5    7.92    1.56
  13   1  -6 2469.04   81.70
 -13  -1   6 3178.91  105.15
  13   1  -7   10.72    2.34
 -13  -1   7   16.17    1.94
  13   1  -8  205.96    7.96
 -13  -1   8  210.94    8.58
  13   1  -9   18.02    4.38
 -13  -1   9   16.87    2.48
  13   1 -10  698.30   21.71
 -13  -1  10  797.80   25.47
  13   1 -11    3.11    0.83
 -13  -1  11    1.49    0.94
 -13  -1  12  234.38    7.75
  13   1 -13    1.13    0.72
 -13  -1  13    4.58    2.12
  13   1 -14 1792.99   57.59
 -13  -1  14 1790.81   58.18
 -13  -1  15    8.87    1.57
 -13  -1  16  474.79   34.02
 -13  -1  17    8.13    1.92
 -11  -1 -11   19.19    5.00
 -11  -1 -11   14.75    2.62
 -11  -1 -10 1726.59   55.92
 -11  -1 -10 1752.13   56.19
 -11  -1  -9    0.33    0.45
 -11  -1  -9    1.55    1.48
 -11  -1  -9    1.46    0.77
 -11  -1  -8    8.99    2.98
 -11  -1  -8    8.40    2.69
 -11  -1  -8    8.38    2.98
 -11  -1  -7    1.03    0.60
 -11  -1  -7    2.71    1.16
 -11  -1  -7    1.00    0.84
 -11  -1  -6   19.10    4.21
 -11  -1  -6    7.30    1.09
 -11  -1  -6   10.51    1.25
 -11  -1  -5    3.77    0.68
 -11  -1  -5    5.33    1.25
 -11  -1  -5   15.71    1.53
 -11  -1  -4   93.99    3.69
 -11  -1  -4   88.87    3.76
 -11  -1  -3    7.63    3.38
 -11  -1  -3    6.67    1.24
 -11  -1  -3    9.01    1.29
 -11  -1  -2 5760.03  358.73
 -11  -1  -2 5054.01  314.71
 -11  -1  -1   25.06    3.59
 -11  -1  -1    4.67    1.28
 -11  -1   0   54.43    6.07
 -11  -1   0   52.77    5.15
 -11  -1   1   19.10    3.55
 -11  -1   1   13.83    1.79
  11   1  -2 4168.21  259.65
 -11  -1   2 4859.03  302.55
  11   1  -3    8.02    1.73
 -11  -1   3    6.32    1.30
  11   1  -4   90.92    4.26
 -11  -1   4  110.39    3.75
  11   1  -5    0.19    0.49
 -11  -1   5    0.72    1.22
  11   1  -6  578.77   18.87
 -11  -1   6  529.14   17.40
  11   1  -7   40.74    5.67
 -11  -1   7   36.78    3.72
  11   1  -8   88.55    8.01
 -11  -1   8  101.06    9.24
  11   1  -9   16.00    3.22
 -11  -1   9   16.12    2.12
  11   1 -10 3423.94  105.97
 -11  -1  10 3907.04  243.48
  11   1 -11   15.22    3.35
 -11  -1  11   15.72    1.94
  11   1 -12  227.35    6.89
 -11  -1  12  234.02    7.81
  11   1 -13    0.35    0.36
 -11  -1  13    3.72    1.26
  11   1 -14 2260.67   67.10
 -11  -1  14 2286.69   68.55
  11   1 -15    1.09    0.31
 -11  -1  15    2.57    1.50
  11   1 -16   74.99    3.95
 -11  -1  16   56.08    7.18
  11   1 -17   15.57    3.13
 -11  -1  17   13.03    1.63
 -11  -1  18    6.22    1.08
 -11  -1  19   10.90    1.65
  -9  -1 -14  661.99   47.02
  -9  -1 -13   -0.34    0.54
  -9  -1 -13    1.43    0.96
  -9  -1 -13    0.34    0.26
  -9  -1 -12   60.26    8.16
  -9  -1 -12   64.57    4.44
  -9  -1 -12   55.50    8.93
  -9  -1 -11   -2.79    0.82
  -9  -1 -11    0.79    1.00
  -9  -1 -11    1.60    0.62
  -9  -1 -10 1560.49   46.98
  -9  -1 -10 1481.00   44.69
  -9  -1 -10 1591.28   47.42
  -9  -1  -9   28.85    5.60
  -9  -1  -9   35.26    3.13
  -9  -1  -9   29.15    5.50
  -9  -1  -8   41.53    4.71
  -9  -1  -8   42.30    3.47
  -9  -1  -8   38.23    4.51
  -9  -1  -7   10.31    1.71
  -9  -1  -7    8.86    1.46
  -9  -1  -7   10.57    1.87
  -9  -1  -6 3539.78  109.63
  -9  -1  -6 3415.13  105.91
  -9  -1  -6 4082.32  254.07
  -9  -1  -5   58.26    5.51
  -9  -1  -5   55.37    2.50
  -9  -1  -5   61.98    2.33
  -9  -1  -4  398.74    8.45
  -9  -1  -4  403.12    8.57
  -9  -1  -4  402.22    8.02
  -9  -1  -3   10.71    2.34
  -9  -1  -3    7.44    1.51
  -9  -1  -2  854.79   19.60
  -9  -1  -2  670.72   15.58
  -9  -1  -1   81.61    6.80
  -9  -1  -1   77.01    3.63
  -9  -1   0   36.11    6.20
  -9  -1   0   26.16    1.75
  -9  -1   1    2.10    0.64
   9   1  -2 1228.12   26.77
  -9  -1   2  980.40   21.47
   9   1  -3   21.26    3.86
  -9  -1   3   19.90    4.70
   9   1  -4   68.87    3.60
  -9  -1   4   68.14    4.03
   9   1  -5    2.11    0.77
  -9  -1   5    1.49    0.83
   9   1  -6 2951.53   61.67
  -9  -1   6 3062.62   63.90
   9   1  -7   17.78    4.03
  -9  -1   7   18.37    1.65
   9   1  -8  327.03    8.07
  -9  -1   8  406.79   10.39
   9   1  -9   89.75    2.69
   9   1 -10 2279.35   39.26
  -9  -1  10 2050.94   36.03
   9   1 -11    1.54    0.69
  -9  -1  11    2.19    1.71
   9   1 -12  214.07    7.48
  -9  -1  12  206.58    7.81
   9   1 -13    3.24    1.30
  -9  -1  13    0.97    0.88
   9   1 -14  881.11   22.76
  -9  -1  14  908.97   23.85
   9   1 -15   47.19    4.32
  -9  -1  15   31.83    2.66
   9   1 -16   91.62    5.75
  -9  -1  16   75.93    3.47
  -9  -1  17   17.81    3.16
   9   1 -18 4135.76  218.54
  -9  -1  18 3717.00  196.65
  -9  -1  19    3.74    0.89
  -9  -1  20  218.35   15.70
  -7  -1 -16   45.20    7.61
  -7  -1 -16   54.33   10.57
  -7  -1 -15    3.75    0.99
  -7  -1 -15    7.40    1.44
  -7  -1 -15   10.41    1.99
  -7  -1 -14 1109.51   24.73
  -7  -1 -14 1185.59   26.56
  -7  -1 -14 1063.21   23.15
  -7  -1 -13    0.41    1.75
  -7  -1 -13    3.77    1.07
  -7  -1 -13    5.70    1.08
  -7  -1 -12 1674.31   55.78
  -7  -1 -12 1646.75   54.90
  -7  -1 -12 1570.68   51.99
  -7  -1 -11   33.96    7.72
  -7  -1 -11   57.70    2.78
  -7  -1 -11   56.62    5.72
  -7  -1 -10 1651.53   51.73
  -7  -1 -10 1733.51   54.40
  -7  -1 -10 1510.94   47.01
  -7  -1  -9   -3.21    3.79
  -7  -1  -9    1.22    0.98
  -7  -1  -9    3.48    0.74
  -7  -1  -8  616.45   11.87
  -7  -1  -8  692.84   13.62
  -7  -1  -8  601.08   11.22
  -7  -1  -7   15.82    3.87
  -7  -1  -7   17.00    2.87
  -7  -1  -7   12.95    2.49
  -7  -1  -6  651.41   14.50
  -7  -1  -6  725.10   16.47
  -7  -1  -6  670.53   14.66
  -7  -1  -5   23.27    2.86
  -7  -1  -5   22.67    1.76
  -7  -1  -5   19.95    1.35
  -7  -1  -4  220.94    5.39
  -7  -1  -4  187.94    4.79
  -7  -1  -4  205.77    4.85
  -7  -1  -3   44.37    3.90
  -7  -1  -3   36.91    3.44
  -7  -1  -2 2555.04   48.03
  -7  -1  -2 2486.92   46.95
  -7  -1  -1   48.78    4.26
  -7  -1  -1   50.29    4.47
   7   1  -1  107.36    3.10
  -7  -1   1  107.77    3.09
   7   1  -2 5090.67   94.47
  -7  -1   2 6316.67  912.02
   7   1  -3   29.94    2.74
  -7  -1   3   32.42    4.05
   7   1  -4 1609.39   30.67
  -7  -1   4 1586.05   30.10
   7   1  -5   13.48    2.76
  -7  -1   5   15.33    3.61
   7   1  -6   20.85    2.86
  -7  -1   6   21.85    2.20
   7   1  -7   23.48    3.02
  -7  -1   7   34.41    3.31
   7   1  -8  510.12   10.59
  -7  -1   8  474.15   10.19
   7   1  -9    9.23    1.90
  -7  -1   9    9.05    1.44
   7   1 -10 3687.17   76.25
  -7  -1  10 3799.54   79.16
   7   1 -11   14.23    3.34
  -7  -1  11   12.26    2.15
   7   1 -12 1671.85   28.82
  -7  -1  12 1708.23   29.85
   7   1 -13   12.03    3.09
  -7  -1  13   12.84    2.22
   7   1 -14 3510.68  108.57
  -7  -1  14 2523.31   78.20
   7   1 -15   78.16    7.15
  -7  -1  15   64.94    6.04
   7   1 -16  147.61    4.73
  -7  -1  16  118.85    4.01
   7   1 -17    4.56    0.77
  -7  -1  17    4.49    0.88
   7   1 -18  147.95    5.40
  -7  -1  18   94.76    3.60
  -7  -1  18  148.44   10.63
  -7  -1  19    1.54    0.77
  -7  -1  19    2.00    1.07
  -7  -1  20    1.39    0.68
  -7  -1  20    2.73    1.59
  -7  -1  21   35.28    2.97
  -5  -1 -17   32.27    5.35
  -5  -1 -16 2037.86   43.88
  -5  -1 -16 2468.23   52.83
  -5  -1 -16 2138.76   45.56
   5   1  16 1943.13   41.19
  -5  -1 -15   88.05    4.23
  -5  -1 -15   93.48   15.42
  -5  -1 -14 1183.19   39.84
   5   1  14  988.22   33.54
  -5  -1 -14 1124.94   37.61
   5   1  14 1062.47   35.48
  -5  -1 -13   17.06    2.05
  -5  -1 -13   17.52    2.43
   5   1  13   13.02    2.67
   5   1  12  550.72   18.14
  -5  -1 -12  576.36   18.44
   5   1  12  568.96   18.26
  -5  -1 -11    7.40    1.59
   5   1  11    3.81    2.53
  -5  -1 -11    6.05    2.21
  -5  -1 -10  722.42   13.83
   5   1  10  683.92   13.21
  -5  -1 -10  723.68   13.14
  -5  -1  -9   52.23    2.69
   5   1   9   40.60    4.43
  -5  -1  -9   58.21    3.20
  -5  -1  -8 1763.43   37.40
   5   1   8 1706.66   36.41
  -5  -1  -8 1662.41   34.79
  -5  -1  -7   22.70    2.39
   5   1   7   22.11    7.00
  -5  -1  -7   24.76    2.67
  -5  -1  -6 4257.56   79.35
   5   1   6 3808.42   71.06
  -5  -1  -6 3488.21   64.44
  -5  -1  -5   17.31    1.86
  -5  -1  -5   17.31    1.98
  -5  -1  -5   16.45    2.52
  -5  -1  -4 4707.27   71.15
  -5  -1  -4 4204.54   63.87
  -5  -1  -4 4330.73   65.04
  -5  -1  -3  129.49    3.13
  -5  -1  -3  127.69    2.72
  -5  -1  -2 1488.04   23.05
  -5  -1  -2 1468.42   23.02
  -5  -1  -1  328.66    5.97
  -5  -1  -1  307.79    5.89
  -5  -1   0 1144.31   18.01
  -5  -1   0 1027.98   16.39
  -5  -1   1  102.46    2.43
  -5  -1   1   92.01    2.33
   5   1  -2  449.35    7.74
  -5  -1   2  404.73    6.99
   5   1  -3   52.82    5.18
  -5  -1   3   47.05    4.77
   5   1  -4  636.18   10.39
  -5  -1   4  603.71    9.78
   5   1  -5   68.46    5.69
  -5  -1   5   60.09    5.95
   5   1  -6 2949.60   44.75
  -5  -1   6 3202.81   48.73
   5   1  -7   10.87    2.30
  -5  -1   7   13.52    1.75
   5   1  -8 1919.72   35.85
  -5  -1   8 1996.61   37.60
   5   1  -9   10.03    1.81
  -5  -1   9    5.96    0.99
   5   1 -10 2106.06   39.42
  -5  -1  10 2188.74   40.99
   5   1 -11   40.48    3.55
  -5  -1  11   38.80    3.44
   5   1 -12 1286.50   27.32
  -5  -1  12 1609.62   34.00
   5   1 -13    6.47    1.35
  -5  -1  13    4.39    1.07
   5   1 -14   55.92    2.18
  -5  -1  14   62.40    2.34
  -5  -1  14   37.39    5.44
   5   1 -15   10.56    1.50
  -5  -1  15    4.24    0.70
  -5  -1  15   15.59    3.09
  -5  -1  16  194.36    6.67
  -5  -1  16  214.99    8.03
   5   1 -17   -1.83    0.74
  -5  -1  17    3.86    0.65
  -5  -1  17    0.78    1.60
   5   1 -18 1905.07   56.65
  -5  -1  18 1368.96   40.74
  -5  -1  18 1554.71   47.00
  -5  -1  19   65.78    2.81
  -5  -1  20 1306.95   27.99
  -5  -1  20 1497.40   33.17
  -5  -1  21   33.53    5.25
  -5  -1  22  464.38   32.87
  -3  -1 -18   37.48    5.01
   3   1  18   18.04    2.76
   3   1  18   17.20    2.46
  -3  -1 -17    2.97    1.46
   3   1  17    5.52    1.58
   3   1  17    0.86    0.55
  -3  -1 -16    9.85    1.40
   3   1  16   16.43    2.13
   3   1  16    9.41    1.11
  -3  -1 -15    8.32    1.54
   3   1  15    7.04    1.27
   3   1  14  364.89   12.54
   3   1  14  397.18   13.08
  -3  -1 -13    4.69    1.36
  -3  -1 -13    1.05    0.54
   3   1  13  -11.07    4.65
  -3  -1 -12 3861.18   65.59
   3   1  12 3518.89   59.30
  -3  -1 -11   93.91    4.27
  -3  -1 -11   83.42    3.52
   3   1  11   60.66    3.57
  -3  -1 -10  323.16    8.09
  -3  -1 -10  312.34    7.57
   3   1  10  283.80    6.67
  -3  -1  -9    9.25    1.37
   3   1   9   10.18    4.16
  -3  -1  -9    7.06    1.82
   3   1   9    4.78    0.88
  -3  -1  -8 3447.14   64.27
  -3  -1  -8 3355.91   62.12
   3   1   8 3586.96   66.43
  -3  -1  -7   29.55    2.82
  -3  -1  -7   32.27    3.29
   3   1   7   29.51    2.66
  -3  -1  -6  228.48    4.50
   3   1   6  236.55    4.91
  -3  -1  -6  225.07    3.95
   3   1   6  231.88    4.15
  -3  -1  -5  168.96    3.68
   3   1   5  176.83    3.93
  -3  -1  -5  182.05    3.54
  -3  -1  -4  135.98    3.05
   3   1   4  121.87    2.87
  -3  -1  -4  102.80    2.64
  -3  -1  -3  459.07    7.86
   3   1   3  485.60    8.27
  -3  -1  -3  460.37    7.37
  -3  -1  -2   36.15    3.68
   3   1   2   43.42    4.43
  -3  -1  -1   11.90    1.64
   3   1   1    8.75    1.32
  -3  -1   0 3185.20   47.85
  -3  -1   1    8.43    1.56
  -3  -1   1   11.95    1.79
   3   1  -3   14.60    1.52
  -3  -1   3   13.02    1.61
   3   1  -4 3135.44   46.79
  -3  -1   4 5313.92  424.30
   3   1  -5   27.84    2.78
  -3  -1   5   33.58    3.45
   3   1  -6  581.25    9.32
  -3  -1   6  518.78    8.33
   3   1  -7  176.26    3.25
   3   1  -8   63.90    5.30
  -3  -1   8   80.14    1.82
   3   1  -9   96.34    2.48
  -3  -1   9   87.95    2.16
  -3  -1  10  645.86   13.23
   3   1 -11   74.81    6.31
  -3  -1  11   73.33    6.05
  -3  -1  11   77.39    5.05
   3   1 -12 4779.81   98.44
  -3  -1  12 4469.50   92.04
  -3  -1  12 4730.57   98.33
   3   1 -13   76.63   14.26
  -3  -1  13   77.09    7.11
  -3  -1  14 1066.97   19.40
   3   1 -15    4.67    1.88
  -3  -1  15    0.77    1.93
   3   1 -16 2438.28   75.62
  -3  -1  16 1841.75   57.64
   3   1 -17   21.60    2.64
   3   1 -18  486.50   16.83
   3   1 -19   13.12    1.72
  -3  -1  19   11.32    1.53
  -3  -1  19   12.58    1.72
   3   1 -20    5.59    1.78
  -3  -1  20    6.70    2.09
  -3  -1  20    3.24    1.10
  -3  -1  21    1.99    1.73
  -1  -1 -20  286.82   10.39
   1   1  20  248.04    8.89
  -1  -1 -19   24.32    3.46
   1   1  19   11.19    3.87
  -1  -1 -18    9.63    1.73
   1   1  18    9.43    1.48
   1   1  18    7.15    1.01
   1   1  17   13.30    1.65
  -1  -1 -16 5102.44  276.95
   1   1  15  232.58    8.34
  -1  -1 -14  182.38    4.74
   1   1  14  174.40    4.15
  -1  -1 -12 3354.56   70.15
  -1  -1 -11   22.24    2.47
  -1  -1 -10   16.68    1.97
   1   1  10   20.81    2.14
   1   1  10   18.97    2.81
   1   1   9    9.33    1.51
  -1  -1  -8 2658.54   40.93
   1   1   8 2179.24   33.66
   1   1   8 2382.00   36.16
   1   1   7  235.57    4.87
   1   1   7  211.80    4.04
  -1  -1  -6  103.26    2.91
   1   1   6   90.69    2.11
  -1  -1  -5   28.39    3.31
   1   1   5   19.32    2.34
  -1  -1  -5   25.18    2.58
   1   1   5   23.86    2.81
   1   1   4 6315.44  504.30
   1   1   3  103.09    2.70
  -1  -1  -3  103.01    1.85
   1   1   3  105.54    1.92
  -1  -1  -2   99.05    4.23
   1   1   2   91.09    2.46
  -1  -1  -2   81.42    1.40
  -1  -1  -1   24.12    2.61
   1   1   1   45.62    4.78
  -1  -1   0 1877.88   28.33
  -1  -1   1    9.68    1.07
   1   1  -1   12.98    1.49
  -1  -1   2   96.80    1.67
  -1  -1   3   84.49    2.16
  -1  -1   4 1859.98   28.26
  -1  -1   5  201.57    3.32
   1   1  -6  663.24   10.40
  -1  -1   6  644.85    9.98
  -1  -1   6  644.54   10.49
  -1  -1   7  112.55    3.42
  -1  -1   8 4733.35   70.69
  -1  -1   8 5141.94   77.31
  -1  -1   9   19.37    3.74
  -1  -1  10  256.66    6.00
  -1  -1  10  267.61    5.93
  -1  -1  12 2676.95   55.90
  -1  -1  13   70.74    3.16
  -1  -1  14  260.41    6.07
  -1  -1  15    4.68    2.41
  -1  -1  16  120.09   10.67
  -1  -1  16  109.86   10.92
  -1  -1  18  386.02   12.45
  -1  -1  19  157.29    5.04
  -1  -1  20 2690.10  188.55
  -1   1  21    2.20    3.09
   1  -1 -20 3456.59  242.12
  -1   1  20 2467.24   79.13
  -1   1  20 2752.65  192.83
   1  -1 -18  542.19   17.51
  -1   1  18  366.30   12.11
  -1   1  17    7.31    1.20
   1  -1 -16  157.13   13.94
  -1   1  16  124.66   11.22
  -1   1  16  126.28   11.18
  -1   1  15    4.91    0.97
  -1   1  15    5.65    1.77
   1  -1 -14  308.16    6.88
  -1   1  14  258.83    6.02
  -1   1  14  283.22    6.09
  -1   1  13   61.20    2.93
  -1   1  13   67.02    2.87
   1  -1 -12 2781.47   58.04
  -1   1  12 2658.38   55.70
  -1   1  12 2784.88   58.14
  -1   1  11    0.12    0.91
  -1   1  11    1.96    1.06
  -1   1  10  312.13    7.15
  -1   1  10  310.94    6.64
  -1   1   9   15.70    1.71
  -1   1   9   23.53    2.61
   1  -1  -8 5616.20  448.58
  -1   1   8 5941.47  474.58
  -1   1   8 8215.61  656.09
   1  -1  -7  151.14    3.62
  -1   1   7  147.50    3.62
   1  -1  -6  653.68   10.82
  -1   1   6  697.48   11.70
   1  -1  -5  198.16    4.00
  -1   1   5  166.73    3.55
   1  -1  -4 2253.26   34.44
  -1   1   4 2308.18   35.32
   1  -1  -3   57.80    5.74
  -1   1   3   50.04    5.01
   1  -1  -2  106.62    2.77
  -1   1   2  112.29    2.86
   1  -1  -1   13.80    2.24
  -1   1   1   11.73    1.64
   1  -1   0 1171.55   18.26
  -1   1   0 1350.75   20.89
  -1   1   0 1168.24   17.62
   1  -1   1   24.80    2.71
  -1   1  -1   18.32    2.17
  -1   1  -1   25.55    2.76
   1  -1   1   25.68    2.71
   1  -1   2  106.84    2.21
  -1   1  -2  100.43    2.23
   1  -1   2   97.24    2.25
   1  -1   3   92.96    1.88
  -1   1  -3   73.41    1.62
  -1   1  -3   95.33    2.22
   1  -1   3   82.20    1.87
  -1   1  -4 5253.13   78.37
   1  -1   4 5355.96  427.65
  -1   1  -5   21.04    2.33
  -1   1  -5   25.58    2.70
  -1   1  -5   21.51    3.08
   1  -1   5   19.77    2.11
  -1   1  -6   93.16    2.26
  -1   1  -6   88.63    2.02
  -1   1  -6   89.96    2.18
   1  -1   6   96.08    2.41
  -1   1  -7  205.74    4.09
  -1   1  -7  215.94    3.91
  -1   1  -7  212.72    4.27
   1  -1   7  167.42   35.71
  -1   1  -8 2467.74   37.61
   1  -1   8 2464.75   37.73
  -1   1  -9    9.95    1.18
  -1   1  -9    7.65    0.88
  -1   1  -9   12.92    2.53
  -1   1 -10   23.16    2.20
  -1   1 -10   14.30    1.50
  -1   1 -10   18.52    3.06
   1  -1  10    8.79    1.29
  -1   1 -11    1.35    4.41
  -1   1 -11    8.68    1.36
  -1   1 -12 2793.26   57.96
   1  -1  12 2991.71   62.59
  -1   1 -13    1.07    0.78
  -1   1 -14  182.90    4.42
  -1   1 -14  219.61    5.13
   1  -1  14  169.42    4.28
  -1   1 -15    5.15    1.15
  -1   1 -16 3709.07  201.31
  -1   1 -16 5049.22  273.82
   1  -1  16 3179.80   78.85
  -1   1 -18    4.47    1.56
  -1   1 -18    7.11    1.29
   1  -1  18   10.47    2.20
  -1   1 -19   37.80    5.08
   1  -1  19    8.50    4.04
   1  -1  20  217.06    7.96
  -3   1  21    1.77    0.83
  -3   1  21    1.24    0.41
   3  -1 -20   10.16    1.65
  -3   1  20   13.64    2.28
  -3   1  20    3.38    3.00
   3  -1 -19   14.87    2.18
  -3   1  19   11.23    1.64
  -3   1  19   14.69    2.50
   3  -1 -18  495.92   17.67
  -3   1  18  364.72   13.26
   3  -1 -17   22.20    3.61
  -3   1  17   21.70    2.09
  -3   1  16 1866.14   58.48
  -3   1  16 1926.77   60.15
  -3   1  15    4.73    1.24
  -3   1  15   19.15    4.42
  -3   1  14 1241.81   22.71
  -3   1  14 1169.04   21.00
  -3   1  13   95.71    4.59
  -3   1  13   96.91    4.97
   3  -1 -12 6443.20  870.36
  -3   1  12 6423.98  133.29
   3  -1 -11   64.43    6.43
  -3   1  11   62.42    5.57
   3  -1 -10  878.64   17.89
  -3   1  10  685.08   14.21
   3  -1  -9  107.16    3.41
  -3   1   9   96.97    3.21
   3  -1  -8   68.32    5.89
  -3   1   8   59.03    6.03
   3  -1  -6  595.51   10.62
  -3   1   6  510.14    9.33
   3  -1  -5   36.28    3.82
  -3   1   5   33.49    3.77
   3  -1  -4 5746.70  459.04
  -3   1   4 5170.05   78.02
   3  -1  -3   19.13    2.30
  -3   1   3   22.77    2.87
   3  -1  -2 2365.96   36.57
  -3   1   2 2199.63   34.39
   3  -1  -1    9.74    1.59
  -3   1   1   11.54    1.69
   3  -1   0 2975.01   45.14
  -3   1   0 3236.11   49.17
   3  -1   1    8.48    1.71
  -3   1  -1    8.57    2.41
  -3   1  -1    8.27    1.23
   3  -1   2   78.72    2.01
  -3   1  -2   40.26    4.66
   3  -1   3  431.23    7.56
  -3   1  -3  375.92    6.60
  -3   1  -3  462.09    7.72
   3  -1   4  110.36    2.35
  -3   1  -4  126.89    3.16
  -3   1  -4   94.56    2.07
   3  -1   4  107.59    2.41
  -3   1  -5  211.45    4.60
  -3   1  -5  168.58    3.44
   3  -1   5  173.80    3.53
  -3   1  -6  229.45    4.64
  -3   1  -6  267.84    5.08
  -3   1  -6  277.80    5.21
   3  -1   6  270.25    5.12
  -3   1  -7   30.20    3.46
  -3   1  -7   33.28    3.02
  -3   1  -7   30.13    3.46
   3  -1   7   30.53    2.86
  -3   1  -8 3314.28   61.75
  -3   1  -8 3711.68   68.89
  -3   1  -8 3686.12   68.45
   3  -1   8 3814.95   70.89
  -3   1  -9    6.97    1.61
  -3   1  -9    6.48    0.96
  -3   1  -9    6.58    1.59
   3  -1   9    4.95    1.37
  -3   1 -10  299.14    7.41
  -3   1 -10  349.44    8.24
  -3   1 -10  313.37    7.80
   3  -1  10  302.33    7.65
  -3   1 -11   76.44   15.92
  -3   1 -11   83.49    3.53
  -3   1 -11   69.53    3.06
   3  -1  11   79.24    6.81
  -3   1 -12 3011.21   51.35
  -3   1 -12 3262.97   55.01
  -3   1 -12 3619.27   61.22
   3  -1  12 3472.25   58.92
  -3   1 -13   -0.85    1.53
  -3   1 -13   -0.30    0.69
  -3   1 -13    0.34    0.39
   3  -1  13    6.51    1.74
  -3   1 -14  330.17   11.06
  -3   1 -14  369.88   12.24
  -3   1 -14  439.19   14.71
   3  -1  14  395.01   13.21
  -3   1 -15    5.59    0.97
  -3   1 -15   10.39    4.07
   3  -1  15    6.66    1.05
  -3   1 -16    5.35    2.46
  -3   1 -16   11.68    1.45
   3  -1  16   18.46    1.73
  -3   1 -17    0.30    0.72
  -3   1 -17    6.38    1.27
   3  -1  17    1.98    0.77
  -3   1 -18   20.84    5.04
  -3   1 -18   25.77    3.60
   3  -1  18   30.61    4.14
  -5   1  22  607.33   43.31
   5  -1 -21   12.26    1.84
  -5   1  21    4.56    1.09
  -5   1  21    1.29    0.78
  -5   1  20 1516.41   33.39
  -5   1  20 1497.21   32.87
   5  -1 -19   15.22    2.87
  -5   1  19   16.68    2.64
  -5   1  19   30.69    7.02
   5  -1 -18 2405.82   72.10
  -5   1  18 2069.63   62.48
  -5   1  18 1732.50   52.15
   5  -1 -17    3.37    1.30
  -5   1  17    1.73    0.95
  -5   1  17    1.44    0.80
   5  -1 -16  333.08   11.93
  -5   1  16  264.17    9.86
  -5   1  15    6.76    1.39
   5  -1 -14   58.43    2.78
  -5   1  14   49.93    5.40
   5  -1 -13    5.31    1.87
  -5   1  13    3.14    1.69
   5  -1 -12 1633.21   35.33
  -5   1  12 1736.78   37.80
   5  -1 -11   53.44    4.92
  -5   1  11   43.93    2.82
   5  -1  -9    6.81    1.28
  -5   1   9    6.00    1.39
   5  -1  -8 2768.46   52.80
  -5   1   8 2377.91   45.63
   5  -1  -7   12.24    1.85
  -5   1   7   16.21    2.42
   5  -1  -6 3505.78   54.02
  -5   1   6 3470.52   54.22
   5  -1  -5   63.80    5.62
  -5   1   5   58.83    6.19
   5  -1  -4  671.99   11.58
  -5   1   4  666.93   12.32
   5  -1  -3   98.22    3.88
  -5   1   3   59.17    6.22
   5  -1  -2  341.84    6.61
  -5   1   2  341.70    6.89
   5  -1  -1   94.35    2.69
  -5   1   1   87.96    2.72
   5  -1   1  253.61    4.93
  -5   1  -1  240.30    4.95
   5  -1   2 1233.43   19.46
  -5   1  -2 1333.15   21.24
  -5   1  -2 1456.72   22.65
   5  -1   3  134.89    3.17
  -5   1  -3  133.93    3.08
  -5   1  -4 4030.46   61.51
  -5   1  -4 4038.41   61.00
   5  -1   5   25.41    2.50
  -5   1  -5   22.42    3.73
  -5   1  -5   19.38    3.53
  -5   1  -6 3827.26   71.38
  -5   1  -6 4173.22   77.56
  -5   1  -6 3535.48   65.56
  -5   1  -7   37.05    5.44
  -5   1  -7   29.25    2.94
  -5   1  -7   24.55    2.49
  -5   1  -8 1794.65   38.15
  -5   1  -8 1898.71   40.09
  -5   1  -8 1920.17   40.40
   5  -1   8 1721.06   36.27
  -5   1  -9   52.82    3.87
  -5   1  -9   55.66    2.72
  -5   1  -9   49.15    2.37
   5  -1   9   50.34    2.55
  -5   1 -10  661.71   12.66
  -5   1 -10  772.66   14.46
  -5   1 -10  740.04   13.73
   5  -1  10  644.41   12.08
  -5   1 -11    3.82    0.85
  -5   1 -11    6.13    1.33
  -5   1 -11    4.51    1.02
   5  -1  11    3.39    2.09
  -5   1 -12  527.89   17.24
  -5   1 -12  675.44   21.84
  -5   1 -12  546.37   17.65
   5  -1  12  557.83   18.06
  -5   1 -13   10.54    1.29
  -5   1 -13   15.89    1.71
  -5   1 -13   16.29    2.62
   5  -1  13   11.45    3.83
  -5   1 -14  948.41   32.40
  -5   1 -14 1075.18   35.99
  -5   1 -14 1203.16   40.30
   5  -1  14 1117.57   37.53
  -5   1 -15   31.07    3.51
  -5   1 -15   83.73   12.32
  -5   1 -16 2092.77   44.36
  -5   1 -16 2127.66   45.29
   5  -1  16 2020.48   43.14
  -5   1 -17    1.21    0.85
  -5   1 -17    3.64    1.30
   7  -1 -21    5.80    1.66
  -7   1  21    3.00    1.45
  -7   1  21    0.98    0.84
   7  -1 -20    1.51    1.15
  -7   1  20    1.61    1.01
  -7   1  20   14.02    3.37
   7  -1 -19    4.86    2.26
  -7   1  19    1.92    0.89
   7  -1 -18  178.02    7.24
  -7   1  18  165.21    6.91
   7  -1 -17    5.07    1.86
  -7   1  17    8.16    1.61
   7  -1 -16  178.45    6.60
  -7   1  16  134.46    5.21
   7  -1 -15   80.54    8.01
  -7   1  15   72.76    7.14
   7  -1 -14 2959.26   92.26
  -7   1  14 2843.18   88.72
   7  -1 -13    8.10    2.05
  -7   1  13    9.03    1.86
   7  -1 -12 2198.16   39.37
  -7   1  12 1817.45   33.00
   7  -1 -11   11.69    2.28
  -7   1  11   10.24    2.16
   7  -1 -10 3788.74   79.20
  -7   1  10 3954.10   83.22
   7  -1  -9   13.16    1.72
  -7   1   9   13.20    2.27
   7  -1  -8  494.50   10.85
  -7   1   8  529.61   12.59
   7  -1  -7   35.43    3.51
  -7   1   7   34.01    3.93
   7  -1  -6   38.80    6.53
  -7   1   6   19.22    2.84
   7  -1  -5   16.26    2.85
  -7   1   5   14.18    2.51
   7  -1  -4 1951.42   37.52
  -7   1   4 1976.56   38.55
   7  -1  -3   33.10    3.52
  -7   1   3   33.98    3.54
   7  -1  -2 5005.23   93.48
  -7   1   2 5517.89  796.80
   7  -1  -1  100.68    3.42
  -7   1   1   98.93    3.55
   7  -1   0 1765.98   34.03
  -7   1   0 1763.01   34.22
   7  -1   1   52.30    6.03
  -7   1  -1   44.03    4.80
   7  -1   2 2476.84   46.75
  -7   1  -2 2619.94   49.81
   7  -1   3   44.50    4.02
  -7   1  -3   45.74    5.93
  -7   1  -3   41.82    3.75
   7  -1   4  198.35    5.09
  -7   1  -4  180.68    4.81
  -7   1  -4  226.31    5.53
   7  -1   5   24.34    1.74
  -7   1  -5   24.32    2.72
  -7   1  -5   20.57    1.47
  -7   1  -6  814.50   18.79
  -7   1  -6  697.43   15.79
  -7   1  -6  696.32   15.49
  -7   1  -7   19.56    3.29
  -7   1  -7   17.12    2.85
  -7   1  -7   14.78    3.09
  -7   1  -8  641.38   12.71
  -7   1  -8  560.74   10.68
  -7   1  -9    0.53    0.45
  -7   1  -9    3.08    1.43
  -7   1  -9    1.37    0.52
  -7   1 -10 1642.82   51.87
  -7   1 -10 1604.78   50.10
  -7   1 -11   59.20   10.26
  -7   1 -11   72.30    3.33
  -7   1 -11   56.12    6.59
  -7   1 -12 1785.40   59.32
  -7   1 -12 1725.69   57.22
  -7   1 -13    2.12    1.17
  -7   1 -13    6.91    1.48
  -7   1 -13    3.36    0.76
  -7   1 -14 1280.21   28.95
  -7   1 -14 1111.26   24.55
  -7   1 -14 1076.26   23.69
  -7   1 -15    7.46    1.12
  -7   1 -16   59.41    9.88
  -9   1  20  367.17   26.71
   9  -1 -19   -0.16    2.54
  -9   1  19    2.16    1.24
   9  -1 -18 3644.70   76.77
  -9   1  18 3731.87  197.79
   9  -1 -17   20.67    2.89
  -9   1  17   25.80    3.41
   9  -1 -16   91.43    4.41
  -9   1  16   75.36    3.98
   9  -1 -15   34.39    3.04
  -9   1  15   27.09    2.68
   9  -1 -14  833.33   22.18
  -9   1  14  897.13   24.37
   9  -1 -13    0.20    0.83
  -9   1  13    0.93    1.15
   9  -1 -12  195.08    7.25
  -9   1  12  213.44    8.65
   9  -1 -11    1.31    1.02
  -9   1  11    1.78    1.43
   9  -1  -9  136.87    4.50
  -9   1   9  117.60    4.80
   9  -1  -8  351.61    8.86
  -9   1   8  384.38   10.67
   9  -1  -7   23.95    4.30
  -9   1   7   23.50    2.42
   9  -1  -6 3943.61   82.64
  -9   1   6 5142.92  108.56
   9  -1  -5    1.06    0.93
  -9   1   5    3.12    2.31
   9  -1  -4   71.90    3.46
  -9   1   4   65.94    3.48
   9  -1  -3   20.44    3.08
  -9   1   3   15.29    2.82
   9  -1  -2  888.67   19.84
  -9   1   2  844.23   19.08
   9  -1  -1    0.35    1.20
  -9   1   1    5.17    1.88
   9  -1   0   43.64    6.93
  -9   1   0   48.28    7.70
   9  -1   1   83.34    3.78
  -9   1  -1   71.39    6.25
   9  -1   2  658.32   15.57
  -9   1  -2  606.16   14.76
  -9   1  -2  642.17   14.74
   9  -1   3   11.01    2.27
  -9   1  -3    9.81    1.93
  -9   1  -3    7.56    1.56
   9  -1   4  543.43   11.15
  -9   1  -4  439.88    9.51
  -9   1  -4  472.41    9.72
   9  -1   5   68.81    2.72
  -9   1  -5   66.14    4.83
  -9   1  -5   62.95    2.51
  -9   1  -6 3537.65  109.77
  -9   1  -6 3818.16  118.30
  -9   1  -6 3982.98  248.00
  -9   1  -7    8.68    1.54
  -9   1  -7   10.81    1.74
  -9   1  -7    9.39    1.65
  -9   1  -8   42.52    3.52
  -9   1  -8   49.79    3.71
  -9   1  -8   36.86    5.42
  -9   1  -9   37.88    3.94
  -9   1  -9   36.07    3.08
  -9   1  -9   37.56    4.20
  -9   1 -10 1754.69   53.10
  -9   1 -10 1513.33   45.53
  -9   1 -10 1625.63   48.67
  -9   1 -11    1.79    0.83
  -9   1 -11    2.41    1.26
  -9   1 -11    1.31    0.67
  -9   1 -12   58.37    7.70
  -9   1 -12   61.41    7.88
  -9   1 -12   54.16    7.34
  -9   1 -13    0.29    0.53
  -9   1 -13    1.72    0.88
  -9   1 -13    1.17    0.66
  -9   1 -14  590.33   42.08
 -11   1  19   12.85    2.15
 -11   1  18    4.92    1.66
  11  -1 -17   13.93    2.10
 -11   1  17    9.86    1.39
  11  -1 -16   85.98   12.02
 -11   1  16   55.57    7.33
  11  -1 -15    2.08    0.85
 -11   1  15    4.70    1.71
  11  -1 -14 2561.15   76.57
 -11   1  14 1947.09   58.95
  11  -1 -13    0.41    0.50
 -11   1  13    3.57    1.48
  11  -1 -12  216.93    7.75
 -11   1   9   15.36    2.44
 -11   1   8  114.84   10.81
  11  -1  -7   55.38    9.23
 -11   1   7   50.08    5.41
  11  -1  -6  752.86   24.64
 -11   1   6  718.11   24.15
  11  -1  -5    2.64    1.13
 -11   1   5    2.29    1.68
  11  -1  -4   89.12    3.16
 -11   1   4   99.87    3.93
  11  -1  -3    8.16    1.83
 -11   1   3   10.63    2.21
  11  -1  -2 3812.48  118.29
 -11   1   2 3843.72  239.59
  11  -1  -1   17.62    3.45
 -11   1   1   17.29    2.34
  11  -1   0   65.05    9.67
 -11   1   0  121.06   13.44
  11  -1   1    6.68    1.76
 -11   1  -1    7.85    1.79
  11  -1   2 4619.87  287.66
 -11   1  -2 4690.33  292.18
 -11   1  -2 5045.54  314.11
  11  -1   3   10.59    2.76
 -11   1  -3    8.46    1.37
 -11   1  -3    6.83    1.44
  11  -1   4  124.40    4.85
 -11   1  -4  108.98    8.70
 -11   1  -4  106.81    4.29
 -11   1  -5    4.70    1.09
 -11   1  -5    7.72    1.57
 -11   1  -5    5.54    1.12
 -11   1  -6   12.54    1.89
 -11   1  -6   16.54    1.96
 -11   1  -6   14.59    1.59
 -11   1  -7    1.10    0.53
 -11   1  -7    1.67    1.29
 -11   1  -7    4.76    1.07
 -11   1  -8   13.53    4.29
 -11   1  -8   12.38    2.30
 -11   1  -8    9.58    1.61
 -11   1  -9    1.69    0.89
 -11   1  -9    1.41    1.16
 -11   1  -9    1.82    0.89
 -11   1 -10 1488.59   48.45
 -11   1 -10 1719.62   55.63
 -11   1 -11   16.41    3.39
  13  -1 -15    7.99    1.23
 -13   1  15    6.35    1.60
  13  -1 -14 1795.71   57.93
 -13   1  14 1746.21   57.25
 -13   1  13   -0.32    1.18
  13  -1 -12  196.31    5.99
 -13   1  12  212.11    7.72
  13  -1 -11    1.44    0.53
 -13   1  11    4.69    2.03
  13  -1 -10  837.08   26.74
 -13   1  10  703.63   22.92
  13  -1  -9   19.92    4.12
 -13   1   9   19.00    2.85
  13  -1  -8  235.62    9.78
 -13   1   8  285.97   11.63
  13  -1  -7   15.31    2.35
 -13   1   7   24.06    3.19
  13  -1  -6 6278.55  608.94
 -13   1   6 3831.19  127.34
  13  -1  -5    1.91    1.06
 -13   1   5    4.18    1.39
  13  -1  -4  316.16   11.66
 -13   1   4  346.13   13.20
  13  -1  -3    0.50    0.49
 -13   1   3    1.48    1.09
  13  -1  -2 1040.71   35.94
 -13   1   2 1215.82   41.73
  13  -1  -1   48.96    7.36
 -13   1   1   44.65    3.78
  13  -1   0   85.53    9.40
 -13   1   0  105.45    5.32
  13  -1   1    4.12    0.87
 -13   1  -1    8.88    2.30
 -13   1  -1    4.12    1.34
  13  -1   2   92.59   13.00
 -13   1  -2  116.08    7.96
 -13   1  -2   78.26    3.61
  13  -1   3    3.95    1.94
 -13   1  -3    3.99    1.96
 -13   1  -3    2.02    1.08
 -13   1  -4    0.36    0.73
 -13   1  -4    5.46    2.04
 -13   1  -4    1.75    1.09
 -13   1  -5    0.92    0.96
 -13   1  -5    1.70    1.28
 -13   1  -5    1.39    1.02
 -13   1  -7    7.63    1.70
 -15   1  13   10.29    2.23
 -15   1  12  933.98   66.51
 -15   1  11   14.82    2.70
 -15   1  10 1328.57   44.56
 -15   1   9    5.58    2.33
  15  -1  -8  987.30   32.80
 -15   1   8 1148.99   39.38
  15  -1  -7    7.38    1.56
 -15   1   7    7.12    1.86
  15  -1  -6  707.14   24.00
 -15   1   6  697.65   24.66
  15  -1  -5    8.95    1.55
 -15   1   5    9.96    2.16
  15  -1  -4   72.99   11.60
 -15   1   4   78.75    4.55
  15  -1  -3    5.46    1.20
 -15   1   3    3.72    1.33
 -15   1   2  549.87   19.70
 -15   1   1    6.65    1.62
 -15   1   0  979.86   33.01
 -14  -2  -4   24.20    4.59
 -14  -2  -3   15.49    3.63
 -14  -2  -3   17.62    1.80
 -14  -2  -2  541.63   18.61
 -14  -2  -1   16.61    4.07
 -14  -2  -1   20.27    3.53
 -14  -2   0  705.19   23.63
 -14  -2   0  682.78   23.12
 -14  -2   1   90.65    4.44
 -14  -2   2 2649.03   56.58
 -14  -2   3   10.72    3.76
 -14  -2   3   20.52    3.11
 -14  -2   4  822.09   19.22
 -14  -2   4  880.47   20.61
 -14  -2   5   21.00    4.62
 -14  -2   5   18.27    3.12
 -14  -2   6  677.60   16.54
 -14  -2   6  613.53   15.07
 -14  -2   7    4.79    1.76
 -14  -2   7    8.99    2.90
 -14  -2   8  123.70    5.64
 -14  -2   8  113.67    5.12
 -14  -2   9   18.20    3.18
 -14  -2   9   15.08    1.66
 -14  -2  10 1671.39   54.43
 -14  -2  10 1383.54   44.98
 -14  -2  11    4.33    1.26
 -14  -2  12 1209.73   85.47
 -14  -2  13   14.55    2.10
 -12  -2  -7    2.30    0.94
 -12  -2  -7    0.89    0.33
 -12  -2  -6 2707.19  189.74
 -12  -2  -6 2547.90   81.79
 -12  -2  -6 2701.09  189.06
 -12  -2  -5   -0.04    1.15
 -12  -2  -5    1.25    1.03
 -12  -2  -5    1.44    0.69
 -12  -2  -4  154.62    5.14
 -12  -2  -4  181.04    5.12
 -12  -2  -3   16.62    3.33
 -12  -2  -3   23.03    3.01
 -12  -2  -3   18.68    2.22
 -12  -2  -2 2316.24   69.12
 -12  -2  -2 2133.73   63.80
 -12  -2  -1   12.13    1.89
 -12  -2  -1   12.68    1.92
 -12  -2   0   88.66    4.21
 -12  -2   1   10.45    1.84
 -12  -2   1    9.52    1.44
 -12  -2   2   28.14    5.75
 -12  -2   2   26.18    2.47
 -12  -2   3   65.35    4.59
 -12  -2   3   70.19    3.50
 -12  -2   4  130.50    4.65
 -12  -2   4  165.06    6.06
 -12  -2   5   34.43    6.41
 -12  -2   5   38.39    3.30
 -12  -2   6 2219.79   73.76
 -12  -2   7    3.56    0.95
 -12  -2   7   12.35    1.59
 -12  -2   8  219.31    8.43
 -12  -2   8  224.75    8.61
 -12  -2   9   30.54    2.57
  12   2 -10 2569.59   76.27
 -12  -2  10 3453.63  102.54
  12   2 -11   85.64    5.98
 -12  -2  11  107.13    4.84
  12   2 -12   34.67    5.77
 -12  -2  12   31.52    4.35
  12   2 -13   11.74    2.52
 -12  -2  13   14.25    2.23
  12   2 -14  247.65    8.65
 -12  -2  14  327.49   11.79
 -12  -2  15   14.39    1.55
 -12  -2  16  275.98   19.76
 -10  -2 -12   26.58    2.90
 -10  -2 -11   43.58    8.07
 -10  -2 -10 2967.69  207.96
 -10  -2  -9   -0.74    4.82
 -10  -2  -9    2.78    1.30
 -10  -2  -9    1.81    0.80
 -10  -2  -8  354.53   11.86
 -10  -2  -8  309.98   10.64
 -10  -2  -8  267.93    8.58
 -10  -2  -7   44.97   15.62
 -10  -2  -7   45.94   12.96
 -10  -2  -7   36.59    5.76
 -10  -2  -6 1375.35   45.93
 -10  -2  -6 1409.80   47.43
 -10  -2  -6 1449.84   48.01
 -10  -2  -5    2.99    0.65
 -10  -2  -5    4.84    1.35
 -10  -2  -5    1.18    0.74
 -10  -2  -4    5.90    1.22
 -10  -2  -4   11.64    1.89
 -10  -2  -4    3.91    0.79
 -10  -2  -3  155.29   13.75
 -10  -2  -3  144.40   12.92
 -10  -2  -3  131.59   11.59
 -10  -2  -2  178.75   11.62
 -10  -2  -2  182.78    6.92
 -10  -2  -1   33.33    3.94
 -10  -2  -1   26.09    2.94
 -10  -2   0    0.39    0.58
 -10  -2   0    1.13    0.95
 -10  -2   1   23.70    5.08
 -10  -2   1   21.40    3.34
 -10  -2   2 5372.75  434.65
 -10  -2   2 4219.88  341.44
 -10  -2   3   57.49    3.19
 -10  -2   3   70.62    3.12
 -10  -2   4   12.43    2.89
 -10  -2   4   22.55    3.64
 -10  -2   5   53.37    3.76
 -10  -2   5   59.24    2.59
 -10  -2   6 4100.15  255.37
 -10  -2   6 3419.68  106.00
 -10  -2   7    1.09    1.13
 -10  -2   8  175.03   11.51
  10   2  -9   25.49    2.81
 -10  -2   9   20.65    2.04
  10   2 -10  637.40   20.55
 -10  -2  10  579.53   18.95
  10   2 -11   14.26    2.93
 -10  -2  11   14.95    1.80
  10   2 -12    3.32    0.64
 -10  -2  12    5.44    0.91
  10   2 -13    1.98    0.73
 -10  -2  13    5.21    0.96
  10   2 -14 3499.42  102.79
 -10  -2  14 4386.52  128.89
  10   2 -15   24.59    3.81
 -10  -2  15   22.02    2.49
 -10  -2  16   17.43    2.35
 -10  -2  17   11.75    1.08
 -10  -2  18  923.04   29.67
  -8  -2 -14 2589.94   82.79
  -8  -2 -13    6.32    2.15
  -8  -2 -13   34.97    5.78
  -8  -2 -13   19.20    3.24
  -8  -2 -12  195.68    6.13
  -8  -2 -12  218.69    7.15
  -8  -2 -11   18.83    2.55
  -8  -2 -11   20.55    3.63
  -8  -2 -10  600.08   20.93
  -8  -2 -10  651.01   21.96
  -8  -2  -9   31.32    6.27
  -8  -2  -9   28.49    2.66
  -8  -2  -9   28.93    3.61
  -8  -2  -8    4.41    1.44
  -8  -2  -8    3.78    0.98
  -8  -2  -8    6.71    1.23
  -8  -2  -7   76.00    6.92
  -8  -2  -7   81.87    7.64
  -8  -2  -7   62.76    5.60
  -8  -2  -6 1967.09   61.24
  -8  -2  -6 2110.79   66.03
  -8  -2  -6 2048.29   63.42
  -8  -2  -5   30.75    5.39
  -8  -2  -5   31.68    4.73
  -8  -2  -5   27.01    3.86
  -8  -2  -4  525.90   10.13
  -8  -2  -4  601.26   11.97
  -8  -2  -4  566.71   10.40
  -8  -2  -3    2.21    1.04
  -8  -2  -3    6.78    1.94
  -8  -2  -2 4665.61   96.57
  -8  -2  -2 4430.58   92.09
  -8  -2  -1   34.39    3.25
  -8  -2  -1   44.82    2.93
  -8  -2   0  874.46   18.96
  -8  -2   0  900.27   19.98
  -8  -2   1   63.20    2.79
  -8  -2   1   62.22    3.15
  -8  -2   2  159.78    6.08
  -8  -2   2  163.07    6.42
  -8  -2   3   61.67    2.78
  -8  -2   3   65.09    3.15
  -8  -2   4   96.31    3.87
  -8  -2   4  117.07    4.94
  -8  -2   5   65.03    2.95
  -8  -2   5   67.00    3.11
  -8  -2   6 2308.93   48.43
  -8  -2   6 2263.54   47.52
  -8  -2   7  363.24    8.44
  -8  -2   7  428.21    9.93
   8   2  -8  621.83   13.77
  -8  -2   8  530.29   12.06
   8   2  -9    4.58    1.01
  -8  -2   9    3.28    1.24
   8   2 -11   14.71    2.27
  -8  -2  11   15.89    1.87
   8   2 -12  137.99   12.06
  -8  -2  12  149.00   13.09
   8   2 -13   17.22    2.51
  -8  -2  13   14.99    1.57
   8   2 -14  526.55   13.51
  -8  -2  14  482.78   12.46
   8   2 -15   37.64    3.39
  -8  -2  15   37.05    2.39
  -8  -2  16   95.13    3.22
   8   2 -17    7.25    2.32
  -8  -2  17   32.36    4.04
  -8  -2  17    5.40    1.89
  -8  -2  18  845.31   17.84
  -8  -2  19    0.83    0.44
  -8  -2  19    0.93    0.48
   6   2  16  440.39   15.58
  -6  -2 -15   10.15    1.76
  -6  -2 -14  238.20    7.30
  -6  -2 -13   16.63    2.34
   6   2  13    9.67    1.74
  -6  -2 -13    3.61    1.88
  -6  -2 -12  322.97   11.99
   6   2  12  296.57   11.01
  -6  -2 -12  319.97   11.22
  -6  -2 -11    6.16    1.28
   6   2  11    3.79    4.15
  -6  -2 -11    7.91    1.28
  -6  -2 -10 2934.82   91.63
   6   2  10 2429.33   75.93
  -6  -2 -10 2153.47   66.62
  -6  -2  -9    1.66    1.13
   6   2   9    1.67    1.58
  -6  -2  -9    3.51    0.56
  -6  -2  -8 2604.17   44.91
   6   2   8 2934.10   50.85
  -6  -2  -8 2496.70   41.98
  -6  -2  -7   66.13    2.71
   6   2   7   36.22    9.82
  -6  -2  -7   59.93    5.00
  -6  -2  -6 1073.04   23.28
   6   2   6 1204.08   26.21
  -6  -2  -6 1054.92   22.14
  -6  -2  -5   49.93    2.73
   6   2   5   47.18    3.10
  -6  -2  -5   50.67    2.85
  -6  -2  -4 1093.81   21.70
   6   2   4 1041.67   20.48
  -6  -2  -4 1052.18   19.99
  -6  -2  -3  104.64    3.33
  -6  -2  -3   90.57    2.35
  -6  -2  -2   50.47    4.37
  -6  -2  -2   27.55    2.67
  -6  -2  -1  121.30    3.27
  -6  -2  -1  116.32    3.39
  -6  -2   0  338.65    7.00
  -6  -2   0  371.60    8.00
  -6  -2   1   23.42    2.14
  -6  -2   1   25.19    2.46
  -6  -2   2 2396.13   44.70
  -6  -2   2 2321.75   43.59
  -6  -2   3    6.43    1.70
  -6  -2   3    2.56    0.65
  -6  -2   4 2742.56   51.06
  -6  -2   4 2389.65   44.67
  -6  -2   5   62.87    5.21
  -6  -2   5   83.72    2.59
  -6  -2   6 5751.97  830.49
  -6  -2   6 4626.42   85.68
  -6  -2   7  297.40    6.31
  -6  -2   8 2024.34   38.09
   6   2  -9    3.96    0.79
  -6  -2   9    3.07    0.94
   6   2 -10   12.02    1.91
  -6  -2  10   11.68    1.81
   6   2 -11    3.75    0.79
  -6  -2  11    2.99    0.58
   6   2 -12  241.91    4.60
  -6  -2  12  204.67    3.90
   6   2 -13    3.12    0.52
   6   2 -14 2877.55   88.56
  -6  -2  14 2383.53   73.35
  -6  -2  14 2724.89   85.07
   6   2 -15    4.99    0.79
  -6  -2  15    1.12    1.87
   6   2 -16 2414.26   79.03
  -6  -2  16 1682.26   55.15
  -6  -2  16 1786.56   59.78
   6   2 -17   12.63    2.16
  -6  -2  17    0.29    2.82
  -6  -2  19    0.83    0.39
  -6  -2  19    1.21    0.85
  -6  -2  20  140.57    6.11
   4   2  18   58.85    5.07
  -4  -2 -17   34.48    5.65
   4   2  17   14.46    2.08
   4   2  17    8.74    0.99
   4   2  16 2003.80   43.84
   4   2  15   10.41    2.17
  -4  -2 -14  838.05   28.86
   4   2  14  750.97   25.97
   4   2  14  659.28   22.19
   4   2  13    6.58    2.06
   4   2  12 3130.96   97.31
   4   2  12 3016.59   93.17
  -4  -2 -11   16.08    4.19
   4   2  10 1260.04   22.96
  -4  -2 -10 1480.15   25.57
   4   2   9   44.86    5.47
  -4  -2  -9   44.79    3.59
  -4  -2  -8  351.96    8.70
  -4  -2  -8  348.88    7.90
  -4  -2  -7    7.77    1.47
  -4  -2  -7    6.82    1.15
   4   2   6  489.85   10.34
  -4  -2  -6  437.85    8.53
  -4  -2  -5   81.04    2.76
   4   2   5   89.29    3.16
  -4  -2  -5   92.81    2.26
  -4  -2  -4 2630.66   49.32
   4   2   4 2797.05   52.53
  -4  -2  -4 2808.17   51.78
  -4  -2  -3    3.59    0.55
  -4  -2  -2 3418.72   51.80
   4   2   2 3713.69   56.21
  -4  -2   0 3567.60   53.78
   4   2   0 3988.73   60.03
   4   2  -1   39.47    3.94
  -4  -2   3    5.84    1.17
  -4  -2   3    5.66    1.67
  -4  -2   4  124.46    2.63
  -4  -2   4  113.04    2.74
  -4  -2   5    8.36    1.33
  -4  -2   5    4.93    1.21
  -4  -2   6  715.21   13.28
  -4  -2  10 2177.96   46.43
  -4  -2  11   15.67    4.68
  -4  -2  12 1780.71   38.03
   4   2 -13    7.39    1.39
  -4  -2  13    4.97    1.03
   4   2 -14  996.33   30.87
  -4  -2  14  819.45   26.28
   4   2 -15  153.98   13.36
  -4  -2  15  118.02   13.15
   4   2 -16  251.97    6.64
   4   2 -16  290.27    7.76
  -4  -2  16  262.93    8.02
   4   2 -17   56.07    2.26
   4   2 -17   77.32    3.13
  -4  -2  17   60.26    5.09
  -4  -2  18  154.82    5.96
   4   2 -19    8.61    2.56
  -4  -2  19   22.90    5.25
   4   2 -20  203.52    6.78
  -4  -2  20  305.03   11.14
   2   2  19   85.32    6.56
  -2  -2 -18  265.95    9.99
   2   2  18  239.47    9.16
   2   2  18  268.43    9.47
   2   2  17   24.97    3.56
   2   2  15    7.21    1.07
  -2  -2 -14   41.95    4.25
   2   2  14   35.71    3.64
   2   2  14   39.70    5.79
  -2  -2 -13  110.73    9.98
   2   2  13  116.24   10.50
   2   2  13  114.40   10.05
  -2  -2 -12  238.42    5.99
   2   2  12  212.24    5.52
   2   2  12  226.97    4.80
  -2  -2 -11  158.44    4.74
   2   2  11  122.56    4.15
   2   2  10  416.33   10.12
   2   2  10  425.55    9.41
   2   2   9   22.46    1.88
  -2  -2  -8 5070.21   94.53
   2   2   8 4795.66   89.36
   2   2   7   49.46    4.10
  -2  -2  -6   75.74   11.63
   2   2   6   64.31    5.50
   2   2   6   56.87    4.64
  -2  -2  -5   29.82    4.50
   2   2   5    8.27    4.87
  -2  -2  -4 4340.96   65.84
  -2  -2  -4 3739.39   55.64
  -2  -2  -2   21.00    3.39
   2   2   2   27.32    3.12
  -2  -2  -2   18.55    1.78
  -2  -2  -1  445.62    7.76
   2   2   1  388.73    6.60
  -2  -2   0  424.14    7.34
   2   2   0  440.00    7.45
  -2  -2   1   96.78    2.15
   2   2  -1  106.48    2.21
  -2  -2   2  125.37    2.58
   2   2  -2  119.51    2.30
  -2  -2   2  128.84    2.85
  -2  -2   3  502.35    8.04
   2   2  -3  469.50    7.30
  -2  -2   4 4165.21   62.01
   2   2  -4 4501.50   66.84
  -2  -2   4 4547.04   68.35
  -2  -2   5   62.41    8.29
  -2  -2   6  897.49   14.50
  -2  -2   8 3658.44   67.93
  -2  -2   9    1.05    0.71
   2   2 -10   22.32    2.04
   2   2 -11  113.41    4.12
   2   2 -11  117.72    4.19
   2   2 -12   70.10    2.81
   2   2 -12   61.96    2.40
  -2  -2  12   53.87    2.68
   2   2 -13   21.09    3.20
   2   2 -13   26.88    3.79
   2   2 -14  583.65   18.36
   2   2 -14  811.96   25.40
   2   2 -15   10.13    2.36
   2   2 -16 2531.82   62.51
  -2  -2  17    0.85    2.28
   2   2 -18  208.76    6.71
  -2  -2  18  230.06    7.95
   2   2 -19   -0.05    0.42
   2   2 -20  965.37   30.96
   0   2  20  415.52   29.92
   0   2  20  351.78   26.62
   0   2  19   20.13    3.60
   0   2  19   24.44    4.75
   0  -2 -18    5.32    2.13
   0   2  18    5.10    1.99
   0   2  18    5.21    1.59
   0  -2 -16 1375.40   46.14
   0   2  16 1298.22   43.74
   0   2  16 1412.04   46.88
   0   2  15    9.06    1.40
   0  -2 -14  107.43    9.69
   0   2  14  114.45   10.33
   0   2  14  126.96   11.17
   0   2  13   58.53    2.61
   0   2  12 4108.47   69.51
   0   2  12 4169.29  337.09
   0   2  11    2.85    0.98
   0  -2 -10    0.80    3.13
   0   2  10    5.91    1.44
   0   2  10    9.62    2.10
   0  -2  -9  163.90    4.40
   0   2   9  164.07    4.35
   0  -2  -8 2298.07   43.54
   0   2   8 2575.56   48.86
   0  -2  -7   75.95   11.25
   0   2   7   74.64    6.33
   0  -2  -6  107.53    2.96
   0   2   6  138.95    3.68
   0   2   6  123.11    2.27
   0  -2  -5    1.27    0.81
   0   2   5    0.21    0.88
   0   2   5    0.99    0.33
   0  -2  -4 2418.36   37.07
   0   2   4 2780.84   42.55
   0   2   4 2641.82   39.34
   0  -2  -3    0.68    0.93
   0   2   3    1.63    0.88
   0  -2  -2  282.98    5.52
   0   2   2  272.96    5.11
   0  -2  -1  180.72    3.87
   0   2   1  171.19    3.53
   0  -2   0 5904.01  471.53
   0   2   0 5754.56  459.53
   0   2   0 4200.04   62.45
   0  -2   0 4500.24   66.90
   0  -2   1  170.37    3.77
   0   2  -1  169.86    3.28
   0   2  -1  168.27    2.91
   0  -2   1  171.31    3.00
   0  -2   2  218.02    4.45
   0   2  -2  260.26    4.41
   0  -2   2  210.39    3.54
   0  -2   3    0.85    0.56
   0   2  -3    0.26    0.45
   0  -2   3    3.20    0.83
   0   2  -4 2313.71   34.97
   0  -2   4 2611.51   39.48
   0  -2   5    0.89    0.32
   0   2  -5    1.93    0.51
   0   2  -5    0.75    0.31
   0  -2   5    1.26    0.69
   0   2  -6  122.82    2.25
   0  -2   6  121.13    2.83
   0   2  -7   89.89    3.08
   0   2  -7   81.37    1.85
   0   2  -8 1890.76   35.34
   0   2  -8 2123.00   39.21
   0   2  -8 2316.33   43.56
   0  -2   8 2166.71   40.77
   0   2  -9  157.33    3.64
   0   2  -9  173.86    3.62
   0  -2   9  183.40   20.16
   0   2 -10   12.45    2.25
   0   2 -10   11.24    1.79
   0  -2  10    6.38    2.08
   0   2 -11    3.58    0.77
   0   2 -11    3.85    1.14
   0   2 -12 4639.50  375.17
   0   2 -12 5722.73  462.60
   0  -2  12 4773.25  386.10
   0   2 -13   55.41    5.31
   0  -2  13   54.60    3.11
   0   2 -14   90.15    7.96
   0   2 -14  141.82   12.37
   0   2 -16 1095.70   36.52
   0   2 -17   98.93    3.66
   0  -2  17   85.70    3.76
   0   2 -18    8.06    2.72
   0   2 -18    7.14    2.14
   0  -2  18    3.01    1.37
   0   2 -19    8.86    0.84
   0  -2  19   17.16    7.50
  -2   2  21    6.37    1.44
   2  -2 -20 2116.84   68.54
  -2   2  20 1612.59   52.73
  -2   2  19    4.65    1.57
   2  -2 -18  352.70   12.14
  -2   2  18  269.31    9.59
  -2   2  18  293.83   13.16
  -2   2  17    4.71    1.14
  -2   2  17    1.56    1.63
   2  -2 -16 3788.61  205.84
  -2   2  16 3224.49   80.63
  -2   2  15   11.63    1.63
   2  -2 -14  729.59   23.74
  -2   2  14  635.92   20.93
  -2   2  14  602.23   19.41
   2  -2 -13   27.98    4.29
  -2   2  13   27.43    4.15
  -2   2  13   26.24    4.13
   2  -2 -12   60.62    3.10
  -2   2  12   60.93    3.45
   2  -2 -11  111.73    4.84
  -2   2  11  112.80    5.00
   2  -2 -10   21.85    2.28
  -2   2  10   38.35    3.66
   2  -2  -9    2.57    1.23
  -2   2   9    0.68    1.08
   2  -2  -8 5304.54  765.98
  -2   2   8 4640.39   86.72
   2  -2  -7   32.43    3.31
  -2   2   7   26.90    2.70
   2  -2  -6 1035.77   17.43
  -2   2   6  913.47   15.48
   2  -2  -5   45.65    4.78
  -2   2   5   36.88    3.91
   2  -2  -4 6240.14  498.53
  -2   2   4 4975.67   75.23
   2  -2  -3  541.64   10.12
  -2   2   3  473.12    8.71
   2  -2  -2  129.68    3.69
  -2   2   2  120.90    3.29
   2  -2  -1  110.67    3.34
  -2   2   1   95.55    2.91
  -2   2   1   93.91    1.97
  -2   2   0  386.82    7.53
  -2   2   0  372.22    6.15
   2  -2   1  284.14    5.46
  -2   2  -1  339.95    6.75
  -2   2  -1  355.99    6.05
   2  -2   2   24.30    3.24
  -2   2  -2   19.08    2.35
  -2   2  -2   21.72    2.20
   2  -2   2   19.75    2.11
   2  -2   3   14.79    1.76
  -2   2  -3   11.69    1.54
  -2   2  -3   17.74    2.63
   2  -2   3   17.71    1.97
   2  -2   4 2599.35   39.21
   2  -2   5   10.64    1.49
  -2   2  -5    9.41    1.32
  -2   2  -5   10.13    2.14
   2  -2   5    9.38    1.21
   2  -2   6   67.48    5.64
  -2   2  -6   54.51    4.96
  -2   2  -6   65.46    5.48
   2  -2   6   70.71    5.94
  -2   2  -7   44.08    4.69
  -2   2  -7   44.20    3.74
  -2   2  -7   44.66    3.83
   2  -2   7   49.36    4.31
  -2   2  -8 4885.14   90.20
  -2   2  -8 4791.19   88.85
   2  -2   8 4183.04   77.81
  -2   2  -9   21.95    2.10
  -2   2  -9   25.39    1.43
  -2   2  -9   14.50    3.99
   2  -2   9   22.81    9.24
  -2   2 -10  457.42   10.79
  -2   2 -10  435.95    9.71
  -2   2 -10  440.88   10.23
   2  -2  10  441.49   10.33
  -2   2 -11  115.36    3.72
  -2   2 -11  127.94    3.12
  -2   2 -11  142.52    3.99
   2  -2  11  121.36    3.47
  -2   2 -12  205.46    4.93
  -2   2 -12  247.43    5.18
  -2   2 -12  241.47    5.80
   2  -2  12  234.17    5.58
  -2   2 -13   98.42    8.92
  -2   2 -13  114.43   10.07
  -2   2 -13  180.29   12.07
   2  -2  13  113.02   10.59
  -2   2 -14   32.49    4.10
  -2   2 -14   45.21    4.26
  -2   2 -14   43.32    4.31
   2  -2  14   38.89    6.80
  -2   2 -15   11.71    2.24
  -2   2 -15   13.64    1.45
  -2   2 -16 1736.34   52.09
  -2   2 -17    5.19    2.41
  -2   2 -17    8.24    2.55
  -2   2 -18  352.14   13.05
  -2   2 -18  349.24   12.07
   2  -2  18  265.34    9.80
  -4   2  20  335.98   12.35
   4  -2 -19   17.30    2.74
  -4   2  19    9.78    1.44
   4  -2 -18  221.24    8.24
  -4   2  18  180.61    7.04
  -4   2  18  171.96    6.19
   4  -2 -17   79.85    4.04
  -4   2  17   97.57    5.23
  -4   2  17   85.84    7.55
  -4   2  16  270.35    8.68
  -4   2  16  268.45    8.17
  -4   2  15  157.88   14.24
  -4   2  15  193.84    7.50
   4  -2 -14 1103.36   35.41
  -4   2  14 1033.88   33.44
   4  -2 -13    5.22   11.77
  -4   2  13    7.43    1.71
   4  -2 -12 2704.94   57.89
  -4   2  12 2063.52   44.47
   4  -2 -11    5.21    2.30
  -4   2  11    3.89    1.25
   4  -2 -10 2352.67   50.26
  -4   2  10 2185.59   46.95
   4  -2  -9  242.15    6.81
  -4   2   9  182.95    5.30
  -4   2   8 1942.89   37.38
   4  -2  -7   36.77    3.79
  -4   2   7   32.99    3.51
   4  -2  -6  947.33   19.45
  -4   2   6  777.25   16.08
   4  -2  -5   10.19    2.03
  -4   2   5    5.61    1.46
   4  -2  -4   98.93    3.36
  -4   2   4   91.96    3.40
   4  -2  -3    8.98    1.60
  -4   2   3    7.50    1.82
   4  -2  -2  912.96   15.59
  -4   2   2  826.55   14.67
   4  -2  -1   41.30    4.40
  -4   2   1   35.25    4.15
   4  -2   0 4161.19   63.67
  -4   2   0 4178.50   64.54
  -4   2   0 4041.92   60.92
   4  -2   1   15.83    3.39
  -4   2  -1   16.17    2.25
  -4   2  -1   12.63    1.56
   4  -2   2 3413.44   51.96
  -4   2  -2 3183.76   49.17
  -4   2  -2 3520.81   53.13
   4  -2   3    2.41    0.92
  -4   2  -3    3.27    0.94
  -4   2  -3    4.17    0.69
   4  -2   4 2337.31   43.76
  -4   2  -4 2155.78   40.17
   4  -2   5   83.60    2.47
  -4   2  -5   79.99    5.40
  -4   2  -5   75.53   11.13
   4  -2   6  444.03    9.03
  -4   2  -6  410.27    9.05
  -4   2  -6  512.34   10.52
   4  -2   6  456.85    9.46
   4  -2   7    8.17    0.99
  -4   2  -7    7.77    2.10
  -4   2  -7    6.23    1.30
   4  -2   7    7.23    1.18
  -4   2  -8  347.79    8.83
  -4   2  -8  355.33    8.35
  -4   2  -8  337.51    8.15
   4  -2   8  352.78    8.46
  -4   2  -9   40.16    5.47
  -4   2  -9   48.70    2.47
  -4   2  -9   46.87    2.45
   4  -2   9   42.61    2.43
  -4   2 -10 1227.72   22.40
  -4   2 -10 1223.16   21.48
  -4   2 -10 1196.67   21.25
   4  -2  10 1272.15   22.67
  -4   2 -11    7.22    1.10
  -4   2 -11    8.48    1.19
  -4   2 -11    5.95    1.48
   4  -2  11    2.82    3.60
  -4   2 -12 3327.78  103.41
  -4   2 -12 3576.41  110.46
  -4   2 -12 3254.00  100.72
   4  -2  12 3526.61  109.27
  -4   2 -13    4.18    2.23
  -4   2 -13    9.58    1.26
  -4   2 -13    9.91    1.82
   4  -2  13    3.98    4.28
  -4   2 -14  712.00   24.55
  -4   2 -14  773.07   26.04
   4  -2  14  791.46   27.04
  -4   2 -15    7.99    1.67
  -4   2 -15   17.24    2.12
  -4   2 -15   14.12    2.67
   4  -2  15    8.20    1.67
  -4   2 -16 1784.86   37.78
   4  -2  16 1803.32   38.93
  -4   2 -17   -0.48    0.70
  -4   2 -17   18.60    3.18
  -4   2 -17   15.86    1.93
   4  -2  17   17.33    3.04
  -4   2 -18   54.48    5.44
  -6   2  20  239.80   10.12
  -6   2  20  311.92   20.42
  -6   2  19    2.03    1.11
  -6   2  19    0.97    0.64
   6  -2 -18 2385.17   51.88
  -6   2  18 2117.76   46.38
  -6   2  18 2009.75   43.44
  -6   2  17   19.25    2.93
   6  -2 -16 2791.03   92.95
  -6   2  16 2356.66   78.73
   6  -2 -15    3.93    8.69
  -6   2  15    2.41    1.35
  -6   2  14 2992.35   93.47
   6  -2 -13    2.41    1.50
  -6   2  13    3.93    1.60
   6  -2 -12  280.21    7.45
  -6   2  12  222.58    6.24
   6  -2 -11    5.11    1.53
  -6   2  11    3.77    1.23
   6  -2 -10   13.26    2.58
  -6   2  10   15.27    3.02
   6  -2  -9    1.30    1.32
  -6   2   9    1.80    1.43
   6  -2  -8 2057.49   40.13
  -6   2   8 2149.46   42.45
   6  -2  -7  349.78    8.65
  -6   2   7  322.64    8.66
   6  -2  -6 3710.33   69.95
  -6   2   6 3380.01   64.48
   6  -2  -5   76.28   11.35
  -6   2   5   78.30    3.87
   6  -2  -4 2370.05   45.19
  -6   2   4 2275.93   44.31
   6  -2  -3    9.58    2.01
  -6   2   3    7.28    2.01
   6  -2  -2 2336.05   44.77
  -6   2   2 2615.73   50.91
   6  -2  -1   24.96    5.08
  -6   2   1   22.25    2.68
   6  -2   0  389.74    9.03
  -6   2   0  321.76    8.08
   6  -2   1  111.39    3.68
  -6   2  -1   92.20    3.33
  -6   2  -1   97.88    2.86
   6  -2   2   18.66    3.67
  -6   2  -2   21.73    2.34
  -6   2  -2   21.37    2.17
   6  -2   3  112.79    7.97
  -6   2  -3   99.93    3.71
  -6   2  -3   95.10    2.92
   6  -2   4  927.99   20.28
  -6   2  -4 1073.53   24.14
  -6   2  -4 1022.37   22.04
   6  -2   5   48.41    2.44
  -6   2  -5   38.59    2.84
  -6   2  -5   39.64    3.16
   6  -2   6 1131.04   24.20
  -6   2  -6 1115.56   24.68
  -6   2  -6 1012.55   21.84
   6  -2   7   56.34    2.16
  -6   2  -7   52.45    3.74
  -6   2  -7   51.19    7.27
  -6   2  -8 2418.36   42.20
  -6   2  -8 2557.40   43.71
  -6   2  -8 2884.96   49.26
  -6   2  -9    2.28    1.03
  -6   2  -9    4.22    1.38
  -6   2  -9    4.64    1.07
  -6   2 -10 2059.96   64.51
  -6   2 -10 2378.52   73.91
  -6   2 -10 2253.64   70.08
  -6   2 -11    4.89    0.95
  -6   2 -11    6.46    1.06
  -6   2 -11    5.69    1.20
  -6   2 -12  295.32   11.10
  -6   2 -12  312.80   11.22
  -6   2 -12  288.00   10.41
  -6   2 -13    6.07    1.01
  -6   2 -13   12.67    1.81
  -6   2 -13   11.26    3.04
  -6   2 -14  197.24    7.68
  -6   2 -14  217.45    6.13
  -6   2 -14  183.98    5.50
   6  -2  14  202.02    6.01
  -6   2 -15    6.31    1.04
  -6   2 -15    8.86    1.14
  -6   2 -15    6.29    1.32
   6  -2  15    7.65    1.55
  -6   2 -16  478.55   16.81
  -8   2  19    0.92    1.52
   8  -2 -18 1333.68   30.26
  -8   2  18 1425.96   32.62
   8  -2 -17    5.06    2.36
  -8   2  17    5.74    2.04
   8  -2 -16  153.77    6.55
  -8   2  16  154.08    6.65
   8  -2 -15   43.70    3.87
  -8   2  15   37.53    3.28
  -8   2  14  483.12   13.91
   8  -2 -13   17.29    2.23
  -8   2  13   16.13    2.14
   8  -2 -12  123.86   11.30
  -8   2  12  135.11   12.44
   8  -2 -11   13.66    1.90
  -8   2  11   13.28    2.14
   8  -2 -10 3554.62   61.52
  -8   2  10 3492.82   61.36
   8  -2  -9    3.01    1.09
  -8   2   9    8.13    2.70
   8  -2  -8  601.66   14.47
  -8   2   8  527.39   13.60
   8  -2  -7  538.66   13.35
  -8   2   7  473.11   12.98
   8  -2  -6 3463.09   73.68
  -8   2   6 2674.81   58.23
   8  -2  -5   75.56    5.67
  -8   2   5   75.53    4.83
   8  -2  -4  103.67    4.78
  -8   2   4  110.87    5.61
   8  -2  -3   64.71    5.48
  -8   2   3   66.83    4.16
   8  -2  -2  149.92   11.65
  -8   2   2  156.17    7.27
   8  -2  -1   59.82    4.90
  -8   2   1   58.60    3.46
   8  -2   0  905.21   20.70
  -8   2   0  814.30   18.98
   8  -2   1   38.10    5.48
  -8   2  -1   36.09    2.62
  -8   2  -1   37.01    2.25
   8  -2   2 4368.84   90.95
  -8   2  -2 4738.69   99.40
  -8   2  -2 4527.73   93.94
   8  -2   3    2.79    1.14
  -8   2  -3    6.49    2.17
  -8   2  -3    4.66    1.64
   8  -2   4  630.30   12.31
  -8   2  -4  734.74   16.36
  -8   2  -4  603.83   11.75
   8  -2   5   30.34    6.71
  -8   2  -5   30.34    5.72
  -8   2  -5   30.78    6.56
   8  -2   6 2397.99   74.69
  -8   2  -6 1803.59   56.91
  -8   2  -6 1704.78   53.11
   8  -2   7   89.86    8.12
  -8   2  -7   79.09    7.78
  -8   2  -7   64.29    5.87
  -8   2  -8    5.69    1.07
  -8   2  -8    7.53    1.32
  -8   2  -8    8.11    1.89
  -8   2  -9   27.83    6.48
  -8   2  -9   29.52    2.61
  -8   2  -9   30.88    5.82
  -8   2 -10  619.07   27.20
  -8   2 -10  695.94   23.93
  -8   2 -10  560.47   19.30
  -8   2 -11   18.42    3.82
  -8   2 -11   21.03    2.57
  -8   2 -11   18.03    4.06
  -8   2 -12  202.97    6.81
  -8   2 -12  193.55    5.78
  -8   2 -12  170.71    5.14
  -8   2 -13   28.96    5.76
  -8   2 -13   36.21    5.81
  -8   2 -13   27.35    7.42
 -10   2  19    0.09    1.20
 -10   2  18 1239.09   41.36
  10  -2 -17   16.08    2.08
 -10   2  17   14.52    2.15
 -10   2  16   16.35    2.71
  10  -2 -15   22.35    2.96
 -10   2  15   16.74    2.32
  10  -2 -14 4639.75  137.34
 -10   2  14 4714.76 1307.71
  10  -2 -13    4.17    1.57
 -10   2  13    5.17    2.11
  10  -2 -12    4.29    0.98
  10  -2 -11   20.36    2.22
 -10   2  11   16.77    2.49
 -10   2  10  554.01   19.29
  10  -2  -9   29.30    6.41
 -10   2   9   21.12    2.79
  10  -2  -8  191.90    7.33
 -10   2   8  198.28    8.74
  10  -2  -7    1.61    1.04
 -10   2   7    4.65    1.93
  10  -2  -6 3615.86  112.57
 -10   2   6 3867.34  241.48
  10  -2  -5   63.88    7.93
 -10   2   5   60.06    3.71
  10  -2  -4   14.81    4.69
 -10   2   4   11.49    2.88
  10  -2  -3   69.11    8.83
 -10   2   3   77.06    4.27
  10  -2  -2 4527.55  366.47
 -10   2   2 4201.10  340.23
  10  -2  -1   19.63    3.84
 -10   2   1   16.45    2.88
  10  -2   0    4.11    0.85
 -10   2   0    6.62    1.70
  10  -2   1   28.02    5.95
 -10   2  -1   26.80    3.13
 -10   2  -1   25.13    2.74
  10  -2   2  181.97    6.94
 -10   2  -2  181.20    7.55
 -10   2  -2  179.27   11.79
  10  -2   3  149.85   13.36
 -10   2  -3  167.19   15.17
 -10   2  -3  160.47   14.29
  10  -2   4    3.64    0.67
 -10   2  -4   12.23    3.30
 -10   2  -4    3.16    1.35
  10  -2   5    1.93    0.95
 -10   2  -5    1.72    1.24
 -10   2  -5    4.64    1.09
  10  -2   6 1741.25   58.16
 -10   2  -6 1568.34   53.62
 -10   2  -6 1549.74   51.76
 -10   2  -7   48.42    4.54
 -10   2  -7   53.04    3.05
 -10   2  -7   39.25    6.91
 -10   2  -8  345.72   12.05
 -10   2  -8  360.86   12.19
 -10   2  -8  273.68    9.14
 -10   2  -9   -0.97    1.25
 -10   2  -9    2.14    1.40
 -10   2  -9    1.44    1.75
 -10   2 -10 2853.12  200.23
 -12   2  17   10.90    2.13
  12  -2 -16  562.71   40.86
 -12   2  16  302.76   22.36
  12  -2 -15   16.43    3.54
 -12   2  15   12.47    1.98
  12  -2 -14  350.87   13.13
 -12   2  14  246.37    9.84
  12  -2 -13   14.19    3.77
 -12   2  13   15.85    3.01
  12  -2 -12   30.60    6.79
 -12   2  12   27.65    4.17
  12  -2 -11  101.08    4.65
 -12   2  11   73.99    4.14
  12  -2 -10 3464.14  102.90
 -12   2  10 3336.43  100.33
  12  -2  -9   34.15    7.08
 -12   2   9   34.30    3.62
  12  -2  -8  276.11   10.65
 -12   2   8  238.10   10.21
  12  -2  -7    3.32    0.71
 -12   2   7    7.32    2.04
  12  -2  -6 2242.43   74.64
 -12   2   6 2220.66   74.72
  12  -2  -5   47.33    8.29
 -12   2   5   39.18    3.92
  12  -2  -4  151.74    5.78
 -12   2   4  145.04    6.17
  12  -2  -3   66.21    7.96
 -12   2   3   81.71    4.41
  12  -2  -2   30.67    5.84
 -12   2   2   22.47    2.37
  12  -2  -1   10.10    2.32
 -12   2   1   10.23    1.63
  12  -2   0  106.78   13.99
 -12   2   0   96.38    5.03
  12  -2   1   11.08    2.31
 -12   2  -1    8.77    1.51
 -12   2  -1   10.88    1.44
  12  -2   2 2528.06   75.52
 -12   2  -2 2177.51   65.62
 -12   2  -2 2250.15   67.10
  12  -2   3   18.84    2.84
 -12   2  -3   26.14    3.57
 -12   2  -3   20.72    2.74
  12  -2   4  180.81    6.90
 -12   2  -4  200.61    7.33
 -12   2  -4  175.92    5.54
  12  -2   5    1.67    1.44
 -12   2  -5    0.43    1.27
 -12   2  -5    3.23    1.38
 -12   2  -6 4049.47  284.32
 -12   2  -6 3096.36  217.05
 -12   2  -7    2.80    1.32
 -12   2  -8  395.12   38.65
 -14   2  13   10.53    2.18
 -14   2  12  873.68   62.24
 -14   2  11    6.53    2.70
 -14   2  10 1663.22   55.33
  14  -2  -9   19.16    4.59
 -14   2   9   18.25    3.75
  14  -2  -8  145.60    6.58
 -14   2   8  130.15    7.04
  14  -2  -7    2.19    0.80
 -14   2   7    1.38    1.66
  14  -2  -6  621.41   15.21
 -14   2   6  624.77   16.83
  14  -2  -5   24.25    6.00
 -14   2   5   15.64    3.27
  14  -2  -4  939.15   22.10
 -14   2   4  881.89   21.96
  14  -2  -3    1.75    0.71
 -14   2   3   12.07    2.82
  14  -2  -2 2933.65   62.70
 -14   2   2 2859.83   62.41
  14  -2  -1   92.05    4.70
 -14   2   1   89.96    4.94
 -14   2   0  757.80   26.48
 -14   2  -1   25.90    4.67
 -13  -3  -4    6.99    2.65
 -13  -3  -3  135.48   10.10
 -13  -3  -3  162.98   12.44
 -13  -3  -2   55.77    9.06
 -13  -3  -2   72.75    3.24
 -13  -3  -1    2.24    0.67
 -13  -3  -1    1.18    1.19
 -13  -3   0   47.55    9.86
 -13  -3   0   52.01    8.29
 -13  -3   1  160.98    6.40
 -13  -3   1  160.02    6.83
 -13  -3   2 1146.64   37.26
 -13  -3   2 1293.17   42.49
 -13  -3   3    6.97    2.95
 -13  -3   3    5.94    2.00
 -13  -3   4  303.24    8.41
 -13  -3   4  262.00    7.74
 -13  -3   5   34.98    7.84
 -13  -3   5   41.60    5.67
 -13  -3   6 3060.33   64.83
 -13  -3   7    3.66    1.27
 -13  -3   8  103.31    4.56
 -13  -3   8   81.64    3.90
 -13  -3   9   92.98    4.25
 -13  -3   9   75.49    3.54
 -13  -3  10  574.94   19.82
 -13  -3  10  382.82   13.24
 -13  -3  11    8.42    1.52
 -13  -3  11   21.92    3.58
 -13  -3  12  172.70   12.89
 -11  -3  -9    3.74    0.82
 -11  -3  -8    1.86    0.93
 -11  -3  -8    4.31    0.70
 -11  -3  -7   15.40    5.05
 -11  -3  -7   12.61    1.65
 -11  -3  -7   15.48    2.89
 -11  -3  -6   22.90    6.15
 -11  -3  -6   21.72    3.67
 -11  -3  -6   20.85    3.73
 -11  -3  -5   17.85    5.11
 -11  -3  -5   21.39    3.21
 -11  -3  -5   23.32    3.41
 -11  -3  -4   15.05    4.82
 -11  -3  -4   14.99    2.39
 -11  -3  -4   14.16    2.00
 -11  -3  -3   43.41   12.71
 -11  -3  -3   45.64   12.93
 -11  -3  -3   49.99    2.36
 -11  -3  -2 2690.79   79.48
 -11  -3  -2 3546.24  105.25
 -11  -3  -2 3349.80   98.54
 -11  -3  -1   16.25    3.07
 -11  -3  -1    8.02    1.70
 -11  -3   0   62.88    5.27
 -11  -3   0   55.44    3.40
 -11  -3   1    2.20    0.58
 -11  -3   1    1.50    1.47
 -11  -3   2 2790.68   92.04
 -11  -3   2 2658.70   88.12
 -11  -3   3   12.84    2.78
 -11  -3   3    5.33    8.00
 -11  -3   4   10.44    1.97
 -11  -3   4    9.23    1.34
 -11  -3   5    6.26    1.16
 -11  -3   5    7.30    1.32
 -11  -3   6  137.85    5.61
 -11  -3   6  165.10    6.70
 -11  -3   7   25.06    4.32
 -11  -3   7   17.75    1.98
 -11  -3   8   58.37    2.79
 -11  -3   8   51.12    2.75
 -11  -3   9   33.30    3.67
 -11  -3  10 4390.31  129.48
 -11  -3  11   96.49    3.45
 -11  -3  12   70.18    2.44
 -11  -3  12   56.42    7.02
 -11  -3  13   35.27    5.42
 -11  -3  13   22.44    3.52
 -11  -3  14 1183.80   37.58
 -11  -3  14 1001.47   31.83
  -9  -3 -12  101.56    9.09
  -9  -3 -11   -1.46    1.99
  -9  -3 -10 1250.04   40.89
  -9  -3 -10  945.60   30.40
  -9  -3  -9    7.80    3.04
  -9  -3  -9   28.68    4.11
  -9  -3  -9   30.97    4.33
  -9  -3  -8   85.50    3.27
  -9  -3  -8   91.65    4.08
  -9  -3  -8   79.09    2.42
  -9  -3  -7   -0.75    1.26
  -9  -3  -7    0.36    1.12
  -9  -3  -7    1.07    0.37
  -9  -3  -6 3048.44  100.45
  -9  -3  -6 3107.72  102.64
  -9  -3  -6 2753.54   90.20
  -9  -3  -5    0.70    0.34
  -9  -3  -5    0.57    1.59
  -9  -3  -5    2.56    0.56
  -9  -3  -4  234.24    7.50
  -9  -3  -4  218.71    6.07
  -9  -3  -3    8.28    1.50
  -9  -3  -3    9.00    0.95
  -9  -3  -2  724.50   23.13
  -9  -3  -2  725.23   23.59
  -9  -3  -1  169.02   14.81
  -9  -3  -1  176.66   11.77
  -9  -3   0   41.29    4.86
  -9  -3   0   54.92    5.38
  -9  -3   1   23.81    3.42
  -9  -3   1   22.48    2.64
  -9  -3   2  694.59   22.17
  -9  -3   2  681.46   22.12
  -9  -3   3  188.66    6.52
  -9  -3   3  244.86   11.75
  -9  -3   4   42.21    5.05
  -9  -3   4   23.11    3.12
  -9  -3   5    0.66    0.33
  -9  -3   6 3592.04  110.97
  -9  -3   6 3476.11  107.52
  -9  -3   7   75.18    7.75
  -9  -3   7   27.11    3.18
  -9  -3   8   96.59    8.58
  -9  -3   8   72.54    6.57
  -9  -3   9   97.90    3.57
  -9  -3   9   68.53    2.98
  -9  -3  10 1427.64   35.78
  -9  -3  10 1079.93   27.09
  -9  -3  11  180.50    6.42
  -9  -3  11  159.89    5.63
  -9  -3  12   96.43    3.37
  -9  -3  12   88.89    3.08
  -9  -3  16   51.03    8.96
   7   3  13   37.04    6.03
  -7  -3 -12 1299.39   29.63
  -7  -3 -12 1634.46   34.96
  -7  -3 -11   26.10    4.37
  -7  -3 -11   11.47    1.52
  -7  -3 -10 1726.02   52.15
   7   3  10 1609.03   48.50
  -7  -3 -10 1685.74   49.81
  -7  -3  -9  154.31    6.92
   7   3   9   93.35    4.95
  -7  -3  -9  129.75    4.84
  -7  -3  -8  720.56   19.55
   7   3   8  649.65   17.61
  -7  -3  -8  671.17   17.04
  -7  -3  -7  249.51    9.17
   7   3   7  217.80    7.91
  -7  -3  -7  230.06    7.51
  -7  -3  -6  163.01   14.65
   7   3   6  142.32   12.70
  -7  -3  -6  164.06   14.27
  -7  -3  -5  160.64   14.34
   7   3   5  143.11   12.72
  -7  -3  -5  121.81   10.63
  -7  -3  -4   31.50    4.70
   7   3   4   33.42    4.84
  -7  -3  -4   38.33    5.33
  -7  -3  -3    5.26    1.94
  -7  -3  -3    2.67    0.80
  -7  -3  -2 2598.36   44.23
  -7  -3  -2 2282.50   39.55
  -7  -3  -1  110.76    3.40
  -7  -3  -1   85.10    5.80
  -7  -3   0 2061.91   35.16
  -7  -3   0 2084.06   36.27
  -7  -3   1   35.80    2.11
  -7  -3   1   42.51   14.89
  -7  -3   2 4145.08   85.68
  -7  -3   2 3599.83   74.85
  -7  -3   3    3.36    0.70
  -7  -3   3   25.80    6.80
  -7  -3   4 1076.58   23.03
  -7  -3   5   52.50    2.51
  -7  -3   5   40.17    5.67
  -7  -3   6   47.89    4.08
  -7  -3   6   41.78    5.82
  -7  -3   7  121.95    3.08
  -7  -3   7   89.88    2.25
  -7  -3   8  170.99    3.56
  -7  -3   9    1.66    0.45
  -7  -3   9    1.26    0.47
  -7  -3  14 2325.25   77.06
  -7  -3  15    9.07    3.66
  -7  -3  16  168.24    5.77
  -7  -3  17    1.46    0.58
  -7  -3  18   66.06    5.34
   5   3  15   72.02    4.30
   5   3  14 1158.97   26.40
  -5  -3 -12  366.14   12.51
   5   3  12  375.55   12.65
  -5  -3 -11   16.69    1.99
   5   3  11   13.17    1.91
  -5  -3 -10  538.95   15.35
   5   3  10  465.01   13.13
  -5  -3  -9   12.36    2.19
   5   3   9    7.38    2.76
  -5  -3  -8 1607.66   50.79
   5   3   8 1419.68   44.73
  -5  -3  -8 1538.58   47.59
  -5  -3  -7   73.98    5.31
   5   3   7   51.71    6.77
  -5  -3  -7   51.88    4.34
  -5  -3  -6 2737.18   47.53
   5   3   6 2541.53   43.98
  -5  -3  -5  224.00   11.19
   5   3   5  233.95   11.31
  -5  -3  -5  236.05    5.25
  -5  -3  -4 2998.70   63.14
   5   3   4 3006.35   63.64
  -5  -3  -4 3032.34   62.26
  -5  -3  -3    8.28   10.18
  -5  -3  -3    8.08    1.28
  -5  -3  -2  997.88   22.36
   5   3   2  910.97   19.82
  -5  -3  -1   89.74    4.17
   5   3   1   89.93    3.82
  -5  -3   0  179.41    5.12
   5   3   0  171.99   23.40
  -5  -3   1   83.40    3.18
   5   3  -1   94.56    2.72
  -5  -3   2  335.26    7.27
  -5  -3   3  625.84   12.13
  -5  -3   3  621.79   12.48
  -5  -3   4  635.93   13.57
  -5  -3   4  608.11   13.21
  -5  -3   5    5.86    1.17
  -5  -3   5    4.35    0.97
  -5  -3   6 1773.63   36.57
  -5  -3   6 1987.52   41.01
  -5  -3   8 2133.24   45.22
  -5  -3   9   73.90    3.23
  -5  -3  10 1307.51   23.21
  -5  -3  11  432.63   15.80
  -5  -3  13   12.87    3.12
  -5  -3  14  133.65    5.29
  -5  -3  15   23.46    5.27
  -5  -3  16  200.55    7.07
  -5  -3  17   72.49    3.00
  -5  -3  18  997.98   32.87
  -3  -3 -16    0.21    1.03
   3   3  16    7.60    1.46
  -3  -3 -15    1.80    1.31
   3   3  15    2.59    1.15
  -3  -3 -14  327.87   11.69
   3   3  14  257.31    9.18
  -3  -3 -13  103.15    5.12
  -3  -3 -12 2190.79   55.41
   3   3  12 2282.83   57.68
   3   3  10  288.69   10.16
   3   3   9  183.24    5.66
  -3  -3  -7   21.71    2.79
  -3  -3  -6  745.38   16.89
   3   3   6  730.97   16.64
  -3  -3  -5  827.46   18.66
   3   3   5  830.91   18.34
  -3  -3  -4  278.92    6.62
  -3  -3  -3    9.30    2.36
  -3  -3  -2  237.48    5.53
   3   3   2  258.80    5.98
  -3  -3  -1   82.12    2.65
   3   3   1   89.69    3.11
  -3  -3   0 3074.69   57.37
   3   3   0 3040.31   56.52
  -3  -3   1  154.34    3.85
   3   3  -1  169.04    3.92
  -3  -3   1  137.25    3.06
  -3  -3   2 1302.61   24.57
   3   3  -2 1637.92   30.63
  -3  -3   2 1492.47   27.83
  -3  -3   3  347.69    7.30
   3   3  -3  321.27    6.43
  -3  -3   3  288.10    5.93
  -3  -3   4 4826.86   89.06
   3   3  -4 4895.51   90.05
  -3  -3   5   52.88    4.31
  -3  -3   5   35.83    3.09
  -3  -3   5   41.68    5.17
  -3  -3   6  294.93    6.30
  -3  -3   7    2.11    0.94
  -3  -3   8   86.44    3.88
  -3  -3   9    3.77    0.95
  -3  -3  10  211.63    4.79
  -3  -3  13  236.52    8.44
  -3  -3  14  623.94   16.59
  -3  -3  17   51.61    6.61
  -3  -3  18  218.30    8.15
  -3  -3  19   55.52   10.97
   1   3  18    4.35    1.31
  -1  -3 -17  102.03    5.21
   1   3  17   80.49    4.23
   1   3  17   58.71    8.95
  -1  -3 -16 2680.43   56.83
   1   3  16 2861.38   60.99
   1   3  16 3058.73   63.60
   1   3  15   21.79    2.72
  -1  -3 -14   88.02    4.40
   1   3  14   89.66    4.68
  -1  -3 -13    4.87    1.72
   1   3  13    2.91    1.67
  -1  -3 -12 2132.35   66.58
   1   3  11    0.00    1.50
  -1  -3 -10   25.65    3.98
   1   3  10   33.74    4.90
   1   3  10   40.83    5.62
  -1  -3  -9    2.16    1.16
   1   3   9    8.60    1.71
   1   3   9    3.82    0.70
  -1  -3  -8 1320.18   28.60
   1   3   8 1232.09   26.59
   1   3   8 1326.74   27.39
  -1  -3  -7   44.25    3.45
   1   3   7   57.52    2.91
  -1  -3  -6  536.81   11.31
   1   3   6  579.42   11.98
  -1  -3  -5  132.88    4.45
   1   3   5  131.70    3.82
  -1  -3  -4 5775.28  833.87
  -1  -3  -3  180.17    4.98
   1   3   3  178.29    4.55
  -1  -3  -2    9.80    1.35
   1   3   2   10.74    1.29
  -1  -3  -1    6.86    1.02
   1   3   1    6.95    1.13
  -1  -3   0 2343.21   44.19
   1   3   0 2362.10   44.15
  -1  -3   1  110.49    3.20
   1   3  -1  142.00    3.51
  -1  -3   1  125.74    2.74
  -1  -3   2   23.36    2.37
   1   3  -2   19.06    2.67
  -1  -3   2   13.94    1.37
  -1  -3   3  179.74    4.49
  -1  -3   3  182.88    3.86
  -1  -3   4 1095.01   20.89
  -1  -3   5  228.03    5.62
  -1  -3   6  319.98    6.09
   1   3  -6  340.79    6.48
  -1  -3   6  344.84    8.28
  -1  -3   7   17.57    4.67
  -1  -3   8 3630.03   75.32
  -1  -3   9   20.89    2.04
  -1  -3  10  497.28    9.77
  -1  -3  11   15.06    3.61
  -1  -3  12 2638.30   82.20
  -1  -3  13  110.96   19.90
  -1  -3  14   31.21    5.54
  -1  -3  15   67.24    6.80
  -1  -3  16  100.81    4.20
  -1  -3  18  262.58    9.45
   1  -3 -18  426.69   15.29
  -1   3  18  335.08   12.38
   1  -3 -17    0.18    1.06
  -1   3  17    7.64    2.54
  -1   3  17   31.80    4.21
   1  -3 -16  138.19    5.83
  -1   3  16  129.75    5.49
  -1   3  16  122.37    5.06
   1  -3 -15   70.16    4.02
  -1   3  15   61.57    3.26
  -1   3  15   76.64    3.15
   1  -3 -14   29.23    2.72
  -1   3  14   27.42    2.54
  -1   3  14   33.11    3.60
   1  -3 -13  114.59   10.66
  -1   3  13  102.30    9.31
  -1   3  13  115.96   10.15
   1  -3 -12 3155.42   98.31
  -1   3  12 2641.29   82.39
   1  -3 -11   -0.78    2.38
  -1   3  11   15.92    2.64
   1  -3 -10  509.83   10.81
  -1   3  10  449.98    9.48
  -1   3  10  454.56    8.16
   1  -3  -9   18.73    8.01
  -1   3   9   25.11    2.06
  -1   3   9   29.26    1.87
   1  -3  -8 3527.43   73.78
  -1   3   8 3756.55   78.60
  -1   3   8 3398.34   69.87
   1  -3  -7   21.21    2.11
  -1   3   7   20.25    1.94
   1  -3  -6  421.09    9.99
  -1   3   6  366.23    8.51
   1  -3  -5  244.19    6.30
  -1   3   5  251.14    6.41
   1  -3  -4 1166.12   23.15
  -1   3   4 1037.55   20.39
  -1   3   4  968.90   17.97
   1  -3  -3  191.83    4.98
  -1   3   3  218.58    5.42
  -1   3   3  216.68    4.24
   1  -3  -2   27.00    2.88
  -1   3   2   29.05    2.83
  -1   3   2   18.90    1.72
   1  -3  -1  133.45    4.30
  -1   3   1  114.04    3.20
  -1   3   1  108.93    2.40
   1  -3   0 2154.41   41.27
  -1   3   0 1991.00   37.52
  -1   3   0 1868.41   34.61
   1  -3   1    3.67    0.99
  -1   3  -1    6.15    0.95
  -1   3  -1    6.99    1.31
   1  -3   2   29.36    2.84
  -1   3  -2   14.22    1.58
  -1   3  -2   11.58    1.33
   1  -3   2   10.34    1.13
   1  -3   3  138.36    3.70
  -1   3  -3  157.85    4.01
  -1   3  -3  151.74    3.53
   1  -3   3  145.48    3.44
   1  -3   4 5236.31  756.00
  -1   3  -4 5833.46  842.23
  -1   3  -4 5336.78  770.49
   1  -3   4 5520.48  797.02
   1  -3   5  132.03    3.23
  -1   3  -5  123.13    3.34
   1  -3   5  138.97    3.66
   1  -3   6  618.25   12.02
  -1   3  -6  636.13   12.85
   1  -3   6  643.79   12.84
   1  -3   7   41.89    1.71
  -1   3  -7   40.22    2.07
   1  -3   7   41.84    2.07
  -1   3  -8 1329.69   28.36
  -1   3  -8 1392.29   28.97
  -1   3  -8 1337.83   28.43
   1  -3   8 1430.86   30.41
  -1   3  -9    3.16    0.94
  -1   3  -9    5.39    0.93
  -1   3  -9    6.06    1.80
   1  -3   9    2.92    1.80
  -1   3 -10   30.12    4.30
  -1   3 -10   38.74    5.34
  -1   3 -10   45.42    7.16
   1  -3  10   33.14    6.65
  -1   3 -11    0.37    0.74
  -1   3 -11    3.08    0.55
   1  -3  11   -4.18    5.77
  -1   3 -12 1976.86   61.35
  -1   3 -12 2380.26   73.33
   1  -3  12 2048.13   63.80
  -1   3 -13    5.63    1.00
  -1   3 -13    4.30    0.62
   1  -3  13    4.48    2.40
  -1   3 -14  103.69    4.48
  -1   3 -14  103.14    3.89
   1  -3  14   80.63    3.64
  -1   3 -15   29.16    3.66
  -1   3 -16 2550.64   53.35
  -1   3 -16 3098.55   63.89
  -1   3 -17   49.20    7.80
   1  -3  17   52.37   10.84
  -1   3 -18    4.40    0.68
   1  -3  18    4.16    0.93
  -3   3  19   60.40    5.14
   3  -3 -18  380.02   14.16
  -3   3  18  246.08    9.58
  -3   3  18  276.47    9.67
   3  -3 -17   46.25    6.41
  -3   3  17   35.84    4.88
  -3   3  17   48.22    6.78
  -3   3  16 1707.63   51.91
  -3   3  15   32.72    2.90
   3  -3 -14  944.39   25.47
  -3   3  14  881.27   24.00
  -3   3  14  973.37   25.04
   3  -3 -13  231.26   13.74
  -3   3  13  235.15    9.05
  -3   3  13  230.38    8.09
   3  -3 -12 3589.29  111.80
  -3   3  12 3233.21  100.87
   3  -3 -11   61.24    3.26
  -3   3  11   66.92    3.21
   3  -3 -10  268.15    6.67
  -3   3  10  291.91    7.44
   3  -3  -9    1.40    1.21
  -3   3   9    4.15    1.18
   3  -3  -8  107.10    5.08
  -3   3   8   85.24    4.09
   3  -3  -7    4.47    1.36
  -3   3   7    3.83    1.32
   3  -3  -6  383.92    9.27
  -3   3   6  324.15    7.84
   3  -3  -5   49.95    4.87
  -3   3   5   39.34    3.91
   3  -3  -4 5280.74  762.62
  -3   3   4 5089.81   95.18
   3  -3  -3  336.98    8.52
  -3   3   3  333.84    8.09
   3  -3  -2 1546.92   30.45
  -3   3   2 1595.22   31.08
  -3   3   2 1396.30   26.22
   3  -3  -1  135.72    4.34
  -3   3   1  147.41    4.41
  -3   3   1  152.14    3.49
   3  -3   0 2588.00   49.13
  -3   3   0 2668.30   50.62
  -3   3   0 2625.07   48.74
   3  -3   1   74.05    6.41
  -3   3  -1   88.50    3.50
  -3   3  -1   66.33    5.46
   3  -3   2  241.87    5.83
  -3   3  -2  239.85    6.40
  -3   3  -2  217.96    4.72
   3  -3   3   11.40    2.25
  -3   3  -3   10.57    1.50
  -3   3  -3   13.60    2.88
   3  -3   4  245.95    5.83
  -3   3  -4  216.87    5.73
  -3   3  -4  286.53    6.13
   3  -3   5  724.41   15.88
  -3   3  -5  812.60   18.79
  -3   3  -5  751.52   16.24
   3  -3   5  736.56   15.99
   3  -3   6  645.59   14.06
  -3   3  -6  655.36   15.43
  -3   3  -6  687.48   15.02
   3  -3   6  639.53   14.01
   3  -3   7   12.82    2.70
  -3   3  -7    8.56    1.68
  -3   3  -7   13.49    3.57
   3  -3   7   15.34    2.62
  -3   3  -8 2733.30   46.55
   3  -3   8 2866.73   48.75
  -3   3  -9  160.68    4.63
  -3   3  -9  218.11    4.80
  -3   3  -9  188.05    4.51
   3  -3   9  192.24    5.09
  -3   3 -10  248.40    8.93
  -3   3 -10  305.27   10.01
  -3   3 -10  284.85    9.68
   3  -3  10  320.29   10.93
  -3   3 -11    7.50    1.35
  -3   3 -11    9.45    1.14
  -3   3 -11   10.22    2.15
   3  -3  11    7.70    4.47
  -3   3 -12 2587.90   65.85
  -3   3 -12 2171.51   53.81
  -3   3 -12 2443.40   61.26
   3  -3  12 2257.69   56.76
  -3   3 -13   80.51    8.66
  -3   3 -13  107.38    4.17
  -3   3 -13   88.57    4.68
   3  -3  13   89.86    4.17
  -3   3 -14  223.37   11.09
  -3   3 -14  257.15    8.19
   3  -3  14  263.76    9.06
  -3   3 -15    0.13    0.37
  -3   3 -15    0.83    0.78
  -3   3 -15    0.43    0.61
   3  -3  15   -0.04    0.83
  -3   3 -16    1.45    0.46
   3  -3  16    3.60    0.86
   3  -3  17   71.19    5.79
  -5   3  19   21.17    3.03
   5  -3 -18 1726.78   56.69
  -5   3  18 1349.92   44.61
   5  -3 -17   24.62    3.95
  -5   3  17   18.42    2.99
  -5   3  17   59.43    7.73
   5  -3 -16  395.04   13.94
  -5   3  16  358.33   12.97
  -5   3  16  337.11   11.26
  -5   3  15   32.17    3.17
   5  -3 -14  230.38    8.28
  -5   3  14  174.04    6.54
   5  -3 -13   21.70    3.23
  -5   3  13   20.81    2.46
   5  -3 -12 1219.55   39.26
  -5   3  12 1075.07   34.64
  -5   3  11  447.89   15.85
   5  -3 -10 2071.24   37.72
  -5   3  10 1665.04   30.40
   5  -3  -9   75.74    3.76
  -5   3   9   52.73    2.60
   5  -3  -8 2494.99   53.48
  -5   3   8 2232.57   47.94
   5  -3  -7    3.27    1.49
  -5   3   7    7.11    2.05
   5  -3  -6 2116.05   45.57
  -5   3   6 2200.21   47.38
   5  -3  -5    6.18    2.15
  -5   3   5    5.36    2.16
   5  -3  -4  547.49   13.38
  -5   3   4  591.46   14.64
   5  -3  -3  570.83   12.88
  -5   3   3  483.81   11.31
   5  -3  -2  313.76    7.89
  -5   3   2  312.50    8.55
   5  -3  -1   97.72    3.88
  -5   3   1   87.31    3.91
  -5   3   1   69.26    5.83
   5  -3   0  139.99    5.92
  -5   3   0  135.00    6.13
  -5   3   0  153.84    5.83
   5  -3   1   61.37    5.23
  -5   3  -1   66.08    3.86
  -5   3  -1   70.34    3.02
   5  -3   2  727.08   16.47
  -5   3  -2  725.48   17.38
  -5   3  -2  766.26   16.64
   5  -3   3    6.50    1.64
  -5   3  -3    7.79    2.03
  -5   3  -3    5.24    1.18
   5  -3   4 2333.86   48.94
  -5   3  -4 2474.11   52.90
  -5   3  -4 2348.53   48.88
   5  -3   5  195.66    5.21
  -5   3  -5  182.64    5.79
  -5   3  -5  248.57    6.36
   5  -3   6 2359.60   40.22
  -5   3  -6 2126.77   37.92
  -5   3  -6 2611.95   44.83
   5  -3   7   58.91    1.96
  -5   3  -7   52.41    2.73
  -5   3  -7   58.01    2.50
  -5   3  -8 1037.97   33.26
  -5   3  -9    8.51    1.44
  -5   3  -9   10.85    1.40
  -5   3  -9   11.73    2.25
  -5   3 -10  505.58   15.06
  -5   3 -10  474.27   12.76
  -5   3 -10  426.49   11.65
   5  -3  10  458.63   12.64
  -5   3 -11   17.93    4.21
  -5   3 -11   15.69    1.46
  -5   3 -11   13.57    2.90
   5  -3  11   12.81    1.50
  -5   3 -12  347.04   12.28
  -5   3 -12  354.72   11.27
  -5   3 -12  352.17   11.46
   5  -3  12  324.74   10.69
  -5   3 -13   -0.31    0.97
  -5   3 -13    4.26    1.62
  -5   3 -13    0.97    0.92
   5  -3  13   -1.02    1.30
  -5   3 -14 1156.04   24.96
   5  -3  14  990.94   22.15
  -5   3 -15   13.27    2.96
  -5   3 -15   22.64    3.70
   5  -3  15   11.71    1.79
  -7   3  19  137.80   10.90
  -7   3  18  110.35    5.78
  -7   3  17    2.58    1.72
   7  -3 -16  224.67    7.74
  -7   3  16  200.34    7.14
   7  -3 -15   20.41    3.96
  -7   3  15   24.87    3.44
   7  -3 -14 4115.47  399.32
  -7   3  14 3925.97  130.26
   7  -3 -13   83.86    4.90
  -7   3  13   74.93    4.15
   7  -3 -12 1129.99   30.51
  -7   3  12  833.18   22.65
   7  -3 -11  188.86    7.80
  -7   3  11  173.91   11.81
   7  -3 -10 3204.01  100.37
  -7   3  10 3010.01   94.59
   7  -3  -9    1.11    1.12
  -7   3   9   -1.01    1.25
   7  -3  -8  155.51    5.13
  -7   3   8  151.71    5.42
   7  -3  -7  105.86    4.08
  -7   3   7  104.92    4.59
   7  -3  -6   52.03    2.78
  -7   3   6   44.92    6.77
   7  -3  -5   48.26    4.66
  -7   3   5   38.80    5.85
   7  -3  -4 1452.62   32.26
  -7   3   4 1196.60   27.81
   7  -3  -3    1.74    1.20
  -7   3   3    3.66    2.16
   7  -3  -2 3737.34   78.44
  -7   3   2 4056.93   86.15
   7  -3  -1   44.88    3.60
  -7   3   1   42.53    3.49
  -7   3   1   38.36    2.20
   7  -3   0 2004.59   35.44
  -7   3   0 1993.69   34.47
   7  -3   1   89.87    6.94
  -7   3  -1   96.60    4.53
  -7   3  -1  100.37    3.27
   7  -3   2 2372.68   41.37
  -7   3  -2 2200.96   39.76
  -7   3  -2 2272.60   39.10
   7  -3   3    1.35    0.62
  -7   3  -3    2.77    1.81
  -7   3  -3    1.33    0.52
   7  -3   4   33.62    4.88
  -7   3  -4   24.30    3.81
  -7   3  -4   26.45    4.16
   7  -3   5  144.71   13.01
  -7   3  -5  132.53   12.12
  -7   3  -5  115.45   10.21
   7  -3   6  144.32   12.75
  -7   3  -6  122.90   11.25
  -7   3  -6  129.39   11.47
   7  -3   7  220.57    7.66
  -7   3  -7  214.44    8.51
  -7   3  -7  259.15    9.14
   7  -3   8  819.24   21.45
  -7   3  -8  684.83   19.55
  -7   3  -8  674.13   17.84
  -7   3  -9  114.78    5.70
  -7   3  -9  114.22    4.79
  -7   3  -9   97.86    4.22
  -7   3 -10 1819.68   55.83
  -7   3 -10 1654.48   49.38
  -7   3 -10 1541.95   46.18
  -7   3 -11   35.90    7.70
  -7   3 -11   26.82    3.70
  -7   3 -11   23.84    5.55
  -7   3 -12 1225.20   29.00
  -7   3 -12 1103.42   24.07
  -7   3 -12 1000.86   22.16
  -7   3 -13   54.44    8.41
  -9   3  17   -0.63    1.28
   9  -3 -16   69.67    4.23
  -9   3  16  103.26    5.81
   9  -3 -15    0.68    1.13
  -9   3  15    0.43    1.58
   9  -3 -14  423.65   11.36
  -9   3  14  425.21   11.66
   9  -3 -13   86.72    4.35
  -9   3  13   78.97    4.31
   9  -3 -12  121.24    5.84
  -9   3  12  138.39    7.02
   9  -3 -11  178.37    7.58
  -9   3  11  192.66    8.66
   9  -3 -10 1384.24   36.00
  -9   3  10 1525.24   40.45
   9  -3  -9   85.46    3.96
  -9   3   9   90.07    4.86
   9  -3  -8  111.66   10.35
  -9   3   8   91.65    8.90
   9  -3  -7  103.85   14.95
  -9   3   7   53.06    5.46
   9  -3  -6 5176.51  322.68
  -9   3   6 3964.65  247.69
   9  -3  -5    3.99    1.48
  -9   3   5    3.34    2.13
   9  -3  -4   28.41    4.59
  -9   3   4   28.37    3.62
   9  -3  -3  209.03    8.40
  -9   3   3  233.60    9.93
  -9   3   2  623.43   21.37
   9  -3  -1   20.93    3.11
  -9   3   1   20.85    2.79
  -9   3   1   17.51    2.09
   9  -3   0   47.87    7.53
  -9   3   0   45.96    4.89
   9  -3   2  801.48   26.22
   9  -3   3    8.26    1.96
  -9   3  -3    7.94    1.53
  -9   3  -3    9.96    1.40
   9  -3   4  226.36    7.13
  -9   3  -4  217.72    7.87
  -9   3  -4  224.65    6.91
   9  -3   5    1.79    0.98
  -9   3  -5    1.45    1.23
  -9   3  -5    0.58    0.55
   9  -3   6 2891.30   95.22
  -9   3  -6 2981.62   99.26
  -9   3  -6 2713.41   89.40
   9  -3   7    1.90    1.04
  -9   3  -7    1.77    1.30
  -9   3  -7    1.88    0.74
  -9   3  -8   85.90    4.49
  -9   3  -8   86.31    3.44
  -9   3  -9   28.82    4.33
  -9   3  -9   32.31    4.41
  -9   3  -9   28.43    5.82
  -9   3 -10 1156.98   39.30
 -11   3  16    1.38    1.37
 -11   3  15   16.50    2.36
 -11   3  14 1645.55   54.59
  11  -3 -13   45.31    7.43
 -11   3  13   46.48    7.82
 -11   3  12   68.27    3.83
  11  -3 -11  260.97    9.84
 -11   3  11  171.88    7.36
  11  -3 -10 4809.38 1333.95
 -11   3  10 3778.46  113.42
  11  -3  -9   39.67    5.81
 -11   3   9   30.30    4.15
  11  -3  -8   58.70    8.04
 -11   3   8   57.03    4.12
  11  -3  -7   21.66    4.06
 -11   3   7   18.54    2.60
  11  -3  -6  193.63   16.28
 -11   3   6  171.90    8.19
  11  -3  -5    9.51    1.87
 -11   3   5   11.00    1.95
  11  -3  -4   13.67    2.04
 -11   3   4   19.44    2.99
  11  -3  -3   14.32    3.44
 -11   3   3   10.64    2.02
  11  -3  -2 2798.08   93.01
 -11   3   2 2934.81   98.40
  11  -3  -1    1.60    0.97
 -11   3   1    4.74    2.28
 -11   3   1    2.56    1.35
  11  -3   0   99.98   13.31
 -11   3   0   59.95    4.15
 -11   3   0   47.86    2.63
  11  -3   1    6.72    1.55
 -11   3  -1    5.77    1.84
 -11   3  -1    9.60    1.79
  11  -3   2 3132.46   92.94
 -11   3  -2 3175.45   95.30
 -11   3  -2 3331.92   98.67
  11  -3   3   45.21   15.09
 -11   3  -3   47.57    3.46
 -11   3  -3   53.00    3.03
  11  -3   4   12.67    2.39
 -11   3  -4   16.70    2.84
 -11   3  -4   15.67    3.27
  11  -3   5   20.58    3.17
 -11   3  -5   17.30    3.05
 -11   3  -5   19.76    4.87
  11  -3   6   29.54    8.09
 -11   3  -6   21.89    4.04
 -11   3  -6   16.78    4.18
 -11   3  -7   22.40    4.24
 -11   3  -8    9.18    1.55
 -13   3  11    5.37    2.74
 -13   3  10  469.55   17.68
 -13   3   9  100.00    5.97
  13  -3  -8  117.62   11.16
 -13   3   8   98.90    5.97
  13  -3  -7    0.96    0.85
 -13   3   7   20.93    4.37
 -13   3   6 2535.03   82.61
  13  -3  -5   47.77   11.11
 -13   3   5   45.50    6.63
  13  -3  -4  292.77   12.06
 -13   3   4  283.00    9.80
 -13   3   3   -0.16    1.34
 -13   3   2 1332.11   45.08
 -13   3   2  993.10   32.66
 -13   3   1  171.84    8.38
 -13   3   1  115.71    4.92
  13  -3   0   45.46    7.75
 -13   3   0   57.76    9.47
 -13   3   0   49.35    7.79
 -13   3  -1    0.95    1.23
 -13   3  -1   -0.08    0.86
 -13   3  -2   87.24    5.26
 -13   3  -3  156.48   12.40
 -13   3  -4    3.43    1.24
 -12  -4  -1   -0.16   11.97
 -12  -4  -1    1.96    0.62
 -12  -4   0    5.61    1.56
 -12  -4   0    4.09    1.34
 -12  -4   2   16.94    4.40
 -12  -4   2   23.49    3.97
 -12  -4   3   30.49    8.00
 -12  -4   3   26.84    4.43
 -12  -4   4  121.28    4.87
 -12  -4   4  103.30    4.64
 -12  -4   5  134.45    5.41
 -12  -4   5   79.02   16.26
 -12  -4   6 1685.35   54.06
 -12  -4   7   18.66    4.63
 -12  -4   8  319.77   22.89
 -12  -4   8  226.35   16.27
 -12  -4   9   11.92    1.57
 -10  -4  -7   63.95    6.57
 -10  -4  -6  638.17   21.20
 -10  -4  -5   47.28    7.31
 -10  -4  -5   61.24   10.06
 -10  -4  -4   54.12    8.32
 -10  -4  -4   62.21    9.80
 -10  -4  -4   42.21    6.50
 -10  -4  -3   99.51    3.43
 -10  -4  -3   99.40    4.24
 -10  -4  -3   98.71    2.87
 -10  -4  -2  118.35    3.78
 -10  -4  -2  127.15    5.05
 -10  -4  -2   99.75    2.86
 -10  -4  -1   21.63    5.73
 -10  -4  -1   32.58    4.67
 -10  -4   0    6.94    3.11
 -10  -4   0    0.90    1.48
 -10  -4   1   48.25    3.78
 -10  -4   1   33.72    4.62
 -10  -4   2 3600.86  106.12
 -10  -4   2 4049.42  120.10
 -10  -4   3   13.73    2.96
 -10  -4   4   85.54    3.49
 -10  -4   4   70.76    3.53
 -10  -4   5  123.64    4.72
 -10  -4   5  118.79    5.30
 -10  -4   6 2497.59   73.79
 -10  -4   6 1947.91   57.83
 -10  -4   7   45.24    8.80
 -10  -4   7   69.88    3.00
 -10  -4   8   92.26    2.98
 -10  -4   8   85.82    2.83
 -10  -4   9   17.44    2.34
 -10  -4  10  250.79    5.56
 -10  -4  13    2.07    0.91
  -8  -4  -9   32.73    5.63
   8   4   9   21.73    3.68
  -8  -4  -8    0.11    0.24
  -8  -4  -7    2.79    1.71
   8   4   7    2.59    1.12
  -8  -4  -6 1533.90   34.41
  -8  -4  -5   14.32    8.07
  -8  -4  -5   16.91    2.34
  -8  -4  -4  425.20   13.50
  -8  -4  -4  526.42   17.60
  -8  -4  -4  410.95   12.33
  -8  -4  -3    8.35    1.05
  -8  -4  -3   -5.98    3.51
  -8  -4  -3    8.20    1.25
  -8  -4  -2 3907.79  128.48
  -8  -4  -2 2696.27   89.50
  -8  -4  -2 3397.94  111.06
  -8  -4  -1   40.82    3.27
  -8  -4  -1   56.27    5.43
  -8  -4   0  320.01    8.71
  -8  -4   0  401.88   11.73
  -8  -4   1   43.41    3.22
  -8  -4   1   42.52    3.45
  -8  -4   2  114.91    3.70
  -8  -4   2  133.66    5.02
  -8  -4   3  184.92    5.38
  -8  -4   3  227.16    7.23
  -8  -4   4   14.98    2.56
  -8  -4   4   16.69    1.66
  -8  -4   5    7.28    1.26
  -8  -4   5    7.81    1.10
  -8  -4   6 1540.00   38.32
  -8  -4   6 1576.96   39.43
  -8  -4   7  271.76    9.43
  -8  -4   7  248.47    8.59
  -8  -4   8  278.34    9.35
  -8  -4   9    8.64    1.20
  -8  -4  10 2280.04   68.19
  -8  -4  11   12.36    3.33
  -8  -4  12  136.37    4.51
  -8  -4  13    0.89    0.90
  -8  -4  14  191.13    7.33
  -6  -4 -11   22.24    3.86
   6   4  11   21.64    3.99
  -6  -4 -10 1371.77   30.55
   6   4  10 1583.37   34.97
  -6  -4  -9   74.64    5.01
   6   4   9   60.56    3.21
  -6  -4  -8 1921.88   58.05
   6   4   8 1917.06   57.54
  -6  -4  -7    4.07    7.81
   6   4   7    2.50    2.05
  -6  -4  -6 1331.18   45.05
  -6  -4  -5  158.47    6.29
   6   4   5  170.03    6.05
  -6  -4  -4  570.67   15.88
   6   4   4  655.71   17.74
  -6  -4  -3   52.91    5.28
   6   4   3   71.77    6.79
  -6  -4  -2    2.77    2.26
   6   4   2    4.11    0.86
  -6  -4  -2    8.04    0.73
  -6  -4  -1  362.04   12.45
   6   4   1  360.52   11.99
  -6  -4   0  104.10    9.45
   6   4   0  156.72   13.77
  -6  -4   1   22.09    2.37
   6   4  -1   23.21    2.36
  -6  -4   2 2064.03   63.89
  -6  -4   2 1551.58   48.38
  -6  -4   3   53.06    4.74
  -6  -4   3   51.61    4.81
  -6  -4   3   36.73    3.53
  -6  -4   4 1817.01   56.24
  -6  -4   4 1358.64   42.32
  -6  -4   5    9.90    2.06
  -6  -4   5    5.19    0.78
  -6  -4   5    1.51    1.09
  -6  -4   6 2965.76   91.33
  -6  -4   6 2239.05   69.10
  -6  -4   6 2263.99   70.17
  -6  -4   7  106.28    9.21
  -6  -4   7   83.86    7.31
  -6  -4   7   78.86    7.23
  -6  -4   8 1028.08   26.54
  -6  -4   9   34.22    2.64
  -6  -4  10    4.57    1.02
  -6  -4  11    4.06    0.70
  -6  -4  12  172.45    6.22
  -6  -4  13    2.36    0.59
  -6  -4  14  994.37   21.94
  -6  -4  15   -0.55    1.06
  -6  -4  16  854.37   28.27
  -6  -4  17   40.86    6.95
  -4  -4 -13  207.25    8.37
   4   4  13  199.70    8.02
  -4  -4 -12 2524.30   54.21
   4   4  12 2171.56   46.60
  -4  -4 -11   12.89    5.29
   4   4  11   33.80    4.66
  -4  -4 -10  415.89   14.05
   4   4  10  396.64   13.17
  -4  -4  -9   78.66    4.54
   4   4   9   73.77    3.64
  -4  -4  -8  243.84    8.04
   4   4   8  208.67    6.70
  -4  -4  -7   95.38    8.93
   4   4   7   82.20    7.52
  -4  -4  -6  320.61   11.78
  -4  -4  -5   36.15    4.29
   4   4   5   31.68    3.21
  -4  -4  -4 2159.71   67.62
   4   4   4 2088.51   65.10
  -4  -4  -3   17.98   13.44
   4   4   3   25.17    8.06
  -4  -4  -2 1926.73   33.63
   4   4   2 2096.37   36.18
  -4  -4  -1   25.97    4.02
   4   4   1   24.76    4.44
  -4  -4   0 2961.60   50.16
  -4  -4   0 2954.00   48.80
  -4  -4   1   59.20    2.12
   4   4  -1   80.83    2.53
  -4  -4   1   76.42    1.79
  -4  -4   2  936.85   17.01
   4   4  -2  967.15   16.94
  -4  -4   2  821.49   14.08
  -4  -4   3   27.56    3.95
   4   4  -3   42.06    5.84
  -4  -4   3   27.96    4.17
  -4  -4   4  147.88    3.75
   4   4  -4  168.22    3.54
  -4  -4   4  140.38    3.18
  -4  -4   5   47.58    4.01
  -4  -4   5   34.80    4.91
  -4  -4   5   11.78    1.80
  -4  -4   6  421.58    7.22
  -4  -4   6  434.53    8.39
  -4  -4   7  487.07   15.80
  -4  -4   8 1434.87   44.81
  -4  -4   9  190.88    8.83
  -4  -4  10 1336.35   34.58
  -4  -4  11    0.65    0.33
  -4  -4  12 1289.45   43.25
  -4  -4  13    1.20    0.73
  -4  -4  14  489.06   11.51
  -4  -4  15  117.80    3.94
  -4  -4  16   54.16    9.31
  -4  -4  17   32.01    6.80
  -2  -4 -14   -0.49    1.13
   2   4  14    8.30    1.53
  -2  -4 -13   32.54    4.53
   2   4  13   26.60    3.68
  -2  -4 -12  303.40   10.36
   2   4  12  341.72   11.60
  -2  -4 -11   14.40    1.69
   2   4  11   43.03    3.35
  -2  -4 -10  275.33    8.44
   2   4  10  291.58    8.82
  -2  -4  -9  184.77    8.29
   2   4   9  227.16    7.35
  -2  -4  -8 3152.48   97.97
   2   4   8 3657.32  113.47
  -2  -4  -7    6.49    2.16
  -2  -4  -6   99.89    3.52
   2   4   6   90.22    3.09
  -2  -4  -5  112.61    3.96
   2   4   5  108.98    3.55
  -2  -4  -4 1797.56   31.99
   2   4   4 1514.79   26.53
  -2  -4  -3   12.16    2.20
   2   4   3   11.62    2.27
  -2  -4  -2    7.25    1.57
   2   4   2    5.27    1.57
  -2  -4  -1  677.57   15.30
   2   4   1  652.06   14.29
  -2  -4   0  189.91    5.40
   2   4   0  164.48    6.10
  -2  -4   1  148.38    5.99
   2   4  -1  127.92    4.89
  -2  -4   1  152.59    5.33
  -2  -4   2  384.39    9.55
   2   4  -2  358.70    8.10
  -2  -4   2  379.55    8.29
  -2  -4   3    9.56    1.90
   2   4  -3    8.72    1.59
  -2  -4   3    9.17    2.00
  -2  -4   4 2129.41   36.50
  -2  -4   4 2012.99   33.91
  -2  -4   5    2.27    0.63
   2   4  -5    1.83    0.49
  -2  -4   5    1.76    0.54
  -2  -4   6  272.32    4.90
   2   4  -6  307.50    5.38
  -2  -4   6  283.20    5.70
  -2  -4   7  156.65    6.50
  -2  -4   8 3397.29  105.27
  -2  -4   9   -1.07    0.97
  -2  -4  10    7.13    1.27
  -2  -4  11   63.95    2.66
  -2  -4  12   17.40    3.28
  -2  -4  13    6.98    1.15
  -2  -4  14  224.78    6.19
  -2  -4  15   29.10    5.85
  -2  -4  16 1771.04   56.84
  -2  -4  17   16.63    4.32
   0   4  16  517.04   18.13
   0   4  16  580.56   18.84
   0  -4 -15   56.91    8.94
   0   4  15   96.83    4.79
   0   4  15   60.67    9.15
   0  -4 -14   21.57    3.21
   0   4  14   20.15    2.95
   0  -4 -13   10.82    3.60
   0   4  13   15.59    2.27
   0   4  13   21.49    2.23
   0  -4 -12 3243.72  107.30
   0   4  12 2802.83   92.75
   0  -4 -11   -2.55    2.55
   0   4  11    6.10    1.24
   0  -4 -10   82.03    4.53
   0   4  10   82.65    3.51
   0  -4  -9  321.54   12.76
   0   4   9  299.75   10.50
   0  -4  -8 2155.25   67.77
   0   4   8 2097.54   65.70
   0  -4  -7  108.45    4.07
   0   4   7  110.39    3.82
   0  -4  -6    8.57    1.90
   0   4   6   12.55    2.10
   0  -4  -5   42.87    6.22
   0   4   5   46.14    6.63
   0  -4  -4 1563.64   28.29
   0   4   4 1409.61   25.02
   0  -4  -3   10.27    2.04
   0   4   3   10.36    1.91
   0  -4  -2   21.35    2.38
   0   4   2    8.44    1.70
   0  -4  -1    7.79    2.64
   0  -4   0 5692.87  118.48
   0   4   0 6149.81  127.05
   0  -4   1    5.19    1.81
   0  -4   2    8.52    1.77
   0   4  -2    8.55    1.74
   0  -4   3    6.74    1.37
   0   4  -3    8.86    5.14
   0  -4   3    7.20    1.28
   0  -4   4 1370.48   24.10
   0  -4   4 1422.17   24.44
   0  -4   5   36.91    5.73
   0   4  -5   35.21    4.88
   0  -4   5   36.46    5.10
   0  -4   6   14.42    2.99
   0   4  -6    0.78    0.81
   0  -4   6    9.63    1.64
   0  -4   7   97.65    2.18
   0  -4   7   94.00    2.70
   0  -4   8 1837.36   57.15
   0   4  -9  335.71   10.46
   0  -4   9  292.29    9.95
   0  -4  10   78.39    3.67
   0  -4  11    4.05    1.07
   0  -4  12 3184.84  104.90
   0  -4  13   17.60    4.53
   0  -4  14   28.33    6.91
   0  -4  15   46.69   10.24
   0  -4  16  486.17   16.68
   0  -4  17  182.73   13.43
  -2   4  17   21.44    3.43
  -2   4  16 2064.17   66.74
  -2   4  16 2476.82   78.52
   2  -4 -15   21.96    3.92
  -2   4  15   38.02    5.13
  -2   4  15   40.07    5.78
  -2   4  14  247.29    7.46
  -2   4  14  224.13    5.21
   2  -4 -13    6.15    1.96
  -2   4  13   13.07    2.30
  -2   4  13    6.73    1.10
   2  -4 -12    9.56    1.60
  -2   4  12   10.14    1.58
  -2   4  12    9.26    1.66
   2  -4 -11   89.20    4.25
  -2   4  11   82.46    4.11
  -2   4  11   69.02    2.11
   2  -4 -10    7.40    1.50
  -2   4  10    7.86    1.55
  -2   4  10    8.22    1.41
   2  -4  -9   -1.12    5.38
  -2   4   9    2.29    1.66
  -2   4   9    0.95    0.31
   2  -4  -8 4104.19  255.90
  -2   4   8 4142.99  258.24
  -2   4   8 3537.27  108.69
   2  -4  -7  217.58    6.46
  -2   4   7  192.02    5.51
  -2   4   7  159.68    3.02
   2  -4  -6  362.85    9.02
  -2   4   6  331.89    7.86
  -2   4   6  315.50    5.58
   2  -4  -5    3.22    1.81
  -2   4   5    5.21    1.26
  -2   4   5    3.02    0.60
  -2   4   4 2653.51   45.79
   2  -4  -3    9.10    1.99
  -2   4   3   12.39    2.39
  -2   4   3   12.30    2.25
   2  -4  -2  328.52    8.94
  -2   4   2  364.75    9.07
  -2   4   2  336.60    7.33
   2  -4  -1  159.52    7.06
  -2   4   1  141.60    5.69
  -2   4   1  137.69    4.90
   2  -4   0  166.49    6.97
  -2   4   0  167.99    6.42
  -2   4   0  178.92    4.25
   2  -4   1  626.44   14.81
  -2   4  -1  648.18   14.57
  -2   4  -1  697.88   14.94
   2  -4   2    4.79    1.26
  -2   4  -2    3.12    1.28
  -2   4  -2    3.71    0.84
   2  -4   3   14.88    3.78
  -2   4  -3   10.08    1.77
  -2   4  -3   11.27    2.76
   2  -4   4 1545.10   27.10
  -2   4  -4 1305.05   22.88
  -2   4  -4 1457.48   25.07
   2  -4   5   96.52    2.75
  -2   4  -5  123.75    3.68
  -2   4  -5  100.92    2.76
   2  -4   5  110.03    2.95
   2  -4   6   94.66    2.70
  -2   4  -6   98.05    3.08
  -2   4  -6   98.92    2.86
   2  -4   6   81.05    2.38
   2  -4   7   15.18    2.43
  -2   4  -7    9.29    1.30
  -2   4  -7   14.32    4.01
   2  -4   7    8.93    1.43
   2  -4   8 3252.67  100.16
  -2   4  -8 3306.91  102.29
   2  -4   8 3147.65   97.37
  -2   4  -9  260.83    7.66
  -2   4  -9  241.17    6.50
  -2   4  -9  279.19    8.18
   2  -4   9  234.91    7.19
  -2   4 -10  337.70    9.48
  -2   4 -10  344.02    9.02
  -2   4 -10  444.57   12.69
  -2   4 -11   38.90    2.75
  -2   4 -11   44.18    2.70
  -2   4 -11   45.53    3.22
   2  -4  11   38.56    3.01
  -2   4 -12  405.51   12.33
   2  -4  12  368.53   12.08
  -2   4 -13   33.59    4.33
   2  -4  13   29.82    3.99
   2  -4  14   -0.26    0.79
  -2   4 -15   69.81    3.06
   2  -4  15   65.79   10.15
  -4   4  16   76.68    4.41
  -4   4  16   71.14    3.66
   4  -4 -15  220.58    8.09
  -4   4  15  208.12    7.43
  -4   4  15  176.98    4.69
   4  -4 -14  906.52   22.22
  -4   4  14  755.11   18.69
  -4   4  14  731.54   16.22
   4  -4 -13    1.27    9.95
  -4   4  13    1.81    1.22
  -4   4  13    0.69    1.16
   4  -4 -12 1884.87   63.56
  -4   4  12 1887.21   63.68
   4  -4 -11    4.14    2.34
  -4   4  11    3.49    1.66
   4  -4 -10 1910.66   49.22
  -4   4  10 1762.37   45.37
   4  -4  -9  311.09   11.67
  -4   4   9  250.48    9.31
   4  -4  -8 2099.11   66.60
  -4   4   8 1807.29   57.19
   4  -4  -7  625.57   21.22
  -4   4   7  588.81   19.79
   4  -4  -6  526.25   12.03
  -4   4   6  439.96    9.73
   4  -4  -5   44.73    6.67
  -4   4   5   33.46    4.92
  -4   4   5   33.68    4.70
   4  -4  -4  143.82    4.89
  -4   4   4  145.24    4.46
  -4   4   4  156.21    3.55
   4  -4  -3   35.10    5.32
  -4   4   3   36.15    5.38
  -4   4   3   36.84    5.16
   4  -4  -2  838.37   16.61
  -4   4   2  869.58   16.88
  -4   4   2  948.22   16.67
   4  -4  -1   67.71    3.05
  -4   4   1   63.74    2.81
  -4   4   1   65.38    1.88
   4  -4   1   38.88    7.80
  -4   4  -1   27.76    4.28
  -4   4  -1   30.12    5.68
   4  -4   2 1597.10   28.33
  -4   4  -2 1655.35   29.78
  -4   4  -2 1949.95   33.36
   4  -4   3   19.25    4.06
  -4   4  -3   16.19    2.67
  -4   4  -3   19.76    3.38
   4  -4   4 1712.87   53.48
  -4   4  -4 1700.02   53.66
  -4   4  -4 1596.95   49.63
   4  -4   5   40.59    4.51
  -4   4  -5   41.95    4.38
  -4   4  -5   37.53    3.85
   4  -4   6  228.30    7.74
  -4   4  -6  248.60    9.33
  -4   4  -6  255.60    8.69
   4  -4   7   85.09    7.66
  -4   4  -7   82.26    7.69
  -4   4  -7   79.09    7.10
   4  -4   8  192.55    5.52
  -4   4  -8  189.43    6.60
  -4   4  -8  208.22    6.31
   4  -4   9   95.08    3.83
  -4   4  -9   61.43    3.37
  -4   4  -9   73.17    3.30
  -4   4 -10  366.36   12.59
  -4   4 -10  388.00   12.50
   4  -4  10  387.27   12.58
  -4   4 -11   16.20    2.43
  -4   4 -11   20.75    2.43
  -4   4 -11   17.32    4.06
   4  -4  11   11.81    1.93
   4  -4  12 2189.06   46.59
  -4   4 -13  188.05    7.54
  -4   4 -13  233.89    8.07
  -4   4 -13  272.21   10.16
   4  -4  13  204.00    7.76
  -4   4 -14  388.03   27.88
   4  -4  14  405.46   14.06
  -6   4  16 1249.64   41.92
   6  -4 -15    3.47    3.12
  -6   4  15    2.01    2.42
   6  -4 -14 1708.79   38.37
  -6   4  14 1741.84   39.34
   6  -4 -13    3.17    2.50
  -6   4  13    2.36    1.16
   6  -4 -12  213.93    8.75
  -6   4  12  213.54    8.44
   6  -4 -11    3.30    1.80
  -6   4  11    2.54    1.43
   6  -4 -10    1.91    1.23
  -6   4  10    3.01    1.19
   6  -4  -9   47.22    4.16
  -6   4   9   39.22    3.51
   6  -4  -8 1031.51   27.84
  -6   4   8  895.42   24.14
   6  -4  -7   92.94    8.81
  -6   4   7   88.25    8.46
   6  -4  -6 2697.29   84.66
  -6   4   6 2762.14   86.75
   6  -4  -5    9.03    2.00
  -6   4   5    7.24    1.64
   6  -4  -4 1548.01   49.20
  -6   4   4 1233.64   38.56
   6  -4  -3   50.26    4.98
  -6   4   3   53.48    5.57
  -6   4   3   52.50    4.91
  -6   4   2 1649.44   52.55
  -6   4   2 1679.88   52.36
   6  -4  -1   30.54    4.14
  -6   4   1   19.31    2.48
  -6   4   1   23.58    2.43
   6  -4   0   90.13   10.58
  -6   4   0   98.93    9.40
  -6   4   0  103.78    9.24
   6  -4   1  288.49   10.27
  -6   4  -1  287.08   10.81
  -6   4  -1  265.17    8.89
   6  -4   2    3.21    0.56
  -6   4  -2    2.97    0.90
  -6   4  -2    4.32    0.82
   6  -4   3   51.81    5.51
  -6   4  -3   44.59    4.67
  -6   4  -3   43.53    4.61
   6  -4   4  444.38   12.45
  -6   4  -4  488.47   14.72
  -6   4  -4  519.98   13.96
   6  -4   5  170.86    5.49
  -6   4  -5  156.86    6.27
  -6   4  -5  188.02    5.87
   6  -4   6 1030.09   34.49
  -6   4  -6 1018.07   35.30
  -6   4  -6  959.47   32.10
   6  -4   7    8.64    1.82
  -6   4  -7    7.84    1.70
  -6   4  -7    8.54    1.87
   6  -4   8 1686.22   50.10
  -6   4  -8 1618.28   49.83
  -6   4  -8 1646.92   49.14
   6  -4   9  106.40    4.17
  -6   4  -9   68.66    4.14
  -6   4  -9   81.20    3.55
  -6   4 -10 1201.10   28.21
  -6   4 -10 1494.22   32.01
  -6   4 -10 1238.90   26.89
  -6   4 -11   16.82    3.17
  -6   4 -11   21.77    6.03
  -8   4  15  196.73    8.54
  -8   4  14  295.55   12.05
   8  -4 -13    2.80    1.52
  -8   4  13   11.17    2.63
   8  -4 -12  177.25    6.44
  -8   4  12  153.51    6.08
   8  -4 -11   11.45    2.09
  -8   4  11   12.12    2.14
   8  -4 -10 2147.14   64.75
  -8   4  10 2236.14   67.66
   8  -4  -9   20.47    3.01
  -8   4   9   21.15    3.35
   8  -4  -8  413.96   15.40
  -8   4   8  428.98   16.36
   8  -4  -7  314.17   12.14
  -8   4   7  253.22   10.22
   8  -4  -6 2151.05   55.36
  -8   4   6 1787.64   47.05
   8  -4  -5    9.13    1.85
  -8   4   5    6.37    1.54
   8  -4  -4   14.84    2.73
  -8   4   4    8.91    1.80
   8  -4  -3  182.31    6.40
  -8   4   3  142.76    4.66
   8  -4  -2  102.69    8.51
  -8   4   2  101.50    3.73
   8  -4  -1   40.90    5.28
  -8   4   1   35.04    3.66
  -8   4   1   45.07    3.46
   8  -4   0  282.17    8.70
  -8   4   0  316.21   10.72
  -8   4   0  329.44    9.43
   8  -4   1   43.03    7.68
  -8   4  -1   37.78    3.82
  -8   4  -1   44.43    5.54
   8  -4   2 3175.08  104.90
  -8   4  -2 3491.47  116.46
  -8   4  -2 3353.22  110.36
   8  -4   3    6.56    0.94
  -8   4  -3    6.48    1.34
  -8   4  -3    6.69    1.50
   8  -4   4  347.14   11.46
  -8   4  -4  409.21   14.81
  -8   4  -4  330.60   10.66
   8  -4   5   14.52    3.09
  -8   4  -5   13.22    2.38
  -8   4  -5   16.50    3.86
   8  -4   6 1196.66   26.22
  -8   4  -6 1240.66   29.87
  -8   4  -6 1212.97   26.65
   8  -4   7    4.32    1.49
  -8   4  -7    5.38    2.50
  -8   4  -7    2.67    1.15
   8  -4   8   10.87    2.12
  -8   4  -8    9.19    2.33
  -8   4  -8    8.97    1.83
  -8   4  -9   20.48    5.30
 -10   4  13   27.72    3.78
 -10   4  12   12.35    2.21
 -10   4  11   27.54    5.51
  10  -4 -10  379.76   10.95
 -10   4  10  341.61   10.95
 -10   4   9   15.89    2.77
  10  -4  -8  156.74   22.56
 -10   4   8  154.12    6.77
  10  -4  -7   55.98   12.99
 -10   4   7   40.35    5.84
  10  -4  -6 2413.11   72.27
 -10   4   6 2173.96   66.30
  10  -4  -5  151.58    6.40
 -10   4   5  106.68    5.29
  10  -4  -4   97.00    9.19
 -10   4   4   72.12    4.94
  10  -4  -3   12.85    2.37
 -10   4   3   15.00    2.84
 -10   4   3    8.57    1.42
  10  -4  -2 2796.32   83.19
 -10   4   2 3129.01   94.29
 -10   4   2 2808.94   83.31
  10  -4  -1   51.38    8.49
 -10   4   1   49.31    3.65
 -10   4   1   54.14    2.92
  10  -4   0    2.71    1.26
 -10   4   0    6.59    2.91
 -10   4   0    7.72    2.52
  10  -4   1   23.29    5.38
 -10   4  -1   24.08    4.01
 -10   4  -1   27.22    3.81
  10  -4   2  108.17    8.14
 -10   4  -2  112.60    5.60
 -10   4  -2   84.73    6.02
  10  -4   3   69.94    7.13
 -10   4  -3  128.02    6.89
 -10   4  -3   77.74    3.04
  10  -4   4   47.27   10.33
 -10   4  -4   56.38    9.27
 -10   4  -4   38.36    7.85
  10  -4   5   58.43   10.64
 -10   4  -5   57.30    9.46
 -10   4  -5   43.56    7.51
  10  -4   6  651.44   21.77
 -12   4   8  327.86   24.48
 -12   4   7   15.67    2.73
 -12   4   5  136.78    7.43
 -12   4   4  130.44    7.14
  12  -4  -3   34.83    8.37
 -12   4   3   31.03    5.54
  12  -4  -2   20.96    5.84
 -12   4   2   18.48    3.59
 -12   4   1  101.05    4.70
  12  -4   1    1.70    0.84
 -12   4  -2 2397.28  169.10
  -9  -5  -3   66.28    5.13
  -9  -5  -3   59.50    5.14
  -9  -5  -2  353.74   12.99
  -9  -5  -1  164.35    5.29
  -9  -5   0    3.30    1.09
  -9  -5   0    3.23    1.19
  -9  -5   0   -0.13    0.15
  -9  -5   1  329.59   11.31
  -9  -5   1  317.44   10.54
  -9  -5   2  461.61   15.40
  -9  -5   2  379.23   13.29
  -9  -5   2  409.79   13.55
  -9  -5   3  163.03    5.92
  -9  -5   3  173.22    6.88
  -9  -5   3  167.14    6.02
  -9  -5   4   59.73    9.18
  -9  -5   4   52.31    8.02
  -9  -5   5   37.46    6.70
  -9  -5   5   28.74    4.55
  -9  -5   5    0.59    0.50
  -9  -5   6 2065.95   66.09
  -9  -5   7   44.60    7.73
  -9  -5   7   43.50    6.60
  -9  -5   7   61.56   10.12
  -9  -5   8   44.23    6.87
  -9  -5   9   91.47    7.52
  -9  -5  10  813.46   57.36
   7   5   7  123.24    9.37
   7   5   6   48.34    7.59
  -7  -5  -5  235.17    9.58
   7   5   5  230.79    8.74
  -7  -5  -4   81.09    4.49
   7   5   4   75.63    3.74
  -7  -5  -3   55.15    7.35
   7   5   3   69.54    3.01
  -7  -5  -2 1685.19   37.02
   7   5   2 1446.66   31.12
  -7  -5   0  844.37   18.49
  -7  -5   0  714.10   16.54
  -7  -5   1   97.15    3.75
  -7  -5   1   66.78    3.14
  -7  -5   2 2319.63   68.34
  -7  -5   2 1872.23   55.69
  -7  -5   2 1978.90   58.08
  -7  -5   3    2.42    0.56
  -7  -5   3    7.86    1.49
  -7  -5   4  563.28   17.09
  -7  -5   4  448.86   14.11
  -7  -5   5    7.38    2.35
  -7  -5   5    6.61    2.10
  -7  -5   5    2.85    1.29
  -7  -5   6   34.05    4.95
  -7  -5   6   19.16    2.53
  -7  -5   6   22.47    3.16
  -7  -5   7   80.76    2.24
  -7  -5   7   38.53    6.40
  -7  -5   8   13.04    2.87
  -7  -5   9   30.36    5.72
  -7  -5  10 1127.99   36.56
  -7  -5  11  163.43    6.64
  -7  -5  13   25.31    3.83
   5   5   9   37.80    6.04
  -5  -5  -8  403.68   14.24
   5   5   8  474.50   16.33
  -5  -5  -7    0.36    1.06
   5   5   7    5.79    2.72
  -5  -5  -6 1173.52   26.11
   5   5   6 1444.74   31.37
  -5  -5  -5    2.88   14.26
   5   5   5    2.53    1.77
  -5  -5  -4 2189.19   65.39
   5   5   4 2290.24   67.98
   5   5   3    1.66    2.75
  -5  -5  -2  548.90   17.42
   5   5   2  641.80   19.81
  -5  -5  -1   78.65    3.82
   5   5   1   81.99    3.56
  -5  -5   0  296.19   10.92
   5   5   0  339.76   11.94
  -5  -5   1    1.63    0.97
   5   5  -1    1.60    0.81
  -5  -5   2   97.57    4.32
   5   5  -2  100.89    4.00
  -5  -5   2   92.02    3.26
  -5  -5   3  328.24   11.73
   5   5  -3  386.18   13.16
  -5  -5   3  291.82    9.80
  -5  -5   4  824.75   27.94
  -5  -5   4  799.16   26.49
  -5  -5   5   42.73   11.92
  -5  -5   5   38.21    4.08
  -5  -5   5   39.58    4.06
  -5  -5   6 1345.13   39.51
  -5  -5   6 1148.65   34.22
  -5  -5   7   14.02    3.07
  -5  -5   8 1034.11   30.97
  -5  -5   9    4.43    2.00
  -5  -5  10  978.97   21.37
  -5  -5  11  222.50    8.07
  -5  -5  13   27.05    4.07
  -5  -5  14   37.67    8.29
  -3  -5 -11   13.28    2.21
   3   5  11   13.38    2.71
  -3  -5 -10  492.98   17.63
   3   5  10  425.13   14.92
  -3  -5  -9   84.37    4.32
   3   5   9   79.30    3.75
  -3  -5  -8 2101.41   45.78
   3   5   8 1921.92   41.48
  -3  -5  -7   18.72    2.65
   3   5   7   19.31    3.68
  -3  -5  -6  123.09    5.52
   3   5   6  101.02    4.19
  -3  -5  -5  436.03   15.83
   3   5   5  438.47   15.46
  -3  -5  -4   11.05    1.45
   3   5   4    8.47    1.39
  -3  -5  -3   50.93    5.47
   3   5   3   56.73    2.79
  -3  -5  -2  305.33    9.27
   3   5   2  297.52    8.47
  -3  -5  -1   13.69    1.69
   3   5   1   16.30    4.09
  -3  -5   0 1788.27   45.26
   3   5   0 2032.80   50.68
  -3  -5   1   10.84    1.62
   3   5  -1    6.74    1.18
  -3  -5   2  727.05   19.52
   3   5  -2  791.77   20.19
  -3  -5   3  121.54    4.66
   3   5  -3  137.26    4.12
  -3  -5   3  130.55    3.73
  -3  -5   4 2686.91   67.33
   3   5  -4 2262.33   55.82
  -3  -5   4 2277.99   56.25
  -3  -5   5    6.43    0.89
   3   5  -5    7.45    0.80
  -3  -5   5    6.89    1.17
  -3  -5   6  112.98    4.00
  -3  -5   6  117.17    4.42
  -3  -5   7   20.15    2.51
  -3  -5   8   19.12    3.92
  -3  -5   9    0.96    0.28
  -3  -5  10  146.31    4.08
  -3  -5  11   39.34    6.84
  -3  -5  12 1140.70   37.05
  -3  -5  13   26.44    4.18
   1   5  12  975.83   32.33
  -1  -5 -11   12.56    1.89
   1   5  11   15.83    1.94
  -1  -5 -10    5.09    2.00
   1   5  10    3.24    1.29
  -1  -5  -9   18.99    3.10
   1   5   9   13.55    2.14
  -1  -5  -8  466.06   15.70
   1   5   8  406.38   13.22
  -1  -5  -7  134.47    5.80
   1   5   7  114.99    4.62
  -1  -5  -6  111.87    5.34
   1   5   6   95.33    4.25
  -1  -5  -5   52.49    5.80
   1   5   5   37.98    2.91
  -1  -5  -4 3766.17  204.75
   1   5   4 3638.54   90.30
  -1  -5  -3   94.06    3.92
   1   5   3   81.08    3.44
  -1  -5  -2   63.23    3.50
   1   5   2   40.98    3.19
  -1  -5  -1   10.83    1.74
   1   5   1   12.19    4.09
  -1  -5   0 1730.56   54.79
   1   5   0 1534.28   47.82
  -1  -5   1    3.88    1.58
   1   5  -1    1.83    0.80
  -1  -5   2   37.08    3.23
   1   5  -2   20.77    1.79
  -1  -5   3  223.55    6.94
   1   5  -3  262.33    7.16
  -1  -5   4  570.84   15.12
  -1  -5   4  582.91   14.90
  -1  -5   5  287.35    7.95
   1   5  -5  255.69    6.74
  -1  -5   5  282.09    7.68
  -1  -5   6  103.13    3.77
   1   5  -6  114.05    4.05
  -1  -5   6  125.88    4.82
  -1  -5   7  150.05    5.17
   1   5  -7  139.05    4.77
  -1  -5   7  120.58    4.68
  -1  -5   8 2401.55   70.93
  -1  -5   9    1.93    0.71
  -1  -5  10  125.10    3.92
  -1  -5  11   35.34    4.96
  -1  -5  12 1125.88   36.60
  -1  -5  13   59.49    9.15
  -1  -5  14    2.25    0.92
  -1   5  13   65.95    5.51
   1  -5 -12 1274.26   42.29
  -1   5  12 1052.36   34.83
   1  -5 -11   39.25    5.35
  -1   5  11   36.21    4.88
   1  -5 -10  129.79    4.95
  -1   5  10  119.80    4.51
   1  -5  -9    2.40    1.53
  -1   5   9    2.10    1.61
   1  -5  -8 3353.49  100.25
  -1   5   8 2544.46   75.89
   1  -5  -7  147.17    6.89
  -1   5   7  134.81    5.76
   1  -5  -6  134.00    6.41
  -1   5   6  138.06    6.08
   1  -5  -5  310.64    9.91
  -1   5   5  307.73    9.23
   1  -5  -4  658.80   18.39
  -1   5   4  789.57   21.23
   1  -5  -3  306.81   10.06
  -1   5   3  324.48    9.67
   1  -5  -2   27.26    2.66
  -1   5   2   31.32    2.70
   1  -5  -1    1.94    1.27
  -1   5   1    0.82    0.82
   1  -5   0 1532.65   48.82
  -1   5   0 1824.09   57.05
   1  -5   1    8.50    1.28
  -1   5  -1   12.20    1.45
   1  -5   2   52.04    3.63
  -1   5  -2   63.08    6.86
   1  -5   3  110.50    4.27
  -1   5  -3   95.28   18.98
   1  -5   4 2979.98   73.87
  -1   5  -4 3781.56  205.12
   1  -5   5   47.12    5.48
  -1   5  -5   41.52    3.00
   1  -5   6  111.18    4.32
  -1   5  -6   97.29    3.76
   1  -5   7  130.11    4.39
  -1   5  -7  141.15    4.74
   1  -5   7  125.42    4.50
   1  -5   8  421.10   12.67
   1  -5   8  366.02   11.54
  -1   5  -9   17.57    2.25
  -1   5  -9   20.18    2.53
   1  -5   9   15.31    2.19
  -1   5 -10    4.01    1.16
   1  -5  10    2.05    0.92
   1  -5  11   16.16    4.38
   1  -5  13  123.17    9.29
  -3   5  12 1781.20   58.34
   3  -5 -11   73.75    4.44
  -3   5  11   54.38    7.16
   3  -5 -10  256.08    8.83
  -3   5  10  220.81    7.39
   3  -5  -9    5.10    2.08
  -3   5   9    3.01    1.14
   3  -5  -8   27.14    3.61
  -3   5   8   17.99    2.61
   3  -5  -7   33.02    3.33
  -3   5   7   30.54    2.77
   3  -5  -6  137.09    6.47
  -3   5   6  147.84    6.43
  -3   5   6  122.45    4.20
   3  -5  -5    6.12    1.46
  -3   5   5    5.04    1.07
  -3   5   4 2221.83   55.98
   3  -5  -3  117.17    5.17
  -3   5   3  125.00    4.70
  -3   5   3  114.73    4.08
   3  -5  -2  695.47   19.49
  -3   5   2  830.00   22.24
  -3   5   2  782.68   19.73
   3  -5  -1   10.32    1.78
  -3   5   1   12.29    1.66
  -3   5   1    5.17    1.06
   3  -5   0 1756.90   44.93
  -3   5   0 1727.68   43.64
  -3   5   0 1696.09   42.06
   3  -5   1   13.44    1.84
  -3   5  -1   10.72    1.26
  -3   5  -1   16.50    2.30
   3  -5   2  293.58    9.24
  -3   5  -2  264.01    7.77
  -3   5  -2  281.93    7.71
   3  -5   3   56.28    4.98
  -3   5  -3   46.77    3.13
  -3   5  -3   53.38    5.43
   3  -5   4   12.06    2.43
  -3   5  -4   14.27    1.56
  -3   5  -4    7.26    2.35
   3  -5   5  420.81   14.82
  -3   5  -5  460.38   16.18
  -3   5  -5  531.70   18.41
  -3   5  -6  123.48    4.86
  -3   5  -6  127.48    4.86
   3  -5   7   24.17    4.85
  -3   5  -7   20.15    2.43
  -3   5  -7   21.23    4.70
   3  -5   8 1914.40   40.03
  -3   5  -8 1846.61   39.18
  -3   5  -8 2046.55   43.54
  -3   5  -9  146.30    5.10
  -3   5 -10  400.18   13.39
  -3   5 -10  451.76   14.80
  -3   5 -10  441.52   15.13
  -3   5 -11   20.38    3.40
  -5   5  13   37.67    4.10
  -5   5  13   33.58    2.66
  -5   5  12  378.31   14.52
   5  -5 -11  351.67   13.69
  -5   5  11  329.77   12.65
   5  -5 -10 1413.44   32.82
  -5   5  10 1232.63   28.52
   5  -5  -9    9.09    1.67
  -5   5   9   10.20    1.73
  -5   5   9    7.75    2.23
   5  -5  -8 1279.11   39.71
  -5   5   8 1158.26   35.78
  -5   5   8 1016.82   30.18
   5  -5  -7   30.88    3.99
  -5   5   7   42.18    5.03
  -5   5   7   29.78    3.13
   5  -5  -6 1296.31   40.21
  -5   5   6 1170.36   36.09
  -5   5   6 1252.64   37.19
   5  -5  -5   42.37    4.99
  -5   5   5   49.19    3.06
  -5   5   5   36.67    4.23
   5  -5  -4  878.72   30.69
  -5   5   4  637.68   22.11
  -5   5   4  679.56   22.64
   5  -5  -3  386.10   14.53
  -5   5   3  310.46   11.59
  -5   5   3  322.76   11.06
   5  -5  -2   82.75    4.29
  -5   5   2   82.87    4.20
  -5   5   2   86.64    3.44
   5  -5  -1    3.58    1.44
  -5   5   1    3.86    1.58
  -5   5   1    1.56    0.69
   5  -5   0  322.89   12.38
  -5   5   0  283.80   10.84
  -5   5   0  335.66   11.75
   5  -5   1   65.16    5.78
  -5   5  -1   64.91    3.42
  -5   5  -1   75.36    3.17
   5  -5   2  531.72   17.00
  -5   5  -2  510.27   16.47
  -5   5  -2  559.38   17.14
   5  -5   3    2.82    0.64
  -5   5  -3    3.20    1.16
  -5   5  -3    3.63    0.62
   5  -5   4 2432.18   72.40
  -5   5  -4 2013.52   60.55
  -5   5  -4 2339.86   69.27
   5  -5   5    7.99    1.69
  -5   5  -5    8.21    1.79
  -5   5  -5    6.91    1.63
   5  -5   6 1261.79   27.18
  -5   5  -6 1197.88   26.92
  -5   5  -6 1318.58   28.34
   5  -5   7    9.98    1.95
  -5   5  -7    6.17    2.12
  -5   5  -7    8.63    3.48
  -5   5  -8  361.30   12.82
  -5   5  -9   33.78    5.49
  -5   5  -9   30.57    4.86
  -7   5  10 1579.13   52.41
   7  -5  -9   33.55    5.61
  -7   5   9   40.33    6.60
   7  -5  -8   15.80    2.92
  -7   5   8   10.63    1.68
  -7   5   8   15.10    2.08
   7  -5  -7   49.59    6.66
  -7   5   7   47.73    6.42
  -7   5   7   34.43    4.36
   7  -5  -6   33.57    4.78
  -7   5   6   30.00    4.23
  -7   5   6   24.84    3.28
   7  -5  -5    8.22    2.75
  -7   5   5    5.66    2.19
  -7   5   5    4.64    1.50
   7  -5  -4  641.08   21.23
  -7   5   4  469.07   15.94
  -7   5   4  473.79   14.77
   7  -5  -3    1.04    1.44
  -7   5   3    2.01    1.60
  -7   5   3    1.34    1.00
  -7   5   2 1891.52   57.27
  -7   5   2 1856.99   55.06
   7  -5  -1   70.48    8.02
  -7   5   1   82.74    4.66
  -7   5   1   53.28    3.15
   7  -5   0  720.21   17.35
  -7   5   0  685.11   17.21
  -7   5   0  627.61   14.02
   7  -5   1    0.83    1.04
  -7   5  -1    0.93    1.78
  -7   5  -1    1.83    0.95
   7  -5   2 1436.37   31.73
  -7   5  -2 1279.33   29.52
  -7   5  -2 1520.52   32.68
   7  -5   3   54.18    8.46
  -7   5  -3   41.30    5.60
  -7   5  -3   59.08    7.45
   7  -5   4   58.67   10.54
  -7   5  -4   52.55    8.48
  -7   5  -4   49.11    7.55
  -7   5  -5  195.90    8.75
   7  -5   6   49.41    8.72
  -7   5  -6   69.53    6.21
  -7   5  -6   44.39    7.47
  -9   5   9  107.76    8.78
  -9   5   8   45.06    7.50
   9  -5  -7   62.36   10.59
  -9   5   7   40.47    6.76
  -9   5   7   24.97    3.94
  -9   5   6 1922.78   63.11
  -9   5   6 1359.47   43.69
   9  -5  -5   44.13   12.71
  -9   5   5   28.06    4.84
  -9   5   5   27.86    4.47
  -9   5   4   44.58    7.30
  -9   5   4   46.04    7.14
   9  -5  -3  191.51    8.04
  -9   5   3  148.29    7.16
  -9   5   3  145.32    5.67
   9  -5  -2  426.52   15.33
  -9   5   2  393.56   15.16
  -9   5   1  264.53   10.84
   9  -5   0    3.48    0.65
  -9   5   0    2.25    1.03
  -9   5   0    3.44    0.70
  -9   5  -1  215.38    9.72
  -9   5  -2  345.54   14.19
  -6  -6  -2    4.52    1.18
  -6  -6   0  135.58   10.29
  -6  -6   1    0.54    0.87
  -6  -6   2 1723.40  120.73
  -6  -6   3   21.14    3.45
   4   6   3   42.75    6.79
  -4  -6  -1    8.40    1.28
   4   6   1   12.39    1.74
  -4  -6   0 1351.35   44.23
  -4  -6   1   27.60    4.63
   4   6  -1   26.30    4.13
  -4  -6   2  145.78    6.07
   4   6  -2  192.56    6.85
  -4  -6   3   38.20    6.09
   4   6  -3   58.52    8.94
   4   6  -4  121.61    4.44
  -4  -6   5    9.70    2.02
  -4  -6   5    8.44    0.98
  -4  -6   5    7.47    0.72
  -4  -6   6   95.46    3.68
  -4  -6   7  266.67   18.95
  -4  -6   8  674.23   47.47
  -2  -6  -7   24.92    2.85
   2   6   7   16.18    4.00
  -2  -6  -6   56.61    5.00
  -2  -6  -5   38.30    6.23
   2   6   5   33.80    5.51
  -2  -6  -4 1439.54   47.53
  -2  -6  -3   23.97    4.10
   2   6   3   11.88    1.82
  -2  -6  -2   64.95   10.14
   2   6   2   66.81    5.23
   2   6   1  645.59   21.43
  -2  -6   0   21.71    3.37
   2   6   0   30.98    4.15
  -2  -6   1  176.24    5.95
   2   6  -1  204.07    5.38
  -2  -6   2   87.69    4.21
   2   6  -2  101.92    4.74
   2   6  -3   37.13    5.68
  -2  -6   4 1602.04   51.24
   2   6  -4 1957.55   62.14
  -2  -6   5    3.19    0.55
   2   6  -5    4.83    0.56
  -2  -6   7  188.34    6.62
  -2  -6   8 1285.43   90.17
  -2  -6   9   11.94    1.32
   0  -6  -6   43.78    7.17
   0  -6  -5    2.17    1.89
   0  -6  -3    2.55    1.13
   0   6   3    2.82    1.07
   0  -6  -2   26.61    3.96
   0   6   2   18.76    2.63
   0  -6  -1   18.34    2.98
   0   6   1   10.39    1.64
   0  -6   0 2626.66   56.87
   0   6   0 2428.94   51.04
   0  -6   1   13.49    2.19
   0   6  -1    7.57    2.85
   0  -6   2   24.01    3.33
   0   6  -2   21.40    2.83
   0  -6   3    3.98    1.05
   0   6  -3    3.56    0.89
   0  -6   4  595.15   19.66
   0   6  -4  656.96   21.30
   0  -6   5    0.82    0.54
   0   6  -5    1.92    0.43
   0   6  -6   42.22    6.39
  -2   6   9   10.06    1.90
  -2   6   6  689.67   23.74
   2  -6  -5    4.02    2.09
  -2   6   5    2.64    1.35
   2  -6  -4 2096.76   68.49
   2  -6  -3   41.88    6.90
  -2   6   3   49.15    7.87
   2  -6  -2   95.86    5.03
  -2   6   2  113.65    5.14
   2  -6  -1  191.01    6.63
  -2   6   1  221.06    6.56
   2  -6   0   20.48    3.56
  -2   6   0   29.51    4.17
   2  -6   1  593.31   20.48
  -2   6  -1  723.75   24.24
   2  -6   2   86.49   10.11
  -2   6  -2   65.32   10.03
   2  -6   3   23.23    5.65
  -2   6  -3   16.47    4.44
   2  -6   4 1136.19   36.83
  -2   6  -4 1389.70   44.76
  -2   6  -5   31.21    4.99
   2  -6   6   65.38    7.52
  -2   6  -6   68.30    5.23
   2  -6   7   17.33    2.51
  -4   6   8  732.74   52.16
  -4   6   7  319.47   23.40
  -4   6   5    8.03    1.39
   4  -6  -4   97.91    5.02
   4  -6  -3   42.07    6.89
  -4   6   3   36.76    5.92
   4  -6  -2  184.99    7.91
   4  -6  -1   28.92    4.95
  -4   6   1   22.32    3.78
  -4   6   1   32.13    6.02
  -4   6   0 1553.61   50.61
  -4   6   0 1870.22   59.74
  -4   6  -1   11.91    2.00
  -4   6  -1   -1.52    0.96
   4  -6   2  800.93   26.90
   4  -6   3   50.43    9.23
  -4   6  -3   45.43    7.54
   4  -6   4  920.51   64.93
  -4   6  -5    6.20    1.46
   4  -6   6  148.26   10.87
   6  -6  -5   10.58    1.81
  -6   6   5    8.59    1.91
   6  -6   0  128.36   16.72
  -6   6  -1  246.51   17.96
   0   0   0    0.00    0.00
;
_shelx_hkl_checksum              91866
loop_
_space_group_symop_operation_xyz
'x, y, z'
'-x, y, -z+1/2'
'x+1/2, y+1/2, z'
'-x+1/2, y+1/2, -z+1/2'
'-x, -y, -z'
'x, -y, z-1/2'
'-x+1/2, -y+1/2, -z'
'x+1/2, -y+1/2, z-1/2'
loop_
_atom_site_label
_atom_site_type_symbol
_atom_site_fract_x
_atom_site_fract_y
_atom_site_fract_z
_atom_site_U_iso_or_equiv
_atom_site_adp_type
_atom_site_occupancy
_atom_site_site_symmetry_order
_atom_site_calc_flag
_atom_site_refinement_flags_posn
_atom_site_refinement_flags_adp
_atom_site_refinement_flags_occupancy
Sm1 Sm 0.88505(4) 0.00895(8) 0.41518(3) 0.0080(3) Uani 1 1 d . . .
Ba1 Ba 0.66214(5) 0.49513(8) 0.33290(4) 0.0103(3) Uani 1 1 d . . .
Si1 Si 0.8820(2) -0.4667(5) 0.54470(16) 0.0081(6) Uani 1 1 d . . .
Si2 Si 1.0627(2) -0.5441(5) 0.68454(16) 0.0088(6) Uani 1 1 d . . .
O1 O 0.9819(4) -0.6424(11) 0.5998(3) 0.0109(12) Uani 1 1 d . . .
O2 O 0.7949(5) -0.4620(12) 0.5968(4) 0.0103(13) Uani 1 1 d . . .
O3 O 0.9290(4) -0.1748(11) 0.5388(3) 0.0100(12) Uani 1 1 d . . .
O4 O 0.8430(5) -0.5948(12) 0.4600(3) 0.0124(13) Uani 1 1 d . . .
O5 O 0.5000 0.1478(16) 0.2500 0.0106(16) Uani 1 2 d S T P
O6 O 0.9196(5) 0.2427(12) 0.3098(3) 0.0147(13) Uani 1 1 d . . .
O7 O 0.8354(5) -0.2760(12) 0.3060(3) 0.0123(12) Uani 1 1 d . . .
loop_
_atom_site_aniso_label
_atom_site_aniso_U_11
_atom_site_aniso_U_22
_atom_site_aniso_U_33
_atom_site_aniso_U_23
_atom_site_aniso_U_13
_atom_site_aniso_U_12
Sm1 0.0058(5) 0.0109(5) 0.0080(5) -0.00011(13) 0.0030(3) -0.00020(12)
Ba1 0.0090(5) 0.0120(5) 0.0104(5) -0.00090(15) 0.0035(3) -0.00173(14)
Si1 0.0068(11) 0.0109(11) 0.0077(14) -0.0010(8) 0.0036(9) -0.0014(8)
Si2 0.0073(12) 0.0123(11) 0.0072(12) -0.0004(9) 0.0024(9) 0.0002(9)
O1 0.010(3) 0.011(3) 0.014(3) -0.002(2) 0.006(2) -0.001(2)
O2 0.008(3) 0.017(3) 0.007(3) -0.001(2) 0.004(2) -0.001(2)
O3 0.012(3) 0.013(3) 0.004(3) 0.001(2) -0.001(2) 0.000(2)
O4 0.015(3) 0.014(3) 0.009(3) -0.005(2) 0.005(2) 0.001(2)
O5 0.014(4) 0.012(4) 0.007(4) 0.000 0.006(3) 0.000
O6 0.021(3) 0.014(3) 0.011(3) 0.002(2) 0.009(3) -0.006(2)
O7 0.008(3) 0.016(3) 0.014(3) 0.003(2) 0.005(2) 0.002(2)
loop_
_atom_type_symbol
_atom_type_description
_atom_type_scat_dispersion_real
_atom_type_scat_dispersion_imag
_atom_type_scat_source
O O 0.0106 0.0060 'International Tables Vol C Tables 4.2.6.8 and 6.1.1.4'
Si Si 0.0817 0.0704 'International Tables Vol C Tables 4.2.6.8 and 6.1.1.4'
Ba Ba -0.3244 2.2819 'International Tables Vol C Tables 4.2.6.8 and 6.1.1.4'
Sm Sm -0.1638 3.4418 'International Tables Vol C Tables 4.2.6.8 and 6.1.1.4'
loop_
_geom_angle_atom_site_label_1
_geom_angle_atom_site_label_2
_geom_angle_atom_site_label_3
_geom_angle
_geom_angle_site_symmetry_1
_geom_angle_site_symmetry_3
O2 Sm1 O3 93.1(2) 7_646 .
O2 Sm1 O4 79.0(2) 7_646 1_565
O3 Sm1 O4 94.3(2) . 1_565
O2 Sm1 O6 111.5(2) 7_646 .
O3 Sm1 O6 154.7(2) . .
O4 Sm1 O6 84.8(2) 1_565 .
O2 Sm1 O7 78.0(2) 7_646 .
O3 Sm1 O7 116.9(2) . .
O4 Sm1 O7 141.9(2) 1_565 .
O6 Sm1 O7 75.9(2) . .
O2 Sm1 O3 160.1(2) 7_646 5_756
O3 Sm1 O3 81.0(2) . 5_756
O4 Sm1 O3 82.5(2) 1_565 5_756
O6 Sm1 O3 73.78(19) . 5_756
O7 Sm1 O3 121.61(19) . 5_756
O2 Sm1 O1 125.9(2) 7_646 5_746
O3 Sm1 O1 77.03(19) . 5_746
O4 Sm1 O1 153.43(19) 1_565 5_746
O6 Sm1 O1 92.5(2) . 5_746
O7 Sm1 O1 61.39(18) . 5_746
O3 Sm1 O1 71.41(19) 5_756 5_746
O2 Sm1 Si2 102.52(17) 7_646 5_746
O3 Sm1 Si2 99.52(15) . 5_746
O4 Sm1 Si2 165.96(16) 1_565 5_746
O6 Sm1 Si2 81.61(16) . 5_746
O7 Sm1 Si2 29.41(14) . 5_746
O3 Sm1 Si2 97.17(14) 5_756 5_746
O1 Sm1 Si2 32.03(13) 5_746 5_746
O2 Sm1 Si1 78.76(18) 7_646 .
O3 Sm1 Si1 26.25(15) . .
O4 Sm1 Si1 112.58(16) 1_565 .
O6 Sm1 Si1 161.66(16) . .
O7 Sm1 Si1 92.19(15) . .
O3 Sm1 Si1 101.88(14) 5_756 .
O1 Sm1 Si1 69.40(13) 5_746 .
Si2 Sm1 Si1 81.29(7) 5_746 .
O2 Sm1 Si2 111.07(17) 7_646 5_756
O3 Sm1 Si2 141.07(15) . 5_756
O4 Sm1 Si2 62.81(16) 1_565 5_756
O6 Sm1 Si2 23.20(15) . 5_756
O7 Sm1 Si2 98.28(15) . 5_756
O3 Sm1 Si2 65.85(13) 5_756 5_756
O1 Sm1 Si2 108.86(14) 5_746 5_756
Si2 Sm1 Si2 104.16(8) 5_746 5_756
Si1 Sm1 Si2 166.87(7) . 5_756
O2 Sm1 Sm1 132.49(17) 7_646 5_756
O3 Sm1 Sm1 42.38(14) . 5_756
O4 Sm1 Sm1 87.62(15) 1_565 5_756
O6 Sm1 Sm1 112.37(15) . 5_756
O7 Sm1 Sm1 130.04(14) . 5_756
O3 Sm1 Sm1 38.62(12) 5_756 5_756
O1 Sm1 Sm1 68.94(12) 5_746 5_756
Si2 Sm1 Sm1 100.94(5) 5_746 5_756
Si1 Sm1 Sm1 64.77(5) . 5_756
Si2 Sm1 Sm1 102.26(5) 5_756 5_756
O2 Sm1 Ba1 52.11(17) 7_646 .
O3 Sm1 Ba1 127.97(14) . .
O4 Sm1 Ba1 47.50(15) 1_565 .
O6 Sm1 Ba1 68.40(16) . .
O7 Sm1 Ba1 94.52(14) . .
O3 Sm1 Ba1 117.90(13) 5_756 .
O1 Sm1 Ba1 153.02(13) 5_746 .
Si2 Sm1 Ba1 122.70(5) 5_746 .
Si1 Sm1 Ba1 127.36(5) . .
Si2 Sm1 Ba1 59.88(4) 5_756 .
Sm1 Sm1 Ba1 135.08(2) 5_756 .
O7 Ba1 O2 66.11(19) 1_565 7_656
O7 Ba1 O6 77.63(18) 1_565 4_655
O2 Ba1 O6 89.07(19) 7_656 4_655
O7 Ba1 O7 83.37(13) 1_565 4_655
O2 Ba1 O7 142.54(19) 7_656 4_655
O6 Ba1 O7 62.47(17) 4_655 4_655
O7 Ba1 O4 69.44(18) 1_565 1_565
O2 Ba1 O4 75.80(19) 7_656 1_565
O6 Ba1 O4 146.99(18) 4_655 1_565
O7 Ba1 O4 114.39(17) 4_655 1_565
O7 Ba1 O5 136.69(13) 1_565 .
O2 Ba1 O5 146.40(18) 7_656 .
O6 Ba1 O5 76.56(17) 4_655 .
O7 Ba1 O5 53.86(12) 4_655 .
O4 Ba1 O5 130.48(18) 1_565 .
O7 Ba1 O3 120.17(17) 1_565 7_656
O2 Ba1 O3 56.23(18) 7_656 7_656
O6 Ba1 O3 113.93(16) 4_655 7_656
O7 Ba1 O3 155.76(16) 4_655 7_656
O4 Ba1 O3 81.93(16) 1_565 7_656
O5 Ba1 O3 102.00(12) . 7_656
O7 Ba1 O2 113.61(18) 1_565 7_646
O2 Ba1 O2 129.6(2) 7_656 7_646
O6 Ba1 O2 141.33(18) 4_655 7_646
O7 Ba1 O2 81.54(18) 4_655 7_646
O4 Ba1 O2 59.84(18) 1_565 7_646
O5 Ba1 O2 70.64(18) . 7_646
O3 Ba1 O2 92.79(17) 7_656 7_646
O7 Ba1 O1 162.10(17) 1_565 7_646
O2 Ba1 O1 116.06(18) 7_656 7_646
O6 Ba1 O1 119.54(17) 4_655 7_646
O7 Ba1 O1 99.74(16) 4_655 7_646
O4 Ba1 O1 93.47(17) 1_565 7_646
O5 Ba1 O1 51.62(12) . 7_646
O3 Ba1 O1 59.88(16) 7_656 7_646
O2 Ba1 O1 50.24(17) 7_646 7_646
O7 Ba1 Si1 93.81(14) 1_565 7_656
O2 Ba1 Si1 27.88(15) 7_656 7_656
O6 Ba1 Si1 98.48(13) 4_655 7_656
O7 Ba1 Si1 160.93(13) 4_655 7_656
O4 Ba1 Si1 81.80(13) 1_565 7_656
O5 Ba1 Si1 123.95(9) . 7_656
O3 Ba1 Si1 29.01(12) 7_656 7_656
O2 Ba1 Si1 116.56(14) 7_646 7_656
O1 Ba1 Si1 88.74(12) 7_646 7_656
O7 Ba1 Si2 109.76(14) 1_565 8_445
O2 Ba1 Si2 158.67(15) 7_656 8_445
O6 Ba1 Si2 69.74(13) 4_655 8_445
O7 Ba1 Si2 26.40(12) 4_655 8_445
O4 Ba1 Si2 123.53(13) 1_565 8_445
O5 Ba1 Si2 27.77(6) . 8_445
O3 Ba1 Si2 129.68(12) 7_656 8_445
O2 Ba1 Si2 71.69(14) 7_646 8_445
O1 Ba1 Si2 74.69(12) 7_646 8_445
Si1 Ba1 Si2 149.78(7) 7_656 8_445
O7 Ba1 Si1 134.62(13) 1_565 7_646
O2 Ba1 Si1 117.08(15) 7_656 7_646
O6 Ba1 Si1 143.59(14) 4_655 7_646
O7 Ba1 Si1 99.67(13) 4_655 7_646
O4 Ba1 Si1 68.24(14) 1_565 7_646
O5 Ba1 Si1 67.71(10) . 7_646
O3 Ba1 Si1 68.72(12) 7_656 7_646
O2 Ba1 Si1 26.26(14) 7_646 7_646
O1 Ba1 Si1 27.55(11) 7_646 7_646
Si1 Ba1 Si1 95.72(7) 7_656 7_646
Si2 Ba1 Si1 81.27(6) 8_445 7_646
O4 Si1 O2 115.3(4) . .
O4 Si1 O3 111.4(3) . .
O2 Si1 O3 109.9(3) . .
O4 Si1 O1 109.4(3) . .
O2 Si1 O1 103.1(3) . .
O3 Si1 O1 107.1(3) . .
O4 Si1 Sm1 74.5(2) . .
O2 Si1 Sm1 119.7(3) . .
O3 Si1 Sm1 38.3(2) . .
O1 Si1 Sm1 130.8(2) . .
O4 Si1 Ba1 145.8(3) . 7_656
O2 Si1 Ba1 52.0(2) . 7_656
O3 Si1 Ba1 59.7(2) . 7_656
O1 Si1 Ba1 104.7(2) . 7_656
Sm1 Si1 Ba1 85.74(6) . 7_656
O4 Si1 Ba1 100.1(3) . 7_646
O2 Si1 Ba1 56.2(2) . 7_646
O3 Si1 Ba1 148.4(2) . 7_646
O1 Si1 Ba1 57.1(2) . 7_646
Sm1 Si1 Ba1 171.34(10) . 7_646
Ba1 Si1 Ba1 95.72(7) 7_656 7_646
O6 Si2 O7 118.2(3) 5_756 5_746
O6 Si2 O5 111.6(4) 5_756 7_646
O7 Si2 O5 105.7(3) 5_746 7_646
O6 Si2 O1 114.0(3) 5_756 .
O7 Si2 O1 103.5(3) 5_746 .
O5 Si2 O1 102.2(3) 7_646 .
O6 Si2 Sm1 138.3(3) 5_756 5_746
O7 Si2 Sm1 47.3(2) 5_746 5_746
O5 Si2 Sm1 110.0(3) 7_646 5_746
O1 Si2 Sm1 56.3(2) . 5_746
O6 Si2 Sm1 35.6(2) 5_756 5_756
O7 Si2 Sm1 105.6(2) 5_746 5_756
O5 Si2 Sm1 144.0(3) 7_646 5_756
O1 Si2 Sm1 87.4(2) . 5_756
Sm1 Si2 Sm1 104.16(8) 5_746 5_756
O6 Si2 Ba1 126.6(3) 5_756 8_546
O7 Si2 Ba1 52.0(2) 5_746 8_546
O5 Si2 Ba1 54.42(18) 7_646 8_546
O1 Si2 Ba1 119.3(2) . 8_546
Sm1 Si2 Ba1 78.92(6) 5_746 8_546
Sm1 Si2 Ba1 146.80(8) 5_756 8_546
O6 Si2 Ba1 78.9(2) 5_756 5_756
O7 Si2 Ba1 41.6(2) 5_746 5_756
O5 Si2 Ba1 137.34(14) 7_646 5_756
O1 Si2 Ba1 110.8(2) . 5_756
Sm1 Si2 Ba1 70.27(5) 5_746 5_756
Sm1 Si2 Ba1 65.49(5) 5_756 5_756
Ba1 Si2 Ba1 85.47(6) 8_546 5_756
O6 Si2 Ba1 137.2(3) 5_756 7_646
O7 Si2 Ba1 104.4(2) 5_746 7_646
O5 Si2 Ba1 48.58(18) 7_646 7_646
O1 Si2 Ba1 54.8(2) . 7_646
Sm1 Si2 Ba1 74.73(6) 5_746 7_646
Sm1 Si2 Ba1 136.15(8) 5_756 7_646
Ba1 Si2 Ba1 76.92(6) 8_546 7_646
Ba1 Si2 Ba1 143.20(8) 5_756 7_646
Si2 O1 Si1 124.6(4) . .
Si2 O1 Sm1 91.7(2) . 5_746
Si1 O1 Sm1 140.2(3) . 5_746
Si2 O1 Ba1 98.5(3) . 7_646
Si1 O1 Ba1 95.4(2) . 7_646
Sm1 O1 Ba1 94.45(18) 5_746 7_646
Si1 O2 Sm1 141.0(4) . 7_646
Si1 O2 Ba1 100.1(3) . 7_656
Sm1 O2 Ba1 103.1(2) 7_646 7_656
Si1 O2 Ba1 97.6(3) . 7_646
Sm1 O2 Ba1 91.2(2) 7_646 7_646
Ba1 O2 Ba1 129.6(2) 7_656 7_646
Si1 O3 Sm1 115.5(3) . .
Si1 O3 Sm1 129.7(3) . 5_756
Sm1 O3 Sm1 99.0(2) . 5_756
Si1 O3 Ba1 91.3(2) . 7_656
Sm1 O3 Ba1 122.3(2) . 7_656
Sm1 O3 Ba1 100.23(18) 5_756 7_656
Si1 O4 Sm1 129.8(3) . 1_545
Si1 O4 Ba1 132.3(3) . 1_545
Sm1 O4 Ba1 95.57(19) 1_545 1_545
Si2 O5 Si2 141.8(6) 8_445 7_646
Si2 O5 Ba1 105.98(16) 8_445 2_655
Si2 O5 Ba1 97.82(16) 7_646 2_655
Si2 O5 Ba1 97.82(16) 8_445 .
Si2 O5 Ba1 105.98(16) 7_646 .
Ba1 O5 Ba1 102.2(3) 2_655 .
Si2 O6 Sm1 121.2(3) 5_756 .
Si2 O6 Ba1 122.1(3) 5_756 4_645
Sm1 O6 Ba1 111.3(2) . 4_645
Si2 O7 Sm1 103.3(3) 5_746 .
Si2 O7 Ba1 115.2(3) 5_746 1_545
Sm1 O7 Ba1 102.0(2) . 1_545
Si2 O7 Ba1 101.6(3) 5_746 4_645
Sm1 O7 Ba1 108.9(2) . 4_645
Ba1 O7 Ba1 124.1(2) 1_545 4_645
loop_
_geom_bond_atom_site_label_1
_geom_bond_atom_site_label_2
_geom_bond_distance
_geom_bond_site_symmetry_2
Sm1 O2 2.309(7) 7_646
Sm1 O3 2.323(5) .
Sm1 O4 2.332(6) 1_565
Sm1 O6 2.357(6) .
Sm1 O7 2.395(6) .
Sm1 O3 2.508(6) 5_756
Sm1 O1 2.639(6) 5_746
Sm1 Si2 3.171(3) 5_746
Sm1 Si1 3.385(3) .
Sm1 Si2 3.462(3) 5_756
Sm1 Sm1 3.6755(13) 5_756
Sm1 Ba1 3.8627(9) .
Ba1 O7 2.693(6) 1_565
Ba1 O2 2.736(7) 7_656
Ba1 O6 2.799(6) 4_655
Ba1 O7 2.837(6) 4_655
Ba1 O4 2.861(6) 1_565
Ba1 O5 2.894(5) .
Ba1 O3 2.951(6) 7_656
Ba1 O2 3.049(7) 7_646
Ba1 O1 3.068(6) 7_646
Ba1 Si1 3.418(3) 7_656
Ba1 Si2 3.526(3) 8_445
Ba1 Si1 3.639(3) 7_646
Si1 O4 1.602(6) .
Si1 O2 1.624(7) .
Si1 O3 1.658(6) .
Si1 O1 1.691(6) .
Si1 Ba1 3.418(3) 7_656
Si1 Ba1 3.639(3) 7_646
Si2 O6 1.594(7) 5_756
Si2 O7 1.600(6) 5_746
Si2 O5 1.658(4) 7_646
Si2 O1 1.683(6) .
Si2 Sm1 3.171(3) 5_746
Si2 Sm1 3.462(3) 5_756
Si2 Ba1 3.526(3) 8_546
Si2 Ba1 3.672(3) 5_756
Si2 Ba1 3.711(3) 7_646
O1 Sm1 2.639(6) 5_746
O1 Ba1 3.068(6) 7_646
O2 Sm1 2.309(7) 7_646
O2 Ba1 2.736(7) 7_656
O2 Ba1 3.049(7) 7_646
O3 Sm1 2.508(6) 5_756
O3 Ba1 2.951(6) 7_656
O4 Sm1 2.332(6) 1_545
O4 Ba1 2.861(6) 1_545
O5 Si2 1.658(4) 8_445
O5 Si2 1.658(4) 7_646
O5 Ba1 2.894(5) 2_655
O6 Si2 1.594(7) 5_756
O6 Ba1 2.799(6) 4_645
O7 Si2 1.600(6) 5_746
O7 Ba1 2.693(6) 1_545
O7 Ba1 2.837(6) 4_645
