#------------------------------------------------------------------------------
#$Date: 2019-12-26 22:24:51 +0200 (Thu, 26 Dec 2019) $
#$Revision: 246182 $
#$URL: file:///home/coder/svn-repositories/cod/cif/2/31/19/2311947.cif $
#------------------------------------------------------------------------------
#
# This file is available in the Crystallography Open Database (COD),
# http://www.crystallography.net/. The original data for this entry
# were provided by IUCr Journals, http://journals.iucr.org/.
#
# The file may be used within the scientific community so long as
# proper attribution is given to the journal article from which the
# data were obtained.
#
data_2311947
loop_
_publ_author_name
'Spiridonova, Tatyana S.'
'Solodovnikov, Sergey F.'
'Savina, Aleksandra A.'
'Solodovnikova, Zoya A.'
'Stefanovich, Sergey Yu'
'Lazoryak, Bogdan I.'
'Korolkov, Iliya V.'
'Khaikina, Elena G.'
_publ_section_title
;
 Synthesis, crystal structures and properties of the new compounds
 K<sub>7-x</sub>Ag<sub>1+x</sub>(XO<sub>4</sub>)<sub>4</sub> (X = Mo, W).
;
_journal_coeditor_code           LY3055
_journal_issue                   'Pt 12'
_journal_name_full
'Acta crystallographica. Section C, Structural chemistry'
_journal_page_first              1071
_journal_page_last               1077
_journal_paper_doi               10.1107/S2053229617015674
_journal_volume                  73
_journal_year                    2017
_chemical_formula_iupac          'K6.68 Ag1.32 Mo4 O16'
_chemical_formula_moiety         'Ag1.32 Mo4 O16, 6.68(K)'
_chemical_formula_sum            'Ag1.32 K6.68 Mo4 O16'
_chemical_formula_weight         1043.34
_chemical_name_systematic
;
Heptapotassium silver tetrakis(tetraoxomolybdate)
;
_space_group_IT_number           186
_space_group_name_Hall           'P 6c -2c'
_space_group_name_H-M_alt        'P 63 m c'
_symmetry_cell_setting           hexagonal
_symmetry_space_group_name_Hall  'P 6c -2c'
_symmetry_space_group_name_H-M   'P 63 m c'
_atom_sites_solution_hydrogens   other
_atom_sites_solution_primary     direct
_atom_sites_solution_secondary   difmap
_cell_angle_alpha                90.00
_cell_angle_beta                 90.00
_cell_angle_gamma                120.00
_cell_formula_units_Z            2
_cell_length_a                   12.4188(2)
_cell_length_b                   12.4188(2)
_cell_length_c                   7.4338(2)
_cell_measurement_reflns_used    9592
_cell_measurement_temperature    296(2)
_cell_measurement_theta_max      31.535
_cell_measurement_theta_min      3.789
_cell_volume                     992.89(3)
_computing_cell_refinement
;
SAINT (Bruker, 2004)
;
_computing_data_collection
;
APEX2 (Bruker, 2004)
;
_computing_data_reduction
;
SAINT (Bruker, 2004)
;
_computing_molecular_graphics
;
DIAMOND (Brandenburg, 2008)
;
_computing_publication_material
;
SHELXL2017 (Sheldrick, 2015)
;
_computing_structure_refinement
;
SHELXL2017 (Sheldrick, 2015)
;
_computing_structure_solution
;
SHELXS97 (Sheldrick, 2008)
;
_diffrn_ambient_temperature      296(2)
_diffrn_detector_area_resol_mean 25
_diffrn_measured_fraction_theta_full 0.987
_diffrn_measured_fraction_theta_max 0.991
_diffrn_measurement_device_type  'Bruker--Nonius X8 APEX CCD area-detector'
_diffrn_measurement_method       '\f and \w scans'
_diffrn_radiation_monochromator  graphite
_diffrn_radiation_source         'fine-focus sealed tube'
_diffrn_radiation_type           'Mo K\a'
_diffrn_radiation_wavelength     0.71073
_diffrn_reflns_av_R_equivalents  0.0332
_diffrn_reflns_av_sigmaI/netI    0.0194
_diffrn_reflns_limit_h_max       18
_diffrn_reflns_limit_h_min       -16
_diffrn_reflns_limit_k_max       11
_diffrn_reflns_limit_k_min       -18
_diffrn_reflns_limit_l_max       8
_diffrn_reflns_limit_l_min       -10
_diffrn_reflns_number            9592
_diffrn_reflns_theta_full        25.242
_diffrn_reflns_theta_max         31.535
_diffrn_reflns_theta_min         3.789
_diffrn_standards_decay_%        0
_diffrn_standards_number         0
_exptl_absorpt_coefficient_mu    5.199
_exptl_absorpt_correction_T_max  0.455
_exptl_absorpt_correction_T_min  0.356
_exptl_absorpt_correction_type   multi-scan
_exptl_absorpt_process_details
;
(SADABS; Bruker, 2004)
;
_exptl_crystal_colour            colourless
_exptl_crystal_density_diffrn    3.490
_exptl_crystal_density_method    'not measured'
_exptl_crystal_description       fragment
_exptl_crystal_F_000             969.8
_exptl_crystal_size_max          0.250
_exptl_crystal_size_mid          0.200
_exptl_crystal_size_min          0.180
_refine_diff_density_max         1.401
_refine_diff_density_min         -1.310
_refine_ls_abs_structure_details
;
Refined as an inversion twin
;
_refine_ls_abs_structure_Flack   0.15(8)
_refine_ls_goodness_of_fit_ref   1.120
_refine_ls_hydrogen_treatment    undef
_refine_ls_matrix_type           full
_refine_ls_number_parameters     65
_refine_ls_number_reflns         1189
_refine_ls_number_restraints     0
_refine_ls_restrained_S_all      1.120
_refine_ls_R_factor_all          0.0181
_refine_ls_R_factor_gt           0.0179
_refine_ls_shift/su_max          0.000
_refine_ls_shift/su_mean         0.000
_refine_ls_structure_factor_coef Fsqd
_refine_ls_weighting_details
'w=1/[\s^2^(Fo^2^)+2.0336P] where P=(Fo^2^+2Fc^2^)/3'
_refine_ls_weighting_scheme      calc
_refine_ls_wR_factor_gt          0.0402
_refine_ls_wR_factor_ref         0.0403
_reflns_number_gt                1178
_reflns_number_total             1189
_reflns_threshold_expression     'I > 2\s(I)'
_cod_data_source_file            ly3055sup1.cif
_cod_data_source_block           I
_cod_original_cell_volume        992.89(4)
_cod_database_code               2311947
_shelx_space_group_comment
;
The symmetry employed for this shelxl refinement is uniquely defined
by the following loop, which should always be used as a source of
symmetry information in preference to the above space-group names.
They are only intended as comments.
;
_shelx_hkl_file
;
  -1   1   0   -0.16    0.00
   0  -1   0   -0.15    0.01
   0  -1   0   -0.16    0.00
   0  -1   0   -0.16    0.00
   1   0   0   -0.16    0.01
   1   0   0   -0.16    0.01
  -1   1   0   -0.16    0.00
   1  -1   0   -0.16    0.00
   1  -1   0   -0.16    0.01
   0   1   0   -0.16    0.00
  -1   0   0   -0.16    0.01
  -1   0   0   -0.16    0.01
   0   1   0   -0.16    0.00
   0  -2   0  107.70    4.29
  -2   2   0  106.16    4.28
   2   0   0  101.33    4.32
  -2   0   0  104.44    4.32
   0   2   0  103.14    4.29
  -3   1   0    0.40    0.05
   1   2   0    0.41    0.05
  -3   1   0    0.41    0.05
   2  -3   0    0.63    0.05
   1   2   0    0.42    0.05
  -2   3   0    0.42    0.04
  -1  -2   0    0.46    0.05
  -1  -2   0    0.46    0.05
   3  -1   0    0.47    0.05
  -2   3   0    0.59    0.05
   3  -1   0    0.36    0.05
  -3   2   0    0.36    0.04
   1  -3   0    0.57    0.05
   2   1   0    0.42    0.05
   2   1   0    0.30    0.05
  -3   2   0    0.51    0.05
  -2  -1   0    0.33    0.05
  -1   3   0    0.50    0.04
  -2  -1   0    0.56    0.06
   3  -2   0    0.61    0.06
   3  -2   0    0.43    0.05
  -1   3   0    0.42    0.04
   3   0   0   20.53    0.95
  -3   3   0   21.99    0.94
   3   0   0   20.64    0.95
   0  -3   0   20.53    0.94
   0  -3   0   22.11    0.94
  -3   3   0   20.90    0.94
   3  -3   0   22.13    0.94
   3  -3   0   20.61    0.94
  -3   0   0   21.31    0.95
   0   3   0   21.07    0.94
  -3   0   0   22.32    0.95
   0   3   0   22.93    0.94
   1   3   0    5.48    0.25
   3  -4   0    5.44    0.25
  -4   1   0    5.40    0.26
  -1  -3   0    5.81    0.26
   4  -1   0    5.36    0.26
  -1  -3   0    5.19    0.25
   4  -1   0    5.04    0.26
  -3   4   0    5.37    0.24
   2  -4   0   -1.45    0.00
  -4   3   0    5.30    0.25
   3   1   0    4.92    0.26
   1  -4   0    5.42    0.24
   4  -3   0    4.97    0.25
  -1   4   0    5.50    0.24
   4  -3   0    5.27    0.25
  -3  -1   0    5.87    0.26
  -3  -1   0    5.27    0.25
   0  -4   0   87.44    3.70
   4   0   0   84.59    3.68
  -4   4   0   96.76    3.67
   0  -4   0   92.75    3.67
   4   0   0   88.97    3.68
   4  -4   0   91.10    3.67
  -4   0   0   91.54    3.68
   0   4   0   91.30    3.70
   4  -4   0   86.57    3.70
   4  -5   0    3.53    0.21
   1   4   0    3.93    0.22
  -5   1   0    3.85    0.23
  -1  -4   0    3.63    0.22
   5  -1   0    3.75    0.23
  -1  -4   0    3.29    0.21
  -4   5   0    3.81    0.20
  -5   2   0   38.79    1.50
   3  -5   0   36.30    1.48
   2   3   0   39.49    1.50
  -3   5   0   36.42    1.48
   5  -2   0   35.28    1.50
  -2  -3   0   36.33    1.50
  -2  -3   0   33.54    1.49
   5  -2   0   31.78    1.49
   3   2   0   36.68    1.52
   2  -5   0   37.10    1.50
  -5   3   0   38.26    1.51
  -2   5   0   38.08    1.50
   5  -3   0   38.16    1.52
  -3  -2   0   35.95    1.52
   5  -3   0   33.75    1.51
  -3  -2   0   33.67    1.51
   1  -5   0    3.36    0.20
   1  -5   0    3.77    0.21
   4   1   0    3.69    0.22
  -5   4   0    3.98    0.21
   1  -5   0    3.99    0.21
   5  -4   0    3.39    0.21
  -1   5   0    3.57    0.20
   5  -4   0    3.79    0.22
   0  -5   0    0.69    0.07
   5   0   0    0.65    0.09
  -5   5   0    0.69    0.07
   0  -5   0    0.65    0.08
   5  -5   0    0.75    0.08
   0   5   0    0.74    0.08
   5  -5   0    0.56    0.07
  -5   0   0    0.89    0.10
   5  -6   0    0.36    0.06
   1   5   0    0.38    0.06
  -6   1   0    0.38    0.08
  -5   6   0    0.45    0.06
   6  -1   0    0.34    0.08
  -1  -5   0    0.37    0.06
  -1  -5   0    0.31    0.06
   4  -6   0   22.06    0.88
  -6   2   0   21.19    0.90
   2   4   0   21.01    0.89
  -4   6   0   21.01    0.87
   6  -2   0   21.74    0.90
  -2  -4   0   18.62    0.89
  -2  -4   0   21.19    0.90
  -6   3   0   95.62    3.79
   3   3   0   95.38    3.79
   3  -6   0   91.97    3.77
  -3  -3   0   97.03    3.79
  -3   6   0   96.35    3.77
  -3  -3   0   83.80    3.78
   6  -3   0   92.47    3.79
   6  -3   0   85.46    3.79
   4   2   0   21.84    0.90
  -6   4   0   21.40    0.89
   2  -6   0   21.65    0.88
  -4  -2   0   20.78    0.90
   6  -4   0   19.23    0.89
  -2   6   0   21.23    0.87
   6  -4   0   20.34    0.89
   1  -6   0    0.37    0.05
   1  -6   0    0.60    0.07
   5   1   0    0.24    0.07
   1  -6   0    0.54    0.07
   6  -5   0    0.35    0.06
  -1   6   0    0.26    0.05
   6  -5   0    0.35    0.07
  -5  -1   0    0.22    0.06
   6   0   0  940.57   37.71
  -6   6   0  933.27   37.57
   0  -6   0  884.16   37.59
   6  -6   0  858.22   37.58
   0   6   0  968.74   37.59
  -6   0   0  965.00   37.75
   6  -7   0    2.36    0.15
   1   6   0    2.16    0.14
   6  -7   0    2.11    0.13
  -7   1   0    2.01    0.16
  -1  -6   0    2.08    0.14
  -1  -6   0    2.14    0.15
  -6   7   0    2.06    0.13
   7  -1   0    2.10    0.16
  -7   2   0   17.10    0.74
   2   5   0   16.52    0.72
   5  -7   0   16.77    0.71
  -5   7   0   16.83    0.70
  -2  -5   0   16.84    0.73
   7  -2   0   15.93    0.73
  -2  -5   0   14.64    0.72
   4  -7   0    0.16    0.05
  -7   3   0    0.18    0.06
   3   4   0    0.61    0.08
  -3  -4   0    0.10    0.05
   7  -3   0    0.28    0.07
  -4   7   0    0.23    0.04
  -3  -4   0    0.52    0.09
  -7   4   0    0.20    0.06
   7  -4   0    0.12    0.05
   7  -4   0    0.11    0.05
  -3   7   0    0.24    0.04
  -4  -3   0    0.31    0.07
  -7   5   0   17.13    0.73
   2  -7   0   17.25    0.73
   5   2   0   17.29    0.75
  -5  -2   0   17.28    0.75
  -2   7   0   16.36    0.71
   7  -5   0   14.41    0.73
   7  -5   0   17.12    0.74
  -7   6   0    2.14    0.14
   1  -7   0    2.26    0.14
   1  -7   0    2.24    0.15
   6   1   0    2.24    0.17
  -6  -1   0    2.43    0.17
   7  -6   0    2.23    0.15
   7  -6   0    2.03    0.14
  -1   7   0    2.21    0.14
   7   0   0   43.01    1.78
   0  -7   0   43.43    1.77
  -7   7   0   43.00    1.75
   0  -7   0   39.64    1.76
  -7   0   0   45.49    1.79
   0   7   0   42.14    1.76
   7  -7   0   38.00    1.76
   7  -7   0   44.15    1.77
  -8   1   0   11.16    0.51
   7  -8   0   10.82    0.48
   7  -8   0    9.70    0.47
   1   7   0   10.54    0.48
   8  -1   0   10.27    0.50
  -1  -7   0    8.89    0.48
  -1  -7   0   11.10    0.50
  -7   8   0   10.72    0.47
  -8   2   0   46.07    1.85
   6  -8   0   45.48    1.83
   2   6   0   44.25    1.83
  -6   8   0   43.94    1.81
   8  -2   0   44.11    1.85
  -2  -6   0   45.11    1.84
  -2  -6   0   38.84    1.83
  -8   3   0    2.47    0.18
   3   5   0    2.63    0.17
   5  -8   0    2.64    0.16
   8  -3   0    2.66    0.19
  -5   8   0    2.63    0.14
  -3  -5   0    2.56    0.19
  -8   4   0 1000.00   39.56
   4   4   0  975.01   39.53
  -4   8   0  960.75   39.32
  -4  -4   0  921.55   39.51
   8  -4   0  991.80   39.58
   3  -8   0    2.61    0.16
   5   3   0    2.59    0.18
  -8   5   0    2.42    0.16
   8  -5   0    2.02    0.16
  -3   8   0    2.16    0.14
   8  -5   0    2.67    0.18
  -5  -3   0    2.79    0.19
   2  -8   0   46.65    1.86
   2  -8   0   41.56    1.85
   2  -8   0   47.05    1.86
  -8   6   0   45.18    1.86
   6   2   0   46.69    1.88
  -6  -2   0   43.29    1.88
   8  -6   0   46.83    1.88
  -2   8   0   45.45    1.85
   8  -6   0   40.03    1.86
   7   1   0   10.92    0.51
  -8   7   0   10.58    0.48
   1  -8   0   10.82    0.49
   1  -8   0    9.77    0.48
  -1   8   0   11.08    0.48
   8  -7   0    9.44    0.49
  -7  -1   0   11.00    0.52
   8  -7   0   11.19    0.50
   0  -8   0   72.37    2.88
  -8   8   0   67.48    2.86
   0  -8   0   63.39    2.87
   8   0   0   72.87    2.90
   8  -8   0   62.27    2.86
   8  -8   0   75.29    2.88
   0   8   0   71.09    2.86
  -8   0   0   72.60    2.90
   8  -9   0    5.40    0.30
   8  -9   0    6.37    0.32
   1   8   0    6.09    0.31
  -9   1   0    6.67    0.35
  -1  -8   0    6.40    0.33
  -1  -8   0    5.25    0.31
  -8   9   0    5.87    0.29
   9  -1   0    6.55    0.35
   2   7   0    0.58    0.09
  -9   2   0    1.07    0.13
   7  -9   0    0.58    0.09
   9  -2   0    0.78    0.12
  -7   9   0    0.74    0.08
  -2  -7   0    0.62    0.09
  -2  -7   0    0.56    0.10
   3   6   0    3.05    0.19
  -9   3   0    2.91    0.21
   6  -9   0    2.90    0.18
  -6   9   0    2.87    0.16
   9  -3   0    2.91    0.21
  -3  -6   0    3.15    0.22
   4   5   0    7.39    0.36
   5  -9   0    7.21    0.34
  -9   4   0    6.76    0.36
  -4  -5   0    7.24    0.37
  -5   9   0    6.73    0.32
   9  -4   0    6.60    0.37
   5   4   0    6.93    0.36
   4  -9   0    6.86    0.33
  -9   5   0    6.58    0.35
   9  -5   0    6.87    0.36
  -4   9   0    6.79    0.31
  -5  -4   0    6.73    0.37
   3  -9   0    2.63    0.18
   6   3   0    2.73    0.20
  -9   6   0    2.72    0.18
  -3   9   0    2.70    0.15
   9  -6   0    2.35    0.18
   9  -6   0    2.81    0.20
  -6  -3   0    2.70    0.21
  -9   7   0    0.72    0.10
   2  -9   0    0.52    0.08
   2  -9   0    0.52    0.09
   7   2   0    0.88    0.12
   9  -7   0    0.74    0.10
  -2   9   0    0.69    0.08
   9  -7   0    0.79    0.11
  -7  -2   0    1.00    0.14
  -9   8   0    6.36    0.31
   1  -9   0    5.69    0.31
   1  -9   0    6.35    0.32
  -8  -1   0    6.81    0.35
   9  -8   0    5.23    0.31
   9  -8   0    6.18    0.33
  -1   9   0    6.33    0.30
  -9   9   0    0.74    0.09
   9   0   0    0.54    0.12
   0  -9   0    0.55    0.10
   0  -9   0    0.50    0.09
  -9   0   0    0.81    0.13
   0   9   0    0.46    0.08
   9  -9   0    0.50    0.09
   9  -9   0    0.77    0.11
   9 -10   0    0.48    0.10
   1   9   0    0.58    0.09
 -10   1   0    0.69    0.13
  -1  -9   0    0.50    0.11
  -9  10   0    0.73    0.09
  10  -1   0    0.77    0.14
   2   8   0  428.32   17.95
 -10   2   0  445.80   18.13
   8 -10   0  441.10   18.04
  10  -2   0  452.35   18.08
  -2  -8   0  466.42   17.99
  -8  10   0  415.84   17.89
 -10   3   0    1.11    0.15
   7 -10   0    1.05    0.12
   3   7   0    1.04    0.13
  -3  -7   0    1.14    0.15
  10  -3   0    0.89    0.13
  -7  10   0    1.02    0.09
   4   6   0   59.11    2.44
   6 -10   0   58.76    2.43
 -10   4   0   58.06    2.45
  -4  -6   0   59.56    2.46
  10  -4   0   60.97    2.46
  -6  10   0   55.50    2.40
   5 -10   0   29.68    1.26
   5   5   0   29.28    1.28
 -10   5   0   28.77    1.28
  -5  10   0   28.52    1.23
  -5  -5   0   31.51    1.30
  10  -5   0   30.54    1.29
   6   4   0   60.17    2.50
   4 -10   0   59.77    2.47
 -10   6   0   57.28    2.48
  -4  10   0   57.89    2.45
  -6  -4   0   60.67    2.51
  10  -6   0   62.56    2.50
 -10   7   0    1.27    0.13
   7   3   0    1.07    0.14
   3 -10   0    1.13    0.13
   3 -10   0    1.04    0.12
   3 -10   0    0.91    0.10
  -7  -3   0    0.82    0.13
  10  -7   0    0.87    0.12
  -3  10   0    1.17    0.10
  10  -7   0    1.11    0.14
   2 -10   0  435.00   16.94
 -10   8   0  434.16   16.95
   8   2   0  437.94   16.98
   2 -10   0  360.10   16.85
  10  -8   0  356.90   16.84
  -2  10   0  414.73   16.83
  10  -8   0  448.01   17.06
  -8  -2   0  438.50   17.26
 -10   9   0    0.49    0.08
   1 -10   0    0.55    0.11
   9   1   0    0.77    0.13
  -1  10   0    0.50    0.08
  -9  -1   0    0.61    0.13
  10  -9   0    0.50    0.11
   0 -10   0   31.79    1.38
  10   0   0   32.68    1.40
  10 -10   0   32.90    1.38
   0  10   0   30.40    1.35
 -10   0   0   31.95    1.40
 -11   1   0   11.36    0.57
  10 -11   0   11.29    0.53
  11  -1   0   10.31    0.56
  -1 -10   0   10.42    0.54
 -11   2   0   17.77    0.85
   9 -11   0   18.13    0.82
   2   9   0   17.56    0.81
  11  -2   0   18.96    0.86
  -2  -9   0   18.75    0.84
   3   8   0    5.10    0.30
 -11   3   0    5.37    0.33
   8 -11   0    5.40    0.30
  11  -3   0    5.56    0.34
  -3  -8   0    5.72    0.34
   7 -11   0    0.16    0.08
 -11   4   0    0.43    0.11
   4   7   0    0.40    0.09
  -4  -7   0    0.40    0.10
  11  -4   0    0.44    0.11
   5   6   0    0.16    0.08
   6 -11   0    0.20    0.08
 -11   5   0    0.37    0.10
  -5  -6   0    0.18    0.09
  11  -5   0    0.25    0.09
 -11   6   0    0.11    0.07
   5 -11   0    0.25    0.07
   6   5   0    0.20    0.09
  -6  -5   0    0.08    0.09
  11  -6   0    0.38    0.11
   7   4   0    0.50    0.11
 -11   7   0    0.36    0.09
   4 -11   0    0.38    0.09
   4 -11   0    0.26    0.08
  11  -7   0    0.33    0.10
  -7  -4   0    0.37    0.11
   3 -11   0    5.10    0.29
 -11   8   0    4.78    0.28
   8   3   0    4.94    0.31
  11  -8   0    5.25    0.31
  -8  -3   0    5.81    0.34
   9   2   0   19.06    0.85
 -11   9   0   16.45    0.81
   2 -11   0   18.83    0.83
  -9  -2   0   18.73    0.86
  11  -9   0   18.55    0.84
  10   1   0   10.91    0.57
   1 -11   0   10.90    0.55
  11 -10   0   11.40    0.55
 -10  -1   0   11.59    0.58
  11   0   0    5.36    0.35
   0 -11   0    5.74    0.33
  11 -11   0    5.05    0.31
 -11   0   0    5.00    0.35
  11 -12   0    5.36    0.32
 -12   1   0    4.88    0.35
  12  -1   0    4.78    0.35
  -1 -11   0    5.22    0.34
  10 -12   0   19.93    0.91
 -12   2   0   19.76    0.95
  12  -2   0   21.47    0.96
  -2 -10   0   20.16    0.93
 -12   3   0    7.62    0.43
   9 -12   0    7.61    0.40
   3   9   0    7.74    0.42
  12  -3   0    7.32    0.44
  -3  -9   0    8.07    0.44
   4   8   0   32.05    1.42
 -12   4   0   33.18    1.44
   8 -12   0   32.62    1.41
  -4  -8   0   33.08    1.45
  12  -4   0   34.08    1.46
   7 -12   0    3.36    0.23
 -12   5   0    3.88    0.26
   5   7   0    3.50    0.25
  -5  -7   0    3.81    0.28
  12  -5   0    3.04    0.26
   6   6   0  291.37   11.85
   6 -12   0  284.87   11.90
 -12   6   0  280.79   11.84
  12  -6   0  298.43   11.87
  -6  -6   0  300.04   11.87
 -12   7   0    3.47    0.24
   5 -12   0    3.44    0.24
   7   5   0    3.40    0.25
  -7  -5   0    4.07    0.29
  12  -7   0    3.60    0.27
   8   4   0   32.56    1.45
 -12   8   0   31.27    1.42
   4 -12   0   33.60    1.42
  12  -8   0   34.09    1.45
  -8  -4   0   34.55    1.47
   9   3   0    7.85    0.43
   3 -12   0    8.03    0.41
  12  -9   0    7.43    0.42
  -9  -3   0    7.52    0.44
   2 -12   0   20.90    0.93
  10   2   0   20.75    0.96
  12 -10   0   20.02    0.94
 -10  -2   0   20.81    0.97
   1 -12   0    4.93    0.32
  11   1   0    5.19    0.35
  12 -11   0    5.14    0.32
 -11  -1   0    5.34    0.36
  12   0   0  174.77    7.26
   0 -12   0  174.77    7.23
  12 -12   0  176.76    7.23
 -12   0   0  179.18    7.27
  12 -13   0    2.29    0.22
 -13   1   0    2.11    0.24
  -1 -12   0    2.44    0.24
  13  -1   0    2.23    0.25
  11 -13   0    0.27    0.10
 -13   2   0    0.39    0.13
  13  -2   0    0.24    0.12
  -2 -11   0    0.35    0.12
  10 -13   0    1.28    0.16
 -13   3   0    1.32    0.18
  13  -3   0    1.10    0.17
  -3 -10   0    1.31    0.17
 -13   4   0    5.72    0.36
   9 -13   0    5.37    0.33
  13  -4   0    5.82    0.37
  -4  -9   0    6.27    0.37
   8 -13   0    3.12    0.22
   5   8   0    3.32    0.24
 -13   5   0    3.01    0.25
  -5  -8   0    2.75    0.26
  13  -5   0    3.02    0.26
 -13   6   0   10.81    0.56
   6   7   0   10.36    0.55
   7 -13   0   11.27    0.53
  -6  -7   0   11.50    0.58
  13  -6   0   11.12    0.58
   6 -13   0   10.98    0.53
   7   6   0   10.52    0.55
 -13   7   0   10.27    0.55
  -7  -6   0   11.14    0.58
  13  -7   0   11.39    0.57
   5 -13   0    3.26    0.23
   8   5   0    2.85    0.24
   5 -13   0    3.21    0.23
  13  -8   0    2.66    0.25
  -8  -5   0    3.02    0.28
   9   4   0    5.91    0.37
   4 -13   0    5.87    0.34
  13  -9   0    6.19    0.37
  -9  -4   0    5.90    0.39
   3 -13   0    1.30    0.17
  10   3   0    1.61    0.21
  13 -10   0    1.14    0.17
 -10  -3   0    1.82    0.22
   2 -13   0    0.23    0.10
  11   2   0    0.16    0.11
 -11  -2   0    0.30    0.12
  13 -11   0    0.13    0.10
   1 -13   0    2.37    0.24
  12   1   0    2.77    0.27
 -12  -1   0    2.01    0.24
  13 -12   0    2.57    0.24
  13   0   0   13.03    0.68
   0 -13   0   12.79    0.66
  13 -13   0   12.53    0.65
 -13   0   0   13.44    0.69
  13 -14   0    7.16    0.41
 -14   1   0    6.16    0.43
  14  -1   0    6.20    0.43
  -1 -13   0    6.45    0.42
 -14   2   0   24.94    1.20
  12 -14   0   25.75    1.17
  14  -2   0   26.92    1.22
  -2 -12   0   26.15    1.19
  11 -14   0    0.44    0.11
 -14   3   0    0.23    0.12
  -3 -11   0    0.52    0.14
  14  -3   0    0.43    0.13
 -14   4   0  138.74    5.98
  10 -14   0  145.69    5.95
  14  -4   0  145.82    6.00
  -4 -10   0  149.44    5.99
 -14   5   0    2.01    0.22
   9 -14   0    1.90    0.19
  14  -5   0    2.41    0.26
  -5  -9   0    2.51    0.26
   8 -14   0   20.18    0.93
  -6  -8   0   20.65    0.98
  14  -6   0   21.18    0.98
   7 -14   0   15.91    0.75
   7   7   0   15.29    0.77
  -7  -7   0   16.86    0.80
  14  -7   0   16.26    0.79
   6 -14   0   20.70    0.95
   6 -14   0   21.00    0.95
   8   6   0   20.26    0.98
  14  -8   0   22.26    1.00
  -8  -6   0   21.55    1.01
   5 -14   0    2.05    0.21
   9   5   0    2.03    0.23
  14  -9   0    2.24    0.24
  -9  -5   0    2.44    0.26
  10   4   0  141.88    5.95
   4 -14   0  140.83    5.92
 -10  -4   0  142.24    5.96
  14 -10   0  151.17    5.96
   3 -14   0    0.54    0.13
  11   3   0    0.58    0.15
 -11  -3   0    0.51    0.14
  14 -11   0    0.46    0.14
  12   2   0   26.75    1.21
   2 -14   0   26.66    1.18
 -12  -2   0   25.01    1.21
  14 -12   0   25.48    1.19
   1 -14   0    6.72    0.41
  13   1   0    6.70    0.44
 -13  -1   0    6.23    0.44
  14 -13   0    6.81    0.42
  14   0   0   16.03    0.84
   0 -14   0   16.46    0.81
  14 -14   0   16.99    0.81
 -14   0   0   15.63    0.83
  14 -15   0    1.51    0.21
 -15   1   0    1.34    0.22
  -1 -14   0    1.92    0.24
  15  -1   0    1.37    0.22
 -15   2   0    2.50    0.29
  13 -15   0    2.43    0.25
  -2 -13   0    2.31    0.26
  15  -2   0    2.84    0.31
  12 -15   0    2.42    0.24
  15  -3   0    2.70    0.30
  -3 -12   0    2.29    0.26
  11 -15   0    9.50    0.51
  15  -4   0   10.21    0.57
  -4 -11   0    9.78    0.56
  10 -15   0    4.38    0.30
  15  -5   0    4.64    0.35
  -5 -10   0    4.31    0.35
   9 -15   0    0.17    0.10
  -6  -9   0    0.31    0.14
  15  -6   0    0.32    0.14
   8 -15   0    5.00    0.31
  15  -7   0    4.40    0.35
  -7  -8   0    5.22    0.37
   7 -15   0    4.94    0.31
   7 -15   0    4.79    0.32
  -8  -7   0    5.08    0.38
  15  -8   0    4.95    0.36
   6 -15   0    0.17    0.10
  -9  -6   0    0.24    0.14
  15  -9   0    0.01    0.11
  10   5   0    3.84    0.31
   5 -15   0    4.35    0.30
  15 -10   0    4.02    0.33
 -10  -5   0    4.46    0.35
  11   4   0    8.64    0.52
   4 -15   0    9.14    0.50
  15 -11   0    8.79    0.52
 -11  -4   0    9.86    0.55
  12   3   0    2.92    0.30
   3 -15   0    2.16    0.24
  15 -12   0    2.49    0.26
 -12  -3   0    2.13    0.27
   2 -15   0    2.38    0.25
  13   2   0    2.40    0.28
  15 -13   0    2.45    0.26
 -13  -2   0    2.14    0.26
  14   1   0    1.89    0.26
   1 -15   0    1.73    0.23
 -14  -1   0    1.97    0.26
  15 -14   0    1.61    0.22
   0 -15   0    0.01    0.13
  15   0   0    0.32    0.15
 -15   0   0    0.15    0.15
  15 -15   0    0.35    0.14
  15 -16   0    0.10    0.12
  16  -1   0   -0.01    0.12
  -1 -15   0    0.08    0.13
  14 -16   0   69.74    2.89
  16  -2   0   65.75    2.93
  -2 -14   0   68.00    2.91
  13 -16   0    3.02    0.28
  16  -3   0    3.50    0.33
  -3 -13   0    3.38    0.32
  12 -16   0   19.53    0.92
  16  -4   0   19.37    0.98
  -4 -12   0   20.04    0.97
  11 -16   0    9.26    0.49
  16  -5   0    7.90    0.53
  -5 -11   0    9.17    0.54
  10 -16   0   16.24    0.76
  16  -6   0   15.28    0.82
  -6 -10   0   16.05    0.82
   9 -16   0    1.36    0.18
  -7  -9   0    1.29    0.21
  16  -7   0    1.32    0.23
   8 -16   0  106.92    4.40
   8 -16   0  108.66    4.40
  16  -8   0  103.32    4.45
  -8  -8   0  105.75    4.46
   7 -16   0    1.28    0.19
  -9  -7   0    1.27    0.22
  16  -9   0    1.19    0.22
   6 -16   0   15.38    0.75
 -10  -6   0   15.44    0.81
  16 -10   0   15.87    0.80
   5 -16   0    8.96    0.49
 -11  -5   0    8.81    0.55
  16 -11   0    8.69    0.53
  12   4   0   18.63    0.97
   4 -16   0   18.72    0.90
  16 -12   0   18.76    0.93
 -12  -4   0   19.32    0.95
   3 -16   0    3.40    0.30
  13   3   0    3.35    0.33
  16 -13   0    3.12    0.31
 -13  -3   0    3.40    0.34
  14   2   0   64.57    2.86
   2 -16   0   67.59    2.83
 -14  -2   0   64.41    2.86
  16 -14   0   67.85    2.84
   1 -16   0    0.11    0.14
  15   1   0    0.02    0.13
  16 -15   0    0.27    0.14
 -15  -1   0    0.31    0.17
  14 -17   0    0.32    0.13
  -3 -14   0    0.35    0.17
  17  -3   0    0.31    0.15
  13 -17   0    0.15    0.12
  -4 -13   0    0.08    0.15
  17  -4   0    0.05    0.13
  12 -17   0    1.70    0.21
  -5 -12   0    2.02    0.27
  17  -5   0    1.88    0.26
  11 -17   0    3.04    0.26
  17  -6   0    2.56    0.30
  -6 -11   0    3.01    0.33
  10 -17   0    0.42    0.13
  -7 -10   0    0.41    0.17
  17  -7   0    0.28    0.17
   9 -17   0    7.38    0.44
   9 -17   0    7.66    0.43
  17  -8   0    7.19    0.49
  -8  -9   0    6.90    0.50
   8 -17   0    7.66    0.44
  -9  -8   0    7.32    0.50
  17  -9   0    7.00    0.49
   7 -17   0    0.42    0.13
  17 -10   0    0.55    0.17
 -10  -7   0    0.11    0.15
   6 -17   0    2.60    0.26
 -11  -6   0    2.54    0.30
  17 -11   0    2.81    0.31
   5 -17   0    2.15    0.25
 -12  -5   0    1.76    0.25
  17 -12   0    2.08    0.27
   4 -17   0    0.07    0.12
 -13  -4   0    0.25    0.14
  17 -13   0    0.06    0.13
   3 -17   0    0.55    0.16
 -14  -3   0    0.67    0.20
  17 -14   0    0.42    0.16
  11 -18   0    1.88    0.22
  -7 -11   0    1.46    0.25
  18  -7   0    1.66    0.26
  10 -18   0   14.81    0.72
  10 -18   0   14.48    0.71
  18  -8   0   13.96    0.78
  -8 -10   0   13.55    0.78
   9 -18   0   10.41    0.56
  -9  -9   0   10.03    0.63
  18  -9   0   10.23    0.63
   8 -18   0   13.80    0.71
 -10  -8   0   13.89    0.78
  18 -10   0   14.69    0.78
   7 -18   0    1.77    0.22
 -11  -7   0    1.48    0.24
  18 -11   0    1.64    0.26
   0   0  -1   -0.54    0.01
   0   0  -1   -0.54    0.01
   0   0   1   -0.55    0.01
   0   0   1   -0.55    0.01
   1  -1  -1    0.43    0.05
  -1  -1  -1   -0.19    0.03
  -1   2  -1   -0.18    0.03
  -1  -1  -1   -0.16    0.03
  -1   2  -1   -0.17    0.03
   2  -1  -1   -0.22    0.02
   2  -1  -1   -0.16    0.02
   1   1   1   -0.13    0.03
  -2   1   1   -0.03    0.03
  -2   1   1   -0.15    0.02
   1  -2   1   -0.19    0.03
   1   1   1   -0.13    0.03
   1  -2   1   -0.14    0.03
  -2  -1  -1   10.80    0.45
  -1   3  -1    9.41    0.44
  -2  -1  -1   10.27    0.45
   3  -2  -1   10.67    0.44
  -1   3  -1   11.03    0.45
   2   1   1   10.19    0.45
  -3   2   1   10.42    0.44
   2   1   1    9.26    0.44
   1  -3   1    9.53    0.45
   1  -3   1   10.09    0.45
  -3   2   1    9.95    0.44
   2  -2  -1  180.28    7.18
   0   2  -1  175.55    7.26
   2  -2  -1  170.99    7.18
  -2   0  -1  171.23    7.24
   0  -2   1  176.15    7.27
  -2   2   1  183.51    7.17
  -2   2   1  173.27    7.16
   2   0   1  165.97    7.25
   2   0   1  180.12    7.27
   0  -2   1  185.82    7.29
  -2   1  -1   -0.20    0.03
   1   1  -1   -0.19    0.03
   1   1  -1   -0.17    0.03
  -2   1  -1   -0.21    0.03
   1   1  -1   -0.12    0.04
  -1  -1   1   -0.18    0.03
   2  -1   1   -0.13    0.04
   2  -1   1   -0.22    0.03
  -1  -1   1   -0.11    0.04
   0  -2  -1  177.07    7.17
   0  -2  -1  171.36    7.16
  -2   2  -1  166.79    7.22
  -2   2  -1  169.29    7.24
   2   0  -1  180.35    7.23
   2   0  -1  173.37    7.22
  -2   0   1  183.32    7.25
   0   2   1  174.85    7.16
   2  -2   1  166.85    7.22
  -2   0   1  173.42    7.22
   2  -2   1  182.76    7.26
   0   2   1  188.07    7.16
  -1  -2  -1   10.72    0.45
   3  -1  -1   10.49    0.45
  -2   3  -1   10.53    0.45
  -2   3  -1    9.66    0.45
  -1  -2  -1   10.45    0.45
   3  -1  -1   11.00    0.45
   2  -3   1    9.50    0.45
  -3   1   1   10.48    0.45
   1   2   1   10.43    0.45
   2  -3   1   10.29    0.45
  -3   1   1   10.02    0.45
   1   2   1    9.40    0.44
  -2   4  -1   -0.01    0.05
  -2  -2  -1    0.11    0.05
   4  -2  -1   -0.05    0.04
  -2  -2  -1    0.06    0.05
   2  -4   1    0.25    0.06
  -2   5  -1   66.19    2.58
  -3  -2  -1   62.43    2.59
   5  -3  -1   60.41    2.58
   5  -3  -1   63.04    2.58
  -3  -2  -1   58.52    2.58
  -5   3   1   64.69    2.58
   2  -5   1   60.15    2.58
   2  -5   1   65.43    2.59
   3   2   1   65.94    2.59
  -3  -1  -1   10.01    0.43
   4  -3  -1    9.81    0.42
  -1   4  -1   10.83    0.43
   1  -4   1    9.20    0.42
   3   1   1    8.89    0.43
  -4   3   1    9.08    0.41
   1  -4   1    8.71    0.42
   0   3  -1    4.01    0.21
   3  -3  -1    4.15    0.19
   0   3  -1    4.22    0.21
   3  -3  -1    3.84    0.19
  -3   0  -1    4.07    0.21
   0  -3   1    4.07    0.21
  -3   3   1    4.00    0.18
   0  -3   1    4.08    0.20
   3   0   1    3.96    0.21
  -3   3   1    4.30    0.18
   0  -3   1    4.25    0.21
   3   0   1    4.10    0.21
   1   2  -1   10.18    0.45
  -3   1  -1    9.77    0.45
   1   2  -1    9.87    0.45
   1   2  -1   10.32    0.45
  -3   1  -1   10.54    0.45
  -1  -2   1    9.60    0.45
   3  -1   1   10.40    0.45
  -1  -2   1   10.61    0.45
   3  -1   1    9.76    0.45
   2   1  -1   10.57    0.46
   2   1  -1   10.65    0.46
   1  -3  -1   10.90    0.44
  -3   2  -1   11.07    0.46
   1  -3  -1   10.77    0.44
   3  -2   1   10.14    0.46
  -2  -1   1    9.66    0.46
   3  -2   1    9.70    0.46
  -3   3  -1    4.10    0.21
   3   0  -1    3.76    0.21
   3   0  -1    3.86    0.21
   0  -3  -1    4.16    0.19
  -3   0   1    3.89    0.20
  -3   0   1    4.29    0.21
   0   3   1    4.28    0.19
   0   3   1    4.16    0.19
   3  -3   1    3.80    0.20
   3  -3   1    4.04    0.21
   4  -1  -1    9.61    0.42
  -1  -3  -1    9.21    0.41
  -3   4  -1   10.28    0.42
  -1  -3  -1    9.90    0.41
   4  -1  -1    9.57    0.42
   1   3   1    8.80    0.41
   3  -4   1    8.12    0.41
  -4   1   1    9.20    0.42
   3  -4   1    9.05    0.42
  -2  -3  -1   63.79    2.57
   5  -2  -1   62.66    2.57
   5  -2  -1   57.62    2.57
  -2  -3  -1   59.76    2.56
  -3   5  -1   64.28    2.56
  -5   2   1   65.39    2.57
   2   3   1   65.94    2.57
   3  -5   1   65.10    2.57
   3  -5   1   58.40    2.56
   6  -3  -1   -0.06    0.05
   6  -3  -1   -0.03    0.04
  -3   6  -1    0.08    0.05
  -3  -3  -1   -0.05    0.04
  -3  -3  -1   -0.08    0.05
  -6   3   1   -0.01    0.05
   3   3   1   -0.05    0.05
   3  -6   1   -0.07    0.04
   3  -6   1   -0.01    0.05
  -4  -3  -1    7.15    0.36
   7  -4  -1    7.47    0.36
   7  -4  -1    7.78    0.36
  -3   7  -1    8.08    0.35
  -4  -3  -1    7.92    0.37
   4   3   1    7.59    0.36
  -7   4   1    7.38    0.35
   3  -7   1    7.51    0.36
   3  -7   1    6.81    0.35
  -2   6  -1   47.91    1.85
   6  -4  -1   42.81    1.85
  -4  -2  -1   45.89    1.86
   6  -4  -1   45.48    1.85
  -4  -2  -1   40.00    1.85
  -6   4   1   45.72    1.85
   2  -6   1   41.48    1.85
   2  -6   1   46.67    1.85
   4   2   1   46.68    1.86
  -4  -1  -1    5.19    0.27
  -1   5  -1    6.10    0.27
   5  -4  -1    5.79    0.26
  -5   4   1    5.71    0.26
   4   1   1    5.54    0.28
   1  -5   1    5.11    0.27
   1  -5   1    5.46    0.27
   0   4  -1    4.66    0.23
   4  -4  -1    4.43    0.21
   4  -4  -1    4.28    0.21
  -4   0  -1    4.46    0.23
  -4   4   1    4.41    0.20
   0  -4   1    4.09    0.22
   4   0   1    4.82    0.23
   0  -4   1    4.22    0.23
   0  -4   1    4.40    0.23
  -4   1  -1   10.05    0.44
   1   3  -1   10.08    0.43
   3  -4  -1    9.81    0.40
   3  -4  -1   10.39    0.41
  -4   1  -1    9.45    0.43
  -1  -3   1    9.13    0.43
   4  -1   1    8.82    0.43
  -1  -3   1    8.35    0.42
   2  -4  -1    0.05    0.03
   2  -4  -1   -0.08    0.02
   4  -2   1    0.18    0.06
   4  -2   1   -0.10    0.05
  -4   3  -1    9.74    0.42
   3   1  -1    9.48    0.42
   1  -4  -1   10.56    0.40
   3   1  -1    9.99    0.42
   1  -4  -1    9.81    0.40
  -3  -1   1    8.98    0.42
  -1   4   1    8.67    0.39
   4  -3   1    8.30    0.41
   4  -3   1    9.19    0.42
  -1   4   1    8.16    0.39
   4   0  -1    4.18    0.23
   0  -4  -1    4.56    0.22
   4   0  -1    4.61    0.23
  -4   4  -1    4.51    0.23
   4  -4   1    4.66    0.23
   4  -4   1    4.00    0.22
  -4   0   1    4.80    0.24
   0   4   1    4.66    0.21
  -1  -4  -1    5.57    0.27
  -4   5  -1    6.05    0.28
   5  -1  -1    5.93    0.29
  -1  -4  -1    6.05    0.28
  -5   1   1    5.68    0.29
   4  -5   1    5.35    0.28
   4  -5   1    5.96    0.28
   1   4   1    5.80    0.27
   6  -2  -1   40.73    1.84
   6  -2  -1   44.53    1.85
  -2  -4  -1   42.03    1.84
  -4   6  -1   45.44    1.84
  -2  -4  -1   47.82    1.85
  -6   2   1   48.02    1.85
   4  -6   1   46.60    1.85
   4  -6   1   39.48    1.84
   2   4   1   45.82    1.84
   7  -3  -1    6.70    0.35
  -4   7  -1    7.59    0.34
  -3  -4  -1    6.94    0.35
  -3  -4  -1    8.11    0.37
   7  -3  -1    7.98    0.36
  -7   3   1    7.34    0.35
   4  -7   1    7.68    0.35
   3   4   1    7.45    0.35
   4  -7   1    6.89    0.34
   8  -4  -1    0.07    0.06
   8  -4  -1    0.03    0.05
  -4   8  -1    0.02    0.05
  -4  -4  -1    0.02    0.06
   4  -8   1    0.09    0.06
   4   4   1   -0.02    0.06
   4  -8   1   -0.07    0.04
  -8   4   1    0.15    0.06
  -4   9  -1   10.92    0.49
   9  -5  -1    9.53    0.50
  -5  -4  -1   10.79    0.53
   9  -5  -1   11.70    0.52
   4  -9   1    9.61    0.49
   4  -9   1   12.23    0.52
   5   4   1   11.57    0.52
  -9   5   1   11.26    0.51
   8  -5  -1    1.86    0.14
  -5  -3  -1    1.91    0.17
   8  -5  -1    2.01    0.16
  -3   8  -1    1.98    0.14
   3  -8   1    1.97    0.14
   5   3   1    2.12    0.16
   3  -8   1    2.22    0.15
  -5  -2  -1   10.22    0.47
  -2   7  -1   10.36    0.45
   7  -5  -1    9.40    0.45
   7  -5  -1   10.67    0.46
   2  -7   1   10.26    0.46
   5   2   1   10.05    0.47
   2  -7   1    8.61    0.45
  -7   5   1   10.28    0.45
   6  -5  -1    3.63    0.19
  -1   6  -1    3.67    0.19
  -5  -1  -1    3.87    0.21
   5   1   1    3.10    0.20
   1  -6   1    3.35    0.20
  -6   5   1    3.41    0.17
   1  -6   1    3.08    0.18
  -5   0  -1    3.53    0.20
   0   5  -1    3.39    0.18
   5  -5  -1    3.34    0.17
   5  -5  -1    3.37    0.17
   0  -5   1    3.08    0.18
   0  -5   1    3.07    0.19
  -5   5   1    3.09    0.15
   5   0   1    3.27    0.19
   4  -5  -1    5.92    0.25
  -5   1  -1    5.60    0.28
   1   4  -1    5.70    0.28
   4  -5  -1    5.63    0.25
  -1  -4   1    5.13    0.27
   5  -1   1    5.52    0.28
  -1  -4   1    5.60    0.28
   3  -5  -1   61.57    2.59
   2   3  -1   64.45    2.61
  -5   2  -1   65.15    2.61
   3  -5  -1   64.98    2.59
  -2  -3   1   56.43    2.60
  -2  -3   1   65.83    2.61
   5  -2   1   65.75    2.61
   2  -5  -1   62.58    2.57
   3   2  -1   65.59    2.61
  -5   3  -1   66.91    2.61
   2  -5  -1   63.91    2.57
   5  -3   1   56.50    2.60
   5  -3   1   66.14    2.61
  -3  -2   1   61.51    2.61
   4   1  -1    5.70    0.28
   1  -5  -1    6.08    0.26
   1  -5  -1    5.73    0.26
  -5   4  -1    5.91    0.28
  -4  -1   1    5.53    0.28
   5  -4   1    5.12    0.27
  -1   5   1    5.44    0.25
   5  -4   1    5.67    0.28
   0  -5  -1    3.41    0.17
   5   0  -1    3.49    0.19
  -5   5  -1    3.21    0.18
  -5   0   1    3.15    0.19
   0   5   1    3.14    0.16
   5  -5   1    2.85    0.17
   5  -5   1    3.07    0.18
  -1  -5  -1    3.37    0.18
  -1  -5  -1    3.66    0.19
  -5   6  -1    3.69    0.19
   6  -1  -1    3.53    0.20
   5  -6   1    2.95    0.18
   1   5   1    3.30    0.18
  -6   1   1    3.36    0.20
   5  -6   1    3.30    0.19
   7  -2  -1   10.20    0.47
  -2  -5  -1   10.35    0.46
  -5   7  -1   10.19    0.46
  -2  -5  -1    9.01    0.45
   5  -7   1    9.16    0.45
   5  -7   1   10.38    0.46
  -7   2   1   10.32    0.47
   2   5   1   10.69    0.46
  -3  -5  -1    1.84    0.15
  -5   8  -1    2.04    0.14
   8  -3  -1    1.95    0.16
  -3  -5  -1    1.95    0.16
   3   5   1    2.64    0.16
  -8   3   1    2.51    0.17
   5  -8   1    2.09    0.14
   5  -8   1    2.31    0.16
   9  -4  -1   11.70    0.54
  -5   9  -1   11.13    0.51
  -4  -5  -1   11.27    0.54
   4   5   1   11.78    0.53
  -9   4   1   11.38    0.53
   5  -9   1    9.74    0.51
   5  -9   1   11.79    0.52
  10  -5  -1    0.00    0.08
  -5  -5  -1    0.09    0.09
  -5  10  -1    0.05    0.06
 -10   5   1    0.02    0.07
   5 -10   1   -0.01    0.05
   5 -10   1   -0.05    0.06
   5   5   1   -0.01    0.06
  11  -6  -1    2.78    0.21
  -6  -5  -1    2.44    0.22
  -5  11  -1    2.20    0.16
 -11   6   1    2.41    0.18
   5 -11   1    2.51    0.19
   6   5   1    2.37    0.20
  -6  -4  -1   48.24    1.86
  10  -6  -1   36.70    1.82
  10  -6  -1   44.66    1.84
  -4  10  -1   43.09    1.81
 -10   6   1   45.74    1.82
   4 -10   1   37.87    1.81
   4 -10   1   45.22    1.83
   6   4   1   46.49    1.84
  -6  -3  -1    4.93    0.30
   9  -6  -1    4.85    0.27
  -3   9  -1    5.32    0.27
   9  -6  -1    5.43    0.29
  -9   6   1    5.32    0.27
   3  -9   1    5.05    0.28
   3  -9   1    5.01    0.27
   6   3   1    5.21    0.29
  -6  -2  -1   59.86    2.48
   8  -6  -1   55.08    2.45
   8  -6  -1   61.22    2.46
  -2   8  -1   59.68    2.45
  -8   6   1   62.38    2.45
   2  -8   1   63.06    2.47
   6   2   1   62.01    2.48
   2  -8   1   52.85    2.45
   7  -6  -1   22.91    0.94
  -6  -1  -1   22.48    0.96
  -1   7  -1   22.81    0.94
   1  -7   1   21.95    0.95
   1  -7   1   19.05    0.93
   1  -7   1   21.76    0.95
  -7   6   1   22.46    0.92
   6   1   1   22.06    0.95
  -6   0  -1    4.05    0.23
   6  -6  -1    4.12    0.20
   0   6  -1    3.84    0.21
   6  -6  -1    3.70    0.19
   0  -6   1    3.23    0.20
  -6   6   1    3.55    0.18
   6   0   1    4.15    0.23
   0  -6   1    3.90    0.22
   5  -6  -1    3.42    0.17
  -6   1  -1    3.47    0.21
   5  -6  -1    3.78    0.18
   1   5  -1    3.59    0.20
  -5   6   1    3.29    0.15
  -1  -5   1    3.72    0.21
  -1  -5   1    3.10    0.19
   6  -1   1    3.34    0.21
   4  -6  -1   46.53    1.89
   4  -6  -1   44.13    1.89
   2   4  -1   47.41    1.92
  -6   2  -1   45.80    1.93
   6  -2   1   46.14    1.93
  -2  -4   1   47.94    1.93
  -6   3  -1    0.12    0.06
   3  -6  -1   -0.02    0.03
   3   3  -1   -0.05    0.05
   6  -3   1    0.02    0.05
  -3  -3   1   -0.05    0.05
   4   2  -1   46.21    1.91
   2  -6  -1   44.57    1.88
  -6   4  -1   46.89    1.91
   2  -6  -1   47.30    1.88
   6  -4   1   49.29    1.91
   6  -4   1   40.36    1.90
  -4  -2   1   47.10    1.92
   1  -6  -1    3.54    0.18
   1  -6  -1    3.91    0.18
   5   1  -1    3.54    0.21
  -6   5  -1    3.92    0.20
   6  -5   1    3.63    0.21
   6  -5   1    3.15    0.19
  -1   6   1    3.21    0.16
  -5  -1   1    3.24    0.21
  -6   6  -1    3.80    0.21
   0  -6  -1    3.99    0.21
   6   0  -1    3.80    0.22
  -6   0   1    3.96    0.23
   6  -6   1    3.83    0.22
   0   6   1    3.90    0.19
   6  -6   1    3.36    0.21
  -1  -6  -1   22.95    0.93
  -1  -6  -1   20.37    0.92
  -6   7  -1   21.66    0.92
   7  -1  -1   22.28    0.94
  -7   1   1   21.63    0.94
   6  -7   1   22.38    0.93
   1   6   1   21.74    0.91
   6  -7   1   19.46    0.92
  -2  -6  -1   61.03    2.44
  -2  -6  -1   52.04    2.43
   8  -2  -1   60.76    2.46
  -6   8  -1   60.33    2.43
   6  -8   1   51.79    2.43
   2   6   1   61.10    2.43
  -8   2   1   61.41    2.45
   6  -8   1   63.36    2.45
  -3  -6  -1    5.32    0.29
   9  -3  -1    5.12    0.29
  -3  -6  -1    4.37    0.26
  -6   9  -1    5.36    0.26
   6  -9   1    4.91    0.27
   6  -9   1    4.46    0.26
   3   6   1    5.34    0.27
  -9   3   1    5.20    0.29
  -6  10  -1   43.92    1.86
  -4  -6  -1   46.79    1.90
  10  -4  -1   46.49    1.90
   6 -10   1   46.31    1.88
   4   6   1   46.09    1.88
 -10   4   1   46.65    1.89
   6 -10   1   37.50    1.86
  11  -5  -1    2.45    0.22
  -5  -6  -1    2.68    0.22
  -6  11  -1    2.55    0.17
   5   6   1    2.49    0.19
   6 -11   1    2.40    0.19
 -11   5   1    2.39    0.20
  12  -6  -1    0.06    0.08
  -6  -6  -1    0.00    0.09
   6   6   1    0.04    0.07
 -12   6   1    0.24    0.08
   6 -12   1    0.05    0.07
  -7  -6  -1   11.69    0.60
  13  -7  -1   11.38    0.59
   7   6   1   10.57    0.57
   6 -13   1   11.82    0.56
  -7  -5  -1    2.49    0.24
  12  -7  -1    2.82    0.23
 -12   7   1    2.58    0.20
   7   5   1    2.44    0.22
   5 -12   1    2.54    0.21
  11  -7  -1    6.88    0.36
  -4  11  -1    6.47    0.32
  -7  -4  -1    6.60    0.38
   7   4   1    6.05    0.36
   4 -11   1    6.50    0.35
 -11   7   1    5.93    0.33
  -7  -3  -1    3.17    0.24
  10  -7  -1    3.32    0.22
  10  -7  -1    2.50    0.20
  -3  10  -1    3.25    0.19
   7   3   1    3.28    0.23
   3 -10   1    3.41    0.22
 -10   7   1    3.13    0.19
   3 -10   1    3.20    0.22
   3 -10   1    2.74    0.19
   9  -7  -1   11.16    0.50
   9  -7  -1    9.54    0.49
  -2   9  -1   11.13    0.49
  -7  -2  -1   10.58    0.52
   2  -9   1    9.21    0.48
   2  -9   1   10.72    0.50
   2  -9   1   10.69    0.50
   7   2   1   11.19    0.52
  -9   7   1   10.83    0.48
  -7  -1  -1    3.30    0.23
   8  -7  -1    3.52    0.21
  -1   8  -1    3.55    0.20
   7   1   1    3.42    0.23
   1  -8   1    3.09    0.20
   1  -8   1    3.46    0.22
  -8   7   1    3.46    0.18
  -7   0  -1    8.97    0.43
   7  -7  -1    9.54    0.41
   0   7  -1    9.13    0.41
   7  -7  -1    7.64    0.39
  -7   7   1    8.62    0.38
   7   0   1    9.39    0.43
   0  -7   1    8.88    0.42
   0  -7   1    7.63    0.41
  -7   1  -1   22.40    0.95
   6  -7  -1   23.49    0.92
   6  -7  -1   21.55    0.91
   1   6  -1   22.57    0.94
  -1  -6   1   21.70    0.94
  -1  -6   1   19.28    0.94
   7  -1   1   22.40    0.95
  -6   7   1   20.74    0.90
  -7   2  -1   10.19    0.48
   5  -7  -1    9.60    0.44
   5  -7  -1   10.57    0.45
   2   5  -1   10.09    0.47
   7  -2   1   10.39    0.49
  -2  -5   1   10.65    0.48
   4  -7  -1    7.43    0.34
   4  -7  -1    8.10    0.34
  -7   3  -1    8.34    0.38
   3   4  -1    7.55    0.37
  -3  -4   1    7.63    0.38
   7  -3   1    7.56    0.38
   3  -7  -1    8.17    0.35
   4   3  -1    7.91    0.38
   3  -7  -1    7.30    0.34
  -7   4  -1    8.03    0.38
  -4  -3   1    8.13    0.39
   7  -4   1    7.99    0.39
   2  -7  -1    9.65    0.44
  -7   5  -1   10.61    0.47
   2  -7  -1   10.96    0.45
   5   2  -1   10.91    0.48
  -2   7   1   10.13    0.43
  -5  -2   1   10.57    0.49
   7  -5   1   10.17    0.48
   7  -5   1    8.52    0.47
   1  -7  -1   20.06    0.90
   6   1  -1   21.48    0.94
  -7   6  -1   23.05    0.93
   1  -7  -1   23.71    0.91
  -6  -1   1   21.31    0.94
  -1   7   1   21.38    0.89
   7  -6   1   22.35    0.93
   7  -6   1   18.57    0.92
   7   0  -1    9.40    0.44
   0  -7  -1    9.41    0.42
  -7   7  -1    9.39    0.42
   7  -7   1    9.51    0.44
  -7   0   1    9.09    0.44
   7  -7   1    7.78    0.42
   0   7   1    8.76    0.40
   8  -1  -1    3.37    0.22
  -1  -7  -1    2.99    0.19
  -1  -7  -1    3.78    0.21
  -7   8  -1    3.29    0.20
   1   7   1    3.45    0.19
   7  -8   1    3.37    0.21
   7  -8   1    2.87    0.19
  -8   1   1    3.48    0.23
  -7   9  -1   10.97    0.48
   9  -2  -1   10.73    0.51
  -2  -7  -1   10.88    0.50
  -2  -7  -1    9.51    0.48
  -9   2   1   10.41    0.50
   7  -9   1   10.74    0.49
   7  -9   1    8.60    0.47
   2   7   1   10.69    0.48
  -3  -7  -1    3.08    0.22
  -7  10  -1    3.11    0.18
  10  -3  -1    3.22    0.23
  -3  -7  -1    2.46    0.19
 -10   3   1    3.74    0.23
   7 -10   1    2.42    0.18
   3   7   1    3.31    0.20
   7 -10   1    2.86    0.20
  -4  -7  -1    6.46    0.36
  11  -4  -1    6.39    0.37
  -7  11  -1    6.17    0.32
 -11   4   1    6.38    0.35
   7 -11   1    6.48    0.34
   4   7   1    5.83    0.33
  -5  -7  -1    2.69    0.24
  12  -5  -1    2.97    0.24
   5   7   1    2.61    0.21
   7 -12   1    2.78    0.21
 -12   5   1    2.64    0.22
  -6  -7  -1   11.71    0.60
  13  -6  -1   11.70    0.59
   6   7   1   10.95    0.56
   7 -13   1   11.30    0.56
  14  -7  -1   -0.20    0.08
  -7  -7  -1    0.16    0.12
   7 -14   1   -0.02    0.08
  15  -8  -1    0.67    0.16
  -8  -7  -1    0.43    0.15
   7 -15   1    0.76    0.14
  14  -8  -1   16.46    0.78
  -8  -6  -1   15.53    0.79
   6 -14   1   15.51    0.75
  13  -8  -1    2.54    0.23
  -8  -5  -1    2.56    0.26
   5 -13   1    2.39    0.21
   5 -13   1    2.17    0.21
   8   5   1    2.21    0.22
  -8  -4  -1   20.02    0.94
  12  -8  -1   20.43    0.92
   4 -12   1   20.58    0.91
   4 -12   1   20.24    0.91
   8   4   1   19.68    0.93
  -8  -3  -1    5.39    0.34
  -3  11  -1    5.25    0.29
  11  -8  -1    5.52    0.32
   8   3   1    5.44    0.33
   3 -11   1    5.34    0.31
   3 -11   1    5.56    0.32
 -11   8   1    5.50    0.29
  10  -8  -1    1.56    0.15
  -2  10  -1    1.00    0.12
  10  -8  -1    1.03    0.12
  -8  -2  -1    1.13    0.16
 -10   8   1    1.23    0.12
   2 -10   1    1.07    0.13
   8   2   1    1.13    0.14
   9  -8  -1    1.28    0.12
  -1   9  -1    1.27    0.13
   9  -8  -1    1.37    0.14
  -8  -1  -1    1.36    0.16
   1  -9   1    1.27    0.13
   1  -9   1    1.05    0.13
  -9   8   1    1.23    0.10
   8   1   1    1.40    0.15
  -8   0  -1   36.01    1.56
   8  -8  -1   36.99    1.53
   0   8  -1   37.15    1.54
   0  -8   1   36.96    1.55
   8   0   1   36.65    1.56
  -8   8   1   35.06    1.50
   7  -8  -1    3.66    0.20
   7  -8  -1    3.42    0.19
   1   7  -1    3.34    0.21
  -8   1  -1    3.56    0.24
   8  -1   1    3.67    0.24
  -1  -7   1    3.58    0.23
   6  -8  -1   62.12    2.52
   2   6  -1   61.20    2.54
   6  -8  -1   57.70    2.51
  -8   2  -1   59.68    2.55
  -2  -6   1   63.35    2.55
   8  -2   1   64.29    2.56
   3   5  -1    2.16    0.16
   5  -8  -1    1.96    0.12
  -8   3  -1    2.14    0.17
   5  -8  -1    2.28    0.13
  -3  -5   1    2.31    0.18
   8  -3   1    2.24    0.18
   4  -8  -1    0.12    0.05
  -8   4  -1    0.09    0.06
   4  -8  -1   -0.03    0.03
   4   4  -1    0.09    0.06
   8  -4   1    0.13    0.07
  -4  -4   1    0.05    0.07
   5   3  -1    2.01    0.16
   3  -8  -1    2.10    0.13
  -8   5  -1    1.88    0.16
   3  -8  -1    1.96    0.12
  -5  -3   1    2.28    0.18
   8  -5   1    2.51    0.18
   2  -8  -1   64.00    2.49
  -8   6  -1   60.87    2.51
   6   2  -1   61.34    2.52
   2  -8  -1   57.48    2.49
  -6  -2   1   61.36    2.53
  -2   8   1   57.42    2.47
   8  -6   1   62.25    2.52
   7   1  -1    3.38    0.23
  -8   7  -1    3.31    0.21
   1  -8  -1    3.72    0.20
  -1   8   1    3.41    0.18
  -7  -1   1    3.93    0.24
   8  -7   1    3.52    0.22
   8  -7   1    2.90    0.20
   0  -8  -1   36.80    1.44
  -8   8  -1   34.98    1.44
   0  -8  -1   31.99    1.43
   8   0  -1   35.59    1.47
   0   8   1   34.78    1.42
   8  -8   1   34.72    1.45
  -8   0   1   35.02    1.47
   8  -8   1   29.25    1.44
  -1  -8  -1    1.70    0.15
  -1  -8  -1    1.21    0.13
   9  -1  -1    1.46    0.17
  -8   9  -1    1.27    0.13
   8  -9   1    1.23    0.13
  -9   1   1    1.48    0.17
   1   8   1    1.17    0.11
   8  -9   1    1.10    0.13
  10  -2  -1    1.28    0.16
  -8  10  -1    1.00    0.11
  -2  -8  -1    1.20    0.14
 -10   2   1    1.17    0.15
   8 -10   1    1.09    0.13
   2   8   1    1.07    0.12
  -3  -8  -1    5.61    0.33
  11  -3  -1    5.63    0.34
 -11   3   1    5.32    0.32
   3   8   1    5.59    0.30
   8 -11   1    5.38    0.31
  12  -4  -1   20.13    0.96
  -4  -8  -1   20.71    0.95
 -12   4   1   20.97    0.95
   8 -12   1   21.02    0.93
   4   8   1   20.97    0.93
  13  -5  -1    2.17    0.23
  -5  -8  -1    2.43    0.23
 -13   5   1    2.23    0.22
   8 -13   1    2.36    0.21
  14  -6  -1   14.44    0.75
  -6  -8  -1   15.95    0.76
   8 -14   1   15.07    0.72
  15  -7  -1    0.86    0.17
  -7  -8  -1    0.63    0.17
   8 -15   1    0.65    0.14
  -8  -8  -1   -0.08    0.13
  16  -8  -1    0.05    0.12
   8 -16   1    0.11    0.11
  17  -9  -1    2.21    0.27
  -9  -8  -1    2.26    0.28
   8 -17   1    2.26    0.25
   8 -17   1    2.45    0.26
  16  -9  -1    0.37    0.15
  -9  -7  -1    0.45    0.16
   7 -16   1    0.55    0.14
   7 -16   1    0.56    0.15
  -9  -6  -1    3.76    0.32
  15  -9  -1    3.47    0.31
   6 -15   1    3.82    0.29
   6 -15   1    3.83    0.29
  14  -9  -1    1.82    0.21
  -9  -5  -1    1.61    0.22
   9   5   1    1.80    0.21
   5 -14   1    1.67    0.19
   5 -14   1    1.40    0.18
  -9  -4  -1    1.97    0.22
  13  -9  -1    2.44    0.22
   4 -13   1    2.25    0.21
   9   4   1    2.34    0.24
  -9  -3  -1    0.23    0.10
  12  -9  -1    0.15    0.09
   9   3   1    0.20    0.11
   3 -12   1    0.17    0.09
  11  -9  -1   13.11    0.64
  -9  -2  -1   14.12    0.67
   9   2   1   13.67    0.66
   2 -11   1   13.70    0.65
  -1  10  -1    8.55    0.41
  -9  -1  -1    8.39    0.46
  10  -9  -1    8.82    0.43
   1 -10   1    8.09    0.43
   9   1   1    8.15    0.45
   0   9  -1   16.63    0.76
  -9   0  -1   17.14    0.80
   9  -9  -1   17.19    0.76
   9   0   1   16.59    0.79
   0  -9   1   17.58    0.78
   8  -9  -1    1.38    0.13
   8  -9  -1    1.18    0.11
   1   8  -1    1.50    0.15
  -9   1  -1    1.21    0.15
   9  -1   1    1.39    0.16
  -1  -8   1    1.38    0.15
   7  -9  -1   10.45    0.49
   2   7  -1   10.95    0.52
  -9   2  -1   11.11    0.54
   7  -9  -1   11.82    0.50
  -2  -7   1   11.81    0.54
   9  -2   1   10.07    0.53
   6  -9  -1    5.00    0.25
  -9   3  -1    5.16    0.30
   3   6  -1    5.41    0.29
   6  -9  -1    5.49    0.26
  -3  -6   1    5.19    0.30
   9  -3   1    5.47    0.31
   4   5  -1   11.01    0.54
  -9   4  -1   11.36    0.54
   5  -9  -1   10.76    0.50
   5  -9  -1   11.94    0.50
   9  -4   1   11.98    0.55
  -4  -5   1   11.56    0.55
  -9   5  -1   11.01    0.53
   5   4  -1   11.38    0.53
   4  -9  -1   11.86    0.50
   4  -9  -1   10.21    0.49
   9  -5   1   11.24    0.54
  -5  -4   1   11.70    0.54
   6   3  -1    5.67    0.31
   3  -9  -1    5.57    0.27
   3  -9  -1    5.03    0.26
   3  -9  -1    5.51    0.27
  -9   6  -1    5.41    0.29
   9  -6   1    5.32    0.31
  -6  -3   1    5.15    0.31
   7   2  -1   10.94    0.54
   2  -9  -1   11.84    0.51
  -9   7  -1   11.17    0.52
   2  -9  -1   10.36    0.49
   9  -7   1   11.03    0.53
  -7  -2   1   11.21    0.54
   8   1  -1    1.53    0.17
   1  -9  -1    1.35    0.14
  -9   8  -1    1.44    0.14
   9  -8   1    1.32    0.14
  -1   9   1    1.29    0.10
  -8  -1   1    1.55    0.17
   9  -8   1    1.21    0.15
  -9   9  -1   16.03    0.69
   9   0  -1   16.52    0.73
   0  -9  -1   14.09    0.68
   0  -9  -1   16.46    0.70
  -9   0   1   15.96    0.72
   9  -9   1   15.12    0.70
   0   9   1   15.55    0.67
   9  -9   1   12.80    0.69
  10  -1  -1    8.98    0.45
  -9  10  -1    8.20    0.41
  -1  -9  -1    8.47    0.43
   9 -10   1    7.99    0.43
   1   9   1    8.32    0.40
 -10   1   1    8.09    0.44
  -2  -9  -1   13.70    0.66
  11  -2  -1   14.24    0.68
   9 -11   1   14.12    0.66
 -11   2   1   14.34    0.69
  12  -3  -1    0.39    0.12
  -3  -9  -1    0.21    0.10
   9 -12   1    0.36    0.10
 -12   3   1    0.25    0.11
  -4  -9  -1    2.26    0.23
  13  -4  -1    2.05    0.22
   9 -13   1    1.84    0.19
 -13   4   1    2.28    0.23
  -5  -9  -1    1.91    0.23
  14  -5  -1    1.81    0.22
   9 -14   1    1.65    0.19
  15  -6  -1    3.15    0.30
  -6  -9  -1    3.31    0.31
   9 -15   1    3.60    0.28
  16  -7  -1    0.38    0.15
  -7  -9  -1    0.51    0.17
   9 -16   1    0.48    0.13
  17  -8  -1    2.37    0.29
  -8  -9  -1    2.84    0.32
   9 -17   1    2.91    0.27
  -9  -9  -1   -0.02    0.14
  18  -9  -1    0.07    0.14
   9 -18   1   -0.13    0.11
   9 -18   1    0.03    0.12
 -10  -8  -1    9.63    0.60
  18 -10  -1    8.93    0.58
   8 -18   1    9.58    0.55
 -10  -7  -1    1.95    0.26
  17 -10  -1    1.63    0.24
   7 -17   1    1.63    0.23
 -10  -6  -1   14.76    0.78
  16 -10  -1   14.32    0.76
   6 -16   1   15.29    0.75
  15 -10  -1    3.65    0.30
 -10  -5  -1    3.77    0.33
   5 -15   1    3.68    0.29
  14 -10  -1    1.46    0.19
 -10  -4  -1    1.43    0.22
  10   4   1    1.35    0.20
   4 -14   1    1.15    0.17
 -10  -3  -1    0.82    0.16
  13 -10  -1    0.67    0.13
  10   3   1    0.78    0.15
   3 -13   1    0.61    0.13
 -10  -2  -1   21.92    1.03
  12 -10  -1   22.46    1.00
  10   2   1   22.54    1.03
   2 -12   1   22.25    1.01
  11 -10  -1    2.75    0.21
 -10  -1  -1    2.66    0.25
   1 -11   1    2.52    0.22
  10   1   1    2.73    0.24
   0  10  -1   27.70    1.25
 -10   0  -1   30.02    1.30
  10 -10  -1   29.83    1.25
   0 -10   1   29.55    1.28
  10   0   1   28.33    1.29
   1   9  -1    8.58    0.43
   9 -10  -1    8.03    0.41
 -10   1  -1    8.91    0.47
   9 -10  -1    9.12    0.42
  -1  -9   1    9.19    0.46
  10  -1   1    8.26    0.46
   8 -10  -1    1.11    0.11
   8 -10  -1    1.26    0.12
   2   8  -1    1.40    0.15
 -10   2  -1    1.22    0.15
  10  -2   1    0.82    0.13
  -2  -8   1    1.26    0.15
 -10   3  -1    3.42    0.25
   7 -10  -1    3.42    0.19
   3   7  -1    3.16    0.22
   7 -10  -1    3.14    0.19
  10  -3   1    3.40    0.25
  -3  -7   1    3.03    0.24
 -10   4  -1   45.11    1.91
   6 -10  -1   45.54    1.87
   6 -10  -1   41.14    1.86
   4   6  -1   44.08    1.90
  10  -4   1   47.45    1.92
  -4  -6   1   47.91    1.92
   5 -10  -1    0.03    0.04
   5   5  -1    0.08    0.08
   5 -10  -1    0.05    0.06
 -10   5  -1    0.05    0.08
  -5  -5   1    0.04    0.08
  10  -5   1    0.09    0.09
   4 -10  -1   46.06    1.89
   4 -10  -1   41.45    1.88
   6   4  -1   45.95    1.93
 -10   6  -1   45.29    1.92
  -6  -4   1   46.42    1.93
  10  -6   1   47.84    1.93
 -10   7  -1    3.04    0.22
   3 -10  -1    2.93    0.18
   7   3  -1    3.32    0.23
   3 -10  -1    3.29    0.19
  10  -7   1    3.32    0.24
  -7  -3   1    3.07    0.24
   2 -10  -1    1.06    0.11
 -10   8  -1    1.28    0.14
   2 -10  -1    1.05    0.12
   8   2  -1    1.10    0.15
  -8  -2   1    1.54    0.18
  10  -8   1    1.11    0.14
 -10   9  -1    8.56    0.43
   1 -10  -1    8.70    0.43
   9   1  -1    8.81    0.46
  -9  -1   1    8.43    0.46
  10  -9   1    8.80    0.45
 -10  10  -1   27.22    1.23
   0 -10  -1   29.36    1.25
  10   0  -1   29.12    1.28
  10 -10   1   28.69    1.26
 -10   0   1   29.82    1.28
  11  -1  -1    2.82    0.24
  -1 -10  -1    2.61    0.22
 -11   1   1    2.33    0.23
  10 -11   1    2.79    0.22
  12  -2  -1   21.59    1.00
  -2 -10  -1   21.55    0.98
  10 -12   1   21.96    0.98
 -12   2   1   21.68    1.00
  -3 -10  -1    0.64    0.14
  13  -3  -1    1.02    0.18
  10 -13   1    0.74    0.14
 -13   3   1    0.92    0.16
  -4 -10  -1    1.41    0.21
  14  -4  -1    1.17    0.19
  10 -14   1    1.32    0.17
  -5 -10  -1    3.51    0.31
  15  -5  -1    3.49    0.32
  10 -15   1    3.77    0.29
  16  -6  -1   15.00    0.77
  -6 -10  -1   14.13    0.76
  10 -16   1   14.15    0.72
  -7 -10  -1    1.80    0.26
  17  -7  -1    1.58    0.24
  10 -17   1    1.90    0.23
  -8 -10  -1    9.37    0.60
  18  -8  -1    9.43    0.60
  10 -18   1   10.33    0.56
 -11  -7  -1    0.31    0.18
  18 -11  -1    0.57    0.19
   7 -18   1    0.61    0.17
 -11  -6  -1    0.84    0.21
  17 -11  -1    0.93    0.20
   6 -17   1    0.94    0.18
 -11  -5  -1    0.19    0.14
  16 -11  -1    0.17    0.14
   5 -16   1    0.36    0.14
 -11  -4  -1    5.86    0.41
  15 -11  -1    5.14    0.37
  11   4   1    5.57    0.39
   4 -15   1    6.02    0.38
  14 -11  -1    3.23    0.27
 -11  -3  -1    3.30    0.32
   3 -14   1    2.84    0.26
  11   3   1    2.86    0.28
 -11  -2  -1    4.33    0.34
  13 -11  -1    4.78    0.32
   2 -13   1    4.82    0.32
  11   2   1    4.74    0.34
 -11  -1  -1    0.90    0.17
  12 -11  -1    0.57    0.12
  11   1   1    0.50    0.13
   1 -12   1    0.41    0.12
 -11   0  -1    3.90    0.31
  11 -11  -1    4.35    0.27
   0 -11   1    4.32    0.29
  11   0   1    4.28    0.30
 -11   1  -1    2.47    0.24
   1  10  -1    2.71    0.20
  10 -11  -1    2.80    0.20
  -1 -10   1    2.88    0.24
  11  -1   1    2.62    0.24
 -11   2  -1   14.30    0.70
   2   9  -1   14.24    0.67
   9 -11  -1   14.90    0.66
  -2  -9   1   14.28    0.69
  11  -2   1   14.41    0.70
 -11   3  -1    5.58    0.34
   8 -11  -1    4.61    0.27
   8 -11  -1    5.54    0.28
   3   8  -1    5.78    0.31
  -3  -8   1    5.91    0.34
  11  -3   1    5.14    0.34
   7 -11  -1    5.78    0.31
   4   7  -1    6.65    0.35
 -11   4  -1    6.32    0.36
   7 -11  -1    6.40    0.32
  -4  -7   1    6.89    0.38
  11  -4   1    6.38    0.37
   5   6  -1    2.67    0.21
   6 -11  -1    2.31    0.15
 -11   5  -1    2.61    0.21
   6 -11  -1    2.45    0.17
  11  -5   1    2.85    0.23
  -5  -6   1    2.74    0.22
   5 -11  -1    2.47    0.16
 -11   6  -1    2.45    0.20
   6   5  -1    2.41    0.20
   5 -11  -1    2.59    0.17
  -6  -5   1    2.29    0.22
  11  -6   1    2.59    0.22
   4 -11  -1    5.86    0.31
 -11   7  -1    6.04    0.34
   7   4  -1    6.36    0.36
   4 -11  -1    6.85    0.32
  -7  -4   1    6.31    0.37
  11  -7   1    6.78    0.37
 -11   8  -1    5.24    0.31
   3 -11  -1    5.73    0.29
   8   3  -1    5.44    0.33
   3 -11  -1    4.75    0.28
  11  -8   1    5.51    0.33
  -8  -3   1    5.73    0.34
   2 -11  -1   13.91    0.65
   9   2  -1   14.23    0.69
 -11   9  -1   13.37    0.65
  -9  -2   1   14.67    0.70
  11  -9   1   14.59    0.68
  10   1  -1    2.56    0.24
   1 -11  -1    2.73    0.21
  11 -10   1    2.81    0.23
 -10  -1   1    2.95    0.25
   0 -11  -1    4.17    0.27
  11   0  -1    4.29    0.30
  11 -11   1    3.86    0.28
 -11   0   1    3.87    0.29
  12  -1  -1    0.71    0.14
  -1 -11  -1    0.77    0.14
 -12   1   1    0.67    0.15
  11 -12   1    0.49    0.12
  -2 -11  -1    3.97    0.31
  13  -2  -1    5.09    0.35
 -13   2   1    4.15    0.33
  11 -13   1    4.76    0.31
  -3 -11  -1    2.89    0.27
  14  -3  -1    2.99    0.29
  11 -14   1    2.53    0.24
 -14   3   1    2.47    0.25
  15  -4  -1    5.41    0.40
  -4 -11  -1    5.11    0.38
  11 -15   1    6.05    0.37
  16  -5  -1    0.22    0.15
  -5 -11  -1    0.42    0.16
  11 -16   1    0.25    0.13
  17  -6  -1    0.86    0.19
  -6 -11  -1    0.81    0.20
  11 -17   1    0.83    0.17
  18  -7  -1    0.37    0.16
  -7 -11  -1    0.41    0.19
  11 -18   1    0.44    0.15
  17 -12  -1    0.35    0.15
 -12  -5  -1    0.63    0.19
   5 -17   1    0.09    0.13
 -12  -4  -1   11.59    0.65
  16 -12  -1   10.93    0.62
   4 -16   1   11.15    0.61
  15 -12  -1    0.69    0.16
 -12  -3  -1    0.90    0.20
   3 -15   1    0.61    0.15
  12   3   1    0.44    0.15
 -12  -2  -1   17.25    0.85
  14 -12  -1   17.01    0.81
  12   2   1   16.00    0.83
   2 -14   1   16.69    0.82
 -12  -1  -1    1.94    0.24
  13 -12  -1    1.34    0.18
  12   1   1    1.77    0.22
   1 -13   1    1.50    0.20
 -12   0  -1    1.60    0.22
  12 -12  -1    1.60    0.18
   0 -12   1    1.32    0.18
  12   0   1    1.77    0.22
 -12   1  -1    0.63    0.15
  11 -12  -1    0.58    0.11
  12  -1   1    0.78    0.16
  -1 -11   1    0.56    0.13
  10 -12  -1   22.46    0.98
 -12   2  -1   21.08    1.02
  -2 -10   1   22.59    1.02
  12  -2   1   22.50    1.03
 -12   3  -1    0.23    0.11
   3   9  -1    0.22    0.09
   9 -12  -1    0.32    0.08
  -3  -9   1    0.12    0.11
  12  -3   1    0.26    0.11
   4   8  -1   19.69    0.93
 -12   4  -1   20.77    0.95
   8 -12  -1   20.83    0.90
  12  -4   1   21.33    0.96
  -4  -8   1   20.86    0.96
   7 -12  -1    2.82    0.18
 -12   5  -1    2.59    0.23
   5   7  -1    2.43    0.21
  -5  -7   1    2.66    0.24
  12  -5   1    2.88    0.24
   6   6  -1    0.04    0.07
 -12   6  -1    0.08    0.08
   6 -12  -1    0.09    0.06
  12  -6   1   -0.04    0.08
  -6  -6   1    0.01    0.10
   7   5  -1    2.63    0.22
   5 -12  -1    2.76    0.18
 -12   7  -1    2.23    0.21
   5 -12  -1    2.56    0.18
  12  -7   1    2.23    0.23
  -7  -5   1    2.80    0.24
 -12   8  -1   19.89    0.94
   4 -12  -1   21.10    0.91
   8   4  -1   20.61    0.96
  -8  -4   1   21.08    0.97
  12  -8   1   21.58    0.96
 -12   9  -1    0.34    0.10
   9   3  -1    0.07    0.09
   3 -12  -1    0.32    0.09
  -9  -3   1    0.28    0.13
  12  -9   1    0.47    0.13
  10   2  -1   21.81    1.02
   2 -12  -1   22.06    0.98
 -10  -2   1   22.02    1.03
  12 -10   1   22.60    1.02
  11   1  -1    0.54    0.15
   1 -12  -1    0.73    0.13
  12 -11   1    0.73    0.14
 -11  -1   1    0.47    0.14
   0 -12  -1    1.55    0.18
  12   0  -1    1.94    0.23
 -12   0   1    1.61    0.21
  12 -12   1    1.43    0.19
  13  -1  -1    1.58    0.21
  -1 -12  -1    1.34    0.18
 -13   1   1    1.61    0.22
  12 -13   1    1.45    0.19
  14  -2  -1   16.79    0.84
  -2 -12  -1   16.87    0.81
 -14   2   1   16.02    0.82
  12 -14   1   16.56    0.80
  15  -3  -1    0.68    0.17
  -3 -12  -1    0.69    0.16
  12 -15   1    0.60    0.15
  16  -4  -1   10.95    0.64
  -4 -12  -1   11.24    0.63
  12 -16   1   11.49    0.61
  17  -5  -1    0.44    0.17
  -5 -12  -1    0.25    0.16
  12 -17   1    0.32    0.14
 -13  -4  -1    1.69    0.26
  17 -13  -1    1.67    0.23
   4 -17   1    1.60    0.23
  16 -13  -1    0.46    0.15
 -13  -3  -1    0.57    0.18
   3 -16   1    0.33    0.15
 -13  -2  -1    1.16    0.22
  15 -13  -1    0.89    0.17
  13   2   1    0.99    0.19
   2 -15   1    1.01    0.19
  14 -13  -1    1.04    0.16
 -13  -1  -1    1.09    0.21
  13   1   1    0.95    0.18
   1 -14   1    0.86    0.18
  13 -13  -1    6.81    0.40
 -13   0  -1    6.13    0.44
   0 -13   1    6.83    0.43
  13   0   1    7.41    0.45
  12 -13  -1    1.38    0.17
 -13   1  -1    1.96    0.23
  -1 -12   1    1.33    0.19
  13  -1   1    1.74    0.23
 -13   2  -1    4.07    0.33
  11 -13  -1    4.40    0.28
  -2 -11   1    5.14    0.34
  13  -2   1    4.22    0.33
 -13   3  -1    0.72    0.15
  10 -13  -1    0.78    0.12
  13  -3   1    0.68    0.14
  -3 -10   1    0.59    0.15
   4   9  -1    1.98    0.20
   9 -13  -1    2.03    0.18
 -13   4  -1    2.72    0.26
  13  -4   1    2.38    0.24
  -4  -9   1    2.44    0.25
   5   8  -1    2.22    0.21
   8 -13  -1    2.50    0.18
 -13   5  -1    2.43    0.23
  13  -5   1    2.16    0.23
  -5  -8   1    2.42    0.24
   6   7  -1   10.96    0.57
 -13   6  -1   10.98    0.57
   7 -13  -1   11.48    0.53
  13  -6   1   11.52    0.60
  -6  -7   1   11.80    0.60
 -13   7  -1   10.75    0.58
   7   6  -1   11.47    0.59
   6 -13  -1   11.83    0.54
   6 -13  -1   11.60    0.54
  13  -7   1   12.28    0.61
  -7  -6   1   11.44    0.61
 -13   8  -1    2.11    0.21
   8   5  -1    2.22    0.22
   5 -13  -1    2.22    0.18
  13  -8   1    2.58    0.25
  -8  -5   1    2.26    0.24
   4 -13  -1    2.25    0.19
   9   4  -1    2.24    0.23
  13  -9   1    2.19    0.23
  -9  -4   1    2.49    0.26
  10   3  -1    0.99    0.16
   3 -13  -1    0.83    0.13
 -10  -3   1    0.71    0.16
  13 -10   1    0.63    0.15
   2 -13  -1    4.37    0.29
  11   2  -1    4.53    0.33
 -11  -2   1    4.27    0.33
  13 -11   1    4.92    0.33
   1 -13  -1    1.63    0.19
  12   1  -1    1.51    0.19
 -12  -1   1    1.55    0.21
  13 -12   1    1.63    0.21
  13   0  -1    7.29    0.45
   0 -13  -1    6.77    0.41
 -13   0   1    6.78    0.44
  13 -13   1    6.81    0.42
  14  -1  -1    0.97    0.19
  -1 -13  -1    0.99    0.17
  13 -14   1    0.84    0.16
 -14   1   1    0.60    0.16
  -2 -13  -1    1.07    0.19
  15  -2  -1    0.86    0.19
  13 -15   1    1.33    0.20
  16  -3  -1    0.34    0.16
  -3 -13  -1    0.37    0.16
  13 -16   1    0.51    0.15
  17  -4  -1    1.97    0.28
  -4 -13  -1    1.37    0.23
  13 -17   1    1.84    0.23
  17 -14  -1    1.80    0.24
 -14  -3  -1    1.72    0.26
   3 -17   1    1.86    0.26
  16 -14  -1    0.43    0.15
 -14  -2  -1   -0.01    0.14
   2 -16   1    0.50    0.16
 -14  -1  -1    0.38    0.17
  15 -14  -1    0.10    0.11
  14   1   1   -0.02    0.12
   1 -15   1    0.23    0.14
 -14   0  -1   14.24    0.76
  14 -14  -1   14.22    0.70
  14   0   1   14.29    0.75
   0 -14   1   13.91    0.73
 -14   1  -1    0.94    0.18
  13 -14  -1    0.93    0.16
  14  -1   1    1.14    0.21
  -1 -13   1    1.06    0.19
 -14   2  -1   15.66    0.83
  12 -14  -1   17.72    0.79
  -2 -12   1   17.15    0.83
  14  -2   1   16.64    0.84
 -14   3  -1    2.80    0.29
  11 -14  -1    2.74    0.22
  14  -3   1    2.77    0.28
  -3 -11   1    2.79    0.28
 -14   4  -1    1.42    0.21
  10 -14  -1    1.32    0.15
  14  -4   1    1.27    0.21
  -4 -10   1    1.24    0.19
   9 -14  -1    1.80    0.17
 -14   5  -1    2.01    0.24
  14  -5   1    1.66    0.22
  -5  -9   1    1.94    0.24
   6   8  -1   14.53    0.73
 -14   6  -1   14.29    0.73
   8 -14  -1   15.14    0.69
  -6  -8   1   15.45    0.76
  14  -6   1   15.90    0.77
   7 -14  -1    0.06    0.07
   7   7  -1    0.10    0.10
  -7  -7   1   -0.10    0.11
  14  -7   1    0.04    0.10
   6 -14  -1   15.40    0.71
   8   6  -1   15.67    0.76
  14  -8   1   15.00    0.77
  -8  -6   1   15.82    0.78
   5 -14  -1    1.91    0.18
   9   5  -1    1.83    0.21
  14  -9   1    2.23    0.25
  -9  -5   1    1.74    0.24
  10   4  -1    1.18    0.19
   4 -14  -1    1.19    0.15
  14 -10   1    1.31    0.19
 -10  -4   1    1.33    0.21
  11   3  -1    2.62    0.27
   3 -14  -1    3.22    0.25
 -11  -3   1    3.09    0.30
  14 -11   1    3.20    0.28
   2 -14  -1   16.98    0.80
  12   2  -1   16.40    0.83
 -12  -2   1   16.22    0.84
  14 -12   1   17.36    0.83
  13   1  -1    1.28    0.22
   1 -14  -1    1.03    0.17
 -13  -1   1    1.03    0.20
  14 -13   1    0.78    0.17
   0 -14  -1   14.69    0.72
  14   0  -1   14.09    0.76
  14 -14   1   14.14    0.73
 -14   0   1   14.20    0.76
  -1 -14  -1    0.31    0.14
  15  -1  -1    0.53    0.17
  14 -15   1    0.40    0.15
  16  -2  -1    0.45    0.18
  -2 -14  -1    0.26    0.15
  14 -16   1    0.50    0.16
  17  -3  -1    1.92    0.27
  -3 -14  -1    1.91    0.26
  14 -17   1    2.00    0.25
  16 -15  -1    1.29    0.20
 -15  -1  -1    1.01    0.22
  15   1   1    0.88    0.21
   1 -16   1    0.98    0.21
 -15   0  -1    3.36    0.34
  15 -15  -1    3.83    0.31
   0 -15   1    3.95    0.34
  15   0   1    3.54    0.34
  14 -15  -1    0.44    0.13
 -15   1  -1    0.38    0.16
  -1 -14   1    0.20    0.15
  15  -1   1    0.25    0.13
 -15   2  -1    1.01    0.20
  13 -15  -1    1.04    0.16
  -2 -13   1    1.28    0.22
  15  -2   1    1.61    0.24
 -15   3  -1    0.46    0.16
  12 -15  -1    0.46    0.12
  -3 -12   1    0.72    0.18
  15  -3   1    0.85    0.18
  11 -15  -1    5.78    0.33
 -15   4  -1    4.86    0.38
  -4 -11   1    5.49    0.39
  15  -4   1    5.43    0.39
  10 -15  -1    3.58    0.25
  -5 -10   1    3.99    0.33
  15  -5   1    3.88    0.33
   9 -15  -1    3.81    0.25
  -6  -9   1    4.42    0.34
  15  -6   1    3.69    0.33
   8 -15  -1    0.82    0.13
  -7  -8   1    0.49    0.16
  15  -7   1    0.52    0.15
   8   7  -1    0.64    0.15
   7 -15  -1    0.55    0.11
  -8  -7   1    0.76    0.18
  15  -8   1    0.78    0.17
   6 -15  -1    3.59    0.25
   9   6  -1    3.37    0.29
  -9  -6   1    3.77    0.33
  15  -9   1    3.68    0.32
  10   5  -1    3.47    0.30
   5 -15  -1    3.41    0.26
  15 -10   1    3.80    0.32
 -10  -5   1    3.67    0.33
  11   4  -1    5.37    0.38
   4 -15  -1    5.56    0.34
 -11  -4   1    5.82    0.41
  15 -11   1    5.44    0.39
  12   3  -1    0.59    0.16
   3 -15  -1    0.57    0.13
  15 -12   1    0.65    0.17
 -12  -3   1    0.42    0.15
  13   2  -1    1.22    0.21
   2 -15  -1    0.93    0.16
  15 -13   1    1.23    0.20
 -13  -2   1    0.85    0.19
  14   1  -1    0.24    0.15
   1 -15  -1    0.37    0.14
  15 -14   1    0.12    0.14
 -14  -1   1    0.23    0.15
  15   0  -1    3.80    0.36
   0 -15  -1    3.76    0.32
  15 -15   1    3.38    0.32
  -1 -15  -1    1.08    0.21
  16  -1  -1    1.35    0.24
  15 -16   1    1.24    0.22
 -16   1  -1    1.33    0.25
  15 -16  -1    1.31    0.19
  -1 -15   1    1.34    0.23
  16  -1   1    1.13    0.24
  14 -16  -1    0.42    0.13
  -2 -14   1    0.40    0.17
  16  -2   1    0.51    0.17
  13 -16  -1    0.41    0.12
  -3 -13   1    0.59    0.19
  16  -3   1    0.59    0.18
  12 -16  -1   11.68    0.59
  -4 -12   1   12.05    0.67
  16  -4   1   11.93    0.67
  11 -16  -1    0.09    0.10
  -5 -11   1   -0.02    0.13
  16  -5   1    0.19    0.15
  10 -16  -1   14.28    0.68
  -6 -10   1   15.06    0.77
  16  -6   1   14.39    0.77
   9 -16  -1    0.50    0.11
  16  -7   1    0.32    0.15
  -7  -9   1    0.34    0.16
   8 -16  -1    0.12    0.09
  16  -8   1   -0.02    0.13
  -8  -8   1    0.14    0.15
   7 -16  -1    0.48    0.12
  -9  -7   1    0.30    0.16
  16  -9   1    0.19    0.16
   6 -16  -1   14.34    0.69
  16 -10   1   14.71    0.77
 -10  -6   1   14.22    0.77
  11   5  -1    0.15    0.12
   5 -16  -1    0.29    0.11
  16 -11   1    0.28    0.15
 -11  -5   1    0.08    0.14
  12   4  -1   10.17    0.61
   4 -16  -1   11.26    0.57
  16 -12   1   10.68    0.62
 -12  -4   1   11.17    0.63
  13   3  -1    0.42    0.16
   3 -16  -1    0.39    0.13
  16 -13   1    0.65    0.17
 -13  -3   1    0.34    0.15
  14   2  -1    0.24    0.16
   2 -16  -1    0.38    0.14
  16 -14   1    0.32    0.15
 -14  -2   1    0.68    0.18
  15   1  -1    1.23    0.22
   1 -16  -1    1.00    0.19
  16 -15   1    1.16    0.22
  14 -17  -1    1.83    0.21
  -3 -14   1    1.49    0.24
  17  -3   1    1.59    0.25
  13 -17  -1    1.81    0.20
  17  -4   1    1.43    0.24
  -4 -13   1    1.70    0.26
  12 -17  -1    0.10    0.10
  17  -5   1    0.24    0.16
  -5 -12   1    0.15    0.16
  11 -17  -1    0.87    0.15
  17  -6   1    0.83    0.19
  -6 -11   1    0.65    0.19
  10 -17  -1    2.03    0.20
  17  -7   1    1.62    0.26
  -7 -10   1    2.18    0.28
   9 -17  -1    2.89    0.23
  -8  -9   1    2.52    0.30
  17  -8   1    2.73    0.31
   8 -17  -1    2.58    0.23
  17  -9   1    2.71    0.31
  -9  -8   1    2.72    0.33
   7 -17  -1    1.98    0.20
  17 -10   1    1.91    0.27
 -10  -7   1    1.44    0.25
   6 -17  -1    0.95    0.16
  17 -11   1    0.83    0.20
 -11  -6   1    0.81    0.19
   5 -17  -1    0.19    0.12
 -12  -5   1    0.11    0.14
  17 -12   1    0.25    0.16
   4 -17  -1    1.88    0.22
  17 -13   1    1.69    0.25
 -13  -4   1    1.21    0.23
  14   3  -1    1.57    0.25
   3 -17  -1    1.89    0.23
  17 -14   1    1.52    0.25
 -14  -3   1    1.38    0.24
  11 -18  -1    0.69    0.13
  18  -7   1    0.29    0.17
  -7 -11   1    0.39    0.18
  10 -18  -1    9.34    0.51
  18  -8   1    9.79    0.61
  -8 -10   1   10.48    0.62
   9 -18  -1    0.03    0.10
  18  -9   1   -0.06    0.14
  -9  -9   1   -0.06    0.16
   8 -18  -1    9.12    0.49
 -10  -8   1    9.39    0.59
  18 -10   1    9.13    0.59
   7 -18  -1    0.52    0.13
  18 -11   1    0.75    0.21
 -11  -7   1    0.81    0.22
   0   0  -2  365.31   14.79
   0   0  -2  384.76   14.80
   0   0   2  338.31   14.77
   0   1  -2   78.87    3.37
   0   1  -2   82.54    3.44
  -1   0  -2   80.14    3.39
  -1   0  -2   83.23    3.39
   1  -1  -2   84.04    3.41
   0  -1   2   84.85    3.44
  -1   1   2   82.88    3.38
   1   0   2   84.24    3.40
   0  -1   2   75.14    3.39
  -1   1   2   88.33    3.40
   1   0   2   86.53    3.45
   0  -1  -2   84.15    3.44
  -1   1  -2   87.79    3.45
  -1   1  -2   77.79    3.43
   1   0  -2   78.75    3.42
   1   0  -2   89.33    3.46
  -1   0   2   86.31    3.45
   1  -1   2   83.79    3.40
  -1   0   2   80.82    3.39
   0   1   2   82.92    3.43
   1  -1   2   78.55    3.40
  -1   0   2   87.02    3.46
   0   1   2   85.68    3.42
  -1   2  -2  164.80    6.94
   2  -1  -2  143.35    6.87
  -1  -1  -2  172.92    6.90
  -1  -1  -2  164.59    6.89
  -1   2  -2  161.32    6.92
   2  -1  -2  178.23    6.90
  -2   1   2  181.45    6.91
   1  -2   2  160.00    6.89
   1   1   2  172.23    6.89
   1  -2   2  178.05    6.93
  -1   3  -2   83.77    3.44
  -2  -1  -2   78.56    3.37
   3  -2  -2   80.62    3.39
  -2  -1  -2   85.56    3.43
   2   1   2   83.78    3.42
   1  -3   2   78.49    3.38
  -3   2   2   88.73    3.39
   0   2  -2  390.83   15.08
  -2   0  -2  356.29   15.05
  -2   0  -2  384.67   15.08
   0   2  -2  349.20   15.05
   2   0   2  389.30   15.08
   0  -2   2  345.57   15.06
   0  -2   2  366.68   15.06
  -2   1  -2  173.85    7.16
   1  -2  -2  169.33    7.05
   1  -2  -2  172.88    7.04
   1   1  -2  168.43    7.12
   1   1  -2  177.10    7.15
  -1  -1   2  179.99    7.14
  -1  -1   2  172.73    7.13
  -1  -1   2  163.85    7.15
   2  -1   2  161.27    7.09
  -1   2   2  177.66    7.02
  -1   2   2  178.79    7.02
   2  -1   2  175.70    7.13
   2   0  -2  402.75   15.38
  -2   2  -2  376.95   15.40
   0  -2  -2  371.71   15.29
   2   0  -2  371.61   15.34
   0   2   2  360.10   15.27
   0   2   2  376.26   15.27
   2  -2   2  386.82   15.40
   2  -2   2  343.28   15.35
  -2   0   2  398.09   15.36
  -2   3  -2   81.08    3.28
   3  -1  -2   81.53    3.27
   3  -1  -2   80.19    3.34
  -1  -2  -2   81.28    3.30
   1   2   2   82.54    3.29
  -3   1   2   81.76    3.31
   2  -3   2   73.65    3.27
   2  -3   2   79.89    3.28
   4  -2  -2  206.43    8.25
  -2  -2  -2  207.03    8.29
  -2  -2  -2  193.97    8.25
   4  -2  -2  196.97    8.22
  -2   4  -2  213.76    8.25
   2   2   2  204.48    8.21
   2  -4   2  181.88    8.24
   2  -4   2  195.82    8.24
  -4   2   2  205.65    8.24
  -3  -2  -2   47.15    1.92
  -2   5  -2   49.13    1.93
   5  -3  -2   48.24    1.91
  -3  -2  -2   43.28    1.92
   2  -5   2   47.28    1.93
  -5   3   2   48.00    1.91
   2  -5   2   40.85    1.92
   3   2   2   48.25    1.92
   4  -3  -2   90.13    3.87
  -3  -1  -2   89.89    3.86
  -3  -1  -2   97.74    3.86
   4  -3  -2   98.42    3.90
  -1   4  -2   96.07    3.86
   3   1   2   97.35    3.86
  -4   3   2   99.66    3.87
   1  -4   2   95.16    3.94
   1  -4   2   87.64    3.86
  -3   0  -2   63.01    2.79
   3  -3  -2   65.40    2.78
   0   3  -2   68.90    2.79
  -3   0  -2   67.11    2.79
   3  -3  -2   69.37    2.78
   3   0   2   72.93    2.79
   0  -3   2   69.92    2.79
  -3   1  -2   74.18    3.33
   2  -3  -2   81.65    3.32
   2  -3  -2   83.30    3.32
   1   2  -2   77.37    3.33
  -3   1  -2   83.40    3.33
   1   2  -2   83.97    3.33
   3  -1   2   87.57    3.40
   2   1  -2   75.50    3.25
  -3   2  -2   75.44    3.25
   2   1  -2   75.69    3.25
   2   1  -2   82.99    3.25
   1  -3  -2   82.37    3.25
   1  -3  -2   81.58    3.24
  -3   2  -2   82.84    3.32
   3  -2   2   80.70    3.25
   0  -3  -2   64.12    2.79
   0  -3  -2   67.12    2.77
   3   0  -2   67.53    2.79
  -3   3  -2   66.53    2.79
   3   0  -2   62.51    2.79
   3  -3   2   71.04    2.80
  -3   0   2   74.02    2.79
   0   3   2   73.04    2.79
   3  -3   2   66.94    2.79
  -3   4  -2   97.13    3.94
  -1  -3  -2   98.83    3.89
   4  -1  -2   90.87    3.86
   4  -1  -2   95.36    3.86
   3  -4   2   95.08    3.94
  -4   1   2   97.72    3.86
   1   3   2   97.04    3.85
   3  -4   2   85.94    3.86
   5  -2  -2   42.72    1.90
  -3   5  -2   47.42    1.91
   5  -2  -2   48.08    1.91
  -2  -3  -2   43.53    1.90
  -2  -3  -2   46.77    1.90
   3  -5   2   49.80    1.92
  -5   2   2   47.35    1.90
   2   3   2   48.71    1.90
   3  -5   2   41.01    1.90
  -3   6  -2  134.50    5.19
   6  -3  -2  118.04    5.18
   6  -3  -2  137.04    5.24
  -3  -3  -2  132.90    5.19
  -3  -3  -2  118.71    5.18
   3  -6   2  131.37    5.19
   3  -6   2  109.76    5.18
  -6   3   2  129.56    5.18
   3   3   2  133.38    5.24
  -4  -3  -2   58.49    2.30
  -4  -3  -2   49.80    2.28
   7  -4  -2   50.96    2.28
   7  -4  -2   54.93    2.28
  -3   7  -2   57.45    2.29
  -7   4   2   57.91    2.28
   3  -7   2   60.52    2.30
   4   3   2   57.56    2.29
   3  -7   2   49.98    2.28
  -2   6  -2  178.58    7.23
   6  -4  -2  183.26    7.30
  -4  -2  -2  178.52    7.31
  -4  -2  -2  163.90    7.23
  -6   4   2  185.45    7.31
   2  -6   2  186.17    7.38
   4   2   2  182.33    7.23
   2  -6   2  165.02    7.23
  -1   5  -2  108.73    4.31
  -4  -1  -2  104.14    4.31
   5  -4  -2  104.55    4.34
   5  -4  -2  103.85    4.32
  -4  -1  -2   92.88    4.30
   4   1   2  110.08    4.31
   1  -5   2  109.93    4.31
  -5   4   2  109.00    4.31
   4  -4  -2  345.12   15.02
   0   4  -2  380.12   15.15
  -4   0  -2  362.66   15.19
   4  -4  -2  373.79   15.03
   0  -4   2  370.94   15.16
   4   0   2  378.61   15.20
   0  -4   2  377.41   15.18
   3  -4  -2   97.77    3.96
   3  -4  -2   95.48    3.95
  -4   1  -2   96.54    4.06
   1   3  -2   96.00    3.97
   4  -1   2   97.74    3.98
  -1  -3   2  100.83    4.06
   2   2  -2  207.14    8.72
  -4   2  -2  216.95    8.75
   4  -2   2  207.94    8.71
  -2  -2   2  213.77    8.73
   3   1  -2   93.09    3.89
   3   1  -2   89.30    3.89
   1  -4  -2   94.67    3.89
  -4   3  -2   95.11    3.97
   1  -4  -2   96.47    3.89
  -3  -1   2   98.60    3.89
   4  -3   2  100.54    3.99
   0  -4  -2  347.60   14.68
   4   0  -2  328.38   14.71
  -4   4  -2  384.62   14.83
   0  -4  -2  375.35   14.70
   4   0  -2  361.31   14.79
   4  -4   2  370.88   14.83
  -4   0   2  369.04   14.79
   0   4   2  351.74   14.64
   5  -1  -2  107.92    4.28
  -4   5  -2  105.12    4.28
  -1  -4  -2  107.46    4.31
   5  -1  -2   96.28    4.27
   4  -5   2  110.39    4.28
   1   4   2  108.65    4.28
   4  -5   2   95.81    4.27
  -5   1   2  106.31    4.28
  -2  -4  -2  167.06    7.15
   6  -2  -2  164.14    7.16
  -2  -4  -2  188.10    7.36
  -4   6  -2  179.41    7.22
   6  -2  -2  175.96    7.23
   2   4   2  185.60    7.23
  -6   2   2  184.74    7.28
   4  -6   2  184.43    7.26
   4  -6   2  158.40    7.16
   7  -3  -2   50.32    2.29
  -3  -4  -2   50.73    2.29
  -3  -4  -2   58.84    2.30
   7  -3  -2   57.78    2.30
  -4   7  -2   56.48    2.30
   4  -7   2   48.82    2.29
  -7   3   2   58.25    2.29
   4  -7   2   59.22    2.30
   3   4   2   58.79    2.29
   8  -4  -2  197.36    7.83
   8  -4  -2  170.92    7.74
  -4   8  -2  202.01    7.75
  -4  -4  -2  164.81    7.74
  -4  -4  -2  203.59    7.76
   4  -8   2  202.36    7.75
   4   4   2  201.22    7.75
  -8   4   2  198.90    7.74
   4  -8   2  171.74    7.76
   9  -5  -2   26.62    1.14
   9  -5  -2   22.94    1.12
  -5  -4  -2   27.04    1.15
  -4   9  -2   27.45    1.14
  -9   5   2   26.84    1.12
   4  -9   2   27.05    1.14
   5   4   2   26.71    1.14
   8  -5  -2   11.01    0.55
  -5  -3  -2   11.54    0.58
   8  -5  -2   12.54    0.56
  -3   8  -2   12.33    0.57
   5   3   2   13.15    0.57
  -8   5   2   13.26    0.55
   3  -8   2   13.07    0.58
   7  -5  -2   58.27    2.39
  -5  -2  -2   55.53    2.41
  -2   7  -2   58.61    2.40
  -7   5   2   56.79    2.37
   5   2   2   60.17    2.41
   2  -7   2   58.28    2.40
   6  -5  -2   65.22    2.57
  -1   6  -2   65.28    2.59
  -5  -1  -2   60.19    2.60
   6  -5  -2   59.74    2.57
   1  -6   2   63.34    2.59
   5   1   2   63.29    2.59
  -6   5   2   62.54    2.56
   5  -5  -2   88.68    3.55
   0   5  -2   84.23    3.58
   5  -5  -2   82.94    3.58
  -5   0  -2   90.40    3.59
   5   0   2   86.25    3.59
   0  -5   2   89.05    3.59
   0  -5   2   90.72    3.59
   1   4  -2  111.29    4.46
   4  -5  -2  106.67    4.44
   4  -5  -2  106.07    4.44
  -5   1  -2  110.34    4.47
   5  -1   2  110.43    4.46
  -1  -4   2  110.52    4.56
   2   3  -2   47.37    2.01
  -5   2  -2   48.23    2.02
   5  -2   2   49.55    2.02
  -2  -3   2   49.46    2.02
  -5   3  -2   47.78    2.01
   3   2  -2   47.68    2.01
   5  -3   2   49.35    2.02
  -3  -2   2   49.64    2.02
  -5   4  -2  106.80    4.41
   4   1  -2  105.42    4.41
   1  -5  -2  105.67    4.39
   1  -5  -2  107.99    4.41
   5  -4   2  111.94    4.52
  -4  -1   2  110.27    4.41
   0  -5  -2   84.19    3.52
   0  -5  -2   86.33    3.53
  -5   5  -2   88.30    3.55
   5   0  -2   86.60    3.55
   5  -5   2   85.46    3.55
   0   5   2   85.67    3.51
  -5   0   2   89.60    3.55
   6  -1  -2   60.62    2.52
   6  -1  -2   55.01    2.52
  -1  -5  -2   64.10    2.51
  -5   6  -2   62.16    2.52
   1   5   2   61.43    2.50
   5  -6   2   61.61    2.53
  -6   1   2   62.41    2.52
   7  -2  -2   48.83    2.29
   7  -2  -2   59.76    2.30
  -2  -5  -2   52.64    2.28
  -2  -5  -2   57.11    2.29
  -5   7  -2   55.89    2.29
  -7   2   2   57.33    2.29
   5  -7   2   57.30    2.30
   2   5   2   57.73    2.27
   5  -7   2   50.62    2.30
  -3  -5  -2   10.67    0.54
  -3  -5  -2   12.38    0.55
   8  -3  -2   12.71    0.56
   8  -3  -2   10.15    0.54
  -5   8  -2   12.17    0.55
   5  -8   2   13.54    0.56
  -8   3   2   12.53    0.55
   5  -8   2   10.86    0.56
   3   5   2   12.56    0.54
  -4  -5  -2   22.79    1.12
  -4  -5  -2   27.54    1.14
   9  -4  -2   22.57    1.12
   9  -4  -2   26.83    1.13
  -5   9  -2   27.06    1.12
   4   5   2   27.26    1.12
   5  -9   2   27.89    1.14
  -9   4   2   26.77    1.12
  10  -5  -2   41.81    1.83
  -5  10  -2   43.10    1.82
  -5  -5  -2   43.12    1.84
   5 -10   2   45.49    1.83
   5   5   2   43.63    1.82
 -10   5   2   42.15    1.81
  -6  -5  -2   32.10    1.39
  -5  11  -2   31.74    1.37
  11  -6  -2   32.63    1.38
 -11   6   2   29.78    1.36
   6   5   2   32.53    1.38
   5 -11   2   32.72    1.38
  -4  10  -2   78.83    3.22
  10  -6  -2   77.68    3.23
  -6  -4  -2   78.56    3.25
 -10   6   2   74.68    3.21
   6   4   2   79.05    3.24
   4 -10   2   79.56    3.24
  -3   9  -2   39.56    1.64
  -6  -3  -2   38.96    1.66
   9  -6  -2   33.87    1.62
   9  -6  -2   39.28    1.64
   6   3   2   40.23    1.65
   3  -9   2   41.15    1.65
  -9   6   2   39.00    1.62
   8  -6  -2  122.51    4.85
  -2   8  -2  122.19    4.86
  -6  -2  -2  115.68    4.87
   2  -8   2  118.31    4.87
  -8   6   2  116.55    4.83
   6   2   2  117.37    4.87
   7  -6  -2   22.63    0.92
  -1   7  -2   21.85    0.94
  -6  -1  -2   21.44    0.95
   7  -6  -2   20.53    0.91
   1  -7   2   21.23    0.94
  -7   6   2   21.70    0.90
   6   1   2   21.97    0.95
   6  -6  -2  140.11    6.00
   0   6  -2  149.92    6.03
  -6   0  -2  152.66    6.04
   6  -6  -2  155.29    6.04
   6   0   2  144.66    6.03
   0  -6   2  144.46    6.03
   5  -6  -2   64.41    2.57
  -6   1  -2   63.03    2.62
   1   5  -2   64.72    2.61
   5  -6  -2   62.48    2.57
  -1  -5   2   60.83    2.61
   6  -1   2   63.55    2.62
   2   4  -2  180.37    7.65
   4  -6  -2  190.69    7.58
  -6   2  -2  189.91    7.70
  -2  -4   2  190.75    7.73
   6  -2   2  181.94    7.60
   3   3  -2  139.23    5.42
  -6   3  -2  132.48    5.42
   6  -3   2  130.04    5.42
  -3  -3   2  129.53    5.42
  -6   4  -2  179.00    7.48
   2  -6  -2  172.92    7.40
   4   2  -2  181.27    7.48
   2  -6  -2  191.94    7.41
  -4  -2   2  184.04    7.41
   6  -4   2  182.39    7.41
   1  -6  -2   60.90    2.58
  -6   5  -2   66.41    2.62
   1  -6  -2   64.82    2.58
   5   1  -2   62.17    2.61
  -5  -1   2   62.64    2.62
   6  -5   2   62.68    2.62
   0  -6  -2  144.03    6.03
   6   0  -2  154.21    6.14
  -6   6  -2  150.78    6.02
   0  -6  -2  151.00    6.08
  -6   0   2  150.10    6.13
   6  -6   2  144.58    6.03
   0   6   2  140.00    5.98
  -6   7  -2   21.48    0.94
  -1  -6  -2   22.05    0.93
   7  -1  -2   23.61    0.95
   6  -7   2   20.17    0.94
  -7   1   2   21.58    0.94
   1   6   2   21.05    0.91
  -2  -6  -2  106.96    4.78
   8  -2  -2  122.33    4.81
  -2  -6  -2  122.15    4.79
  -6   8  -2  114.17    4.79
  -8   2   2  118.68    4.80
   2   6   2  114.92    4.78
   6  -8   2  121.46    4.81
  -6   9  -2   39.00    1.64
   9  -3  -2   40.35    1.65
  -3  -6  -2   38.87    1.64
  -3  -6  -2   33.28    1.63
   3   6   2   40.25    1.63
   6  -9   2   40.63    1.65
  -9   3   2   39.78    1.65
  10  -4  -2   84.69    3.33
  -6  10  -2   76.13    3.31
  -4  -6  -2   79.99    3.33
   6 -10   2   84.89    3.33
 -10   4   2   78.57    3.32
   4   6   2   77.64    3.31
  11  -5  -2   33.30    1.40
  -5  -6  -2   33.71    1.40
  -6  11  -2   31.19    1.37
 -11   5   2   30.25    1.37
   6 -11   2   32.32    1.39
   5   6   2   31.90    1.38
  -6  -6  -2   76.08    3.11
  12  -6  -2   77.04    3.10
   6   6   2   71.24    3.08
   6 -12   2   71.80    3.09
  -7  -6  -2    7.77    0.44
  13  -7  -2    6.97    0.42
   6 -13   2    7.29    0.41
  -7  -5  -2    7.93    0.44
  12  -7  -2    7.66    0.43
   7   5   2    7.67    0.42
   5 -12   2    8.26    0.43
  -7  -4  -2   24.05    1.08
  -4  11  -2   22.77    1.04
  11  -7  -2   24.30    1.06
   7   4   2   23.91    1.07
   4 -11   2   25.14    1.07
  10  -7  -2    6.24    0.36
  10  -7  -2    7.86    0.38
  -7  -3  -2    7.61    0.41
  -3  10  -2    7.84    0.38
 -10   7   2    7.00    0.35
   3 -10   2    7.43    0.39
   7   3   2    7.74    0.40
   9  -7  -2   68.04    2.79
  -7  -2  -2   69.22    2.82
  -2   9  -2   67.06    2.80
   7   2   2   66.08    2.81
  -9   7   2   65.41    2.76
   2  -9   2   67.10    2.81
   2  -9   2   69.74    2.81
  -1   8  -2   56.91    2.39
   8  -7  -2   60.02    2.38
  -7  -1  -2   57.43    2.41
   8  -7  -2   52.29    2.37
   1  -8   2   59.96    2.40
   7   1   2   60.17    2.41
   1  -8   2   56.08    2.40
   0   7  -2   29.03    1.26
  -7   0  -2   29.74    1.28
   7  -7  -2   30.56    1.23
   7  -7  -2   28.96    1.23
   7   0   2   29.35    1.27
   0  -7   2   29.67    1.27
  -7   1  -2   21.76    0.97
   6  -7  -2   22.23    0.92
   6  -7  -2   21.55    0.92
   1   6  -2   22.70    0.96
   7  -1   2   22.04    0.97
  -1  -6   2   22.11    0.96
   2   5  -2   58.98    2.41
   5  -7  -2   57.85    2.37
   5  -7  -2   59.23    2.37
  -7   2  -2   56.09    2.42
   7  -2   2   57.60    2.42
  -2  -5   2   59.01    2.42
  -7   3  -2   57.92    2.37
   3   4  -2   56.96    2.37
   4  -7  -2   54.69    2.32
   4  -7  -2   58.93    2.32
   7  -3   2   56.41    2.37
  -3  -4   2   57.41    2.37
   3  -7  -2   56.23    2.38
   3  -7  -2   59.11    2.38
  -7   4  -2   56.94    2.43
   3  -7  -2   59.91    2.38
   4   3  -2   58.34    2.43
  -4  -3   2   59.81    2.43
   7  -4   2   59.40    2.43
   5   2  -2   57.39    2.39
  -7   5  -2   56.05    2.39
   2  -7  -2   60.77    2.35
   2  -7  -2   55.21    2.34
  -5  -2   2   58.42    2.40
   7  -5   2   57.13    2.39
   6   1  -2   21.59    0.94
   1  -7  -2   22.18    0.90
   1  -7  -2   20.55    0.90
  -7   6  -2   21.57    0.93
   7  -6   2   21.07    0.94
  -6  -1   2   21.73    0.94
  -7   7  -2   30.54    1.25
   7   0  -2   29.92    1.26
   0  -7  -2   27.69    1.22
   0  -7  -2   30.17    1.23
   7  -7   2   29.70    1.26
  -7   0   2   28.78    1.26
   0   7   2   28.58    1.21
  -7   8  -2   53.30    2.36
  -1  -7  -2   60.00    2.36
   8  -1  -2   54.88    2.37
   1   7   2   55.56    2.33
   7  -8   2   59.78    2.38
  -8   1   2   57.50    2.38
  -2  -7  -2   58.16    2.72
  -7   9  -2   65.93    2.73
  -2  -7  -2   66.39    2.73
   9  -2  -2   71.03    2.75
   2   7   2   63.66    2.71
   7  -9   2   68.21    2.75
  -9   2   2   68.02    2.75
  -3  -7  -2    7.73    0.41
  10  -3  -2    8.29    0.42
  -7  10  -2    7.31    0.39
 -10   3   2    8.78    0.42
   3   7   2    7.35    0.38
   7 -10   2    7.88    0.41
  -4  -7  -2   22.93    1.05
  11  -4  -2   23.91    1.05
  -7  11  -2   22.73    1.02
   4   7   2   23.82    1.03
   7 -11   2   24.33    1.05
 -11   4   2   23.14    1.04
  12  -5  -2    7.84    0.43
  -5  -7  -2    8.10    0.44
 -12   5   2    7.70    0.41
   7 -12   2    7.70    0.43
  -6  -7  -2    7.86    0.45
  13  -6  -2    7.89    0.45
   7 -13   2    7.35    0.43
  -7  -7  -2   36.29    1.54
  14  -7  -2   34.80    1.53
   7 -14   2   32.09    1.51
  -8  -7  -2   17.03    0.88
  15  -8  -2   18.14    0.88
   7 -15   2   18.07    0.86
  -8  -6  -2   19.91    0.95
  14  -8  -2   20.17    0.94
   6 -14   2   19.45    0.93
  13  -8  -2   19.37    0.92
  -8  -5  -2   20.64    0.94
   8   5   2   19.75    0.92
   5 -13   2   19.79    0.92
  -8  -4  -2   49.62    2.10
  12  -8  -2   47.54    2.08
   8   4   2   45.73    2.08
   4 -12   2   51.12    2.09
   4 -12   2   50.87    2.09
  -3  11  -2    7.91    0.40
  11  -8  -2    7.61    0.41
  -8  -3  -2    7.99    0.44
   8   3   2    7.54    0.42
   3 -11   2    8.12    0.43
   3 -11   2    7.87    0.42
  -2  10  -2   80.83    3.39
  10  -8  -2   81.78    3.38
  -8  -2  -2   83.68    3.42
   2 -10   2   83.34    3.41
   8   2   2   78.18    3.40
   2 -10   2   84.12    3.41
   9  -8  -2   34.18    1.42
   9  -8  -2   29.85    1.41
  -8  -1  -2   33.78    1.46
  -1   9  -2   34.05    1.44
   1  -9   2   36.68    1.46
   8   1   2   34.10    1.46
   0   8  -2  106.77    4.26
   8  -8  -2  108.12    4.23
   8  -8  -2   96.89    4.23
  -8   0  -2  104.34    4.28
   0  -8   2  107.31    4.27
   8   0   2   98.62    4.27
   7  -8  -2   58.22    2.33
   7  -8  -2   54.57    2.33
  -8   1  -2   57.24    2.38
   1   7  -2   56.66    2.37
  -1  -7   2   56.43    2.37
   8  -1   2   57.78    2.38
   6  -8  -2  127.25    4.89
   6  -8  -2  115.63    4.86
  -8   2  -2  114.68    4.92
   2   6  -2  121.50    4.91
  -2  -6   2  121.42    4.92
   8  -2   2  118.26    4.92
  -8   3  -2   12.17    0.58
   3   5  -2   12.39    0.58
   5  -8  -2   12.02    0.52
   5  -8  -2   12.81    0.52
   8  -3   2   12.63    0.59
  -3  -5   2   12.42    0.58
   4  -8  -2  195.24    8.08
  -8   4  -2  195.03    8.10
   4  -8  -2  206.63    8.09
  -4  -4   2  198.52    8.11
   8  -4   2  198.96    8.22
   3  -8  -2   12.05    0.53
  -8   5  -2   11.83    0.58
   3  -8  -2   13.34    0.54
   5   3  -2   12.34    0.59
   8  -5   2   13.23    0.60
  -5  -3   2   12.99    0.60
   2  -8  -2  115.21    4.88
   2  -8  -2  125.48    4.89
  -8   6  -2  119.68    4.92
   6   2  -2  120.99    4.93
   8  -6   2  119.68    4.93
  -6  -2   2  119.81    4.93
  -8   7  -2   56.58    2.34
   1  -8  -2   53.58    2.31
   1  -8  -2   58.90    2.31
   7   1  -2   55.78    2.35
  -7  -1   2   55.97    2.35
   8  -7   2   56.21    2.35
   8   0  -2  105.12    4.24
   0  -8  -2   94.69    4.20
  -8   8  -2  101.94    4.22
   0  -8  -2  103.32    4.20
   8  -8   2  108.74    4.24
  -8   0   2  103.09    4.24
  -8   9  -2   33.09    1.43
   9  -1  -2   34.73    1.45
  -1  -8  -2   34.47    1.43
   1   8   2   33.29    1.40
  -9   1   2   30.17    1.44
   8  -9   2   36.19    1.46
  -8  10  -2   77.64    3.32
  -2  -8  -2   82.39    3.33
  10  -2  -2   80.51    3.34
   2   8   2   77.28    3.30
   8 -10   2   86.67    3.35
 -10   2   2   77.79    3.34
  11  -3  -2    8.12    0.43
  -8  11  -2    7.15    0.39
  -3  -8  -2    8.53    0.42
   8 -11   2    7.57    0.42
 -11   3   2    7.63    0.42
  -4  -8  -2   48.34    2.03
  12  -4  -2   48.58    2.04
   8 -12   2   46.95    2.02
 -12   4   2   46.24    2.02
  13  -5  -2   20.97    0.97
  -5  -8  -2   21.50    0.97
   8 -13   2   19.77    0.95
  -6  -8  -2   20.93    0.96
  14  -6  -2   20.38    0.96
   8 -14   2   18.82    0.93
  -7  -8  -2   18.34    0.87
  15  -7  -2   17.60    0.87
   8 -15   2   16.56    0.84
  -8  -8  -2   40.87    1.79
  16  -8  -2   40.28    1.79
   8 -16   2   38.69    1.75
  17  -9  -2    4.20    0.36
  -9  -8  -2    4.42    0.37
   8 -17   2    3.68    0.33
   8 -17   2    4.04    0.34
  -9  -7  -2    2.27    0.28
  16  -9  -2    2.66    0.28
   7 -16   2    2.41    0.27
   7 -16   2    2.70    0.27
  -9  -6  -2   11.01    0.60
  15  -9  -2    9.66    0.56
   6 -15   2   10.17    0.57
   6 -15   2   11.11    0.57
  14  -9  -2    2.28    0.24
  -9  -5  -2    1.92    0.23
   5 -14   2    2.13    0.23
   5 -14   2    2.49    0.25
  -9  -4  -2   29.31    1.32
  13  -9  -2   29.35    1.29
   4 -13   2   30.08    1.31
   4 -13   2   28.70    1.30
   9   4   2   28.45    1.30
  -9  -3  -2   37.81    1.68
  12  -9  -2   37.48    1.64
   3 -12   2   39.49    1.66
   9   3   2   38.22    1.66
  -9  -2  -2   12.89    0.65
  -2  11  -2   12.46    0.60
  11  -9  -2   12.77    0.61
   2 -11   2   13.28    0.63
   9   2   2   12.73    0.63
  -9  -1  -2    7.85    0.44
  -1  10  -2    7.70    0.41
  10  -9  -2    8.15    0.40
   1 -10   2    7.69    0.42
   9   1   2    8.32    0.44
  -9   0  -2   45.56    1.92
   0   9  -2   44.55    1.89
   9  -9  -2   40.72    1.86
   9  -9  -2   45.19    1.87
   9   0   2   45.62    1.91
   0  -9   2   47.32    1.91
   8  -9  -2   31.61    1.41
   1   8  -2   33.54    1.45
  -9   1  -2   34.76    1.47
   8  -9  -2   34.95    1.42
  -1  -8   2   34.91    1.47
   9  -1   2   34.07    1.47
  -9   2  -2   68.34    2.83
   2   7  -2   68.70    2.82
   7  -9  -2   65.41    2.77
   7  -9  -2   71.81    2.78
   9  -2   2   66.96    2.83
  -2  -7   2   65.58    2.83
  -9   3  -2   39.89    1.71
   6  -9  -2   39.30    1.65
   3   6  -2   39.66    1.70
   6  -9  -2   41.99    1.65
  -3  -6   2   39.55    1.71
   9  -3   2   39.83    1.71
   5  -9  -2   25.71    1.14
   4   5  -2   28.23    1.20
   5  -9  -2   28.80    1.14
  -9   4  -2   27.13    1.20
   9  -4   2   28.76    1.21
  -4  -5   2   27.43    1.21
   4  -9  -2   29.51    1.16
  -9   5  -2   28.01    1.22
   4  -9  -2   26.62    1.15
   5   4  -2   27.48    1.21
   4  -9  -2   28.94    1.16
  -5  -4   2   27.39    1.22
   9  -5   2   27.61    1.22
   3  -9  -2   42.66    1.67
  -9   6  -2   39.07    1.71
   6   3  -2   40.52    1.72
   3  -9  -2   38.50    1.66
  -6  -3   2   40.85    1.72
   9  -6   2   40.95    1.73
   2  -9  -2   65.84    2.81
  -9   7  -2   67.84    2.85
   2  -9  -2   72.46    2.82
   7   2  -2   66.15    2.86
  -7  -2   2   68.64    2.87
   9  -7   2   71.02    2.87
  -9   8  -2   33.70    1.42
   1  -9  -2   32.80    1.39
   8   1  -2   32.68    1.43
   1  -9  -2   31.39    1.38
  -8  -1   2   33.83    1.44
   9  -8   2   33.96    1.43
   9   0  -2   45.81    1.94
   0  -9  -2   44.98    1.90
  -9   9  -2   43.96    1.91
  -9   0   2   45.01    1.94
   9  -9   2   47.78    1.94
  10  -1  -2    7.98    0.44
  -1  -9  -2    8.19    0.41
  -9  10  -2    7.77    0.41
 -10   1   2    7.73    0.43
   9 -10   2    8.66    0.44
  -2  -9  -2   12.81    0.61
  11  -2  -2   12.67    0.63
  -9  11  -2   11.70    0.60
 -11   2   2   12.67    0.62
   9 -11   2   13.37    0.63
  -3  -9  -2   37.44    1.60
  12  -3  -2   37.09    1.62
   9 -12   2   37.76    1.61
 -12   3   2   35.68    1.61
  -4  -9  -2   29.38    1.31
  13  -4  -2   29.51    1.32
   9 -13   2   29.06    1.30
  14  -5  -2    2.10    0.25
  -5  -9  -2    2.58    0.26
   9 -14   2    2.23    0.24
  15  -6  -2   10.17    0.58
  -6  -9  -2   10.18    0.57
   9 -15   2   10.09    0.55
  16  -7  -2    2.44    0.28
  -7  -9  -2    3.52    0.32
   9 -16   2    2.32    0.26
  -8  -9  -2    4.18    0.37
  17  -8  -2    4.25    0.36
   9 -17   2    3.85    0.33
  17 -10  -2    7.17    0.48
 -10  -7  -2    7.31    0.50
   7 -17   2    7.63    0.47
  16 -10  -2   14.93    0.76
 -10  -6  -2   15.52    0.79
   6 -16   2   13.71    0.74
  15 -10  -2    5.49    0.37
 -10  -5  -2    5.93    0.41
   5 -15   2    5.11    0.37
 -10  -4  -2   50.10    2.12
  14 -10  -2   49.17    2.09
   4 -14   2   46.45    2.09
  13 -10  -2   15.13    0.73
 -10  -3  -2   15.56    0.77
  10   3   2   15.03    0.75
   3 -13   2   15.52    0.75
 -10  -2  -2   32.30    1.47
  12 -10  -2   32.19    1.43
  10   2   2   32.40    1.46
   2 -12   2   35.54    1.47
  11 -10  -2   30.89    1.32
  -1  11  -2   29.18    1.34
 -10  -1  -2   31.67    1.37
   1 -11   2   31.73    1.36
  10   1   2   30.25    1.36
  10 -10  -2   37.19    1.53
   0  10  -2   35.12    1.55
 -10   0  -2   35.75    1.58
   0 -10   2   36.94    1.58
  10   0   2   36.14    1.58
   1   9  -2    8.11    0.42
 -10   1  -2    8.44    0.45
   9 -10  -2    8.25    0.39
   9 -10  -2    7.24    0.38
  -1  -9   2    8.25    0.44
  10  -1   2    8.07    0.44
   2   8  -2   80.83    3.29
 -10   2  -2   80.89    3.31
   8 -10  -2   77.00    3.25
   8 -10  -2   81.19    3.25
  -2  -8   2   79.09    3.31
  10  -2   2   77.05    3.31
   3   7  -2    7.93    0.41
   7 -10  -2    7.61    0.35
 -10   3  -2    7.39    0.42
   7 -10  -2    7.24    0.35
  -3  -7   2    8.10    0.42
  10  -3   2    7.69    0.42
   6 -10  -2   77.38    3.28
   6 -10  -2   83.63    3.28
   4   6  -2   79.85    3.34
 -10   4  -2   79.76    3.34
  10  -4   2   79.43    3.34
  -4  -6   2   82.15    3.35
   5 -10  -2   40.66    1.79
   5   5  -2   43.45    1.86
 -10   5  -2   43.27    1.85
   5 -10  -2   44.73    1.79
  10  -5   2   45.65    1.87
  -5  -5   2   44.14    1.86
   6   4  -2   80.07    3.30
   4 -10  -2   75.59    3.24
 -10   6  -2   79.18    3.29
   4 -10  -2   81.15    3.24
  -6  -4   2   77.96    3.30
  10  -6   2   82.40    3.31
   7   3  -2    8.08    0.41
   3 -10  -2    7.64    0.35
 -10   7  -2    7.63    0.40
   3 -10  -2    6.85    0.34
  -7  -3   2    6.93    0.41
  10  -7   2    7.72    0.41
   2 -10  -2   74.07    3.26
   8   2  -2   84.20    3.32
   2 -10  -2   81.52    3.27
 -10   8  -2   79.93    3.30
  10  -8   2   79.05    3.32
  -8  -2   2   79.12    3.32
   9   1  -2    7.61    0.43
   1 -10  -2    8.39    0.39
 -10   9  -2    7.80    0.41
   1 -10  -2    7.06    0.37
  -9  -1   2    8.43    0.44
  10  -9   2    7.88    0.43
   0 -10  -2   35.25    1.52
  10   0  -2   36.67    1.56
 -10  10  -2   35.12    1.53
  10 -10   2   36.07    1.55
 -10   0   2   35.48    1.56
  -1 -10  -2   32.12    1.38
  11  -1  -2   33.01    1.42
 -11   1   2   30.40    1.41
  10 -11   2   32.36    1.41
  12  -2  -2   32.38    1.42
  -2 -10  -2   31.51    1.39
  10 -12   2   32.93    1.41
 -12   2   2   30.30    1.40
  -3 -10  -2   14.58    0.71
  13  -3  -2   14.96    0.73
  10 -13   2   14.11    0.71
 -13   3   2   14.61    0.73
  -4 -10  -2   47.95    2.06
  14  -4  -2   48.51    2.07
  10 -14   2   46.19    2.05
  -5 -10  -2    6.34    0.40
  15  -5  -2    5.14    0.39
  10 -15   2    4.75    0.36
  -6 -10  -2   16.39    0.80
  16  -6  -2   14.77    0.80
  10 -16   2   14.78    0.77
  17  -7  -2    7.49    0.49
  -7 -10  -2    6.87    0.49
  10 -17   2    7.32    0.46
 -11  -6  -2   14.14    0.77
  17 -11  -2   13.52    0.73
   6 -17   2   13.99    0.74
 -11  -5  -2   17.75    0.92
  16 -11  -2   17.32    0.88
   5 -16   2   18.84    0.89
  15 -11  -2    7.39    0.43
 -11  -4  -2    7.23    0.47
   4 -15   2    6.10    0.42
 -11  -3  -2    4.82    0.38
  14 -11  -2    4.86    0.33
  11   3   2    5.19    0.36
   3 -14   2    4.91    0.35
  13 -11  -2   11.09    0.56
 -11  -2  -2   10.67    0.61
  11   2   2   11.03    0.59
   2 -13   2   11.93    0.60
  12 -11  -2    7.25    0.38
 -11  -1  -2    6.64    0.42
   1 -12   2    6.70    0.41
  11   1   2    6.36    0.41
  11 -11  -2   35.53    1.50
 -11   0  -2   34.71    1.56
   0 -11   2   36.63    1.55
  11   0   2   33.64    1.54
   1  10  -2   29.75    1.36
 -11   1  -2   31.17    1.39
  10 -11  -2   32.13    1.33
  -1 -10   2   30.86    1.38
  11  -1   2   32.09    1.39
   9 -11  -2   11.51    0.56
 -11   2  -2   13.31    0.64
   2   9  -2   12.66    0.61
   9 -11  -2   12.78    0.57
  -2  -9   2   13.31    0.64
  11  -2   2   12.76    0.64
   8 -11  -2    7.18    0.37
   8 -11  -2    8.10    0.37
   3   8  -2    8.01    0.43
 -11   3  -2    8.29    0.45
  11  -3   2    8.32    0.45
  -3  -8   2    8.45    0.45
   7 -11  -2   20.94    0.98
 -11   4  -2   23.05    1.05
   7 -11  -2   24.74    0.98
   4   7  -2   23.08    1.04
  11  -4   2   24.17    1.06
  -4  -7   2   23.92    1.06
   6 -11  -2   32.77    1.34
   6 -11  -2   30.24    1.34
 -11   5  -2   32.44    1.41
   5   6  -2   32.28    1.41
  -5  -6   2   33.10    1.42
  11  -5   2   33.29    1.42
 -11   6  -2   32.72    1.40
   5 -11  -2   33.33    1.34
   6   5  -2   31.80    1.40
   5 -11  -2   28.80    1.33
  -6  -5   2   32.94    1.41
  11  -6   2   33.02    1.41
 -11   7  -2   22.60    1.05
   7   4  -2   23.12    1.06
   4 -11  -2   24.56    1.01
   4 -11  -2   21.37    0.99
  -7  -4   2   25.45    1.08
  11  -7   2   25.44    1.08
   3 -11  -2    7.12    0.37
 -11   8  -2    8.05    0.42
   8   3  -2    7.97    0.43
   3 -11  -2    7.95    0.38
  -8  -3   2    8.00    0.44
  11  -8   2    8.27    0.44
   2 -11  -2   13.29    0.60
   9   2  -2   13.21    0.65
 -11   9  -2   12.58    0.62
  11  -9   2   13.04    0.65
  -9  -2   2   13.14    0.65
   1 -11  -2   31.75    1.35
  10   1  -2   31.74    1.39
 -11  10  -2   29.71    1.36
  11 -10   2   32.49    1.39
 -10  -1   2   31.19    1.39
  11   0  -2   36.05    1.55
   0 -11  -2   34.75    1.50
  11 -11   2   35.36    1.54
 -11   0   2   33.62    1.54
  -1 -11  -2    6.67    0.38
  12  -1  -2    6.68    0.41
  11 -12   2    6.69    0.40
 -12   1   2    5.93    0.39
  -2 -11  -2   10.25    0.55
  13  -2  -2   10.87    0.58
  11 -13   2   10.96    0.57
 -13   2   2   10.03    0.57
  -3 -11  -2    4.43    0.33
  14  -3  -2    5.16    0.37
  11 -14   2    4.74    0.34
  15  -4  -2    6.98    0.46
  -4 -11  -2    6.97    0.44
  11 -15   2    6.27    0.42
  -5 -11  -2   17.25    0.89
  16  -5  -2   18.73    0.92
  11 -16   2   18.27    0.89
  -6 -11  -2   14.23    0.75
  17  -6  -2   13.91    0.76
  11 -17   2   13.82    0.73
 -12  -5  -2    9.12    0.59
  17 -12  -2   10.27    0.56
   5 -17   2    8.76    0.55
 -12  -4  -2   12.24    0.71
  16 -12  -2   12.55    0.67
   4 -16   2   13.28    0.69
 -12  -3  -2   14.38    0.76
  15 -12  -2   14.09    0.71
   3 -15   2   13.87    0.73
 -12  -2  -2   20.32    0.97
  14 -12  -2   19.96    0.91
  12   2   2   18.10    0.94
   2 -14   2   19.78    0.94
  13 -12  -2    4.97    0.31
 -12  -1  -2    4.61    0.37
  12   1   2    4.55    0.34
   1 -13   2    4.94    0.35
 -12   0  -2   62.73    2.71
  12 -12  -2   64.93    2.65
  12   0   2   63.76    2.70
   0 -12   2   62.02    2.69
 -12   1  -2    6.61    0.42
  11 -12  -2    6.43    0.35
  12  -1   2    6.64    0.41
  -1 -11   2    6.98    0.41
  10 -12  -2   32.17    1.35
   2  10  -2   30.53    1.39
 -12   2  -2   33.03    1.43
  -2 -10   2   32.18    1.42
  12  -2   2   31.22    1.42
   3   9  -2   36.85    1.62
   9 -12  -2   37.82    1.57
 -12   3  -2   36.24    1.64
  -3  -9   2   36.93    1.64
  12  -3   2   39.16    1.65
   8 -12  -2   48.46    1.98
   4   8  -2   46.41    2.04
 -12   4  -2   48.61    2.06
   8 -12  -2   43.70    1.98
  12  -4   2   51.31    2.07
  -4  -8   2   49.08    2.06
   7 -12  -2    8.04    0.37
 -12   5  -2    7.68    0.43
   7 -12  -2    7.35    0.36
   5   7  -2    7.56    0.43
  12  -5   2    7.88    0.45
  -5  -7   2    8.80    0.46
   6   6  -2   77.00    3.11
   6 -12  -2   67.26    3.04
   6 -12  -2   76.04    3.04
 -12   6  -2   72.05    3.11
   6 -12  -2   76.07    3.04
  12  -6   2   76.79    3.13
  -6  -6   2   74.94    3.12
 -12   7  -2    8.13    0.44
   5 -12  -2    7.37    0.37
   5 -12  -2    8.03    0.38
   7   5  -2    7.98    0.44
  -7  -5   2    7.88    0.45
  12  -7   2    8.84    0.46
   4 -12  -2   48.71    1.99
   8   4  -2   48.54    2.05
 -12   8  -2   47.26    2.04
  -8  -4   2   46.68    2.06
  12  -8   2   47.87    2.06
 -12   9  -2   36.31    1.63
   3 -12  -2   38.15    1.59
   9   3  -2   37.69    1.65
  12  -9   2   38.51    1.65
  -9  -3   2   38.28    1.66
   2 -12  -2   31.91    1.35
  10   2  -2   31.85    1.41
  12 -10   2   31.71    1.41
 -10  -2   2   30.94    1.41
   1 -12  -2    6.44    0.36
  11   1  -2    6.13    0.40
 -11  -1   2    6.00    0.40
  12 -11   2    7.11    0.41
  12   0  -2   64.53    2.73
   0 -12  -2   64.42    2.69
  12 -12   2   63.89    2.72
 -12   0   2   63.19    2.73
  -1 -12  -2    4.80    0.32
  12 -13   2    4.73    0.34
 -13   1   2    4.35    0.34
  14  -2  -2   19.68    0.96
  -2 -12  -2   19.71    0.93
  12 -14   2   19.69    0.94
  -3 -12  -2   14.28    0.73
  15  -3  -2   14.70    0.76
  12 -15   2   13.73    0.73
  -4 -12  -2   13.09    0.71
  16  -4  -2   13.04    0.74
  12 -16   2   14.32    0.72
  -5 -12  -2    8.74    0.55
  17  -5  -2    9.60    0.58
  12 -17   2    9.14    0.54
 -13  -4  -2    7.34    0.52
  17 -13  -2    7.59    0.47
   4 -17   2    7.08    0.48
  16 -13  -2    3.31    0.29
 -13  -3  -2    2.87    0.33
   3 -16   2    3.25    0.33
  15 -13  -2   19.64    0.91
 -13  -2  -2   18.30    0.96
   2 -15   2   19.55    0.95
  14 -13  -2   15.04    0.75
 -13  -1  -2   15.66    0.81
   1 -14   2   16.19    0.80
  13   1   2   15.37    0.79
  13 -13  -2    6.78    0.39
 -13   0  -2    7.10    0.46
   0 -13   2    7.27    0.45
  13   0   2    6.88    0.45
  12 -13  -2    4.81    0.29
 -13   1  -2    4.71    0.36
  -1 -12   2    4.91    0.36
  13  -1   2    4.46    0.35
 -13   2  -2   10.78    0.60
  11 -13  -2   11.01    0.52
  -2 -11   2   11.06    0.59
  13  -2   2   10.70    0.59
  10 -13  -2   15.89    0.69
 -13   3  -2   14.88    0.77
  -3 -10   2   15.23    0.76
  13  -3   2   15.24    0.77
   9 -13  -2   29.61    1.24
   4   9  -2   28.72    1.30
 -13   4  -2   28.85    1.32
  -4  -9   2   29.52    1.32
  13  -4   2   29.44    1.32
   8 -13  -2   20.48    0.88
 -13   5  -2   19.29    0.95
   5   8  -2   19.85    0.94
  13  -5   2   21.60    0.97
  -5  -8   2   21.11    0.97
   6   7  -2    6.97    0.43
   7 -13  -2    8.24    0.37
 -13   6  -2    7.33    0.43
  -6  -7   2    7.78    0.45
  13  -6   2    7.82    0.46
 -13   7  -2    7.81    0.44
   6 -13  -2    7.51    0.37
   7   6  -2    7.46    0.44
  13  -7   2    7.92    0.46
  -7  -6   2    7.91    0.46
   8   5  -2   19.44    0.94
 -13   8  -2   18.70    0.92
   5 -13  -2   20.46    0.87
  13  -8   2   20.91    0.96
  -8  -5   2   20.90    0.96
   9   4  -2   29.08    1.33
   4 -13  -2   29.31    1.26
  -9  -4   2   29.31    1.34
  13  -9   2   30.82    1.34
   3 -13  -2   15.48    0.70
  10   3  -2   14.85    0.75
 -10  -3   2   14.83    0.76
  13 -10   2   15.28    0.76
  11   2  -2   10.61    0.58
   2 -13  -2   10.65    0.52
  13 -11   2   10.36    0.57
 -11  -2   2   10.26    0.58
  12   1  -2    4.67    0.34
   1 -13  -2    3.89    0.28
 -12  -1   2    4.04    0.33
  13 -12   2    4.54    0.33
   0 -13  -2    7.09    0.41
  13   0  -2    7.32    0.45
 -13   0   2    6.48    0.44
  13 -13   2    7.26    0.45
  14  -1  -2   15.85    0.83
  -1 -13  -2   16.91    0.80
  13 -14   2   16.03    0.82
  -2 -13  -2   19.34    0.93
  15  -2  -2   18.49    0.95
  13 -15   2   19.60    0.94
  16  -3  -2    3.53    0.35
  -3 -13  -2    3.07    0.31
  13 -16   2    3.15    0.31
  17  -4  -2    7.33    0.51
  -4 -13  -2    7.17    0.49
  13 -17   2    7.64    0.48
 -14  -2  -2   27.45    1.34
  16 -14  -2   28.54    1.28
   2 -16   2   28.54    1.33
 -14  -1  -2    5.81    0.44
  15 -14  -2    6.17    0.38
   1 -15   2    5.87    0.43
  14 -14  -2   18.31    0.85
 -14   0  -2   18.22    0.92
  14   0   2   17.83    0.91
   0 -14   2   18.07    0.91
 -14   1  -2   14.47    0.78
  13 -14  -2   15.60    0.72
  -1 -13   2   15.75    0.79
  14  -1   2   14.40    0.78
 -14   2  -2   17.67    0.93
  12 -14  -2   19.82    0.86
  -2 -12   2   19.37    0.93
  14  -2   2   19.20    0.94
 -14   3  -2    4.77    0.36
  11 -14  -2    5.12    0.28
  14  -3   2    4.40    0.36
  -3 -11   2    4.50    0.36
  10 -14  -2   49.75    2.02
 -14   4  -2   48.22    2.10
  -4 -10   2   48.45    2.10
  14  -4   2   46.57    2.10
   9 -14  -2    2.04    0.16
 -14   5  -2    2.14    0.24
  14  -5   2    1.89    0.24
  -5  -9   2    2.13    0.25
 -14   6  -2   17.86    0.91
   8 -14  -2   20.17    0.84
   6   8  -2   18.87    0.91
  14  -6   2   20.44    0.95
  -6  -8   2   19.39    0.93
   7 -14  -2   33.38    1.38
 -14   7  -2   31.14    1.45
   7   7  -2   31.37    1.45
  14  -7   2   33.01    1.47
  -7  -7   2   34.30    1.48
   8   6  -2   19.59    0.95
   6 -14  -2   20.91    0.88
  14  -8   2   19.85    0.96
  -8  -6   2   19.62    0.96
   5 -14  -2    2.25    0.17
   9   5  -2    2.06    0.24
  -9  -5   2    1.61    0.22
  14  -9   2    1.85    0.24
  10   4  -2   47.84    2.09
   4 -14  -2   49.40    2.03
 -10  -4   2   47.56    2.10
  14 -10   2   47.72    2.10
   3 -14  -2    4.98    0.30
  11   3  -2    4.65    0.36
 -11  -3   2    4.63    0.36
  14 -11   2    4.99    0.36
   2 -14  -2   20.01    0.90
  12   2  -2   19.16    0.95
  14 -12   2   20.07    0.96
 -12  -2   2   19.25    0.96
   1 -14  -2   16.11    0.76
  13   1  -2   16.04    0.81
 -13  -1   2   14.53    0.80
  14 -13   2   15.91    0.80
  14   0  -2   19.55    0.94
   0 -14  -2   18.45    0.89
  14 -14   2   18.38    0.93
  -1 -14  -2    6.25    0.40
  15  -1  -2    5.37    0.42
  14 -15   2    5.55    0.41
  -2 -14  -2   27.90    1.27
  16  -2  -2   28.11    1.31
  14 -16   2   26.05    1.27
  16 -15  -2    1.68    0.21
 -15  -1  -2    1.34    0.23
   1 -16   2    1.04    0.22
 -15   0  -2    6.26    0.47
  15 -15  -2    6.50    0.40
  15   0   2    6.76    0.47
   0 -15   2    7.39    0.48
 -15   1  -2    5.76    0.43
  14 -15  -2    5.77    0.35
  15  -1   2    5.71    0.42
  -1 -14   2    6.01    0.43
 -15   2  -2   17.97    0.92
  13 -15  -2   18.65    0.84
  -2 -13   2   18.86    0.92
  15  -2   2   17.22    0.91
 -15   3  -2   13.30    0.74
  12 -15  -2   14.15    0.66
  -3 -12   2   14.47    0.75
  15  -3   2   14.97    0.76
  11 -15  -2    6.54    0.35
 -15   4  -2    6.73    0.44
  -4 -11   2    6.60    0.45
  15  -4   2    6.36    0.44
 -15   5  -2    5.21    0.37
  10 -15  -2    5.11    0.29
  -5 -10   2    5.18    0.38
  15  -5   2    5.15    0.39
 -15   6  -2   10.15    0.59
   9 -15  -2   10.33    0.50
  15  -6   2   10.62    0.61
  -6  -9   2   11.87    0.62
   7   8  -2   16.43    0.88
   8 -15  -2   17.71    0.78
  -7  -8   2   18.55    0.89
  15  -7   2   17.84    0.88
   7 -15  -2   17.67    0.77
   8   7  -2   16.12    0.84
  -8  -7   2   17.11    0.87
  15  -8   2   18.25    0.88
   6 -15  -2   10.36    0.49
   9   6  -2   10.28    0.57
  15  -9   2   10.66    0.59
  -9  -6   2    9.63    0.58
   5 -15  -2    5.54    0.31
  10   5  -2    5.35    0.38
 -10  -5   2    5.35    0.40
  15 -10   2    5.02    0.39
   4 -15  -2    6.53    0.37
  11   4  -2    7.05    0.44
 -11  -4   2    5.96    0.44
  15 -11   2    6.89    0.45
  12   3  -2   13.52    0.73
   3 -15  -2   14.25    0.68
  15 -12   2   14.63    0.75
 -12  -3   2   13.79    0.75
  13   2  -2   18.19    0.92
   2 -15  -2   18.59    0.86
  15 -13   2   18.62    0.92
 -13  -2   2   17.67    0.92
  14   1  -2    6.02    0.44
   1 -15  -2    6.13    0.39
  15 -14   2    6.68    0.45
   0 -15  -2    6.67    0.44
  15   0  -2    7.38    0.49
  15 -15   2    7.39    0.48
  16  -1  -2    1.53    0.25
  -1 -15  -2    1.28    0.21
  15 -16   2    1.24    0.22
 -16   1  -2    0.95    0.22
  15 -16  -2    1.32    0.18
  -1 -15   2    1.37    0.23
  16  -1   2    1.37    0.24
  14 -16  -2   26.69    1.18
 -16   2  -2   27.30    1.27
  -2 -14   2   27.57    1.27
  16  -2   2   24.56    1.26
  13 -16  -2    2.90    0.23
 -16   3  -2    2.90    0.31
  -3 -13   2    2.99    0.33
  16  -3   2    3.05    0.34
  12 -16  -2   13.20    0.61
  16  -4   2   12.01    0.70
  -4 -12   2   13.09    0.71
  11 -16  -2   17.33    0.77
  -5 -11   2   17.01    0.88
  16  -5   2   16.97    0.88
  10 -16  -2   15.15    0.69
  -6 -10   2   15.86    0.81
  16  -6   2   14.91    0.80
   9 -16  -2    2.75    0.20
  -7  -9   2    2.49    0.29
  16  -7   2    2.47    0.30
   8 -16  -2   40.21    1.65
  16  -8   2   38.07    1.76
  -8  -8   2   38.33    1.75
   7 -16  -2    2.17    0.20
  16  -9   2    3.11    0.32
  -9  -7   2    3.01    0.32
   6 -16  -2   14.51    0.67
  10   6  -2   15.02    0.76
  16 -10   2   14.61    0.78
 -10  -6   2   13.76    0.77
  11   5  -2   16.95    0.87
   5 -16  -2   17.05    0.79
 -11  -5   2   17.49    0.89
  16 -11   2   17.52    0.89
   4 -16  -2   13.20    0.63
  12   4  -2   11.77    0.68
 -12  -4   2   12.52    0.71
  16 -12   2   13.32    0.71
   3 -16  -2    3.11    0.26
  13   3  -2    2.79    0.30
  16 -13   2    3.42    0.34
 -13  -3   2    2.68    0.31
  14   2  -2   26.70    1.29
   2 -16  -2   26.94    1.22
  16 -14   2   27.74    1.30
  15   1  -2    1.43    0.24
   1 -16  -2    1.42    0.21
  16 -15   2    1.39    0.24
  13 -17  -2    6.75    0.38
  17  -4   2    7.23    0.50
  -4 -13   2    6.69    0.49
  12 -17  -2    8.81    0.46
  -5 -12   2    9.37    0.58
  17  -5   2    9.54    0.59
  11 -17  -2   13.82    0.64
  -6 -11   2   14.03    0.77
  17  -6   2   13.83    0.77
  10 -17  -2    6.67    0.37
  -7 -10   2    7.64    0.50
  17  -7   2    7.69    0.50
   9 -17  -2    4.00    0.26
  -8  -9   2    4.00    0.38
  17  -8   2    3.96    0.38
   8 -17  -2    3.71    0.25
  -9  -8   2    4.14    0.38
  17  -9   2    4.13    0.38
   7 -17  -2    7.03    0.38
 -10  -7   2    7.60    0.51
  17 -10   2    7.26    0.50
   6 -17  -2   13.86    0.65
  17 -11   2   13.39    0.75
 -11  -6   2   13.15    0.75
   5 -17  -2    9.14    0.49
 -12  -5   2    9.17    0.58
  17 -12   2    9.81    0.59
   4 -17  -2    6.43    0.39
  13   4  -2    6.64    0.47
  17 -13   2    7.07    0.49
 -13  -4   2    7.13    0.49
   0   0  -3    2.24    0.15
   0   0   3    2.32    0.14
   0   1  -3   46.65    2.11
  -1   0  -3   52.27    2.11
  -1   0  -3   50.90    2.11
   1  -1  -3   50.24    2.10
   1  -1  -3   52.93    2.10
   0   1  -3   50.47    2.11
  -1   1   3   52.09    2.10
   1   0   3   52.08    2.11
   0  -1   3   52.56    2.11
  -1   1   3   51.89    2.10
   1   0  -3   50.70    2.14
   1   0  -3   52.34    2.14
   0  -1  -3   52.06    2.13
   0  -1  -3   50.60    2.13
  -1   1  -3   48.78    2.14
  -1   1  -3   52.89    2.14
   0   1   3   51.89    2.13
  -1   0   3   53.86    2.14
   1  -1   3   52.60    2.14
  -1   0   3   54.21    2.14
   2  -1  -3   -0.16    0.04
  -1   2  -3   -0.06    0.05
  -1  -1  -3   -0.13    0.04
   2  -1  -3   -0.12    0.04
  -1  -1  -3   -0.18    0.03
  -1   2  -3   -0.16    0.04
   1  -2   3   -0.07    0.05
   1   1   3   -0.09    0.04
  -2   1   3    0.02    0.05
  -2  -1  -3    0.34    0.07
  -1   3  -3    0.40    0.07
  -2  -1  -3    0.33    0.06
   3  -2  -3    0.53    0.06
   1  -3   3    0.51    0.07
  -3   2   3    0.47    0.05
   2   1   3    0.59    0.07
   2  -2  -3   84.24    3.35
  -2   0  -3   78.21    3.36
  -2   0  -3   81.36    3.37
   0   2  -3   85.41    3.37
   0   2  -3   74.70    3.36
  -2   2   3   82.29    3.36
   2   0   3   87.35    3.37
   0  -2   3   84.94    3.37
  -2   1  -3   -0.08    0.04
   1   1  -3   -0.10    0.05
   1  -2  -3   -0.16    0.03
  -2   1  -3   -0.12    0.05
   1   1  -3   -0.19    0.04
   1  -2  -3   -0.12    0.04
   2  -1   3   -0.13    0.05
  -1   2   3   -0.06    0.03
  -1   2   3   -0.09    0.03
  -1  -1   3   -0.12    0.05
  -1  -1   3   -0.04    0.05
   2   0  -3   77.22    3.38
   2   0  -3   85.19    3.38
  -2   2  -3   80.67    3.39
  -2   2  -3   76.85    3.39
   0  -2  -3   83.41    3.37
   2  -2   3   87.46    3.39
   0   2   3   83.30    3.39
  -2   0   3   88.34    3.38
   3  -1  -3    0.57    0.07
  -1  -2  -3    0.31    0.05
  -1  -2  -3    0.36    0.06
  -2   3  -3    0.54    0.08
   3  -1  -3    0.42    0.06
   3  -1  -3    0.43    0.06
   2  -3   3    0.52    0.08
   1   2   3    0.61    0.06
  -3   1   3    0.50    0.07
   4  -2  -3   -0.05    0.04
  -2   4  -3   -0.09    0.06
  -2  -2  -3   -0.03    0.04
   4  -2  -3   -0.06    0.04
  -2  -2  -3    0.02    0.05
  -4   2   3   -0.03    0.04
   2  -4   3   -0.06    0.06
   2   2   3   -0.06    0.04
  -3  -2  -3   10.19    0.48
  -3  -2  -3    9.69    0.47
   5  -3  -3   10.57    0.47
  -2   5  -3   10.38    0.49
  -5   3   3   10.64    0.46
   2  -5   3   10.86    0.49
   3   2   3   11.16    0.48
   4  -3  -3   29.20    1.17
  -1   4  -3   28.41    1.20
  -3  -1  -3   28.83    1.19
   4  -3  -3   27.61    1.17
  -3  -1  -3   27.02    1.19
   3   1   3   28.32    1.19
   1  -4   3   27.52    1.20
  -4   3   3   29.16    1.17
   3  -3  -3    0.72    0.07
  -3   0  -3    0.88    0.10
   3  -3  -3    0.74    0.07
   3  -3  -3    0.75    0.07
   0   3  -3    0.62    0.09
  -3   0  -3    0.70    0.09
  -3   3   3    0.75    0.06
   3   0   3    0.84    0.09
   0  -3   3    0.53    0.09
   2  -3  -3    0.45    0.05
  -3   1  -3    0.37    0.06
   2  -3  -3    0.46    0.05
  -3   1  -3    0.50    0.08
   1   2  -3    0.62    0.08
  -1  -2   3    0.46    0.08
   3  -1   3    0.51    0.08
  -1  -2   3    0.55    0.08
   1  -3  -3    0.44    0.05
   1  -3  -3    0.63    0.06
  -3   2  -3    0.45    0.08
   2   1  -3    0.59    0.08
   2   1  -3    0.29    0.06
   3  -2   3    0.77    0.09
  -2  -1   3    0.70    0.08
   0  -3  -3    0.83    0.08
   3   0  -3    0.73    0.09
  -3   3  -3    0.87    0.11
   3   0  -3    0.77    0.10
   3   0  -3    0.72    0.09
   0  -3  -3    0.77    0.07
   3  -3   3    0.86    0.11
  -3   0   3    1.07    0.10
   0   3   3    0.70    0.06
  -1  -3  -3   29.14    1.19
   4  -1  -3   29.86    1.20
  -3   4  -3   27.93    1.21
   4  -1  -3   26.81    1.19
  -4   1   3   28.04    1.19
   3  -4   3   29.32    1.21
   1   3   3   28.36    1.18
  -3   5  -3   10.82    0.48
  -2  -3  -3    9.05    0.45
   5  -2  -3    9.64    0.46
   5  -2  -3   10.31    0.46
  -2  -3  -3   10.67    0.47
   2   3   3   10.34    0.45
   3  -5   3   11.04    0.48
  -5   2   3   10.38    0.46
   6  -3  -3    0.05    0.05
  -3   6  -3   -0.02    0.06
  -3  -3  -3   -0.01    0.05
  -3  -3  -3   -0.03    0.06
   6  -3  -3   -0.10    0.05
   3   3   3    0.06    0.05
   3  -6   3   -0.06    0.06
  -6   3   3   -0.04    0.04
   7  -4  -3    2.86    0.17
   7  -4  -3    3.02    0.18
  -4  -3  -3    2.52    0.18
  -3   7  -3    2.94    0.19
  -4  -3  -3    3.07    0.20
   4   3   3    2.67    0.18
  -7   4   3    2.94    0.17
   3  -7   3    3.22    0.21
  -4  -2  -3  118.80    4.57
  -2   6  -3  113.65    4.57
  -4  -2  -3   98.19    4.56
   6  -4  -3  117.78    4.55
  -6   4   3  112.92    4.53
   4   2   3  106.42    4.56
   2  -6   3  113.11    4.57
   5  -4  -3    2.17    0.13
   5  -4  -3    1.96    0.12
  -4  -1  -3    1.73    0.14
  -4  -1  -3    1.94    0.16
  -1   5  -3    2.19    0.16
  -5   4   3    2.07    0.11
   4   1   3    2.10    0.15
   1  -5   3    2.12    0.16
   0   4  -3   90.34    3.60
  -4   0  -3   81.70    3.59
   4  -4  -3   88.34    3.59
   4  -4  -3   88.16    3.57
  -4   0  -3   87.45    3.60
   0  -4   3   87.91    3.60
   4   0   3   90.27    3.60
  -4   1  -3   28.39    1.21
   3  -4  -3   28.58    1.17
   1   3  -3   28.87    1.21
   3  -4  -3   28.91    1.17
   4  -1   3   28.37    1.21
  -1  -3   3   28.52    1.21
  -4   2  -3   -0.05    0.06
   2   2  -3    0.07    0.06
   2  -4  -3   -0.03    0.03
   2  -4  -3    0.00    0.03
  -2  -2   3    0.04    0.06
   4  -2   3   -0.02    0.06
   3   1  -3   25.08    1.19
   1  -4  -3   28.46    1.16
  -4   3  -3   28.00    1.20
   3   1  -3   25.68    1.19
   1  -4  -3   30.00    1.16
   3   1  -3   30.03    1.20
   4  -3   3   28.92    1.20
  -3  -1   3   29.79    1.20
   4   0  -3   93.26    3.58
   0  -4  -3   87.94    3.56
   0  -4  -3   93.94    3.56
   4   0  -3   78.99    3.58
  -4   4  -3   86.08    3.59
   4  -4   3   84.72    3.59
  -4   0   3   88.62    3.58
   0   4   3   85.46    3.54
  -1  -4  -3    2.15    0.14
   5  -1  -3    1.91    0.15
  -4   5  -3    1.74    0.15
   5  -1  -3    1.59    0.14
  -5   1   3    2.38    0.15
   1   4   3    2.20    0.12
   4  -5   3    2.00    0.16
   6  -2  -3  115.53    4.57
   6  -2  -3  101.92    4.56
  -4   6  -3  114.48    4.57
  -2  -4  -3  104.24    4.55
  -2  -4  -3  116.64    4.56
   4  -6   3  111.92    4.58
  -6   2   3  114.67    4.56
   2   4   3  113.85    4.55
   7  -3  -3    2.87    0.19
  -4   7  -3    3.09    0.20
   7  -3  -3    2.54    0.18
  -3  -4  -3    3.06    0.19
  -3  -4  -3    2.70    0.17
  -7   3   3    3.02    0.18
   3   4   3    2.96    0.17
   4  -7   3    3.09    0.21
   8  -4  -3    0.16    0.07
  -4  -4  -3    0.05    0.05
   8  -4  -3    0.01    0.05
  -4  -4  -3    0.09    0.07
  -4   8  -3    0.08    0.06
   4  -8   3    0.11    0.07
   4   4   3    0.26    0.07
  -8   4   3    0.08    0.05
  -4   9  -3   18.82    0.83
   9  -5  -3   18.53    0.82
  -5  -4  -3   19.66    0.84
   9  -5  -3   15.53    0.80
  -9   5   3   17.99    0.80
   4  -9   3   19.94    0.84
   5   4   3   18.70    0.82
  -5  -3  -3    4.65    0.28
  -3   8  -3    4.96    0.28
   8  -5  -3    4.01    0.25
   8  -5  -3    4.79    0.26
  -8   5   3    4.69    0.24
   5   3   3    4.87    0.27
   3  -8   3    6.06    0.30
  -2   7  -3   16.23    0.72
   7  -5  -3   16.58    0.70
  -5  -2  -3   17.00    0.73
   7  -5  -3   14.14    0.69
  -7   5   3   15.63    0.67
   2  -7   3   15.94    0.72
   5   2   3   15.91    0.71
   6  -5  -3    3.77    0.20
   6  -5  -3    4.08    0.21
  -1   6  -3    3.67    0.23
  -5  -1  -3    4.14    0.24
   1  -6   3    4.13    0.24
   5   1   3    4.28    0.24
   5  -5  -3    7.91    0.36
   0   5  -3    8.42    0.40
   5  -5  -3    8.66    0.36
  -5   0  -3    8.38    0.41
   5   0   3    8.10    0.40
   0  -5   3    8.04    0.40
   0  -5   3    8.16    0.40
   1   4  -3    2.00    0.16
   4  -5  -3    2.00    0.11
  -5   1  -3    1.92    0.16
   4  -5  -3    1.97    0.11
   5  -1   3    2.07    0.16
  -1  -4   3    2.01    0.16
   3  -5  -3   10.32    0.44
   2   3  -3   10.51    0.49
   5  -2   3   11.10    0.49
  -2  -3   3   10.26    0.49
  -5   3  -3   10.40    0.49
   2  -5  -3   10.43    0.44
   2  -5  -3   10.59    0.44
   3   2  -3   10.25    0.48
  -3  -2   3   10.74    0.49
   1  -5  -3    2.04    0.11
  -5   4  -3    1.85    0.16
   4   1  -3    1.97    0.15
   1  -5  -3    1.98    0.12
   5  -4   3    2.09    0.16
  -4  -1   3    2.34    0.16
   0  -5  -3    8.66    0.37
  -5   5  -3    8.08    0.40
   5   0  -3    8.76    0.40
   0  -5  -3    7.84    0.37
  -5   0   3    8.19    0.40
   5  -5   3    8.19    0.41
   6  -1  -3    3.91    0.23
   6  -1  -3    3.49    0.22
  -1  -5  -3    3.38    0.19
  -5   6  -3    4.02    0.23
  -1  -5  -3    3.95    0.21
  -6   1   3    4.17    0.23
   1   5   3    4.07    0.19
  -2  -5  -3   15.53    0.68
  -2  -5  -3   14.03    0.67
   7  -2  -3   16.59    0.70
   7  -2  -3   13.40    0.68
  -5   7  -3   16.12    0.70
  -7   2   3   15.71    0.69
   2   5   3   15.72    0.67
   5  -7   3   16.68    0.71
  -5   8  -3    4.43    0.26
   8  -3  -3    3.87    0.25
  -3  -5  -3    4.77    0.26
   8  -3  -3    4.38    0.26
  -3  -5  -3    3.88    0.24
   3   5   3    4.94    0.24
  -8   3   3    4.80    0.26
   5  -8   3    4.88    0.28
  -4  -5  -3   18.95    0.81
   9  -4  -3   19.41    0.81
   9  -4  -3   15.45    0.79
  -5   9  -3   18.67    0.81
  -4  -5  -3   15.34    0.79
   5  -9   3   19.35    0.82
   4   5   3   18.06    0.79
  -9   4   3   18.28    0.79
  -5  10  -3    0.02    0.07
  10  -5  -3    0.10    0.07
  -5  -5  -3    0.02    0.08
   5   5   3    0.03    0.06
   5 -10   3   -0.06    0.08
 -10   5   3    0.02    0.05
  -6  -5  -3    0.03    0.09
  11  -6  -3    0.26    0.09
  -5  11  -3    0.32    0.09
   5 -11   3    0.18    0.09
   6   5   3    0.25    0.09
  10  -6  -3   44.58    1.90
  -4  10  -3   44.86    1.91
  -6  -4  -3   47.30    1.93
 -10   6   3   42.05    1.87
   4 -10   3   45.64    1.92
   6   4   3   46.34    1.91
   9  -6  -3   13.45    0.61
  -3   9  -3   13.61    0.63
  -6  -3  -3   14.32    0.64
   3  -9   3   13.31    0.63
  -9   6   3   13.01    0.58
   6   3   3   12.88    0.62
  -6  -2  -3   54.74    2.14
   8  -6  -3   45.56    2.09
  -2   8  -3   52.33    2.12
   8  -6  -3   48.56    2.09
   6   2   3   51.97    2.12
   2  -8   3   50.70    2.13
  -1   7  -3   10.74    0.52
   7  -6  -3   10.29    0.48
  -6  -1  -3   11.07    0.52
   7  -6  -3   11.00    0.48
   1  -7   3   11.38    0.53
   1  -7   3   10.89    0.52
   6   1   3   10.52    0.51
   0   6  -3    0.62    0.10
   6  -6  -3    0.65    0.07
  -6   0  -3    0.55    0.10
   6  -6  -3    0.76    0.08
   0  -6   3    0.68    0.11
   6   0   3    0.56    0.10
   0  -6   3    0.68    0.11
   1   5  -3    3.64    0.23
  -6   1  -3    3.97    0.24
   5  -6  -3    3.67    0.18
   5  -6  -3    3.90    0.18
  -1  -5   3    4.18    0.24
   6  -1   3    4.02    0.24
  -6   2  -3  111.89    4.67
   2   4  -3  113.18    4.67
  -2  -4   3  117.84    4.67
   6  -2   3  112.80    4.67
   3   3  -3    0.01    0.06
  -6   3  -3   -0.03    0.07
   6  -3   3   -0.02    0.06
  -3  -3   3    0.02    0.07
   2  -6  -3  114.56    4.65
   2  -6  -3  110.68    4.64
  -6   4  -3  114.22    4.68
   4   2  -3  118.20    4.68
  -4  -2   3  113.07    4.68
   6  -4   3  115.06    4.69
  -6   5  -3    3.91    0.24
   1  -6  -3    3.90    0.19
   1  -6  -3    3.75    0.19
   5   1  -3    3.74    0.23
   6  -5   3    3.98    0.24
  -5  -1   3    4.24    0.24
  -6   6  -3    0.89    0.12
   6   0  -3    0.65    0.11
   0  -6  -3    0.79    0.08
   0  -6  -3    0.70    0.08
   6  -6   3    0.71    0.11
  -6   0   3    0.76    0.11
  -6   7  -3   11.30    0.52
  -1  -6  -3   10.23    0.48
   7  -1  -3   10.92    0.52
  -1  -6  -3   10.64    0.49
   6  -7   3   11.58    0.53
   1   6   3   10.90    0.47
  -7   1   3   10.64    0.51
  -2  -6  -3   44.38    2.07
   8  -2  -3   53.56    2.10
  -2  -6  -3   50.30    2.08
  -6   8  -3   49.71    2.09
  -8   2   3   49.75    2.09
   6  -8   3   53.07    2.11
   2   6   3   48.91    2.06
   9  -3  -3   14.16    0.62
  -3  -6  -3   11.41    0.59
  -3  -6  -3   12.80    0.61
  -6   9  -3   13.27    0.62
  -9   3   3   13.10    0.61
   6  -9   3   14.51    0.63
   3   6   3   12.77    0.58
  10  -4  -3   45.33    1.86
  -6  10  -3   42.21    1.85
  -4  -6  -3   41.93    1.85
   6 -10   3   46.93    1.87
   4   6   3   43.26    1.84
 -10   4   3   43.12    1.85
  -5  -6  -3    0.05    0.08
  11  -5  -3    0.08    0.08
  -6  11  -3    0.14    0.07
   6 -11   3    0.24    0.10
  12  -6  -3    0.19    0.09
  -6  -6  -3    0.25    0.11
   6 -12   3    0.25    0.11
  13  -7  -3    6.45    0.39
  -7  -6  -3    6.75    0.41
   6 -13   3    6.57    0.40
  -7  -5  -3    3.09    0.27
  12  -7  -3    3.48    0.25
   5 -12   3    3.36    0.26
  11  -7  -3    8.52    0.44
  -7  -4  -3    9.18    0.48
  -4  11  -3    8.62    0.45
   7   4   3    8.12    0.44
   4 -11   3    8.62    0.46
  10  -7  -3    1.12    0.13
  -3  10  -3    1.14    0.14
  -7  -3  -3    1.45    0.18
   3 -10   3    0.91    0.14
   7   3   3    1.41    0.16
   9  -7  -3    1.78    0.15
   9  -7  -3    1.75    0.14
  -7  -2  -3    1.83    0.19
  -2   9  -3    1.96    0.18
   2  -9   3    1.42    0.16
   7   2   3    2.04    0.18
   2  -9   3    2.09    0.19
   8  -7  -3    1.03    0.10
   8  -7  -3    0.93    0.10
  -1   8  -3    0.92    0.13
  -7  -1  -3    0.93    0.13
   7   1   3    0.89    0.12
   1  -8   3    0.87    0.12
   1  -8   3    0.85    0.12
   0   7  -3   36.55    1.51
   7  -7  -3   32.91    1.46
   7  -7  -3   35.59    1.47
  -7   0  -3   35.75    1.52
   0  -7   3   36.06    1.52
   7   0   3   35.93    1.51
   6  -7  -3   10.62    0.47
   6  -7  -3   11.38    0.47
  -7   1  -3   10.83    0.53
   1   6  -3   10.78    0.52
   7  -1   3   11.08    0.53
  -7   2  -3   16.68    0.75
   2   5  -3   16.19    0.74
   7  -2   3   16.24    0.75
  -2  -5   3   16.59    0.75
   3   4  -3    2.95    0.20
   7  -3   3    2.99    0.21
  -3  -4   3    2.82    0.21
   4   3  -3    2.96    0.21
  -7   4  -3    2.89    0.20
   7  -4   3    3.05    0.21
  -4  -3   3    2.85    0.20
   2  -7  -3   16.07    0.69
   2  -7  -3   17.00    0.69
  -7   5  -3   17.07    0.75
   5   2  -3   15.61    0.74
   7  -5   3   16.27    0.75
  -5  -2   3   16.64    0.75
   1  -7  -3   11.20    0.48
  -7   6  -3   11.37    0.53
   1  -7  -3   10.57    0.47
   6   1  -3   11.09    0.52
  -6  -1   3   10.29    0.52
   7  -6   3   11.12    0.53
  -7   7  -3   35.73    1.51
   0  -7  -3   33.42    1.47
   7   0  -3   34.14    1.51
   0  -7  -3   36.23    1.48
   7  -7   3   36.75    1.52
  -7   0   3   36.60    1.52
  -1  -7  -3    0.86    0.10
  -1  -7  -3    0.92    0.11
  -7   8  -3    1.02    0.13
   8  -1  -3    0.94    0.13
   7  -8   3    0.63    0.11
  -8   1   3    0.82    0.12
  -7   9  -3    1.91    0.18
  -2  -7  -3    1.94    0.17
   9  -2  -3    2.00    0.19
  -2  -7  -3    1.47    0.14
   2   7   3    1.86    0.13
   7  -9   3    1.97    0.19
  -9   2   3    1.82    0.17
  -3  -7  -3    1.35    0.15
  -7  10  -3    1.29    0.16
  10  -3  -3    1.72    0.18
   7 -10   3    1.39    0.16
 -10   3   3    1.48    0.16
  11  -4  -3    8.58    0.46
  -7  11  -3    7.94    0.43
  -4  -7  -3    8.54    0.45
   7 -11   3    9.03    0.46
 -11   4   3    8.47    0.44
  -5  -7  -3    3.04    0.26
  12  -5  -3    3.53    0.26
   7 -12   3    3.33    0.27
  13  -6  -3    6.48    0.40
  -6  -7  -3    6.30    0.40
   7 -13   3    6.95    0.41
  14  -7  -3   -0.05    0.10
  -7  -7  -3    0.01    0.12
   7 -14   3   -0.02    0.10
  15  -8  -3    0.34    0.14
  -8  -7  -3    0.26    0.14
   7 -15   3    0.25    0.13
  -8  -6  -3   25.31    1.16
  14  -8  -3   24.27    1.14
   6 -14   3   25.14    1.15
  13  -8  -3    1.53    0.19
  -8  -5  -3    1.28    0.19
   5 -13   3    1.68    0.21
  12  -8  -3   20.41    0.91
  -8  -4  -3   20.16    0.94
   4 -12   3   20.70    0.94
   4 -12   3   19.80    0.93
   8   4   3   18.84    0.91
  11  -8  -3    9.43    0.48
  -8  -3  -3    9.46    0.51
  -3  11  -3    9.33    0.48
   3 -11   3    9.86    0.51
   8   3   3    9.27    0.49
   3 -11   3   10.05    0.51
  -8  -2  -3    0.73    0.13
  10  -8  -3    0.61    0.10
  -2  10  -3    0.56    0.11
   2 -10   3    0.73    0.13
   8   2   3    0.58    0.12
   2 -10   3    0.68    0.13
  -8  -1  -3    0.40    0.11
   9  -8  -3    0.47    0.08
  -1   9  -3    0.49    0.11
   9  -8  -3    0.57    0.09
   1  -9   3    0.62    0.12
   8   1   3    0.64    0.12
   8  -8  -3   38.56    1.57
   8  -8  -3   35.98    1.57
   0   8  -3   37.55    1.61
  -8   0  -3   39.19    1.63
   0  -8   3   38.50    1.62
   8   0   3   37.12    1.62
   1   7  -3    0.83    0.12
   7  -8  -3    1.02    0.09
   7  -8  -3    0.85    0.08
  -8   1  -3    1.15    0.16
  -1  -7   3    1.23    0.15
   8  -1   3    0.85    0.13
   2   6  -3   52.25    2.17
   6  -8  -3   54.18    2.11
   6  -8  -3   49.94    2.11
  -8   2  -3   50.88    2.18
   8  -2   3   51.17    2.18
  -2  -6   3   51.80    2.18
  -8   3  -3    4.46    0.28
   3   5  -3    4.40    0.28
  -3  -5   3    4.91    0.29
   8  -3   3    4.74    0.29
   4   4  -3    0.17    0.07
  -8   4  -3    0.18    0.08
   8  -4   3    0.05    0.07
  -4  -4   3    0.14    0.08
   3  -8  -3    4.70    0.22
   3  -8  -3    4.83    0.22
   5   3  -3    5.03    0.29
  -8   5  -3    4.62    0.29
  -5  -3   3    5.21    0.30
   8  -5   3    5.29    0.30
   6   2  -3   49.27    2.12
   2  -8  -3   52.73    2.07
   2  -8  -3   50.08    2.07
  -8   6  -3   52.28    2.13
  -6  -2   3   51.25    2.13
   8  -6   3   47.04    2.12
   7   1  -3    0.77    0.12
   1  -8  -3    0.83    0.09
   1  -8  -3    1.13    0.10
  -8   7  -3    0.99    0.13
  -7  -1   3    0.87    0.14
   8  -7   3    0.74    0.12
   8   0  -3   38.91    1.62
   0  -8  -3   38.06    1.58
  -8   8  -3   37.78    1.61
   0  -8  -3   36.08    1.57
  -8   0   3   36.85    1.61
   8  -8   3   39.02    1.63
  -1  -8  -3    0.56    0.08
  -1  -8  -3    0.47    0.09
  -8   9  -3    0.62    0.11
   9  -1  -3    0.50    0.11
   8  -9   3    0.42    0.11
  -9   1   3    0.44    0.11
  -2  -8  -3    0.70    0.11
  10  -2  -3    0.62    0.12
  -8  10  -3    0.56    0.11
   8 -10   3    0.71    0.13
 -10   2   3    0.58    0.12
  -3  -8  -3    9.43    0.48
  11  -3  -3    9.46    0.50
  -8  11  -3    9.01    0.48
   8 -11   3   10.40    0.51
 -11   3   3    9.48    0.49
  -4  -8  -3   19.95    0.91
  12  -4  -3   19.63    0.92
   8 -12   3   19.78    0.92
  -5  -8  -3    1.32    0.18
  13  -5  -3    1.57    0.20
   8 -13   3    1.65    0.20
  14  -6  -3   24.12    1.11
  -6  -8  -3   23.39    1.10
   8 -14   3   23.95    1.10
  -7  -8  -3    0.17    0.12
  15  -7  -3    0.13    0.13
   8 -15   3    0.08    0.12
  16  -8  -3   -0.06    0.11
  -8  -8  -3    0.10    0.14
   8 -16   3    0.01    0.12
  17  -9  -3    3.07    0.33
  -9  -8  -3    2.96    0.34
   8 -17   3    2.99    0.32
   8 -17   3    3.27    0.32
  16  -9  -3    1.14    0.20
  -9  -7  -3    1.24    0.22
   7 -16   3    1.07    0.20
   7 -16   3    1.36    0.21
  -9  -6  -3    2.81    0.30
  15  -9  -3    3.16    0.28
   6 -15   3    3.39    0.30
   6 -15   3    3.29    0.30
  -9  -5  -3    2.09    0.25
  14  -9  -3    1.76    0.21
   5 -14   3    1.82    0.23
   5 -14   3    2.46    0.26
  -9  -4  -3    0.77    0.16
  13  -9  -3    0.43    0.11
   4 -13   3    0.47    0.13
   4 -13   3    0.60    0.14
  -9  -3  -3    0.48    0.14
  12  -9  -3    0.27    0.09
   3 -12   3    0.28    0.12
   9   3   3    0.29    0.11
   3 -12   3    0.27    0.12
  11  -9  -3    9.95    0.49
  -9  -2  -3    9.49    0.54
  -2  11  -3    9.62    0.51
   2 -11   3   10.90    0.54
   9   2   3   10.36    0.53
  10  -9  -3    5.77    0.30
  -9  -1  -3    6.31    0.37
  -1  10  -3    5.11    0.33
   9   1   3    5.89    0.35
   1 -10   3    5.73    0.35
   9  -9  -3    3.30    0.19
  -9   0  -3    3.12    0.25
   0   9  -3    3.13    0.23
   9  -9  -3    2.80    0.18
   0  -9   3    3.31    0.25
   9   0   3    3.24    0.24
  -9   1  -3    0.46    0.11
   1   8  -3    0.57    0.11
   8  -9  -3    0.49    0.07
   8  -9  -3    0.65    0.08
   9  -1   3    0.50    0.11
  -1  -8   3    0.61    0.13
  -9   2  -3    1.92    0.19
   7  -9  -3    1.86    0.11
   7  -9  -3    2.06    0.12
   2   7  -3    1.95    0.19
  -2  -7   3    1.62    0.18
   9  -2   3    1.78    0.18
   3   6  -3   13.53    0.63
  -9   3  -3   13.33    0.64
   9  -3   3   13.27    0.64
  -3  -6   3   13.16    0.64
  -9   4  -3   18.03    0.85
   4   5  -3   19.43    0.86
  -4  -5   3   18.33    0.86
   9  -4   3   19.53    0.87
   5   4  -3   18.88    0.86
  -9   5  -3   18.46    0.86
  -5  -4   3   19.56    0.87
   9  -5   3   19.45    0.88
   3  -9  -3   13.59    0.58
   6   3  -3   13.36    0.65
  -9   6  -3   13.77    0.65
   3  -9  -3   14.13    0.59
   9  -6   3   14.27    0.66
  -6  -3   3   13.60    0.66
   7   2  -3    1.95    0.19
  -9   7  -3    1.82    0.18
   2  -9  -3    1.85    0.13
   2  -9  -3    1.82    0.12
   9  -7   3    1.83    0.19
  -7  -2   3    1.66    0.18
  -9   8  -3    0.68    0.12
   1  -9  -3    0.53    0.08
   1  -9  -3    0.51    0.07
   8   1  -3    0.39    0.11
   9  -8   3    0.63    0.13
  -8  -1   3    0.70    0.14
   0  -9  -3    3.08    0.19
   0  -9  -3    3.19    0.21
   9   0  -3    3.32    0.25
  -9   9  -3    3.50    0.24
  -9   0   3    3.49    0.25
   9  -9   3    3.39    0.25
  10  -1  -3    5.62    0.35
  -1  -9  -3    5.43    0.31
  -9  10  -3    5.66    0.33
 -10   1   3    5.54    0.34
   9 -10   3    6.09    0.35
  11  -2  -3   10.23    0.53
  -9  11  -3    9.78    0.51
  -2  -9  -3    9.82    0.50
   9 -11   3   10.33    0.53
 -11   2   3    9.86    0.52
  -3  -9  -3    0.45    0.12
  12  -3  -3    0.30    0.12
   9 -12   3    0.24    0.12
  13  -4  -3    0.91    0.17
  -4  -9  -3    0.52    0.13
   9 -13   3    0.53    0.14
  -5  -9  -3    1.70    0.22
  14  -5  -3    1.76    0.23
   9 -14   3    2.17    0.23
  15  -6  -3    2.87    0.30
  -6  -9  -3    3.50    0.31
   9 -15   3    3.45    0.30
  16  -7  -3    1.22    0.21
  -7  -9  -3    1.28    0.21
   9 -16   3    1.45    0.23
  17  -8  -3    2.67    0.30
  -8  -9  -3    2.90    0.31
   9 -17   3    2.88    0.31
 -10  -7  -3    1.13    0.22
  17 -10  -3    1.42    0.22
   7 -17   3    1.71    0.24
   7 -17   3    1.67    0.24
 -10  -6  -3   12.05    0.67
  16 -10  -3   11.13    0.63
   6 -16   3   12.06    0.65
   6 -16   3   11.70    0.65
 -10  -5  -3    2.44    0.29
  15 -10  -3    3.23    0.28
   5 -15   3    3.63    0.30
  14 -10  -3   -0.01    0.09
 -10  -4  -3   -0.05    0.12
   4 -14   3   -0.04    0.11
  13 -10  -3    2.10    0.20
 -10  -3  -3    2.19    0.25
   3 -13   3    2.01    0.25
  10   3   3    1.54    0.21
  12 -10  -3   31.64    1.37
 -10  -2  -3   32.21    1.42
   2 -12   3   32.23    1.41
  10   2   3   30.11    1.40
  11 -10  -3    0.80    0.12
  -1  11  -3    0.67    0.13
 -10  -1  -3    0.66    0.15
   1 -11   3    0.97    0.16
  10   1   3    1.06    0.17
 -10   0  -3   26.13    1.16
   0  10  -3   25.46    1.13
  10 -10  -3   25.07    1.09
  10   0   3   24.80    1.14
   0 -10   3   25.53    1.15
   9 -10  -3    5.35    0.28
   1   9  -3    5.59    0.33
   9 -10  -3    5.84    0.28
 -10   1  -3    5.83    0.36
  10  -1   3    5.52    0.35
  -1  -9   3    5.89    0.35
   8 -10  -3    0.69    0.07
   2   8  -3    0.58    0.11
 -10   2  -3    0.56    0.12
   8 -10  -3    0.69    0.07
  10  -2   3    0.47    0.11
  -2  -8   3    0.55    0.12
   3   7  -3    1.32    0.16
   7 -10  -3    1.20    0.09
 -10   3  -3    1.03    0.15
   7 -10  -3    1.19    0.09
  -3  -7   3    1.19    0.16
  10  -3   3    1.19    0.16
 -10   4  -3   44.13    1.93
   4   6  -3   44.93    1.93
  -4  -6   3   47.01    1.94
  10  -4   3   45.10    1.94
 -10   5  -3    0.08    0.08
   5   5  -3   -0.03    0.07
  -5  -5   3   -0.05    0.08
  10  -5   3    0.09    0.09
   4 -10  -3   45.53    1.83
   6   4  -3   43.49    1.91
 -10   6  -3   44.36    1.91
   4 -10  -3   42.94    1.83
  -6  -4   3   45.28    1.92
  10  -6   3   47.11    1.92
 -10   7  -3    1.40    0.16
   3 -10  -3    1.18    0.09
   7   3  -3    1.03    0.15
   3 -10  -3    1.20    0.10
  10  -7   3    0.98    0.14
  -7  -3   3    0.94    0.15
   8   2  -3    0.47    0.11
   2 -10  -3    0.60    0.08
 -10   8  -3    0.42    0.10
   2 -10  -3    0.61    0.08
  -8  -2   3    0.44    0.12
  10  -8   3    0.47    0.11
   9   1  -3    5.57    0.35
 -10   9  -3    5.77    0.34
   1 -10  -3    5.77    0.30
  -9  -1   3    5.42    0.35
  10  -9   3    5.68    0.35
 -10  10  -3   23.78    1.12
   0 -10  -3   26.51    1.10
  10   0  -3   26.68    1.15
  10 -10   3   24.20    1.14
 -10   0   3   25.60    1.14
  -1 -10  -3    0.74    0.13
  11  -1  -3    0.78    0.15
  10 -11   3    0.63    0.13
 -11   1   3    0.74    0.14
  12  -2  -3   31.67    1.41
  -2 -10  -3   31.58    1.38
 -12   2   3   29.72    1.39
  10 -12   3   32.90    1.41
  13  -3  -3    1.99    0.24
  -3 -10  -3    1.87    0.21
  10 -13   3    2.18    0.24
  -4 -10  -3    0.05    0.10
  14  -4  -3    0.22    0.12
  10 -14   3   -0.04    0.11
  15  -5  -3    3.57    0.32
  -5 -10  -3    3.04    0.30
  10 -15   3    3.33    0.30
  -6 -10  -3   11.46    0.64
  16  -6  -3   12.42    0.67
  10 -16   3   11.06    0.64
  -7 -10  -3    1.51    0.24
  17  -7  -3    1.39    0.23
  10 -17   3    1.52    0.24
  17 -11  -3    0.00    0.12
 -11  -6  -3    0.06    0.14
   6 -17   3    0.24    0.16
  16 -11  -3    0.39    0.14
 -11  -5  -3    0.52    0.17
   5 -16   3    0.55    0.17
 -11  -4  -3    5.20    0.41
  15 -11  -3    5.73    0.37
   4 -15   3    5.78    0.41
 -11  -3  -3    1.90    0.25
  14 -11  -3    1.64    0.19
   3 -14   3    1.41    0.21
 -11  -2  -3    8.95    0.53
  13 -11  -3    8.97    0.47
   2 -13   3    9.22    0.52
  11   2   3    8.82    0.51
  12 -11  -3    1.28    0.15
 -11  -1  -3    1.36    0.20
   1 -12   3    1.17    0.18
  11   1   3    1.55    0.20
   0  11  -3    1.15    0.17
 -11   0  -3    0.92    0.17
  11 -11  -3    1.03    0.12
   0 -11   3    1.05    0.18
  11   0   3    0.94    0.16
 -11   1  -3    0.85    0.16
  10 -11  -3    0.92    0.10
   1  10  -3    0.79    0.14
  -1 -10   3    0.73    0.16
  11  -1   3    0.58    0.14
 -11   2  -3   10.66    0.54
   2   9  -3    9.96    0.52
   9 -11  -3   10.25    0.45
   9 -11  -3    9.25    0.45
  -2  -9   3    9.97    0.53
  11  -2   3   10.12    0.54
   3   8  -3    9.67    0.50
   8 -11  -3    9.62    0.42
 -11   3  -3   10.20    0.52
   8 -11  -3    8.78    0.42
  -3  -8   3   10.30    0.52
  11  -3   3    9.51    0.52
 -11   4  -3    8.42    0.47
   7 -11  -3    8.52    0.37
   4   7  -3    8.16    0.45
   7 -11  -3    8.63    0.37
  11  -4   3    8.50    0.47
  -4  -7   3    8.83    0.48
 -11   5  -3    0.11    0.10
   5   6  -3    0.10    0.09
  11  -5   3    0.17    0.11
  -5  -6   3    0.10    0.10
   6   5  -3    0.25    0.10
   5 -11  -3    0.16    0.04
 -11   6  -3    0.29    0.09
   5 -11  -3    0.20    0.05
  -6  -5   3    0.15    0.11
  11  -6   3    0.19    0.10
   4 -11  -3    7.82    0.37
   4 -11  -3    8.70    0.38
 -11   7  -3    8.91    0.46
   7   4  -3    8.86    0.47
  11  -7   3    8.46    0.47
  -7  -4   3    8.36    0.47
   3 -11  -3    8.86    0.42
   8   3  -3    9.92    0.51
   3 -11  -3    9.52    0.43
 -11   8  -3    9.52    0.49
  -8  -3   3    9.91    0.51
  11  -8   3    9.27    0.51
 -11   9  -3   10.17    0.52
   2 -11  -3   10.13    0.47
   9   2  -3    9.87    0.53
  11  -9   3   10.57    0.54
  -9  -2   3    9.98    0.53
  10   1  -3    0.66    0.13
 -11  10  -3    0.84    0.14
   1 -11  -3    0.81    0.12
  11 -10   3    0.81    0.15
 -10  -1   3    0.71    0.15
  11   0  -3    0.86    0.15
   0 -11  -3    0.84    0.13
 -11   0   3    0.71    0.15
  11 -11   3    0.89    0.16
  -1 -11  -3    1.57    0.18
  12  -1  -3    1.14    0.18
 -12   1   3    1.25    0.18
  11 -12   3    1.19    0.18
  13  -2  -3    8.92    0.51
  -2 -11  -3    8.61    0.48
  11 -13   3    8.70    0.51
  -3 -11  -3    1.44    0.20
  14  -3  -3    2.06    0.25
  11 -14   3    1.36    0.21
  -4 -11  -3    5.25    0.39
  15  -4  -3    6.16    0.42
  11 -15   3    5.92    0.41
  -5 -11  -3    0.45    0.16
  16  -5  -3    0.17    0.15
  11 -16   3    0.39    0.16
  17  -6  -3    0.22    0.15
  -6 -11  -3    0.01    0.14
  11 -17   3    0.01    0.13
 -12  -5  -3    0.47    0.18
  17 -12  -3    0.52    0.16
   5 -17   3    0.14    0.16
  16 -12  -3   16.31    0.83
 -12  -4  -3   17.81    0.89
   4 -16   3   16.65    0.87
  15 -12  -3    1.57    0.21
 -12  -3  -3    1.91    0.27
   3 -15   3    1.75    0.25
 -12  -2  -3   15.61    0.82
  14 -12  -3   16.00    0.76
   2 -14   3   15.90    0.81
  13 -12  -3    2.75    0.22
 -12  -1  -3    2.71    0.28
   1 -13   3    2.76    0.28
  12   1   3    2.79    0.27
  12 -12  -3    1.68    0.17
 -12   0  -3    2.06    0.25
  12   0   3    2.04    0.23
   0 -12   3    1.96    0.24
 -12   1  -3    1.36    0.21
  11 -12  -3    1.25    0.13
  -1 -11   3    1.62    0.21
  12  -1   3    1.50    0.20
   2  10  -3   30.61    1.41
  10 -12  -3   32.79    1.35
 -12   2  -3   31.81    1.44
  12  -2   3   32.16    1.44
  -2 -10   3   32.84    1.44
   9 -12  -3    0.27    0.06
 -12   3  -3    0.34    0.12
   3   9  -3    0.13    0.09
   9 -12  -3    0.36    0.07
  12  -3   3    0.26    0.12
  -3  -9   3    0.38    0.12
   4   8  -3   18.99    0.90
 -12   4  -3   19.35    0.91
   8 -12  -3   18.66    0.81
   8 -12  -3   19.80    0.82
  -4  -8   3   19.36    0.92
  12  -4   3   20.24    0.92
   7 -12  -3    3.53    0.17
 -12   5  -3    3.03    0.26
   5   7  -3    3.29    0.27
   7 -12  -3    3.39    0.17
  -5  -7   3    3.67    0.29
  12  -5   3    3.65    0.29
   6   6  -3    0.01    0.09
   6 -12  -3    0.07    0.04
 -12   6  -3    0.16    0.10
   6 -12  -3    0.04    0.04
  12  -6   3    0.01    0.10
  -6  -6   3    0.27    0.12
 -12   7  -3    3.36    0.27
   7   5  -3    3.31    0.27
   5 -12  -3    3.53    0.18
   5 -12  -3    3.16    0.17
  12  -7   3    3.63    0.29
  -7  -5   3    3.78    0.29
   4 -12  -3   17.88    0.81
   8   4  -3   18.27    0.89
   4 -12  -3   19.84    0.82
 -12   8  -3   19.33    0.89
  12  -8   3   19.27    0.91
  -8  -4   3   20.11    0.91
 -12   9  -3    0.32    0.11
   3 -12  -3    0.29    0.08
   9   3  -3    0.45    0.13
  12  -9   3    0.24    0.11
  -9  -3   3    0.67    0.16
   2 -12  -3   31.96    1.33
  10   2  -3   31.32    1.40
 -10  -2   3   31.02    1.40
  12 -10   3   30.63    1.40
   1 -12  -3    1.26    0.15
  11   1  -3    1.58    0.21
  12 -11   3    1.32    0.19
 -11  -1   3    1.42    0.20
  12   0  -3    2.07    0.25
   0 -12  -3    2.10    0.20
 -12   0   3    1.94    0.23
  12 -12   3    1.89    0.22
  -1 -12  -3    2.73    0.25
  13  -1  -3    3.01    0.31
  12 -13   3    3.04    0.29
  14  -2  -3   14.97    0.77
  -2 -12  -3   14.79    0.73
  12 -14   3   14.93    0.77
  15  -3  -3    1.43    0.24
  -3 -12  -3    1.26    0.20
  12 -15   3    1.90    0.25
  16  -4  -3   16.82    0.87
  -4 -12  -3   16.08    0.84
  12 -16   3   17.19    0.86
  -5 -12  -3    0.40    0.16
  17  -5  -3    0.43    0.17
  12 -17   3    0.48    0.17
 -13  -3  -3    0.35    0.17
  16 -13  -3    0.44    0.14
   3 -16   3    0.05    0.14
  15 -13  -3    0.12    0.10
 -13  -2  -3   -0.12    0.14
   2 -15   3   -0.10    0.13
  14 -13  -3    0.37    0.11
 -13  -1  -3    0.84    0.20
   1 -14   3    0.64    0.17
  13 -13  -3    5.77    0.33
 -13   0  -3    5.32    0.41
  13   0   3    6.13    0.41
   0 -13   3    5.54    0.41
  12 -13  -3    2.95    0.21
 -13   1  -3    2.55    0.28
  13  -1   3    2.56    0.28
  -1 -12   3    3.03    0.30
 -13   2  -3    9.35    0.53
  11 -13  -3    9.18    0.43
  13  -2   3    8.46    0.52
  -2 -11   3    9.15    0.53
 -13   3  -3    2.20    0.26
  10 -13  -3    1.95    0.14
   3  10  -3    1.81    0.21
  -3 -10   3    1.87    0.23
  13  -3   3    1.49    0.21
   4   9  -3    0.69    0.14
 -13   4  -3    0.76    0.16
   9 -13  -3    0.68    0.08
  13  -4   3    0.67    0.15
  -4  -9   3    0.47    0.15
   8 -13  -3    1.67    0.11
   5   8  -3    1.39    0.18
 -13   5  -3    1.84    0.22
   8 -13  -3    1.49    0.11
  13  -5   3    1.75    0.23
  -5  -8   3    1.56    0.21
   7 -13  -3    6.43    0.29
   7 -13  -3    5.95    0.29
   6   7  -3    5.89    0.39
 -13   6  -3    6.38    0.39
  13  -6   3    7.05    0.42
  -6  -7   3    6.39    0.41
   6 -13  -3    6.63    0.31
   7   6  -3    6.80    0.41
 -13   7  -3    6.44    0.40
  13  -7   3    6.29    0.42
  -7  -6   3    7.11    0.43
   8   5  -3    1.80    0.21
 -13   8  -3    1.43    0.19
   5 -13  -3    1.61    0.13
  13  -8   3    2.07    0.25
  -8  -5   3    1.41    0.21
   9   4  -3    0.70    0.16
 -13   9  -3    0.63    0.13
   4 -13  -3    0.72    0.10
  -9  -4   3    0.63    0.16
  13  -9   3    0.57    0.15
  10   3  -3    1.72    0.22
   3 -13  -3    1.99    0.17
 -10  -3   3    1.89    0.23
  13 -10   3    1.81    0.23
  11   2  -3    8.64    0.51
   2 -13  -3    8.69    0.44
 -11  -2   3    8.57    0.51
  13 -11   3    8.71    0.51
  12   1  -3    3.07    0.32
   1 -13  -3    3.01    0.24
 -12  -1   3    2.78    0.28
  13 -12   3    3.33    0.30
  13   0  -3    6.02    0.42
   0 -13  -3    6.35    0.38
  13 -13   3    5.93    0.42
  14  -1  -3    0.34    0.15
  -1 -13  -3    0.13    0.12
  13 -14   3    0.11    0.13
  -2 -13  -3    0.03    0.12
  15  -2  -3    0.03    0.13
  13 -15   3    0.01    0.14
  -3 -13  -3    0.36    0.15
  16  -3  -3    0.39    0.16
  13 -16   3    0.41    0.17
  16 -14  -3    0.65    0.15
 -14  -2  -3    0.53    0.18
   2 -16   3    0.33    0.17
  15 -14  -3    0.32    0.12
 -14  -1  -3    0.34    0.17
   1 -15   3    0.43    0.17
  14 -14  -3   22.20    0.98
 -14   0  -3   20.22    1.06
   0 -14   3   23.13    1.08
  13 -14  -3    0.42    0.10
 -14   1  -3    0.54    0.16
  14  -1   3    0.35    0.16
  -1 -13   3    0.27    0.16
  12 -14  -3   15.78    0.70
 -14   2  -3   14.64    0.80
  14  -2   3   15.25    0.80
  -2 -12   3   16.19    0.81
 -14   3  -3    1.64    0.23
  11 -14  -3    1.55    0.14
  -3 -11   3    1.55    0.23
  14  -3   3    1.60    0.23
  10 -14  -3    0.02    0.06
 -14   4  -3    0.08    0.11
  14  -4   3    0.30    0.14
  -4 -10   3    0.03    0.13
 -14   5  -3    1.80    0.23
   5   9  -3    1.94    0.23
   9 -14  -3    1.87    0.13
  -5  -9   3    1.78    0.25
  14  -5   3    1.64    0.22
   8 -14  -3   23.45    0.99
   6   8  -3   23.01    1.10
 -14   6  -3   24.03    1.11
  -6  -8   3   24.59    1.12
  14  -6   3   23.94    1.12
   7 -14  -3    0.02    0.05
   7   7  -3    0.07    0.10
 -14   7  -3    0.12    0.10
  -7  -7   3    0.08    0.13
  14  -7   3    0.00    0.11
   8   6  -3   23.58    1.10
   6 -14  -3   23.94    0.99
 -14   8  -3   22.76    1.09
  14  -8   3   23.70    1.11
  -8  -6   3   23.07    1.11
   9   5  -3    1.78    0.22
   5 -14  -3    1.96    0.15
  14  -9   3    1.92    0.24
  -9  -5   3    1.75    0.23
  10   4  -3   -0.09    0.11
   4 -14  -3    0.15    0.07
 -10  -4   3    0.13    0.12
  14 -10   3    0.14    0.12
  11   3  -3    1.36    0.22
   3 -14  -3    1.66    0.16
  14 -11   3    1.24    0.21
 -11  -3   3    1.46    0.23
  12   2  -3   15.09    0.78
   2 -14  -3   15.47    0.71
  14 -12   3   14.69    0.79
 -12  -2   3   15.40    0.79
   1 -14  -3    0.54    0.13
  13   1  -3    0.31    0.15
  14 -13   3    0.20    0.14
   0 -14  -3   22.53    1.03
  14   0  -3   22.25    1.09
  14 -14   3   22.49    1.09
  -1 -14  -3    0.16    0.13
  15  -1  -3    0.20    0.14
  14 -15   3    0.13    0.14
  -2 -14  -3    0.57    0.17
  16  -2  -3    0.51    0.18
  14 -16   3    0.49    0.17
 -15   0  -3    3.75    0.37
  15 -15  -3    4.03    0.28
   0 -15   3    4.51    0.39
  14 -15  -3    0.28    0.10
 -15   1  -3    0.33    0.15
  15  -1   3   -0.07    0.13
  -1 -14   3    0.25    0.16
 -15   2  -3    0.21    0.16
  13 -15  -3    0.12    0.08
  -2 -13   3    0.12    0.14
  15  -2   3   -0.33    0.10
  12 -15  -3    1.46    0.15
 -15   3  -3    2.02    0.27
  -3 -12   3    1.92    0.26
  15  -3   3    1.58    0.25
 -15   4  -3    5.28    0.39
  11 -15  -3    5.26    0.28
  15  -4   3    5.31    0.40
  -4 -11   3    5.79    0.41
  10 -15  -3    3.05    0.18
 -15   5  -3    2.70    0.29
  15  -5   3    2.71    0.30
  -5 -10   3    3.40    0.34
   9 -15  -3    3.12    0.18
 -15   6  -3    2.78    0.28
  -6  -9   3    3.44    0.32
  15  -6   3    2.76    0.30
   7   8  -3    0.23    0.12
   8 -15  -3    0.25    0.06
  -7  -8   3    0.29    0.14
  15  -7   3    0.33    0.15
   7 -15  -3    0.32    0.07
   8   7  -3    0.28    0.13
  15  -8   3    0.37    0.16
  -8  -7   3    0.28    0.14
   9   6  -3    3.27    0.30
   6 -15  -3    3.13    0.20
  -9  -6   3    2.79    0.30
  15  -9   3    3.75    0.33
  10   5  -3    2.76    0.30
   5 -15  -3    3.23    0.20
  15 -10   3    3.59    0.33
 -10  -5   3    2.72    0.30
   4 -15  -3    5.43    0.30
  11   4  -3    5.11    0.39
  15 -11   3    5.49    0.41
 -11  -4   3    4.89    0.40
   3 -15  -3    1.41    0.16
  12   3  -3    1.46    0.23
  15 -12   3    1.46    0.23
 -12  -3   3    1.51    0.24
   2 -15  -3    0.10    0.10
  13   2  -3   -0.04    0.12
  15 -13   3    0.11    0.15
   1 -15  -3    0.10    0.11
  14   1  -3    0.32    0.16
  15 -14   3    0.24    0.16
  15   0  -3    4.35    0.39
   0 -15  -3    4.28    0.33
  15 -15   3    4.05    0.38
  14 -16  -3    0.63    0.12
 -16   2  -3    0.49    0.17
  -2 -14   3    0.36    0.19
  16  -2   3    0.71    0.18
 -16   3  -3    0.45    0.17
  13 -16  -3    0.31    0.09
  16  -3   3    0.35    0.17
  -3 -13   3    0.46    0.18
 -16   4  -3   15.85    0.82
  12 -16  -3   15.18    0.69
  -4 -12   3   15.58    0.83
  16  -4   3   15.67    0.82
  11 -16  -3    0.24    0.07
  -5 -11   3    0.22    0.15
  16  -5   3    0.20    0.16
  16  -6   3   10.94    0.65
  -6 -10   3   11.68    0.65
   9 -16  -3    1.14    0.10
  16  -7   3    1.34    0.24
  -7  -9   3    1.00    0.21
   8 -16  -3    0.07    0.06
  16  -8   3    0.38    0.16
  -8  -8   3   -0.20    0.13
   9   7  -3    0.97    0.19
   7 -16  -3    1.15    0.12
  -9  -7   3    1.33    0.22
  16  -9   3    1.10    0.21
   6 -16  -3   11.17    0.52
  10   6  -3   11.39    0.63
 -10  -6   3   10.77    0.64
  16 -10   3   11.42    0.65
   5 -16  -3    0.35    0.10
  11   5  -3    0.12    0.13
  16 -11   3    0.16    0.15
 -11  -5   3    0.20    0.16
  12   4  -3   15.27    0.82
   4 -16  -3   15.88    0.73
 -12  -4   3   15.18    0.83
  16 -12   3   16.89    0.85
   3 -16  -3    0.19    0.11
  13   3  -3    0.70    0.19
  16 -13   3    0.03    0.16
  14   2  -3    0.28    0.16
   2 -16  -3    0.66    0.14
  16 -14   3    0.46    0.18
  12 -17  -3    0.31    0.08
  -5 -12   3    0.68    0.19
  17  -5   3    0.50    0.17
  11 -17  -3    0.12    0.06
  17  -6   3   -0.08    0.13
  -6 -11   3    0.06    0.15
  17  -7   3    1.46    0.25
  -7 -10   3    1.54    0.24
  17  -8   3    2.61    0.32
  -8  -9   3    2.85    0.33
   8 -17  -3    2.69    0.17
  -9  -8   3    2.59    0.32
  17  -9   3    2.69    0.32
   7 -17  -3    1.48    0.14
 -10  -7   3    1.63    0.25
  17 -10   3    1.64    0.26
   6 -17  -3    0.18    0.08
 -11  -6   3   -0.04    0.15
  17 -11   3    0.19    0.16
  12   5  -3    0.42    0.16
   5 -17  -3    0.40    0.10
  17 -12   3    0.48    0.18
 -12  -5   3    0.02    0.15
   0   0  -4  111.32    4.88
   0   0  -4  122.43    4.89
   0   0   4  125.65    4.89
  -1   0  -4   25.42    1.12
   1  -1  -4   24.00    1.11
  -1   0  -4   27.62    1.13
   1  -1  -4   27.37    1.12
   0   1  -4   23.21    1.12
   0   1  -4   26.99    1.13
   0  -1   4   27.77    1.13
   1   0   4   27.11    1.12
  -1   1   4   27.94    1.12
  -1   1   4   28.76    1.12
   1   0  -4   27.34    1.13
   0  -1  -4   27.81    1.12
  -1   1  -4   26.92    1.13
  -1   1  -4   23.75    1.12
   0  -1  -4   24.98    1.12
   1   0  -4   24.98    1.12
  -1   0   4   27.62    1.12
   1  -1   4   27.36    1.13
  -1   0   4   27.63    1.12
   0   1   4   28.01    1.12
  -1  -1  -4  168.10    7.45
  -1   2  -4  186.70    7.50
  -1  -1  -4  183.58    7.48
   2  -1  -4  177.15    7.45
   2  -1  -4  192.05    7.54
  -2   1   4  189.53    7.44
   1   1   4  180.57    7.53
   1  -2   4  182.40    7.42
   3  -2  -4   28.47    1.13
  -2  -1  -4   24.71    1.13
  -2  -1  -4   27.63    1.14
  -1   3  -4   27.19    1.14
  -3   2   4   26.68    1.12
   1  -3   4   25.96    1.14
   2   1   4   26.45    1.13
   0   2  -4    6.83    0.33
   2  -2  -4    6.96    0.31
   0  -2   4    7.07    0.33
   2   0   4    6.78    0.32
  -2   2   4    5.84    0.30
  -2   1  -4  189.68    7.40
  -2   1  -4  162.93    7.32
   1   1  -4  183.76    7.41
   1  -2  -4  192.57    7.41
   1   1  -4  161.01    7.32
  -1  -1   4  181.11    7.44
  -1   2   4  182.09    7.35
   2  -1   4  181.34    7.45
  -1  -1   4  178.40    7.43
  -1   2   4  188.22    7.37
   0  -2  -4    6.38    0.30
   2   0  -4    5.81    0.30
   0   2   4    6.24    0.28
  -1  -2  -4   28.72    1.13
  -1  -2  -4   25.53    1.12
   3  -1  -4   26.95    1.13
  -2   3  -4   25.81    1.14
   3  -1  -4   25.33    1.12
   1   2   4   26.67    1.11
   2  -3   4   26.83    1.14
  -3   1   4   27.22    1.12
  -2  -2  -4  168.98    7.24
   4  -2  -4  183.90    7.24
   4  -2  -4  170.98    7.24
  -2  -2  -4  186.37    7.34
  -2   4  -4  180.20    7.26
   2  -4   4  176.35    7.26
   2   2   4  179.96    7.24
  -4   2   4  179.03    7.24
  -2   5  -4   14.22    0.63
  -3  -2  -4   12.58    0.61
   5  -3  -4   13.97    0.61
  -3  -2  -4   14.16    0.62
   3   2   4   13.99    0.61
  -5   3   4   13.49    0.59
   2  -5   4   13.81    0.63
  -3  -1  -4   34.73    1.60
  -1   4  -4   38.62    1.62
   4  -3  -4   40.87    1.60
  -3  -1  -4   39.09    1.61
   3   1   4   38.99    1.61
   1  -4   4   39.17    1.62
  -4   3   4   37.52    1.58
  -3   0  -4  222.93   10.02
   3  -3  -4  258.06   10.12
   3  -3  -4  239.19   10.10
   0   3  -4  245.21   10.17
  -3   0  -4  261.46   10.20
  -3   3   4  246.32   10.04
   3   0   4  252.83   10.24
   0  -3   4  249.81   10.12
   1   2  -4   27.91    1.17
   2  -3  -4   26.58    1.14
  -3   1  -4   27.43    1.17
   2  -3  -4   28.57    1.14
  -1  -2   4   28.00    1.17
  -2   3   4   26.58    1.13
   3  -1   4   26.72    1.16
  -1  -2   4   27.32    1.17
   2   1  -4   23.02    1.12
   2   1  -4   27.58    1.14
  -3   2  -4   27.13    1.14
   1  -3  -4   27.91    1.11
   1  -3  -4   25.72    1.11
  -1   3   4   26.48    1.10
   3  -2   4   27.83    1.14
  -2  -1   4   27.36    1.13
   3   0  -4  264.78   10.25
   0  -3  -4  262.42   10.27
   0  -3  -4  216.30   10.15
  -3   3  -4  250.83   10.20
   3   0  -4  231.28   10.17
   0   3   4  249.27   10.16
   3  -3   4  254.17   10.31
  -3   0   4  268.70   10.29
  -3   4  -4   38.98    1.65
   4  -1  -4   36.57    1.63
  -1  -3  -4   39.98    1.63
   4  -1  -4   40.02    1.64
   1   3   4   39.29    1.61
  -4   1   4   39.72    1.63
   3  -4   4   39.20    1.65
  -2  -3  -4   13.54    0.60
  -3   5  -4   14.55    0.63
  -2  -3  -4   14.18    0.61
   5  -2  -4   12.51    0.60
   5  -2  -4   12.72    0.60
   5  -2  -4   13.49    0.60
  -5   2   4   13.68    0.60
   3  -5   4   13.69    0.62
   2   3   4   13.57    0.59
  -3   6  -4  164.67    6.50
  -3  -3  -4  167.47    6.49
   6  -3  -4  148.97    6.47
   6  -3  -4  163.38    6.55
  -3  -3  -4  144.58    6.48
  -6   3   4  159.87    6.47
   3  -6   4  163.17    6.50
   3   3   4  160.60    6.47
  -4  -3  -4   29.29    1.39
  -4  -3  -4   33.21    1.41
   7  -4  -4   30.35    1.38
  -3   7  -4   33.58    1.42
   7  -4  -4   34.84    1.39
  -7   4   4   33.69    1.37
   4   3   4   33.36    1.39
   3  -7   4   35.23    1.42
  -2   6  -4   11.41    0.55
  -4  -2  -4   12.40    0.55
   6  -4  -4   12.35    0.53
  -4  -2  -4   10.40    0.53
  -6   4   4   11.91    0.51
   2  -6   4   11.84    0.56
   4   2   4   11.43    0.53
  -4  -1  -4  164.77    6.22
  -1   5  -4  150.79    6.22
   5  -4  -4  153.22    6.18
  -4  -1  -4  136.60    6.20
   5  -4  -4  148.76    6.18
   1  -5   4  154.98    6.22
   4   1   4  155.90    6.21
   4  -4  -4    9.03    0.43
  -4   0  -4    9.69    0.47
   0   4  -4   10.03    0.47
   4  -4  -4    9.64    0.43
   4   0   4   10.24    0.46
   0  -4   4   10.27    0.47
   3  -4  -4   37.85    1.62
  -4   1  -4   39.65    1.66
   3  -4  -4   39.96    1.62
   1   3  -4   39.68    1.66
   4  -1   4   40.11    1.66
  -1  -3   4   40.02    1.66
  -1  -3   4   39.30    1.66
   2  -4  -4  171.29    7.23
  -4   2  -4  178.52    7.35
   2  -4  -4  180.28    7.27
   2   2  -4  177.38    7.34
  -2  -2   4  178.00    7.24
   4  -2   4  181.84    7.34
   1  -4  -4   38.21    1.64
  -4   3  -4   39.57    1.68
   3   1  -4   40.43    1.67
   1  -4  -4   40.74    1.64
  -3  -1   4   39.65    1.67
   4  -3   4   40.66    1.68
   0  -4  -4    8.61    0.42
   0  -4  -4   10.19    0.43
   4   0  -4    8.30    0.44
   4   0  -4   10.36    0.46
  -4   4  -4   10.15    0.46
   0   4   4    9.08    0.40
   4  -4   4    9.83    0.46
  -4   0   4   10.08    0.45
  -4   5  -4  154.11    6.20
   5  -1  -4  141.43    6.18
   5  -1  -4  138.91    6.18
  -1  -4  -4  161.55    6.17
   5  -1  -4  155.56    6.19
  -5   1   4  155.27    6.18
   1   4   4  148.77    6.15
   4  -5   4  157.55    6.20
   6  -2  -4   12.09    0.54
  -2  -4  -4   10.41    0.52
  -4   6  -4   12.24    0.56
   6  -2  -4   12.90    0.54
   2   4   4   10.75    0.51
   4  -6   4   11.96    0.56
  -6   2   4   11.79    0.53
  -3  -4  -4   30.38    1.37
  -4   7  -4   33.69    1.40
  -3  -4  -4   33.52    1.38
   7  -3  -4   32.74    1.38
   7  -3  -4   28.58    1.37
  -7   3   4   33.54    1.37
   3   4   4   32.59    1.36
   4  -7   4   34.70    1.40
   8  -4  -4   70.11    3.26
  -4  -4  -4   68.10    3.27
  -4   8  -4   85.50    3.30
  -4  -4  -4   82.18    3.28
   8  -4  -4   80.26    3.27
  -8   4   4   81.00    3.26
   4   4   4   81.91    3.27
   4  -8   4   85.69    3.30
   9  -5  -4    2.33    0.18
  -4   9  -4    1.90    0.19
  -5  -4  -4    2.28    0.20
   5   4   4    2.36    0.17
  -9   5   4    2.08    0.16
   4  -9   4    2.41    0.21
  -5  -3  -4   16.27    0.72
  -3   8  -4   16.53    0.73
   8  -5  -4   15.44    0.70
  -8   5   4   14.45    0.67
   3  -8   4   15.84    0.73
   5   3   4   15.45    0.70
  -5  -2  -4  148.15    5.70
   7  -5  -4  141.29    5.66
  -2   7  -4  140.19    5.70
   7  -5  -4  132.08    5.66
   5   2   4  138.34    5.68
   2  -7   4  133.88    5.69
   6  -5  -4   22.34    0.98
  -1   6  -4   22.99    1.02
   6  -5  -4   24.22    0.98
  -5  -1  -4   22.69    1.02
   1  -6   4   23.86    1.02
   5   1   4   23.10    1.01
   5  -5  -4   58.70    2.40
  -5   0  -4   59.66    2.45
   0   5  -4   60.53    2.45
   5  -5  -4   58.03    2.40
   5  -5  -4   62.59    2.40
   0  -5   4   55.39    2.44
   0  -5   4   56.44    2.44
   5   0   4   57.61    2.44
   4  -5  -4  158.02    6.37
   4  -5  -4  151.37    6.36
  -5   1  -4  149.41    6.38
   1   4  -4  164.90    6.38
  -1  -4   4  157.51    6.38
   5  -1   4  155.70    6.38
   2   3  -4   13.71    0.65
   3  -5  -4   14.30    0.60
   3  -5  -4   14.35    0.60
  -5   2  -4   14.63    0.65
  -2  -3   4   13.96    0.65
   5  -2   4   14.39    0.65
   2  -5  -4   13.98    0.58
  -5   3  -4   11.22    0.62
   2  -5  -4   14.10    0.58
   3   2  -4   14.26    0.63
  -3  -2   4   14.27    0.63
   5  -3   4   14.12    0.63
  -5   4  -4  162.90    6.46
   4   1  -4  154.36    6.45
   1  -5  -4  154.44    6.44
   1  -5  -4  162.37    6.45
  -4  -1   4  159.28    6.45
   5  -4   4  154.97    6.46
   0  -5  -4   62.32    2.42
   5   0  -4   58.46    2.45
  -5   5  -4   59.61    2.46
   0  -5  -4   57.21    2.42
   5  -5   4   57.13    2.46
  -5   0   4   58.49    2.44
  -1  -5  -4   24.54    0.97
   6  -1  -4   20.01    0.98
  -5   6  -4   23.32    1.00
   6  -1  -4   23.68    0.99
  -1  -5  -4   21.25    0.96
  -6   1   4   23.05    0.99
   5  -6   4   23.50    1.01
   1   5   4   22.42    0.94
  -2  -5  -4  139.64    5.50
  -5   7  -4  139.91    5.53
   7  -2  -4  116.01    5.50
   7  -2  -4  137.97    5.52
   5  -7   4  140.50    5.53
   2   5   4  133.25    5.48
  -7   2   4  136.28    5.51
  -5   8  -4   16.08    0.70
  -3  -5  -4   15.59    0.68
   8  -3  -4   12.52    0.66
   8  -3  -4   15.12    0.68
  -3  -5  -4   13.47    0.66
   5  -8   4   15.75    0.70
   3   5   4   14.70    0.65
  -8   3   4   15.07    0.67
  -4  -5  -4    1.97    0.19
  -5   9  -4    1.99    0.20
   9  -4  -4    2.08    0.18
   4   5   4    2.51    0.16
   5  -9   4    2.17    0.21
  -9   4   4    1.88    0.16
  -5  10  -4   48.18    2.08
  -5  -5  -4   48.32    2.07
  10  -5  -4   49.95    2.07
   5 -10   4   48.94    2.09
  11  -6  -4   25.32    1.12
  -5  11  -4   23.50    1.12
  -6  -5  -4   26.30    1.14
   5 -11   4   25.42    1.14
  -6  -4  -4    4.95    0.33
  -4  10  -4    4.78    0.32
  10  -6  -4    5.44    0.30
   4 -10   4    5.39    0.34
   6   4   4    5.60    0.31
   9  -6  -4   65.82    2.82
  -3   9  -4   70.07    2.85
  -6  -3  -4   70.87    2.85
   3  -9   4   68.76    2.86
   6   3   4   65.33    2.83
   8  -6  -4    4.93    0.27
  -2   8  -4    5.08    0.31
  -6  -2  -4    5.66    0.32
   8  -6  -4    4.78    0.26
   6   2   4    5.28    0.30
   2  -8   4    5.21    0.32
   7  -6  -4    5.77    0.27
   7  -6  -4    5.24    0.27
  -1   7  -4    5.05    0.31
  -6  -1  -4    6.00    0.33
   6   1   4    5.41    0.31
   1  -7   4    5.20    0.32
   1  -7   4    5.34    0.32
  -6   0  -4  103.24    4.26
   0   6  -4  104.62    4.26
   6  -6  -4  100.04    4.21
   6  -6  -4  105.69    4.21
   0  -6   4  104.19    4.26
   6   0   4  102.15    4.25
   0  -6   4  103.99    4.26
   5  -6  -4   24.16    0.99
   5  -6  -4   23.22    0.99
   1   5  -4   24.16    1.05
  -6   1  -4   23.68    1.05
   6  -1   4   24.13    1.05
  -1  -5   4   24.35    1.05
  -6   2  -4   12.12    0.57
   2   4  -4   11.84    0.57
   4  -6  -4   12.33    0.51
   4  -6  -4   11.63    0.51
  -2  -4   4   12.62    0.58
   6  -2   4   12.01    0.57
   3   3  -4  165.87    6.82
   3  -6  -4  171.46    6.79
  -6   3  -4  160.46    6.82
   3  -6  -4  167.90    6.79
   6  -3   4  168.37    6.83
  -3  -3   4  168.34    6.82
   2  -6  -4   11.49    0.50
   2  -6  -4   11.99    0.50
  -6   4  -4   12.30    0.56
   4   2  -4   11.54    0.55
  -4  -2   4   12.32    0.56
   6  -4   4   10.93    0.56
   1  -6  -4   24.87    0.99
  -6   5  -4   24.22    1.04
   5   1  -4   23.17    1.03
   1  -6  -4   22.44    0.99
  -5  -1   4   24.01    1.03
   6  -5   4   22.99    1.04
   0  -6  -4   96.45    4.13
   6   0  -4  105.08    4.17
   0  -6  -4  104.19    4.13
  -6   6  -4   98.50    4.17
   6  -6   4  101.30    4.18
  -6   0   4  101.84    4.16
  -6   7  -4    5.58    0.32
  -1  -6  -4    5.63    0.28
  -1  -6  -4    5.04    0.27
   7  -1  -4    5.40    0.31
  -7   1   4    5.11    0.30
   6  -7   4    5.20    0.32
   8  -2  -4    5.21    0.30
  -2  -6  -4    5.10    0.29
  -6   8  -4    5.48    0.32
  -8   2   4    5.15    0.29
   2   6   4    4.95    0.25
   6  -8   4    5.45    0.32
  -3  -6  -4   66.83    2.75
   9  -3  -4   65.96    2.76
  -6   9  -4   64.98    2.76
   6  -9   4   68.72    2.78
  -9   3   4   64.11    2.74
  10  -4  -4    5.74    0.32
  -6  10  -4    5.01    0.32
  -4  -6  -4    4.74    0.31
   6 -10   4    5.44    0.34
  11  -5  -4   24.75    1.12
  -6  11  -4   24.70    1.12
  -5  -6  -4   25.53    1.13
   6 -11   4   25.33    1.14
  12  -6  -4   34.00    1.51
  -6  -6  -4   35.21    1.53
   6 -12   4   34.76    1.53
  -7  -6  -4    2.98    0.28
  13  -7  -4    2.62    0.24
   6 -13   4    2.93    0.27
  12  -7  -4    8.05    0.43
  -7  -5  -4    8.05    0.46
   5 -12   4    7.60    0.46
  -4  11  -4   58.07    2.54
  -7  -4  -4   62.53    2.56
  11  -7  -4   61.46    2.53
   4 -11   4   59.23    2.56
  -3  10  -4   18.80    0.89
  10  -7  -4   19.89    0.87
  -7  -3  -4   20.90    0.91
   3 -10   4   19.16    0.90
   7   3   4   18.31    0.88
   9  -7  -4   20.85    1.02
  -2   9  -4   24.80    1.07
   9  -7  -4   23.47    1.02
  -7  -2  -4   26.25    1.08
   7   2   4   23.69    1.06
   2  -9   4   23.89    1.07
   2  -9   4   24.31    1.07
   8  -7  -4   74.55    3.05
  -1   8  -4   74.60    3.09
   8  -7  -4   69.55    3.04
  -7  -1  -4   78.40    3.10
   7   1   4   71.93    3.09
   1  -8   4   74.79    3.10
   1  -8   4   75.99    3.10
   7  -7  -4    9.85    0.44
  -7   0  -4    9.71    0.50
   7  -7  -4    9.62    0.43
   0   7  -4   10.40    0.50
   7   0   4    9.26    0.48
   0  -7   4    9.88    0.50
   6  -7  -4    5.66    0.25
   1   6  -4    5.20    0.32
   6  -7  -4    5.60    0.25
  -7   1  -4    5.35    0.32
  -1  -6   4    5.49    0.32
   7  -1   4    5.30    0.31
   5  -7  -4  142.05    5.76
   2   5  -4  145.18    5.83
  -7   2  -4  141.57    5.83
  -2  -5   4  142.57    5.83
   7  -2   4  140.10    5.83
  -7   3  -4   33.48    1.46
   3   4  -4   33.59    1.46
  -3  -4   4   35.30    1.47
   7  -3   4   33.77    1.46
   3  -7  -4   34.85    1.39
   4   3  -4   35.40    1.47
  -7   4  -4   32.54    1.46
  -4  -3   4   33.60    1.46
   7  -4   4   33.79    1.47
   5   2  -4  145.71    5.91
   2  -7  -4  140.74    5.84
   2  -7  -4  149.90    5.85
  -7   5  -4  146.48    5.91
   7  -5   4  142.26    5.91
  -5  -2   4  139.99    5.90
   6   1  -4    5.59    0.32
   1  -7  -4    5.33    0.26
   1  -7  -4    5.60    0.26
  -7   6  -4    5.27    0.32
   7  -6   4    5.28    0.32
  -6  -1   4    5.33    0.31
   0  -7  -4    9.69    0.44
   7   0  -4   10.25    0.49
   0  -7  -4    9.28    0.43
  -7   7  -4    9.29    0.48
  -7   0   4    9.70    0.48
   7  -7   4    9.12    0.49
  -1  -7  -4   67.75    3.06
   8  -1  -4   77.35    3.10
  -7   8  -4   73.78    3.10
  -1  -7  -4   76.19    3.07
  -8   1   4   73.62    3.09
   7  -8   4   77.75    3.11
  -2  -7  -4   25.30    1.07
  -7   9  -4   23.63    1.09
   9  -2  -4   25.38    1.09
   7  -9   4   25.02    1.10
  -9   2   4   23.34    1.08
  -3  -7  -4   19.95    0.88
  -7  10  -4   19.02    0.89
  10  -3  -4   20.61    0.90
   7 -10   4   19.78    0.91
 -10   3   4   18.39    0.88
  11  -4  -4   62.84    2.59
  -7  11  -4   59.15    2.58
  -4  -7  -4   61.26    2.58
   7 -11   4   61.80    2.60
  -5  -7  -4    7.42    0.43
  12  -5  -4    7.43    0.43
   7 -12   4    7.59    0.44
  13  -6  -4    2.54    0.24
  -6  -7  -4    2.60    0.26
   7 -13   4    3.10    0.28
  14  -7  -4   18.27    0.91
  -7  -7  -4   19.25    0.93
   7 -14   4   19.42    0.93
  15  -8  -4   10.92    0.59
  -8  -7  -4   10.10    0.60
   7 -15   4   10.40    0.60
  14  -8  -4    6.87    0.41
  -8  -6  -4    6.45    0.43
   6 -14   4    6.37    0.43
  13  -8  -4   44.81    1.95
  -8  -5  -4   47.45    1.99
   5 -13   4   44.21    1.98
  12  -8  -4    8.70    0.46
  -8  -4  -4    8.73    0.49
   4 -12   4    8.34    0.49
   4 -12   4    8.72    0.50
  -8  -3  -4    2.83    0.26
  11  -8  -4    2.97    0.22
  -3  11  -4    2.82    0.24
   8   3   4    2.99    0.24
   3 -11   4    2.77    0.25
   3 -11   4    3.00    0.26
  10  -8  -4   39.02    1.64
  -2  10  -4   39.21    1.68
  -8  -2  -4   38.37    1.68
   2 -10   4   39.14    1.69
   2 -10   4   38.93    1.69
   8   2   4   37.89    1.67
   9  -8  -4   24.58    1.05
   9  -8  -4   22.56    1.04
  -8  -1  -4   25.23    1.11
  -1   9  -4   24.87    1.10
   1  -9   4   25.51    1.11
   8   1   4   24.94    1.10
   8  -8  -4    5.21    0.24
   8  -8  -4    4.29    0.24
   0   8  -4    4.92    0.30
  -8   0  -4    4.75    0.31
   8   0   4    4.86    0.30
   0  -8   4    4.39    0.30
   7  -8  -4   77.84    3.07
   1   7  -4   74.31    3.14
   7  -8  -4   74.81    3.07
  -8   1  -4   76.64    3.15
   8  -1   4   72.81    3.14
  -1  -7   4   75.75    3.15
  -8   2  -4    5.43    0.33
   2   6  -4    5.36    0.32
   8  -2   4    5.67    0.33
  -2  -6   4    5.09    0.32
   3   5  -4   16.07    0.74
  -8   3  -4   15.91    0.75
  -3  -5   4   15.71    0.74
   8  -3   4   16.18    0.75
  -8   4  -4   83.93    3.50
   4   4  -4   85.10    3.50
  -4  -4   4   84.62    3.50
   8  -4   4   83.29    3.50
  -8   5  -4   14.34    0.71
   5   3  -4   15.84    0.72
  -5  -3   4   15.88    0.72
   8  -5   4   15.22    0.72
   6   2  -4    5.60    0.32
   2  -8  -4    5.29    0.25
   2  -8  -4    4.93    0.24
  -8   6  -4    4.79    0.31
  -6  -2   4    5.46    0.32
   8  -6   4    5.37    0.32
   1  -8  -4   72.01    3.05
  -8   7  -4   75.96    3.11
   1  -8  -4   75.99    3.05
   7   1  -4   74.53    3.10
   8  -7   4   75.56    3.11
  -7  -1   4   72.68    3.10
   8   0  -4    4.68    0.30
  -8   8  -4    4.55    0.30
   0  -8  -4    4.94    0.26
   0  -8  -4    4.23    0.24
  -8   0   4    5.36    0.30
   8  -8   4    4.63    0.31
  -8   9  -4   24.40    1.12
  -1  -8  -4   25.66    1.09
   9  -1  -4   25.58    1.13
   8  -9   4   25.23    1.13
  -9   1   4   24.86    1.12
  -2  -8  -4   38.74    1.63
  10  -2  -4   39.12    1.66
  -8  10  -4   37.29    1.65
 -10   2   4   36.99    1.64
   8 -10   4   38.83    1.67
  -3  -8  -4    3.04    0.24
  -8  11  -4    2.85    0.25
  11  -3  -4    3.60    0.27
   8 -11   4    3.28    0.27
  12  -4  -4    9.44    0.51
  -4  -8  -4    9.03    0.50
   8 -12   4    9.53    0.52
  -5  -8  -4   46.02    2.02
  13  -5  -4   47.79    2.02
   8 -13   4   46.15    2.03
  -6  -8  -4    6.34    0.42
  14  -6  -4    6.67    0.42
   8 -14   4    6.89    0.44
  -7  -8  -4   12.28    0.64
  15  -7  -4   11.44    0.62
   8 -15   4   10.29    0.62
  16  -8  -4   13.21    0.71
  -8  -8  -4   12.29    0.71
   8 -16   4   13.92    0.72
   8 -17   4    0.57    0.18
  -9  -7  -4    4.95    0.41
  16  -9  -4    5.23    0.38
   7 -16   4    4.93    0.39
   7 -16   4    5.18    0.40
  -9  -6  -4   28.57    1.32
  15  -9  -4   29.52    1.29
   6 -15   4   27.10    1.30
   6 -15   4   27.37    1.30
  14  -9  -4   10.01    0.53
  -9  -5  -4    9.80    0.57
   5 -14   4    9.25    0.56
   5 -14   4    9.85    0.56
  13  -9  -4   20.17    0.94
  -9  -4  -4   20.57    0.98
   4 -13   4   20.07    0.98
   4 -13   4   21.02    0.98
  12  -9  -4   26.56    1.14
  -9  -3  -4   25.76    1.19
   3 -12   4   26.19    1.19
   3 -12   4   24.96    1.18
  11  -9  -4    3.63    0.25
  -2  11  -4    3.81    0.28
  -9  -2  -4    4.45    0.31
   9   2   4    3.88    0.28
   2 -11   4    4.08    0.30
  -1  10  -4    3.64    0.28
  10  -9  -4    4.19    0.24
  -9  -1  -4    3.87    0.29
   9   1   4    3.84    0.28
   1 -10   4    3.91    0.29
  -9   0  -4   79.53    3.18
   0   9  -4   76.00    3.16
   9  -9  -4   76.92    3.10
   9  -9  -4   71.50    3.10
   9   0   4   73.78    3.16
   0  -9   4   76.19    3.17
   8  -9  -4   24.16    1.05
   1   8  -4   24.63    1.12
  -9   1  -4   25.92    1.14
   8  -9  -4   25.23    1.05
   9  -1   4   24.93    1.13
  -1  -8   4   26.19    1.14
   2   7  -4   25.10    1.12
   7  -9  -4   25.04    1.03
  -9   2  -4   24.98    1.12
  -2  -7   4   25.99    1.13
   9  -2   4   24.33    1.12
   3   6  -4   68.34    2.80
  -9   3  -4   66.43    2.81
  -3  -6   4   67.09    2.81
   9  -3   4   65.45    2.81
   4   5  -4    2.40    0.21
  -9   4  -4    2.00    0.20
  -4  -5   4    2.52    0.22
   9  -4   4    2.60    0.22
   5   4  -4    2.42    0.21
  -9   5  -4    2.17    0.21
   9  -5   4    2.41    0.21
  -5  -4   4    2.62    0.22
  -9   6  -4   67.93    2.83
   3  -9  -4   66.51    2.75
   3  -9  -4   70.75    2.75
   6   3  -4   69.88    2.84
   9  -6   4   68.17    2.84
  -6  -3   4   62.01    2.82
   2  -9  -4   24.02    1.02
   7   2  -4   24.96    1.09
  -9   7  -4   25.10    1.09
   2  -9  -4   23.06    1.02
   9  -7   4   25.41    1.10
  -7  -2   4   23.89    1.09
  -9   8  -4   25.10    1.09
   1  -9  -4   23.45    1.03
   1  -9  -4   23.85    1.03
   8   1  -4   24.20    1.09
   9  -8   4   24.54    1.10
  -8  -1   4   24.55    1.09
  -9   9  -4   77.68    3.19
   0  -9  -4   76.96    3.14
   9   0  -4   76.89    3.20
   9  -9   4   76.70    3.20
  -9   0   4   73.10    3.18
  -1  -9  -4    4.27    0.26
  10  -1  -4    4.18    0.30
  -9  10  -4    4.54    0.30
 -10   1   4    4.00    0.29
   9 -10   4    4.12    0.30
  -2  -9  -4    3.60    0.25
  11  -2  -4    3.85    0.29
  -9  11  -4    3.77    0.27
   9 -11   4    3.56    0.29
  12  -3  -4   26.32    1.18
  -3  -9  -4   25.53    1.15
   9 -12   4   25.82    1.19
  13  -4  -4   19.95    0.97
  -4  -9  -4   20.14    0.95
   9 -13   4   21.05    0.98
  -5  -9  -4    9.90    0.54
  14  -5  -4    9.65    0.55
   9 -14   4    9.04    0.55
  -6  -9  -4   28.47    1.31
  15  -6  -4   29.99    1.33
   9 -15   4   27.00    1.31
  -7  -9  -4    4.98    0.38
  16  -7  -4    5.02    0.39
   9 -16   4    4.56    0.38
 -10  -6  -4    5.15    0.41
  16 -10  -4    5.08    0.37
   6 -16   4    4.87    0.40
   6 -16   4    4.43    0.39
 -10  -5  -4    0.89    0.20
  15 -10  -4    0.71    0.15
   5 -15   4    0.84    0.19
   5 -15   4    0.63    0.18
  14 -10  -4   20.33    0.91
 -10  -4  -4   18.92    0.95
   4 -14   4   18.42    0.94
 -10  -3  -4   14.49    0.76
  13 -10  -4   15.41    0.71
   3 -13   4   14.31    0.76
 -10  -2  -4    7.68    0.47
  12 -10  -4    7.87    0.41
   2 -12   4    7.85    0.47
 -10  -1  -4   43.96    1.87
  11 -10  -4   44.55    1.80
  -1  11  -4   41.02    1.85
  10   1   4   40.49    1.85
   1 -11   4   43.59    1.87
 -10   0  -4    7.38    0.44
  10 -10  -4    7.42    0.36
   0  10  -4    7.01    0.42
  10   0   4    7.25    0.42
   0 -10   4    7.24    0.43
   9 -10  -4    3.72    0.21
   9 -10  -4    4.39    0.22
   1   9  -4    4.34    0.30
 -10   1  -4    4.44    0.31
  10  -1   4    3.76    0.29
  -1  -9   4    4.48    0.31
   8 -10  -4   37.34    1.57
 -10   2  -4   38.82    1.67
   2   8  -4   38.29    1.66
   8 -10  -4   38.60    1.57
  10  -2   4   37.30    1.66
  -2  -8   4   39.19    1.67
 -10   3  -4   20.51    0.92
   3   7  -4   19.37    0.90
  10  -3   4   18.70    0.91
  -3  -7   4   19.67    0.91
 -10   4  -4    5.60    0.35
   4   6  -4    5.49    0.34
  10  -4   4    5.60    0.35
  -4  -6   4    5.83    0.36
   5   5  -4   51.36    2.09
 -10   5  -4   49.60    2.09
  10  -5   4   47.47    2.09
  -5  -5   4   47.42    2.09
   6   4  -4    5.26    0.34
 -10   6  -4    5.75    0.35
  10  -6   4    5.76    0.35
  -6  -4   4    5.27    0.34
   3 -10  -4   18.90    0.81
   7   3  -4   19.27    0.90
 -10   7  -4   19.79    0.90
   3 -10  -4   19.72    0.81
  10  -7   4   19.15    0.90
  -7  -3   4   18.82    0.89
   2 -10  -4   36.54    1.59
   2 -10  -4   38.50    1.60
 -10   8  -4   38.87    1.67
   8   2  -4   38.67    1.67
  10  -8   4   38.74    1.68
  -8  -2   4   39.53    1.67
   9   1  -4    4.17    0.30
 -10   9  -4    4.14    0.29
   1 -10  -4    4.00    0.23
  10  -9   4    4.27    0.31
  -9  -1   4    4.28    0.30
 -10  10  -4    7.28    0.42
  10   0  -4    7.29    0.43
   0 -10  -4    7.09    0.37
 -10   0   4    7.74    0.43
  10 -10   4    7.06    0.43
  -1 -10  -4   43.06    1.84
  11  -1  -4   44.52    1.89
 -10  11  -4   41.03    1.87
  10 -11   4   44.87    1.90
  -2 -10  -4    7.65    0.42
  12  -2  -4    7.09    0.44
  10 -12   4    7.79    0.46
  -3 -10  -4   14.58    0.71
  13  -3  -4   15.21    0.75
  10 -13   4   13.71    0.74
  -4 -10  -4   19.15    0.91
  14  -4  -4   18.65    0.93
  10 -14   4   19.63    0.94
  -5 -10  -4    0.53    0.16
  15  -5  -4    0.46    0.16
  10 -15   4    0.54    0.16
  16  -6  -4    5.11    0.40
  -6 -10  -4    4.92    0.39
  10 -16   4    4.63    0.39
 -11  -5  -4    9.56    0.58
  16 -11  -4    9.33    0.53
   5 -16   4    8.63    0.56
  15 -11  -4    1.36    0.19
 -11  -4  -4    1.58    0.25
   4 -15   4    1.14    0.21
  14 -11  -4    3.02    0.25
 -11  -3  -4    3.31    0.32
   3 -14   4    2.81    0.30
  13 -11  -4   37.87    1.65
 -11  -2  -4   37.82    1.71
   2 -13   4   39.50    1.72
  12 -11  -4   11.33    0.53
 -11  -1  -4   10.86    0.61
   1 -12   4   11.17    0.61
  11   1   4   10.39    0.58
  11 -11  -4   18.35    0.80
   0  11  -4   17.53    0.87
 -11   0  -4   19.14    0.90
  11   0   4   17.64    0.87
   0 -11   4   18.87    0.89
  10 -11  -4   42.89    1.77
 -11   1  -4   43.72    1.87
   1  10  -4   42.47    1.85
  11  -1   4   41.23    1.85
  -1 -10   4   42.91    1.86
   9 -11  -4    3.96    0.20
   2   9  -4    3.74    0.29
   9 -11  -4    3.48    0.19
 -11   2  -4    3.94    0.31
  -2  -9   4    4.47    0.31
  11  -2   4    3.98    0.30
 -11   3  -4    2.65    0.25
   3   8  -4    2.52    0.24
  -3  -8   4    2.72    0.26
  11  -3   4    2.83    0.26
 -11   4  -4   62.06    2.57
   4   7  -4   60.56    2.56
  -4  -7   4   60.66    2.57
  11  -4   4   58.55    2.57
   5   6  -4   25.52    1.16
 -11   5  -4   26.40    1.16
  -5  -6   4   25.08    1.16
  11  -5   4   25.31    1.16
 -11   6  -4   25.33    1.15
   6   5  -4   25.44    1.15
  -6  -5   4   24.67    1.15
  11  -6   4   25.89    1.16
 -11   7  -4   58.37    2.56
   7   4  -4   60.11    2.57
  -7  -4   4   60.52    2.57
  11  -7   4   63.06    2.58
 -11   8  -4    3.02    0.25
   3 -11  -4    2.91    0.16
   3 -11  -4    2.63    0.16
   8   3  -4    3.17    0.26
  11  -8   4    2.92    0.27
  -8  -3   4    2.97    0.26
   2 -11  -4    3.74    0.21
 -11   9  -4    3.48    0.27
   9   2  -4    3.66    0.29
  11  -9   4    4.13    0.30
  -9  -2   4    3.17    0.28
  10   1  -4   44.18    1.87
   1 -11  -4   44.30    1.80
 -11  10  -4   40.95    1.85
  11 -10   4   43.19    1.87
 -10  -1   4   41.06    1.86
  11   0  -4   18.63    0.90
   0 -11  -4   19.27    0.84
 -11   0   4   17.75    0.89
  11 -11   4   18.65    0.91
  -1 -11  -4   10.66    0.55
  12  -1  -4   11.14    0.60
  11 -12   4   11.71    0.62
  13  -2  -4   37.44    1.69
  -2 -11  -4   38.46    1.65
  11 -13   4   37.71    1.69
  14  -3  -4    3.19    0.31
  -3 -11  -4    3.04    0.28
  11 -14   4    2.78    0.30
  -4 -11  -4    1.29    0.20
  15  -4  -4    1.14    0.21
  11 -15   4    1.29    0.22
  -5 -11  -4    9.10    0.55
  16  -5  -4    8.57    0.55
  11 -16   4    9.16    0.56
 -12  -4  -4    4.90    0.40
  16 -12  -4    4.71    0.33
   4 -16   4    3.84    0.38
 -12  -3  -4   16.35    0.84
  15 -12  -4   15.64    0.76
   3 -15   4   15.67    0.83
 -12  -2  -4    4.31    0.37
  14 -12  -4    4.43    0.29
   2 -14   4    4.05    0.36
 -12  -1  -4    1.02    0.20
  13 -12  -4    1.51    0.16
   1 -13   4    1.32    0.22
  12 -12  -4   25.57    1.11
 -12   0  -4   26.17    1.21
   0 -12   4   25.90    1.20
  12   0   4   25.08    1.19
  11 -12  -4   11.11    0.50
 -12   1  -4   10.79    0.60
  12  -1   4   10.90    0.59
  -1 -11   4   10.93    0.60
  10 -12  -4    7.57    0.35
   2  10  -4    7.34    0.45
 -12   2  -4    7.44    0.47
  -2 -10   4    7.72    0.47
  12  -2   4    8.36    0.47
   3   9  -4   25.37    1.17
 -12   3  -4   25.42    1.18
  -3  -9   4   25.82    1.18
  12  -3   4   25.72    1.18
   4   8  -4    8.33    0.50
 -12   4  -4   10.06    0.53
  12  -4   4    9.45    0.52
  -4  -8   4    8.92    0.52
 -12   5  -4    7.55    0.44
   5   7  -4    7.24    0.44
  12  -5   4    7.73    0.46
  -5  -7   4    7.46    0.45
   6   6  -4   33.79    1.50
 -12   6  -4   34.01    1.51
  -6  -6   4   34.26    1.51
  12  -6   4   33.80    1.52
   7   5  -4    7.64    0.45
 -12   7  -4    7.26    0.44
  -7  -5   4    7.41    0.45
  12  -7   4    7.92    0.46
 -12   8  -4    8.24    0.48
   8   4  -4    8.95    0.50
  12  -8   4    9.16    0.51
  -8  -4   4    8.68    0.50
 -12   9  -4   24.45    1.15
   9   3  -4   26.38    1.17
   3 -12  -4   24.88    1.07
  -9  -3   4   25.06    1.16
  12  -9   4   25.93    1.18
   2 -12  -4    7.77    0.38
 -12  10  -4    6.64    0.43
  10   2  -4    7.65    0.46
 -10  -2   4    7.75    0.46
  12 -10   4    8.69    0.49
   1 -12  -4   10.97    0.53
  11   1  -4   11.89    0.61
  12 -11   4   11.47    0.62
 -11  -1   4   10.45    0.60
  12   0  -4   25.34    1.19
   0 -12  -4   25.73    1.12
  12 -12   4   25.24    1.19
  -1 -12  -4    1.55    0.19
  13  -1  -4    1.04    0.19
  12 -13   4    1.11    0.20
  14  -2  -4    4.51    0.37
  -2 -12  -4    5.07    0.34
  12 -14   4    4.28    0.37
  15  -3  -4   15.45    0.81
  -3 -12  -4   15.43    0.77
  12 -15   4   15.75    0.82
  -4 -12  -4    4.55    0.37
  16  -4  -4    4.91    0.40
  12 -16   4    4.82    0.40
   3 -16   4    7.33    0.51
  15 -13  -4   11.59    0.59
 -13  -2  -4   11.98    0.68
   2 -15   4   11.38    0.67
 -13  -1  -4   11.33    0.67
  14 -13  -4   12.20    0.58
   1 -14   4   12.06    0.67
  13 -13  -4    1.06    0.13
 -13   0  -4    0.81    0.19
   0 -13   4    1.03    0.20
 -13   1  -4    1.28    0.21
  12 -13  -4    1.47    0.14
  -1 -12   4    1.55    0.24
  13  -1   4    1.23    0.20
 -13   2  -4   38.43    1.69
  11 -13  -4   38.50    1.57
  13  -2   4   37.10    1.68
  -2 -11   4   36.66    1.69
 -13   3  -4   14.48    0.75
   3  10  -4   14.42    0.73
  13  -3   4   14.28    0.74
  -3 -10   4   14.56    0.75
   4   9  -4   20.16    0.94
 -13   4  -4   18.97    0.95
  -4  -9   4   19.87    0.96
  13  -4   4   19.84    0.96
   5   8  -4   43.58    1.96
 -13   5  -4   44.46    1.96
  -5  -8   4   45.83    1.97
  13  -5   4   46.01    1.98
   6   7  -4    2.60    0.26
 -13   6  -4    2.66    0.26
  -6  -7   4    3.04    0.29
  13  -6   4    2.87    0.30
 -13   7  -4    3.47    0.29
   7   6  -4    2.85    0.27
  13  -7   4    2.55    0.27
  -7  -6   4    2.66    0.27
   8   5  -4   45.42    1.93
 -13   8  -4   44.77    1.93
  -8  -5   4   43.03    1.93
  13  -8   4   43.46    1.94
 -13   9  -4   19.33    0.96
   4 -13  -4   20.06    0.86
   9   4  -4   20.80    0.97
  -9  -4   4   20.41    0.97
  13  -9   4   20.71    0.99
   3 -13  -4   14.77    0.64
  10   3  -4   14.45    0.74
  13 -10   4   14.49    0.75
 -10  -3   4   13.62    0.73
  11   2  -4   36.24    1.63
   2 -13  -4   38.05    1.54
  13 -11   4   35.96    1.64
 -11  -2   4   34.97    1.62
  12   1  -4    1.40    0.22
   1 -13  -4    1.25    0.16
  13 -12   4    1.34    0.22
  13   0  -4    0.54    0.17
   0 -13  -4    0.85    0.15
  13 -13   4    0.80    0.19
  14  -1  -4   12.40    0.68
  -1 -13  -4   12.18    0.62
  13 -14   4   12.06    0.69
  15  -2  -4   12.64    0.69
  -2 -13  -4   12.22    0.63
  13 -15   4   11.46    0.68
 -14  -1  -4    8.45    0.55
  15 -14  -4    8.20    0.44
   1 -15   4    8.14    0.54
 -14   0  -4    7.40    0.49
  14 -14  -4    6.71    0.37
   0 -14   4    6.71    0.48
 -14   1  -4   11.65    0.66
  13 -14  -4   11.50    0.54
  -1 -13   4   11.80    0.67
 -14   2  -4    4.09    0.36
  12 -14  -4    4.01    0.23
  14  -2   4    4.42    0.36
  -2 -12   4    4.36    0.37
 -14   3  -4    3.54    0.32
  14  -3   4    2.87    0.31
  -3 -11   4    3.27    0.33
 -14   4  -4   17.43    0.91
  -4 -10   4   19.16    0.93
  14  -4   4   18.75    0.92
   5   9  -4    8.96    0.53
 -14   5  -4    9.71    0.54
  -5  -9   4    8.60    0.53
  14  -5   4    9.22    0.55
 -14   6  -4    6.71    0.44
   6   8  -4    6.65    0.43
  14  -6   4    7.11    0.46
  -6  -8   4    6.91    0.46
 -14   7  -4   18.74    0.89
   7   7  -4   18.09    0.89
  -7  -7   4   17.62    0.89
  14  -7   4   17.68    0.90
   8   6  -4    6.76    0.44
 -14   8  -4    6.70    0.44
  -8  -6   4    6.82    0.45
  14  -8   4    7.19    0.46
   9   5  -4    9.83    0.55
  14  -9   4   10.01    0.57
  -9  -5   4    8.86    0.55
   4 -14  -4   17.37    0.77
  10   4  -4   18.26    0.90
  14 -10   4   18.33    0.91
 -10  -4   4   18.19    0.90
   3 -14  -4    2.98    0.20
  11   3  -4    2.87    0.31
 -11  -3   4    3.19    0.31
  14 -11   4    3.04    0.32
  12   2  -4    3.94    0.34
   2 -14  -4    4.23    0.27
  14 -12   4    4.38    0.37
   1 -14  -4   11.63    0.57
  13   1  -4   11.00    0.65
  14 -13   4   11.49    0.66
   0 -14  -4    7.09    0.41
  14   0  -4    6.74    0.48
  14 -14   4    6.90    0.49
  -1 -14  -4    8.39    0.48
  15  -1  -4    8.29    0.54
  14 -15   4    8.73    0.56
 -15   1  -4    7.73    0.53
  14 -15  -4    7.84    0.40
  -1 -14   4    9.10    0.56
 -15   2  -4   11.91    0.67
  13 -15  -4   11.37    0.53
  -2 -13   4   12.42    0.69
 -15   3  -4   15.29    0.81
  -3 -12   4   15.83    0.82
  15  -3   4   14.98    0.81
 -15   4  -4    0.67    0.18
  -4 -11   4    1.31    0.23
  15  -4   4    1.29    0.23
 -15   5  -4    0.60    0.16
  15  -5   4    0.51    0.16
  -5 -10   4    0.50    0.18
 -15   6  -4   25.62    1.24
  -6  -9   4   27.86    1.27
  15  -6   4   26.41    1.26
   7   8  -4   10.41    0.59
 -15   7  -4   10.29    0.59
  -7  -8   4   10.71    0.61
  15  -7   4    9.99    0.60
   8   7  -4   10.51    0.59
  15  -8   4   10.50    0.60
  -8  -7   4    9.51    0.59
   9   6  -4   26.92    1.25
  15  -9   4   26.67    1.26
  -9  -6   4   26.07    1.25
  10   5  -4    0.61    0.17
  15 -10   4    0.86    0.20
 -10  -5   4    0.96    0.20
  11   4  -4    0.99    0.20
   4 -15  -4    1.25    0.12
  15 -11   4    0.99    0.20
 -11  -4   4    1.12    0.22
   3 -15  -4   15.53    0.70
  12   3  -4   15.70    0.82
  15 -12   4   15.53    0.83
   2 -15  -4   11.55    0.57
  13   2  -4   12.55    0.69
  15 -13   4   11.56    0.68
  14   1  -4    7.91    0.53
   1 -15  -4    7.60    0.43
  15 -14   4    8.66    0.55
  -3 -13   4    6.89    0.50
 -16   4  -4    4.52    0.39
  16  -4   4    4.67    0.40
  -4 -12   4    5.15    0.42
 -16   5  -4    9.20    0.55
  16  -5   4    8.22    0.55
  -5 -11   4    8.07    0.55
  -6 -10   4    4.74    0.40
  16  -6   4    4.76    0.40
  16  -7   4    5.03    0.41
  -7  -9   4    4.96    0.40
  16  -8   4   13.96    0.74
  -8  -8   4   12.37    0.72
   9   7  -4    4.84    0.38
  -9  -7   4    3.93    0.37
  16  -9   4    4.39    0.39
  10   6  -4    4.37    0.37
  16 -10   4    4.62    0.40
 -10  -6   4    4.67    0.39
  11   5  -4    8.70    0.56
  16 -11   4   10.25    0.60
 -11  -5   4    9.17    0.58
  12   4  -4    4.47    0.39
   4 -16  -4    4.46    0.25
  16 -12   4    4.88    0.42
   0   0  -5    0.29    0.08
   0   0  -5    0.25    0.06
   0   0   5    0.43    0.08
  -1   0  -5   44.47    1.79
   1  -1  -5   40.91    1.77
   0   1  -5   43.53    1.79
   1  -1  -5   43.41    1.78
  -1   0  -5   37.67    1.78
   0  -1   5   43.46    1.78
  -1   1   5   42.82    1.77
   1   0   5   43.79    1.78
  -1   1   5   43.61    1.77
   1   0  -5   43.31    1.80
   0  -1  -5   40.48    1.79
   0  -1  -5   45.01    1.80
   1   0  -5   38.97    1.79
  -1   1  -5   43.37    1.81
  -1   0   5   44.17    1.80
   1  -1   5   44.36    1.80
  -1   0   5   43.51    1.79
   0   1   5   44.40    1.79
   2  -1  -5   -0.01    0.05
  -1   2  -5    0.04    0.07
   2  -1  -5    0.04    0.06
  -1  -1  -5   -0.04    0.06
  -1  -1  -5   -0.03    0.04
   1  -2   5    0.01    0.06
   1   1   5   -0.03    0.05
  -2   1   5    0.00    0.05
  -2  -1  -5   23.61    1.00
   3  -2  -5   21.12    0.98
  -2  -1  -5   20.70    0.98
  -1   3  -5   23.10    1.00
   3  -2  -5   24.32    0.99
   2   1   5   23.26    0.98
  -3   2   5   23.50    0.97
   1  -3   5   23.96    1.00
  -2   0  -5   10.68    0.48
   2  -2  -5   11.37    0.47
   2  -2  -5    9.25    0.46
   0   2  -5   10.54    0.49
  -2   0  -5    8.88    0.47
   2   0   5   10.05    0.47
  -2   2   5   10.08    0.45
   0  -2   5   10.38    0.48
  -2   1  -5    0.01    0.07
   1  -2  -5   -0.08    0.04
   1   1  -5   -0.06    0.06
   1  -2  -5   -0.03    0.05
   2  -1   5    0.03    0.06
  -1   2   5   -0.04    0.04
  -1   2   5   -0.08    0.04
  -1  -1   5    0.04    0.06
  -1  -1   5   -0.07    0.05
  -2   2  -5   11.11    0.50
   2   0  -5   10.71    0.48
   0  -2  -5    9.20    0.46
   2   0  -5    8.76    0.47
   0  -2  -5   10.65    0.47
   0   2   5   10.16    0.46
   2  -2   5   10.79    0.49
  -2   0   5   10.86    0.48
   3  -1  -5   19.60    0.97
  -1  -2  -5   24.38    0.98
  -1  -2  -5   20.95    0.97
   3  -1  -5   23.35    0.98
  -2   3  -5   22.62    0.99
  -3   1   5   23.79    0.97
   1   2   5   23.05    0.96
   2  -3   5   23.51    0.99
   4  -2  -5    0.09    0.05
   4  -2  -5    0.08    0.06
  -2  -2  -5    0.07    0.05
  -2  -2  -5    0.14    0.06
  -2   4  -5    0.09    0.08
   2  -4   5    0.23    0.08
   2   2   5    0.17    0.05
  -4   2   5    0.12    0.05
   5  -3  -5   46.56    2.22
  -3  -2  -5   54.74    2.25
  -3  -2  -5   48.60    2.24
  -2   5  -5   57.09    2.27
   5  -3  -5   58.39    2.24
   2  -5   5   54.77    2.26
  -5   3   5   54.69    2.22
   3   2   5   56.00    2.24
   4  -3  -5   34.93    1.40
  -3  -1  -5   33.19    1.42
  -3  -1  -5   27.83    1.40
  -1   4  -5   32.78    1.43
  -4   3   5   34.51    1.38
   3   1   5   33.91    1.41
   1  -4   5   35.81    1.43
   0   3  -5    3.86    0.25
  -3   0  -5    3.93    0.24
   3  -3  -5    4.06    0.22
   0  -3   5    4.01    0.25
  -3   3   5    4.20    0.20
   3   0   5    3.91    0.23
   1   2  -5   23.23    1.02
  -3   1  -5   24.30    1.03
   2  -3  -5   21.95    0.99
   2  -3  -5   23.60    1.00
  -1  -2   5   23.23    1.02
   3  -1   5   23.97    1.02
  -1  -2   5   23.98    1.02
  -2   3   5   23.65    0.98
   1  -3  -5   23.47    0.99
   2   1  -5   23.50    1.01
  -3   2  -5   22.61    1.01
   3  -2   5   23.44    1.01
  -1   3   5   23.12    0.97
  -2  -1   5   23.06    1.00
   3   0  -5    4.32    0.24
  -3   3  -5    3.93    0.25
   3   0  -5    3.02    0.21
   0  -3  -5    4.00    0.22
   0   3   5    3.90    0.20
  -3   0   5    4.32    0.24
   3  -3   5    4.20    0.25
   4  -1  -5   32.99    1.39
   4  -1  -5   27.75    1.38
  -3   4  -5   33.95    1.41
  -1  -3  -5   33.58    1.38
  -1  -3  -5   30.99    1.38
  -4   1   5   34.29    1.39
   3  -4   5   35.67    1.41
   1   3   5   33.34    1.36
   5  -2  -5   54.83    2.26
  -2  -3  -5   55.39    2.26
  -3   5  -5   56.25    2.28
  -2  -3  -5   50.30    2.25
   5  -2  -5   47.69    2.25
  -5   2   5   55.89    2.25
   3  -5   5   56.62    2.28
   2   3   5   57.53    2.24
   6  -3  -5   -0.03    0.05
  -3  -3  -5    0.06    0.05
   6  -3  -5    0.00    0.06
  -3  -3  -5    0.09    0.07
   6  -3  -5    0.00    0.05
  -3   6  -5    0.07    0.08
  -6   3   5    0.02    0.05
   3   3   5    0.04    0.05
   3  -6   5    0.06    0.08
  -4  -3  -5   15.30    0.67
   7  -4  -5   15.13    0.65
   7  -4  -5   13.18    0.64
  -3   7  -5   15.41    0.69
   7  -4  -5   13.26    0.64
   4   3   5   14.53    0.65
   3  -7   5   14.45    0.68
  -7   4   5   13.79    0.62
  -4  -2  -5    5.38    0.30
  -4  -2  -5    4.25    0.27
   6  -4  -5    5.10    0.27
  -2   6  -5    4.81    0.30
   4   2   5    4.95    0.27
   2  -6   5    5.11    0.30
   5  -4  -5    2.83    0.17
  -1   5  -5    2.85    0.22
   5  -4  -5    3.03    0.18
  -4  -1  -5    2.96    0.21
   4   1   5    2.65    0.19
   1  -5   5    2.86    0.22
   4  -4  -5   11.50    0.52
  -4   0  -5   11.92    0.56
   4  -4  -5   12.41    0.53
   0   4  -5   11.94    0.57
   0  -4   5   11.71    0.56
   0  -4   5   11.09    0.56
   4   0   5   11.70    0.55
   1   3  -5   33.67    1.46
   3  -4  -5   33.30    1.42
   3  -4  -5   34.70    1.42
  -4   1  -5   32.37    1.45
  -1  -3   5   34.94    1.46
   4  -1   5   34.74    1.45
  -1  -3   5   34.60    1.45
   2   2  -5    0.24    0.07
   2  -4  -5    0.16    0.05
   2  -4  -5    0.11    0.04
  -4   2  -5    0.09    0.07
   4  -2   5    0.28    0.08
  -2  -2   5    0.21    0.07
   1  -4  -5   32.33    1.43
   1  -4  -5   33.27    1.43
  -4   3  -5   34.45    1.47
   3   1  -5   35.08    1.46
  -3  -1   5   35.26    1.46
   4  -3   5   35.37    1.47
   0  -4  -5   11.25    0.52
   0  -4  -5   12.29    0.53
  -4   4  -5   12.17    0.57
   4   0  -5   12.22    0.56
   4  -4   5   11.46    0.56
  -4   0   5   11.54    0.55
   5  -1  -5    2.53    0.18
   5  -1  -5    2.88    0.20
  -1  -4  -5    3.05    0.19
  -4   5  -5    2.97    0.22
  -5   1   5    2.97    0.19
   1   4   5    2.88    0.16
   4  -5   5    3.21    0.23
  -4   6  -5    5.26    0.31
  -2  -4  -5    4.81    0.26
   6  -2  -5    4.18    0.26
   6  -2  -5    5.26    0.28
  -2  -4  -5    5.34    0.28
   6  -2  -5    4.44    0.27
   2   4   5    4.50    0.24
  -6   2   5    4.94    0.27
   4  -6   5    4.99    0.30
   7  -3  -5   15.01    0.69
  -3  -4  -5   15.51    0.69
  -4   7  -5   15.37    0.71
  -7   3   5   14.27    0.67
   3   4   5   14.42    0.66
   4  -7   5   16.01    0.72
  -4   8  -5    0.04    0.09
   8  -4  -5    0.14    0.08
  -4  -4  -5    0.16    0.08
   4   4   5    0.00    0.05
   4  -8   5    0.20    0.09
  -4   9  -5   26.65    1.19
   9  -5  -5   26.40    1.16
  -5  -4  -5   26.73    1.18
   4  -9   5   26.56    1.19
  -3   8  -5   22.56    1.04
  -5  -3  -5   23.71    1.04
   8  -5  -5   23.76    1.01
   3  -8   5   23.96    1.05
   5   3   5   22.28    1.01
  -5  -2  -5    2.15    0.20
   7  -5  -5    1.84    0.14
   7  -5  -5    1.98    0.15
  -2   7  -5    1.98    0.19
   7  -5  -5    1.86    0.14
   5   2   5    1.75    0.16
   2  -7   5    2.14    0.20
   6  -5  -5   20.05    0.95
   6  -5  -5   23.24    0.96
  -1   6  -5   21.77    1.00
  -5  -1  -5   22.39    0.99
   5   1   5   22.92    0.98
   1  -6   5   23.73    1.00
   5  -5  -5   27.49    1.14
   0   5  -5   26.89    1.18
  -5   0  -5   28.17    1.18
   5  -5  -5   26.11    1.13
   0  -5   5   26.52    1.18
   5   0   5   27.96    1.17
   0  -5   5   26.02    1.18
   4  -5  -5    3.21    0.17
  -5   1  -5    2.88    0.22
   1   4  -5    3.03    0.22
   4  -5  -5    3.02    0.17
   5  -1   5    2.87    0.21
  -1  -4   5    2.78    0.21
   2   3  -5   56.65    2.38
   3  -5  -5   59.06    2.33
   3  -5  -5   55.07    2.33
  -5   2  -5   56.19    2.38
   5  -2   5   57.70    2.38
  -2  -3   5   55.94    2.37
   3   2  -5   58.93    2.41
  -5   3  -5   56.09    2.41
   2  -5  -5   56.13    2.36
   2  -5  -5   59.54    2.37
  -3  -2   5   57.91    2.41
   5  -3   5   57.25    2.41
  -5   4  -5    2.70    0.22
   1  -5  -5    2.90    0.17
   4   1  -5    2.94    0.21
   1  -5  -5    2.96    0.16
  -4  -1   5    2.86    0.21
   5  -4   5    2.97    0.22
  -5   5  -5   27.86    1.20
   5   0  -5   29.07    1.20
   0  -5  -5   27.01    1.16
   0  -5  -5   26.32    1.16
   5  -5   5   28.21    1.20
  -5   0   5   26.38    1.18
  -5   6  -5   22.92    1.00
  -1  -5  -5   22.26    0.96
  -1  -5  -5   20.36    0.96
   6  -1  -5   23.28    0.99
   5  -6   5   23.00    1.00
  -6   1   5   22.30    0.98
   7  -2  -5    2.07    0.17
  -5   7  -5    2.13    0.20
  -2  -5  -5    2.03    0.17
   2   5   5    1.83    0.13
  -7   2   5    1.69    0.16
   5  -7   5    2.05    0.20
   8  -3  -5   23.03    1.03
  -5   8  -5   22.71    1.04
  -3  -5  -5   24.64    1.03
   5  -8   5   23.99    1.06
  -8   3   5   22.01    1.01
   9  -4  -5   27.44    1.19
  -4  -5  -5   27.07    1.19
  -5   9  -5   26.73    1.21
   5  -9   5   27.42    1.22
  10  -5  -5    0.13    0.09
  -5  10  -5    0.14    0.10
  -5  -5  -5   -0.10    0.08
   5 -10   5    0.03    0.10
  -6  -5  -5    6.70    0.41
  -5  11  -5    6.96    0.41
  11  -6  -5    7.15    0.40
   5 -11   5    7.63    0.44
  -6  -4  -5    5.23    0.34
  10  -6  -5    5.27    0.31
  -4  10  -5    5.20    0.33
   4 -10   5    4.90    0.34
   9  -6  -5    1.01    0.13
  -6  -3  -5    1.29    0.17
  -3   9  -5    0.87    0.15
   3  -9   5    1.06    0.17
   6   3   5    0.84    0.13
  -6  -2  -5    6.06    0.35
  -2   8  -5    5.44    0.34
   8  -6  -5    5.61    0.30
   6   2   5    5.61    0.32
   2  -8   5    5.65    0.35
   7  -6  -5   22.04    0.99
   7  -6  -5   23.73    1.00
  -1   7  -5   23.54    1.05
   7  -6  -5   21.80    0.99
  -6  -1  -5   24.46    1.05
   6   1   5   23.72    1.03
   1  -7   5   24.30    1.05
   1  -7   5   24.04    1.06
   6  -6  -5    2.94    0.17
  -6   0  -5    2.82    0.22
   0   6  -5    2.69    0.22
   6  -6  -5    2.54    0.16
   0  -6   5    2.79    0.22
   6   0   5    2.60    0.20
   0  -6   5    2.81    0.22
  -6   1  -5   22.84    1.01
   5  -6  -5   21.29    0.94
   1   5  -5   23.22    1.01
   5  -6  -5   22.42    0.94
  -1  -5   5   23.45    1.01
   6  -1   5   22.10    1.00
   2   4  -5    5.16    0.31
  -6   2  -5    5.81    0.32
   4  -6  -5    5.12    0.25
   4  -6  -5    5.10    0.25
  -2  -4   5    5.30    0.31
   6  -2   5    4.88    0.30
   3   3  -5    0.02    0.08
  -6   3  -5    0.04    0.09
   3  -6  -5    0.03    0.04
   3  -6  -5    0.05    0.04
  -3  -3   5    0.32    0.10
   6  -3   5    0.03    0.07
   4   2  -5    5.70    0.32
   2  -6  -5    5.38    0.26
  -6   4  -5    5.46    0.32
   2  -6  -5    5.02    0.25
   6  -4   5    5.45    0.32
  -4  -2   5    5.16    0.31
   5   1  -5   22.78    1.00
   1  -6  -5   21.84    0.95
   1  -6  -5   22.24    0.95
  -6   5  -5   22.90    1.01
   6  -5   5   22.08    1.01
  -5  -1   5   23.03    1.00
  -6   6  -5    2.55    0.22
   6   0  -5    2.91    0.22
   0  -6  -5    2.87    0.18
   0  -6  -5    2.68    0.17
   6  -6   5    2.78    0.23
  -6   0   5    2.78    0.21
  -1  -6  -5   21.59    1.01
  -6   7  -5   23.83    1.06
  -1  -6  -5   23.92    1.02
   7  -1  -5   24.09    1.05
  -7   1   5   23.97    1.04
   6  -7   5   24.59    1.07
   8  -2  -5    5.76    0.34
  -6   8  -5    5.76    0.35
  -2  -6  -5    6.01    0.33
  -8   2   5    6.25    0.33
   6  -8   5    5.85    0.36
   9  -3  -5    0.83    0.13
  -3  -6  -5    0.91    0.13
  -6   9  -5    1.12    0.16
   6  -9   5    0.96    0.16
  -4  -6  -5    4.92    0.31
  10  -4  -5    5.11    0.32
  -6  10  -5    5.11    0.33
   6 -10   5    5.04    0.34
  -5  -6  -5    6.98    0.41
  -6  11  -5    6.66    0.41
  11  -5  -5    7.13    0.40
   6 -11   5    7.51    0.43
  12  -6  -5    0.22    0.10
  -6  -6  -5    0.02    0.10
   6 -12   5    0.10    0.11
  -7  -6  -5   20.15    0.97
  13  -7  -5   20.32    0.95
   6 -13   5   20.35    0.98
  -7  -5  -5   13.65    0.71
  12  -7  -5   14.28    0.69
   5 -12   5   14.58    0.73
  -7  -4  -5    1.90    0.22
  -4  11  -5    1.56    0.20
  11  -7  -5    2.00    0.19
   4 -11   5    2.35    0.25
  10  -7  -5    9.49    0.48
  -7  -3  -5   10.44    0.53
  -3  10  -5    9.35    0.51
   3 -10   5    9.34    0.52
   9  -7  -5    6.79    0.33
  -7  -2  -5    6.61    0.38
  -2   9  -5    6.18    0.37
   2  -9   5    6.16    0.38
   2  -9   5    5.74    0.38
   7   2   5    5.92    0.35
  -7  -1  -5    0.23    0.11
   8  -7  -5    0.20    0.07
   8  -7  -5    0.19    0.06
  -1   8  -5    0.23    0.10
   1  -8   5    0.33    0.11
   7   1   5    0.22    0.09
   1  -8   5    0.15    0.10
   7  -7  -5   34.98    1.53
   7  -7  -5   37.33    1.53
  -7   0  -5   37.88    1.60
   0   7  -5   36.24    1.59
   0  -7   5   38.33    1.60
   7   0   5   36.18    1.58
  -7   1  -5   22.87    1.04
   6  -7  -5   22.75    0.97
   1   6  -5   22.82    1.04
   6  -7  -5   22.35    0.96
   7  -1   5   23.99    1.03
  -1  -6   5   23.77    1.04
  -7   2  -5    1.93    0.20
   5  -7  -5    1.87    0.11
   5  -7  -5    2.10    0.12
   2   5  -5    2.23    0.20
   7  -2   5    1.89    0.18
  -2  -5   5    1.96    0.20
  -7   3  -5   14.76    0.72
   3   4  -5   15.62    0.72
   4  -7  -5   15.66    0.65
   4  -7  -5   15.93    0.65
   7  -3   5   15.19    0.72
  -3  -4   5   14.91    0.72
  -7   4  -5   16.00    0.73
   4   3  -5   14.94    0.72
   3  -7  -5   15.85    0.65
   3  -7  -5   15.41    0.65
  -4  -3   5   15.30    0.72
   7  -4   5   15.21    0.73
   2  -7  -5    2.22    0.13
   2  -7  -5    1.85    0.12
  -7   5  -5    2.17    0.20
   5   2  -5    2.14    0.20
  -5  -2   5    2.08    0.20
   7  -5   5    1.97    0.20
   1  -7  -5   22.35    0.99
  -7   6  -5   22.90    1.05
   6   1  -5   23.91    1.05
   1  -7  -5   23.76    0.99
  -6  -1   5   23.57    1.04
   7  -6   5   24.29    1.06
  -7   7  -5   36.78    1.57
   7   0  -5   36.59    1.57
   0  -7  -5   33.28    1.51
   0  -7  -5   36.79    1.52
  -7   0   5   36.65    1.56
   7  -7   5   37.84    1.58
  -7   8  -5    0.14    0.10
   8  -1  -5    0.04    0.08
  -1  -7  -5    0.20    0.08
   7  -8   5    0.21    0.10
  -8   1   5    0.25    0.09
   9  -2  -5    6.23    0.37
  -2  -7  -5    6.56    0.35
  -7   9  -5    6.52    0.39
   7  -9   5    6.81    0.40
  -3  -7  -5    9.14    0.48
  10  -3  -5    9.90    0.50
  -7  10  -5    9.18    0.50
   7 -10   5    9.05    0.51
  -7  11  -5    1.99    0.22
  -4  -7  -5    1.95    0.21
  11  -4  -5    1.72    0.20
   7 -11   5    2.37    0.25
  12  -5  -5   13.58    0.69
  -5  -7  -5   13.60    0.69
   7 -12   5   14.30    0.71
  13  -6  -5   20.20    0.95
  -6  -7  -5   20.15    0.95
   7 -13   5   19.47    0.96
  14  -7  -5    0.07    0.11
  -7  -7  -5   -0.05    0.11
   7 -14   5   -0.19    0.11
  -8  -7  -5    3.78    0.34
  15  -8  -5    3.73    0.31
   7 -15   5    3.77    0.35
  14  -8  -5    3.09    0.28
  -8  -6  -5    3.15    0.31
   6 -14   5    3.07    0.31
  13  -8  -5    1.34    0.18
  -8  -5  -5    1.36    0.21
   5 -13   5    0.96    0.19
  12  -8  -5    5.18    0.33
  -8  -4  -5    5.71    0.38
   4 -12   5    5.60    0.38
   4 -12   5    4.90    0.37
  -3  11  -5   22.44    1.10
  -8  -3  -5   24.17    1.11
  11  -8  -5   25.18    1.07
   3 -11   5   24.57    1.12
   3 -11   5   24.14    1.12
  10  -8  -5    0.72    0.11
  -8  -2  -5    0.49    0.13
  -2  10  -5    0.66    0.14
   2 -10   5    0.71    0.15
   2 -10   5    0.97    0.16
  -8  -1  -5   13.13    0.67
  -1   9  -5   13.19    0.66
   9  -8  -5   13.55    0.60
   1  -9   5   13.83    0.67
   8   1   5   12.75    0.64
   8  -8  -5    2.80    0.17
  -8   0  -5    2.90    0.25
   0   8  -5    2.86    0.24
   8  -8  -5    2.82    0.17
   8   0   5    2.77    0.23
   0  -8   5    3.12    0.25
   7  -8  -5    0.13    0.04
   1   7  -5    0.38    0.12
   7  -8  -5    0.18    0.05
  -8   1  -5    0.09    0.09
   8  -1   5    0.25    0.09
  -1  -7   5    0.19    0.11
  -8   2  -5    5.67    0.35
   6  -8  -5    5.65    0.26
   2   6  -5    6.07    0.35
   6  -8  -5    5.63    0.26
  -2  -6   5    5.84    0.35
   8  -2   5    5.26    0.34
   3   5  -5   23.32    1.07
  -8   3  -5   24.27    1.07
   8  -3   5   23.68    1.07
  -3  -5   5   23.52    1.07
  -8   4  -5   -0.06    0.08
   4   4  -5    0.04    0.08
   8  -4   5    0.19    0.10
  -4  -4   5    0.29    0.10
   3  -8  -5   23.09    0.98
   5   3  -5   24.77    1.07
  -8   5  -5   24.38    1.07
   3  -8  -5   23.44    0.98
  -5  -3   5   23.15    1.06
   8  -5   5   23.01    1.07
   2  -8  -5    5.46    0.26
   2  -8  -5    5.64    0.27
  -8   6  -5    5.89    0.35
   6   2  -5    5.79    0.34
  -6  -2   5    5.88    0.34
   8  -6   5    5.10    0.34
   7   1  -5    0.25    0.11
   1  -8  -5    0.22    0.06
  -8   7  -5    0.21    0.09
   1  -8  -5    0.15    0.05
   8  -7   5    0.21    0.10
  -7  -1   5    0.25    0.10
   8   0  -5    2.98    0.24
  -8   8  -5    2.96    0.24
   0  -8  -5    2.99    0.19
   8  -8   5    2.68    0.25
  -8   0   5    2.68    0.23
  -8   9  -5   13.50    0.66
   9  -1  -5   13.41    0.66
  -1  -8  -5   13.21    0.61
  -9   1   5   12.15    0.64
   8  -9   5   14.07    0.67
  10  -2  -5    0.94    0.15
  -8  10  -5    0.82    0.15
  -2  -8  -5    0.84    0.13
   8 -10   5    0.53    0.15
  11  -3  -5   24.81    1.10
  -8  11  -5   23.03    1.09
  -3  -8  -5   23.71    1.07
   8 -11   5   24.32    1.11
  -4  -8  -5    5.39    0.35
  12  -4  -5    5.76    0.37
   8 -12   5    4.85    0.37
  -5  -8  -5    0.87    0.17
  13  -5  -5    1.31    0.19
   8 -13   5    1.41    0.22
  14  -6  -5    3.25    0.29
  -6  -8  -5    3.19    0.30
   8 -14   5    2.53    0.30
  -7  -8  -5    3.39    0.32
  15  -7  -5    3.75    0.32
   8 -15   5    3.12    0.33
  -8  -8  -5   -0.01    0.13
  16  -8  -5    0.13    0.14
   8 -16   5    0.11    0.14
  -9  -7  -5    5.68    0.43
  16  -9  -5    5.41    0.40
   7 -16   5    5.38    0.42
   7 -16   5    5.71    0.44
  -9  -6  -5    0.80    0.19
  15  -9  -5    0.90    0.17
   6 -15   5    0.49    0.18
   6 -15   5    0.43    0.16
  14  -9  -5    7.41    0.44
  -9  -5  -5    7.59    0.49
   5 -14   5    7.89    0.49
   5 -14   5    7.84    0.49
  -9  -4  -5    4.66    0.37
  13  -9  -5    4.40    0.31
   4 -13   5    5.14    0.37
   4 -13   5    4.73    0.36
  12  -9  -5    1.15    0.15
  -9  -3  -5    1.35    0.21
   3 -12   5    0.92    0.18
   3 -12   5    1.05    0.19
  11  -9  -5   23.30    1.03
  -2  11  -5   22.82    1.08
  -9  -2  -5   23.37    1.10
   2 -11   5   24.94    1.11
  -9  -1  -5   22.08    1.00
  10  -9  -5   21.40    0.92
  -1  10  -5   19.81    0.98
   9   1   5   20.84    0.98
   1 -10   5   21.43    1.00
  -9   0  -5    2.37    0.25
   0   9  -5    1.81    0.20
   9  -9  -5    2.06    0.15
   0  -9   5    2.53    0.25
   9   0   5    2.15    0.21
   8  -9  -5   13.61    0.58
   1   8  -5   13.26    0.67
  -9   1  -5   14.34    0.68
   8  -9  -5   12.80    0.58
   9  -1   5   13.26    0.66
  -1  -8   5   13.54    0.68
   2   7  -5    6.82    0.39
  -9   2  -5    6.08    0.39
  -2  -7   5    6.65    0.39
   9  -2   5    6.26    0.38
  -9   3  -5    0.81    0.15
   3   6  -5    0.84    0.14
  -3  -6   5    0.90    0.15
   9  -3   5    0.98    0.15
  -9   4  -5   27.27    1.24
   4   5  -5   27.82    1.24
   9  -4   5   28.00    1.24
  -4  -5   5   27.62    1.24
   5   4  -5   28.41    1.24
  -9   5  -5   27.80    1.24
   9  -5   5   28.01    1.25
  -5  -4   5   26.95    1.24
   3  -9  -5    0.94    0.08
  -9   6  -5    0.83    0.14
   3  -9  -5    1.09    0.08
   6   3  -5    1.11    0.16
   9  -6   5    1.09    0.16
  -6  -3   5    1.20    0.16
   7   2  -5    6.57    0.38
   2  -9  -5    6.03    0.29
   2  -9  -5    6.46    0.30
  -9   7  -5    6.45    0.39
   9  -7   5    6.31    0.39
  -7  -2   5    6.34    0.38
   8   1  -5   13.84    0.66
   1  -9  -5   12.84    0.59
  -9   8  -5   13.23    0.66
   9  -8   5   13.58    0.67
  -8  -1   5   12.75    0.65
   0  -9  -5    2.15    0.17
   9   0  -5    2.28    0.24
  -9   9  -5    2.27    0.23
  -9   0   5    2.21    0.23
   9  -9   5    2.20    0.24
  -9  10  -5   20.74    1.01
  10  -1  -5   22.28    1.02
  -1  -9  -5   21.97    0.97
   9 -10   5   22.92    1.04
  -2  -9  -5   23.84    1.04
  11  -2  -5   23.75    1.08
  -9  11  -5   22.58    1.07
   9 -11   5   23.14    1.09
  -3  -9  -5    1.00    0.16
  12  -3  -5    0.92    0.17
   9 -12   5    1.36    0.21
  13  -4  -5    4.14    0.34
  -4  -9  -5    5.23    0.34
   9 -13   5    4.43    0.36
  -5  -9  -5    8.03    0.47
  14  -5  -5    7.04    0.47
   9 -14   5    7.24    0.48
  -6  -9  -5    0.84    0.18
  15  -6  -5    0.70    0.17
   9 -15   5    0.66    0.19
  16  -7  -5    5.84    0.42
  -7  -9  -5    5.13    0.41
   9 -16   5    5.84    0.44
 -10  -6  -5    2.96    0.34
  16 -10  -5    3.02    0.30
   6 -16   5    3.48    0.36
   6 -16   5    3.27    0.36
 -10  -5  -5    7.86    0.51
  15 -10  -5    7.68    0.46
   5 -15   5    7.85    0.51
 -10  -4  -5    0.46    0.16
  14 -10  -5    0.32    0.12
   4 -14   5    0.25    0.14
 -10  -3  -5    5.72    0.41
  13 -10  -5    5.82    0.35
   3 -13   5    5.43    0.41
  12 -10  -5    2.37    0.20
 -10  -2  -5    2.15    0.25
   2 -12   5    2.50    0.27
  -1  11  -5    0.63    0.15
 -10  -1  -5    0.20    0.12
  11 -10  -5    0.29    0.09
   1 -11   5    0.30    0.13
 -10   0  -5    7.78    0.46
  10 -10  -5    7.44    0.36
   0  10  -5    7.20    0.44
   0 -10   5    7.20    0.45
  10   0   5    7.23    0.43
 -10   1  -5   21.65    1.00
   9 -10  -5   20.94    0.89
   1   9  -5   21.06    0.99
  -1  -9   5   21.80    1.00
  10  -1   5   20.60    0.98
 -10   2  -5    0.61    0.14
   2   8  -5    0.90    0.17
  -2  -8   5    0.58    0.14
  10  -2   5    0.62    0.13
 -10   3  -5    9.14    0.51
   3   7  -5    9.07    0.51
  10  -3   5    9.41    0.51
  -3  -7   5    9.67    0.52
 -10   4  -5    5.67    0.35
   4   6  -5    4.97    0.34
  -4  -6   5    4.84    0.34
  10  -4   5    4.90    0.34
 -10   5  -5   -0.05    0.09
   5   5  -5   -0.12    0.08
  10  -5   5    0.07    0.09
  -5  -5   5    0.19    0.10
 -10   6  -5    5.23    0.34
   6   4  -5    4.89    0.33
  10  -6   5    4.61    0.34
  -6  -4   5    5.08    0.33
 -10   7  -5    9.51    0.51
   7   3  -5    9.43    0.51
  10  -7   5    9.53    0.52
  -7  -3   5    8.84    0.50
 -10   8  -5    0.78    0.14
   8   2  -5    0.73    0.15
   2 -10  -5    0.75    0.09
  -8  -2   5    1.01    0.17
  10  -8   5    0.50    0.13
 -10   9  -5   21.16    1.00
   9   1  -5   21.41    1.00
   1 -10  -5   21.20    0.92
  -9  -1   5   20.65    0.99
  10  -9   5   22.85    1.02
   0 -10  -5    7.37    0.38
 -10  10  -5    7.25    0.44
  10   0  -5    7.91    0.45
  10 -10   5    6.95    0.45
 -10  11  -5    0.24    0.11
  11  -1  -5    0.23    0.12
  -1 -10  -5    0.30    0.10
  10 -11   5    0.23    0.13
  12  -2  -5    2.58    0.27
  -2 -10  -5    2.58    0.24
  10 -12   5    2.97    0.31
  -3 -10  -5    6.06    0.38
  13  -3  -5    5.85    0.41
  10 -13   5    5.95    0.42
  -4 -10  -5    0.38    0.14
  14  -4  -5    0.22    0.14
  10 -14   5    0.35    0.16
  -5 -10  -5    7.62    0.48
  15  -5  -5    7.27    0.48
  10 -15   5    7.89    0.51
  16  -6  -5    2.79    0.31
  -6 -10  -5    3.26    0.33
  10 -16   5    3.60    0.35
 -11  -4  -5   14.00    0.77
  15 -11  -5   13.92    0.70
   4 -15   5   14.48    0.78
  14 -11  -5    6.28    0.38
 -11  -3  -5    6.58    0.46
   3 -14   5    6.51    0.46
  13 -11  -5    0.97    0.14
 -11  -2  -5    0.61    0.18
   2 -13   5    0.73    0.18
  12 -11  -5    5.88    0.33
 -11  -1  -5    6.11    0.42
   1 -12   5    6.17    0.42
  11 -11  -5    4.92    0.27
   0  11  -5    4.98    0.36
 -11   0  -5    5.41    0.38
   0 -11   5    4.90    0.37
 -11   1  -5    0.20    0.12
  10 -11  -5    0.28    0.06
   1  10  -5    0.12    0.12
  -1 -10   5    0.27    0.13
  11  -1   5    0.20    0.12
   2   9  -5   23.03    1.08
 -11   2  -5   23.61    1.09
  11  -2   5   23.26    1.08
  -2  -9   5   23.02    1.09
   3   8  -5   23.97    1.11
 -11   3  -5   24.31    1.12
  -3  -8   5   24.58    1.12
  11  -3   5   23.51    1.11
 -11   4  -5    1.80    0.22
   4   7  -5    1.76    0.22
  -4  -7   5    2.05    0.24
  11  -4   5    1.94    0.23
 -11   5  -5    7.65    0.44
   5   6  -5    6.65    0.43
  11  -5   5    7.58    0.45
  -5  -6   5    7.33    0.44
   6   5  -5    6.91    0.42
 -11   6  -5    6.85    0.42
  11  -6   5    7.00    0.43
  -6  -5   5    7.20    0.43
   7   4  -5    1.98    0.22
 -11   7  -5    1.70    0.22
  11  -7   5    1.60    0.21
  -7  -4   5    2.07    0.23
   8   3  -5   24.44    1.10
 -11   8  -5   24.46    1.10
   3 -11  -5   23.51    0.98
   3 -11  -5   22.76    0.98
  -8  -3   5   22.67    1.09
  11  -8   5   23.91    1.10
   2 -11  -5   23.71    0.98
 -11   9  -5   22.89    1.07
   9   2  -5   22.73    1.08
  -9  -2   5   22.23    1.07
  11  -9   5   23.30    1.09
 -11  10  -5    0.32    0.13
   1 -11  -5    0.33    0.09
  10   1  -5    0.41    0.14
  11 -10   5    0.35    0.15
   0 -11  -5    5.02    0.31
  11   0  -5    5.47    0.38
  11 -11   5    5.64    0.40
  12  -1  -5    6.34    0.43
  -1 -11  -5    6.59    0.37
  11 -12   5    6.46    0.44
  -2 -11  -5    1.24    0.17
  13  -2  -5    0.81    0.18
  11 -13   5    0.71    0.19
  14  -3  -5    6.18    0.45
  -3 -11  -5    7.29    0.42
  11 -14   5    6.40    0.46
  -4 -11  -5   13.83    0.70
  15  -4  -5   13.76    0.73
  11 -15   5   12.57    0.73
 -12  -3  -5    0.80    0.19
  15 -12  -5    0.76    0.14
   3 -15   5    1.18    0.23
 -12  -2  -5    5.16    0.41
  14 -12  -5    4.81    0.30
   2 -14   5    4.36    0.39
  13 -12  -5    8.09    0.42
 -12  -1  -5    8.63    0.53
   1 -13   5    8.52    0.53
  12 -12  -5    0.55    0.09
 -12   0  -5    0.33    0.16
   0 -12   5    0.84    0.19
 -12   1  -5    6.27    0.42
  11 -12  -5    6.14    0.30
  -1 -11   5    5.95    0.42
 -12   2  -5    2.17    0.25
   2  10  -5    2.53    0.26
  -2 -10   5    2.49    0.27
  12  -2   5    2.84    0.27
   3   9  -5    1.17    0.18
 -12   3  -5    1.08    0.19
  12  -3   5    1.13    0.19
  -3  -9   5    1.09    0.19
 -12   4  -5    5.25    0.37
   4   8  -5    5.17    0.36
  -4  -8   5    4.57    0.36
  12  -4   5    4.96    0.36
   5   7  -5   13.23    0.70
 -12   5  -5   13.85    0.71
  -5  -7   5   13.49    0.70
  12  -5   5   13.92    0.71
 -12   6  -5   -0.01    0.10
   6   6  -5    0.02    0.10
  -6  -6   5   -0.11    0.09
  12  -6   5    0.00    0.11
 -12   7  -5   14.12    0.72
   7   5  -5   13.71    0.72
  -7  -5   5   14.62    0.73
  12  -7   5   14.23    0.73
   8   4  -5    4.72    0.35
 -12   8  -5    4.91    0.35
  -8  -4   5    5.08    0.36
  12  -8   5    5.02    0.37
 -12   9  -5    0.92    0.17
   9   3  -5    1.05    0.18
  -9  -3   5    1.02    0.18
  12  -9   5    1.35    0.20
 -12  10  -5    2.54    0.26
   2 -12  -5    2.52    0.18
  10   2  -5    3.04    0.29
  12 -10   5    2.81    0.30
  11   1  -5    6.42    0.43
   1 -12  -5    6.38    0.34
  12 -11   5    6.63    0.45
   0 -12  -5    0.46    0.12
  12   0  -5    0.71    0.17
  12 -12   5    0.40    0.16
  -1 -12  -5    7.50    0.44
  13  -1  -5    8.74    0.52
  12 -13   5    8.93    0.54
  -2 -12  -5    4.64    0.33
  14  -2  -5    4.85    0.39
  12 -14   5    4.55    0.40
  -3 -12  -5    0.88    0.17
  15  -3  -5    1.07    0.22
  12 -15   5    0.83    0.20
  14 -13  -5    0.19    0.09
 -13  -1  -5    0.17    0.15
   1 -14   5   -0.07    0.14
 -13   0  -5   12.27    0.71
  13 -13  -5   12.79    0.58
   0 -13   5   13.11    0.71
  12 -13  -5    7.41    0.36
 -13   1  -5    7.70    0.50
  -1 -12   5    8.05    0.51
 -13   2  -5    0.93    0.19
  13  -2   5    0.90    0.18
  -2 -11   5    1.28    0.22
   3  10  -5    5.19    0.38
 -13   3  -5    5.54    0.40
  -3 -10   5    5.85    0.41
  13  -3   5    5.14    0.39
 -13   4  -5    4.27    0.35
   4   9  -5    4.17    0.34
  -4  -9   5    4.18    0.35
  13  -4   5    4.43    0.34
 -13   5  -5    1.26    0.22
   5   8  -5    1.43    0.21
  -5  -8   5    1.26    0.21
  13  -5   5    1.19    0.21
   6   7  -5   19.72    0.95
 -13   6  -5   20.24    0.96
  -6  -7   5   19.33    0.95
  13  -6   5   19.04    0.96
   7   6  -5   19.90    0.97
 -13   7  -5   20.18    0.97
  13  -7   5   20.19    0.98
  -7  -6   5   19.94    0.97
 -13   8  -5    1.49    0.22
   8   5  -5    1.21    0.20
  13  -8   5    1.17    0.21
  -8  -5   5    1.30    0.21
 -13   9  -5    4.58    0.35
   9   4  -5    4.04    0.34
  -9  -4   5    4.37    0.35
  13  -9   5    4.26    0.36
   3 -13  -5    5.41    0.27
  10   3  -5    5.34    0.39
  13 -10   5    5.55    0.41
  11   2  -5    0.65    0.17
   2 -13  -5    0.86    0.11
  13 -11   5    0.88    0.19
  12   1  -5    8.55    0.52
   1 -13  -5    7.80    0.42
  13 -12   5    8.45    0.53
   0 -13  -5   12.98    0.63
  13   0  -5   13.61    0.72
  13 -13   5   12.86    0.73
  -1 -13  -5    0.11    0.11
  14  -1  -5   -0.08    0.12
  13 -14   5    0.18    0.15
  14 -14  -5    0.99    0.12
 -14   0  -5    0.58    0.18
   0 -14   5    0.83    0.21
 -14   1  -5    0.11    0.15
  -1 -13   5    0.25    0.16
 -14   2  -5    4.93    0.39
  -2 -12   5    4.44    0.40
 -14   3  -5    6.64    0.46
  14  -3   5    6.49    0.45
  -3 -11   5    6.18    0.46
 -14   4  -5    0.53    0.16
  -4 -10   5    0.39    0.17
  14  -4   5    0.23    0.14
 -14   5  -5    7.02    0.47
   5   9  -5    7.07    0.46
  14  -5   5    7.73    0.49
  -5  -9   5    7.49    0.49
   6   8  -5    3.03    0.30
 -14   6  -5    2.52    0.28
  14  -6   5    2.65    0.29
  -6  -8   5    3.41    0.32
   7   7  -5   -0.01    0.12
 -14   7  -5   -0.30    0.10
  -7  -7   5    0.06    0.13
  14  -7   5    0.04    0.13
   8   6  -5    3.00    0.32
 -14   8  -5    2.92    0.29
  -8  -6   5    2.99    0.31
  14  -8   5    2.82    0.31
   9   5  -5    7.31    0.48
  14  -9   5    7.94    0.51
  -9  -5   5    7.58    0.49
  10   4  -5    0.09    0.14
  14 -10   5    0.38    0.17
  11   3  -5    6.58    0.45
   3 -14  -5    6.33    0.31
  14 -11   5    6.36    0.46
   2 -14  -5    4.56    0.26
  12   2  -5    4.86    0.39
  14 -12   5    4.48    0.39
  13   1  -5    0.29    0.15
   1 -14  -5    0.09    0.09
  14 -13   5   -0.06    0.14
  14   0  -5    0.73    0.20
   0 -14  -5    0.98    0.15
  14 -14   5    0.69    0.20
 -15   3  -5    0.97    0.22
  -3 -12   5    0.76    0.20
 -15   4  -5   12.80    0.73
  15  -4   5   13.60    0.74
  -4 -11   5   13.20    0.74
 -15   5  -5    7.46    0.48
  15  -5   5    6.69    0.48
  -5 -10   5    6.80    0.48
 -15   6  -5    0.91    0.19
   6   9  -5    1.08    0.22
  15  -6   5    0.84    0.20
  -6  -9   5    0.49    0.18
 -15   7  -5    3.27    0.33
   7   8  -5    3.41    0.32
  -7  -8   5    3.05    0.32
  15  -7   5    2.92    0.32
   8   7  -5    3.61    0.33
  -8  -7   5    3.40    0.34
  15  -8   5    3.72    0.35
   9   6  -5    0.78    0.18
  -9  -6   5    0.96    0.20
  15  -9   5    0.76    0.21
  10   5  -5    7.44    0.49
  15 -10   5    7.44    0.51
  11   4  -5   12.33    0.70
  15 -11   5   12.89    0.72
  12   3  -5    1.00    0.22
   3 -15  -5    0.95    0.10
  15 -12   5    1.03    0.23
  16  -6   5    2.52    0.32
  -6 -10   5    3.31    0.36
  -7  -9   5    5.38    0.43
  16  -7   5    5.20    0.42
   8   8  -5    0.14    0.15
  -8  -8   5    0.31    0.17
  16  -8   5    0.04    0.14
   9   7  -5    5.26    0.41
  16  -9   5    4.69    0.42
  -9  -7   5    5.68    0.43
  10   6  -5    2.71    0.32
  16 -10   5    3.25    0.35
   0   0  -6  193.36    8.98
   0   0  -6  229.55    8.99
   0   0   6  239.61    8.98
   1  -1  -6    3.61    0.23
   0   1  -6    4.18    0.25
   1  -1  -6    3.19    0.21
  -1   0  -6    3.16    0.22
  -1   0  -6    4.27    0.25
   0  -1   6    3.54    0.23
   1   0   6    3.98    0.23
  -1   1   6    3.68    0.21
   1   0  -6    3.31    0.22
   0  -1  -6    3.31    0.22
   0  -1  -6    3.66    0.23
   1   0  -6    3.82    0.24
  -1   1  -6    3.96    0.25
  -1   0   6    3.75    0.23
  -1   0   6    3.80    0.23
   1  -1   6    3.78    0.23
   0   1   6    3.74    0.21
   2  -1  -6   20.77    1.02
  -1  -1  -6   24.52    1.04
  -1  -1  -6   20.55    1.02
  -1   2  -6   26.67    1.05
   2  -1  -6   24.25    1.03
   1   1   6   23.91    1.02
  -2   1   6   24.15    1.02
   1  -2   6   24.91    1.04
  -2  -1  -6   17.75    0.91
  -1   3  -6   22.09    0.95
   3  -2  -6   18.68    0.91
  -2  -1  -6   21.89    0.93
   3  -2  -6   22.52    0.92
   1  -3   6   22.66    0.94
  -3   2   6   21.56    0.90
   2   1   6   21.10    0.92
  -2   0  -6   75.99    3.01
   2  -2  -6   72.62    3.00
   0   2  -6   75.66    3.02
   2  -2  -6   64.32    2.99
   2   0   6   73.82    3.00
   0  -2   6   74.64    3.01
  -2   2   6   70.91    2.98
   1  -2  -6   24.69    1.05
   1  -2  -6   21.30    1.03
   1   1  -6   25.31    1.07
  -2   1  -6   25.16    1.07
   2  -1   6   24.16    1.05
  -1  -1   6   24.78    1.05
  -1  -1   6   24.82    1.05
  -1   2   6   23.36    1.02
   0  -2  -6   63.38    2.87
   2   0  -6   74.24    2.90
  -2   2  -6   74.97    2.91
   2   0  -6   58.57    2.88
   0  -2  -6   70.89    2.88
   2  -2   6   73.03    2.90
  -2   0   6   72.14    2.88
   0   2   6   70.48    2.86
   3  -1  -6   18.31    0.91
   3  -1  -6   21.30    0.92
  -1  -2  -6   22.34    0.92
  -1  -2  -6   18.39    0.91
  -2   3  -6   22.33    0.94
   2  -3   6   21.86    0.94
  -3   1   6   21.84    0.91
   1   2   6   21.20    0.90
   4  -2  -6  148.03    6.98
  -2   4  -6  179.35    7.00
   4  -2  -6  175.44    6.98
  -2  -2  -6  175.18    6.98
   2  -4   6  177.90    7.00
  -4   2   6  167.61    6.96
   2   2   6  173.61    6.96
  -3  -2  -6    2.06    0.18
   5  -3  -6    2.14    0.17
  -2   5  -6    2.17    0.21
   2  -5   6    2.11    0.20
   3   2   6    2.05    0.16
  -3  -1  -6   10.42    0.51
  -1   4  -6   10.76    0.53
   4  -3  -6   10.91    0.50
   3   1   6   10.52    0.50
   1  -4   6   10.61    0.52
  -4   3   6    9.81    0.47
   0   3  -6   15.38    0.71
   3  -3  -6   16.46    0.68
  -3   0  -6   15.69    0.71
   0  -3   6   14.29    0.70
  -3   3   6   13.99    0.65
   3   0   6   15.15    0.69
   0  -3   6   15.21    0.70
  -3   1  -6   23.23    0.98
   2  -3  -6   22.06    0.95
   1   2  -6   21.57    0.97
  -1  -2   6   21.33    0.97
  -2   3   6   21.22    0.92
   3  -1   6   22.06    0.97
   1  -3  -6   22.03    0.94
  -3   2  -6   23.55    0.98
   2   1  -6   22.56    0.97
  -1   3   6   20.36    0.92
  -2  -1   6   21.36    0.96
   3  -2   6   20.92    0.96
   3   0  -6   15.80    0.69
   0  -3  -6   15.01    0.67
   0  -3  -6   12.36    0.66
  -3   3  -6   15.30    0.70
  -3   0   6   15.59    0.68
   3  -3   6   15.54    0.70
   0   3   6   14.90    0.65
  -1  -3  -6   10.60    0.49
  -3   4  -6   10.45    0.52
  -1  -3  -6    8.78    0.47
   4  -1  -6   10.05    0.49
   3  -4   6   10.33    0.51
  -4   1   6   10.16    0.48
   1   3   6   10.09    0.46
   5  -2  -6    2.41    0.19
  -2  -3  -6    2.29    0.18
  -3   5  -6    2.43    0.22
   3  -5   6    2.24    0.21
  -5   2   6    2.43    0.17
   2   3   6    2.08    0.15
  -3   6  -6    9.10    0.49
   6  -3  -6    9.36    0.46
  -3  -3  -6    9.69    0.47
   3  -6   6    8.68    0.48
  -3   7  -6    9.78    0.52
   7  -4  -6   10.09    0.48
  -4  -3  -6    9.80    0.50
   3  -7   6    9.53    0.52
   6  -4  -6   45.21    1.87
  -4  -2  -6   44.05    1.89
  -2   6  -6   45.37    1.90
   4   2   6   42.57    1.87
   2  -6   6   44.93    1.90
   5  -4  -6   19.72    0.82
   5  -4  -6   16.68    0.81
  -4  -1  -6   19.88    0.85
  -1   5  -6   18.81    0.86
   1  -5   6   17.94    0.85
   4   1   6   18.56    0.83
  -4   0  -6   42.88    1.74
   4  -4  -6   38.02    1.70
   4  -4  -6   40.01    1.70
   0   4  -6   41.22    1.75
   4   0   6   40.85    1.73
   0  -4   6   40.76    1.74
   0  -4   6   41.62    1.74
  -4   1  -6   11.43    0.53
   3  -4  -6   10.07    0.48
   1   3  -6   10.16    0.52
   3  -4  -6   10.13    0.48
  -1  -3   6   10.72    0.52
   4  -1   6   10.47    0.51
   2  -4  -6  168.13    7.24
   2   2  -6  184.21    7.28
  -4   2  -6  184.77    7.29
   2  -4  -6  180.60    7.25
   4  -2   6  176.49    7.28
  -2  -2   6  174.29    7.27
   1  -4  -6    9.71    0.48
   3   1  -6   11.34    0.53
   1  -4  -6   10.94    0.50
  -4   3  -6   10.89    0.54
  -3  -1   6   10.30    0.51
   4  -3   6   10.74    0.53
  -4   4  -6   42.66    1.77
   4   0  -6   42.06    1.76
   0  -4  -6   40.81    1.73
  -4   0   6   40.20    1.75
   4  -4   6   40.81    1.76
   5  -1  -6   18.74    0.85
  -1  -4  -6   19.41    0.84
  -4   5  -6   18.51    0.87
  -5   1   6   18.42    0.84
   4  -5   6   19.36    0.87
   6  -2  -6   45.01    1.93
  -4   6  -6   46.89    1.96
  -2  -4  -6   45.50    1.92
   4  -6   6   45.16    1.95
  -3  -4  -6    9.02    0.47
  -4   7  -6    9.40    0.50
   7  -3  -6   10.01    0.48
   4  -7   6    8.76    0.49
  -4   8  -6  110.41    4.45
  -4  -4  -6  106.80    4.43
   8  -4  -6  106.90    4.42
   4  -8   6  104.62    4.45
  -4   9  -6    1.53    0.20
  -5  -4  -6    1.44    0.18
   4  -9   6    1.83    0.21
  -3   8  -6    2.44    0.25
   8  -5  -6    2.23    0.19
  -5  -3  -6    2.11    0.21
   3  -8   6    2.16    0.23
   7  -5  -6   13.83    0.64
  -5  -2  -6   14.51    0.67
  -2   7  -6   14.07    0.68
   2  -7   6   13.09    0.67
  -5  -1  -6    8.61    0.46
  -1   6  -6    8.63    0.47
   6  -5  -6    8.99    0.42
   1  -6   6    8.18    0.46
   1  -6   6    8.74    0.46
   5   1   6    8.41    0.44
   5  -5  -6   22.50    1.03
   0   5  -6   24.21    1.09
   5  -5  -6   24.14    1.03
  -5   0  -6   24.19    1.08
   5   0   6   24.37    1.07
   0  -5   6   25.17    1.09
   0  -5   6   24.85    1.08
   1   4  -6   19.42    0.88
  -5   1  -6   19.85    0.88
   4  -5  -6   18.40    0.82
   4  -5  -6   19.00    0.82
   5  -1   6   18.33    0.86
  -1  -4   6   19.68    0.88
   3  -5  -6    2.17    0.15
   2   3  -6    2.73    0.21
  -5   2  -6    2.53    0.21
   3  -5  -6    2.13    0.15
   5  -2   6    2.11    0.19
  -2  -3   6    2.23    0.20
  -5   3  -6    2.43    0.22
   3   2  -6    2.33    0.20
   2  -5  -6    2.18    0.16
   2  -5  -6    2.11    0.15
   5  -3   6    2.15    0.20
  -3  -2   6    2.75    0.21
   4   1  -6   20.21    0.87
   1  -5  -6   19.31    0.83
   1  -5  -6   17.31    0.82
  -5   4  -6   19.92    0.88
  -4  -1   6   18.60    0.86
   5  -4   6   18.66    0.87
   5   0  -6   25.27    1.07
   0  -5  -6   24.36    1.04
  -5   5  -6   24.80    1.08
   0  -5  -6   22.27    1.05
   5  -5   6   24.24    1.08
  -5   0   6   23.66    1.06
   6  -1  -6    9.27    0.46
  -1  -5  -6    8.94    0.43
  -5   6  -6    8.89    0.48
  -6   1   6    8.51    0.44
   5  -6   6    8.52    0.47
  -5   7  -6   13.07    0.66
   7  -2  -6   13.18    0.64
  -2  -5  -6   13.75    0.63
   5  -7   6   13.29    0.66
   8  -3  -6    2.37    0.20
  -5   8  -6    1.94    0.22
  -3  -5  -6    2.26    0.20
   5  -8   6    1.48    0.19
  -5   9  -6    1.38    0.18
   9  -4  -6    1.73    0.18
  -4  -5  -6    1.78    0.19
   5  -9   6    1.51    0.20
  10  -5  -6    1.86    0.20
  -5  10  -6    2.52    0.24
  -5  -5  -6    1.97    0.22
   5 -10   6    1.41    0.20
  11  -6  -6   14.16    0.68
  -6  -5  -6   13.68    0.69
  -5  11  -6   12.81    0.69
   5 -11   6   14.35    0.72
  10  -6  -6   18.67    0.85
  -6  -4  -6   18.92    0.88
  -4  10  -6   17.81    0.88
   4 -10   6   18.22    0.89
  -6  -3  -6   11.71    0.57
   9  -6  -6   10.52    0.52
  -3   9  -6   10.15    0.56
   3  -9   6   10.53    0.57
  -6  -2  -6   27.28    1.21
  -2   8  -6   25.52    1.22
   8  -6  -6   28.01    1.17
   2  -8   6   27.33    1.23
   2  -8   6   27.51    1.23
   7  -6  -6    5.50    0.29
  -6  -1  -6    5.62    0.35
  -1   7  -6    6.03    0.36
   1  -7   6    5.85    0.36
   6   1   6    5.04    0.32
   1  -7   6    5.35    0.35
   0   6  -6  125.35    5.03
  -6   0  -6  125.45    5.02
   6  -6  -6  126.20    4.96
   6  -6  -6  116.41    4.97
   0  -6   6  121.72    5.02
   6   0   6  116.60    5.00
   0  -6   6  119.38    5.02
   5  -6  -6    8.19    0.40
   1   5  -6    8.72    0.47
  -6   1  -6    9.05    0.47
   5  -6  -6    8.89    0.40
   6  -1   6    8.58    0.45
  -1  -5   6    8.61    0.46
   2   4  -6   46.53    1.95
  -6   2  -6   47.06    1.95
   4  -6  -6   44.69    1.88
   4  -6  -6   46.29    1.89
   6  -2   6   44.70    1.94
  -2  -4   6   43.93    1.94
  -6   3  -6    9.66    0.49
   3   3  -6    9.55    0.48
   3  -6  -6    9.19    0.42
   3  -6  -6    8.93    0.42
  -3  -3   6    9.34    0.48
   6  -3   6    8.77    0.48
   2  -6  -6   42.56    1.86
   4   2  -6   46.37    1.92
  -6   4  -6   44.72    1.92
   2  -6  -6   46.14    1.86
  -4  -2   6   43.88    1.91
   6  -4   6   45.54    1.92
  -6   5  -6    8.99    0.48
   1  -6  -6    8.86    0.42
   5   1  -6    9.02    0.47
   1  -6  -6    8.12    0.41
   6  -5   6    9.47    0.48
  -5  -1   6    8.64    0.46
   0  -6  -6  121.19    4.98
  -6   6  -6  123.79    5.04
   6   0  -6  126.56    5.03
   6  -6   6  120.70    5.03
  -6   0   6  116.99    5.01
  -6   7  -6    5.86    0.37
  -1  -6  -6    5.54    0.32
   7  -1  -6    6.24    0.36
   6  -7   6    5.80    0.37
  -6   8  -6   26.40    1.20
   8  -2  -6   25.64    1.18
  -2  -6  -6   27.01    1.16
   6  -8   6   27.24    1.21
  -3  -6  -6   10.52    0.52
   9  -3  -6    9.89    0.53
  -6   9  -6   10.17    0.55
   6  -9   6   10.30    0.56
  -6  10  -6   20.04    0.92
  -4  -6  -6   18.81    0.89
  10  -4  -6   19.06    0.90
   6 -10   6   19.01    0.92
  -5  -6  -6   14.04    0.68
  -6  11  -6   13.75    0.70
  11  -5  -6   13.31    0.67
   6 -11   6   13.15    0.70
  -6  -6  -6   70.70    3.00
  12  -6  -6   70.30    2.99
   6 -12   6   71.53    3.03
  -7  -6  -6    0.11    0.12
  13  -7  -6    0.05    0.11
   6 -13   6    0.13    0.14
  -7  -5  -6    4.43    0.34
  12  -7  -6    4.31    0.31
   5 -12   6    4.57    0.36
  -7  -4  -6    8.84    0.49
  11  -7  -6    8.69    0.45
  -4  11  -6    7.54    0.47
   4 -11   6    7.83    0.49
  -7  -3  -6    8.80    0.50
  10  -7  -6    9.17    0.46
  -3  10  -6    9.05    0.51
   3 -10   6    8.74    0.51
   3 -10   6    8.76    0.51
  -2   9  -6   16.80    0.83
   9  -7  -6   18.05    0.78
  -7  -2  -6   18.01    0.84
   2  -9   6   16.50    0.83
   2  -9   6   17.16    0.84
  -7  -1  -6    7.49    0.43
   8  -7  -6    7.43    0.37
  -1   8  -6    6.80    0.42
   1  -8   6    7.24    0.43
   1  -8   6    7.20    0.43
   0   7  -6    1.11    0.17
  -7   0  -6    1.12    0.16
   7  -7  -6    1.39    0.13
   0  -7   6    1.30    0.19
   7   0   6    0.95    0.15
  -7   1  -6    5.53    0.35
   6  -7  -6    5.90    0.28
   1   6  -6    5.41    0.35
   6  -7  -6    5.63    0.28
  -1  -6   6    5.35    0.35
   7  -1   6    5.45    0.34
   5  -7  -6   12.87    0.58
   5  -7  -6   13.75    0.58
  -7   2  -6   14.29    0.67
   2   5  -6   13.45    0.66
  -2  -5   6   12.77    0.65
   7  -2   6   13.16    0.65
  -7   3  -6    9.65    0.50
   4  -7  -6    9.52    0.42
   3   4  -6    9.72    0.50
   4  -7  -6    9.14    0.42
  -3  -4   6    8.92    0.49
   7  -3   6    9.16    0.49
   3  -7  -6    9.50    0.43
  -7   4  -6    9.97    0.52
   4   3  -6   10.06    0.51
   3  -7  -6    9.44    0.43
  -4  -3   6    9.62    0.50
   7  -4   6    9.61    0.51
   2  -7  -6   13.71    0.60
   2  -7  -6   13.14    0.59
   5   2  -6   13.71    0.66
  -7   5  -6   13.87    0.67
  -5  -2   6   13.28    0.65
   7  -5   6   13.31    0.67
   6   1  -6    4.92    0.34
  -7   6  -6    5.57    0.35
   1  -7  -6    5.62    0.29
   7  -6   6    5.72    0.36
  -6  -1   6    5.59    0.33
   0  -7  -6    1.33    0.13
   7   0  -6    1.13    0.16
  -7   7  -6    0.83    0.14
  -7   0   6    1.08    0.16
   7  -7   6    1.52    0.20
   8  -1  -6    7.45    0.42
  -1  -7  -6    6.93    0.38
  -7   8  -6    7.72    0.44
   7  -8   6    7.31    0.44
  -2  -7  -6   17.82    0.81
  -7   9  -6   17.18    0.85
   9  -2  -6   18.41    0.84
   7  -9   6   16.98    0.85
  -3  -7  -6    8.97    0.46
  -7  10  -6    8.37    0.49
  10  -3  -6    8.29    0.47
   7 -10   6    8.69    0.50
  -7  11  -6    8.71    0.50
  -4  -7  -6    8.71    0.48
  11  -4  -6    8.94    0.49
   7 -11   6    8.52    0.51
  -5  -7  -6    5.15    0.36
  12  -5  -6    5.19    0.36
   7 -12   6    5.04    0.38
  -6  -7  -6    0.24    0.13
  13  -6  -6    0.07    0.11
   7 -13   6    0.37    0.15
  14  -7  -6    2.93    0.28
  -7  -7  -6    2.75    0.29
   7 -14   6    1.79    0.25
  -8  -7  -6    8.30    0.52
  15  -8  -6    7.61    0.48
   7 -15   6    7.42    0.52
  -8  -6  -6    7.94    0.51
  14  -8  -6    8.34    0.48
   6 -14   6    8.07    0.53
   6 -14   6    8.11    0.53
  13  -8  -6    4.32    0.32
  -8  -5  -6    4.93    0.37
   5 -13   6    4.28    0.37
   5 -13   6    4.51    0.38
  -8  -4  -6   11.14    0.66
  12  -8  -6   13.59    0.64
   4 -12   6   13.14    0.69
   4 -12   6   13.08    0.69
  11  -8  -6    1.19    0.15
  -8  -3  -6    1.55    0.21
  -3  11  -6    1.57    0.21
   3 -11   6    1.14    0.20
   3 -11   6    1.23    0.20
  10  -8  -6   84.66    3.48
  -8  -2  -6   82.59    3.54
  -2  10  -6   83.53    3.54
   2 -10   6   83.91    3.55
   2 -10   6   86.12    3.55
  -1   9  -6   13.30    0.69
   9  -8  -6   14.06    0.62
  -8  -1  -6   13.62    0.69
   1  -9   6   13.61    0.70
   8  -8  -6   20.82    0.90
  -8   0  -6   21.38    0.98
   0   8  -6   20.96    0.98
   8   0   6   20.00    0.96
   0  -8   6   21.61    0.99
  -8   1  -6    7.68    0.43
   7  -8  -6    6.95    0.33
   1   7  -6    7.36    0.43
   8  -1   6    6.73    0.40
  -1  -7   6    6.73    0.42
   6  -8  -6   26.48    1.10
  -8   2  -6   27.38    1.20
   2   6  -6   26.81    1.19
   6  -8  -6   25.43    1.10
   8  -2   6   26.45    1.19
  -2  -6   6   26.00    1.19
   5  -8  -6    1.81    0.12
   3   5  -6    2.16    0.23
   5  -8  -6    2.02    0.13
  -8   3  -6    2.25    0.24
   8  -3   6    2.29    0.23
  -3  -5   6    2.47    0.23
  -8   4  -6  107.22    4.40
   4  -8  -6  105.03    4.31
   4  -8  -6  107.39    4.31
   4   4  -6  108.02    4.40
  -4  -4   6  103.07    4.39
   8  -4   6  104.81    4.40
   3  -8  -6    2.29    0.14
  -8   5  -6    2.35    0.23
   3  -8  -6    1.98    0.13
   5   3  -6    1.99    0.22
   8  -5   6    2.12    0.22
  -5  -3   6    2.17    0.22
   2  -8  -6   26.37    1.10
   6   2  -6   27.43    1.19
   2  -8  -6   24.63    1.11
  -8   6  -6   26.86    1.19
  -6  -2   6   25.61    1.17
   8  -6   6   26.67    1.19
   1  -8  -6    7.16    0.34
  -8   7  -6    7.11    0.42
   7   1  -6    7.07    0.41
   8  -7   6    6.83    0.42
  -7  -1   6    6.09    0.39
   0  -8  -6   21.53    0.94
   8   0  -6   19.93    0.99
  -8   8  -6   22.73    1.01
   8  -8   6   22.21    1.02
  -8   9  -6   13.75    0.69
   9  -1  -6   13.96    0.69
  -1  -8  -6   13.74    0.64
   8  -9   6   13.15    0.70
  10  -2  -6   87.47    3.63
  -2  -8  -6   86.65    3.59
  -8  10  -6   85.03    3.63
   8 -10   6   86.91    3.64
  -3  -8  -6    1.38    0.17
  11  -3  -6    0.96    0.18
  -8  11  -6    1.45    0.21
   8 -11   6    1.21    0.21
  -4  -8  -6   13.50    0.67
  12  -4  -6   12.81    0.68
   8 -12   6   13.28    0.71
  13  -5  -6    4.29    0.33
  -5  -8  -6    4.55    0.33
   8 -13   6    3.85    0.36
  14  -6  -6    8.36    0.51
  -6  -8  -6    8.65    0.51
   8 -14   6    8.04    0.53
  15  -7  -6    7.75    0.48
  -7  -8  -6    7.76    0.49
   8 -15   6    7.09    0.50
  -9  -6  -6    4.89    0.39
  15  -9  -6    4.54    0.34
   6 -15   6    4.66    0.40
   6 -15   6    3.84    0.37
  14  -9  -6    2.97    0.26
  -9  -5  -6    2.82    0.30
   5 -14   6    2.41    0.30
   5 -14   6    2.34    0.30
  13  -9  -6   16.80    0.79
  -9  -4  -6   16.77    0.85
   4 -13   6   15.78    0.85
   4 -13   6   16.38    0.85
  -9  -3  -6    4.55    0.36
  12  -9  -6    4.22    0.28
   3 -12   6    4.29    0.35
  -2  11  -6    0.03    0.10
  -9  -2  -6    0.09    0.12
  11  -9  -6    0.36    0.10
   2 -11   6    0.12    0.12
  -9  -1  -6    1.09    0.19
  -1  10  -6    1.04    0.18
  10  -9  -6    1.41    0.14
   1 -10   6    1.05    0.21
   9  -9  -6   12.33    0.55
   0   9  -6   11.97    0.63
  -9   0  -6   12.08    0.64
   0  -9   6   11.98    0.64
  -9   1  -6   13.73    0.69
   1   8  -6   14.12    0.69
   8  -9  -6   13.60    0.59
  -1  -8   6   13.96    0.70
   9  -1   6   12.46    0.67
   2   7  -6   17.73    0.84
  -9   2  -6   17.52    0.84
   7  -9  -6   17.11    0.73
   7  -9  -6   17.01    0.73
   9  -2   6   17.20    0.83
  -2  -7   6   17.82    0.84
   3   6  -6   10.40    0.56
  -9   3  -6   11.31    0.58
  -3  -6   6   10.30    0.56
   9  -3   6   10.03    0.55
  -9   4  -6    1.60    0.20
   4   5  -6    1.69    0.20
  -4  -5   6    1.76    0.22
   9  -4   6    1.65    0.21
  -9   5  -6    1.52    0.20
   5   4  -6    1.74    0.21
  -5  -4   6    1.45    0.19
   9  -5   6    2.07    0.23
   6   3  -6   10.46    0.55
   3  -9  -6   10.02    0.45
   3  -9  -6   10.41    0.45
  -9   6  -6   10.82    0.56
   9  -6   6   10.00    0.55
  -6  -3   6    9.64    0.54
   2  -9  -6   17.53    0.75
   7   2  -6   17.41    0.83
  -9   7  -6   17.70    0.84
  -7  -2   6   16.20    0.82
   9  -7   6   17.86    0.85
   1  -9  -6   13.81    0.60
  -9   8  -6   12.93    0.67
   8   1  -6   12.64    0.67
   9  -8   6   13.36    0.69
   9   0  -6   12.64    0.63
  -9   9  -6   12.28    0.64
   0  -9  -6   12.50    0.57
   9  -9   6   10.69    0.63
  -9  10  -6    1.03    0.18
  10  -1  -6    1.08    0.17
  -1  -9  -6    1.13    0.15
   9 -10   6    1.21    0.19
  -2  -9  -6    0.02    0.09
  11  -2  -6    0.05    0.11
  -9  11  -6   -0.17    0.09
   9 -11   6    0.16    0.13
  12  -3  -6    3.91    0.33
  -3  -9  -6    4.35    0.30
   9 -12   6    3.58    0.34
  -4  -9  -6   16.25    0.79
  13  -4  -6   16.71    0.82
   9 -13   6   15.56    0.84
  14  -5  -6    3.10    0.30
  -5  -9  -6    3.08    0.29
   9 -14   6    3.05    0.34
  15  -6  -6    4.32    0.35
  -6  -9  -6    3.80    0.34
   9 -15   6    3.12    0.34
   5 -15   6    0.03    0.14
  14 -10  -6   40.18    1.75
 -10  -4  -6   40.28    1.82
   4 -14   6   40.71    1.83
 -10  -3  -6    6.57    0.47
  13 -10  -6    6.53    0.38
   3 -13   6    7.21    0.47
  12 -10  -6    9.32    0.49
 -10  -2  -6   10.30    0.58
   2 -12   6   10.27    0.59
  11 -10  -6    4.81    0.27
 -10  -1  -6    4.67    0.37
  -1  11  -6    5.07    0.37
   1 -11   6    4.52    0.37
  10 -10  -6   16.87    0.74
 -10   0  -6   17.60    0.85
   0  10  -6   17.26    0.85
   0 -10   6   16.37    0.85
 -10   1  -6    1.50    0.22
   1   9  -6    1.14    0.19
   9 -10  -6    1.30    0.11
  -1  -9   6    0.91    0.18
 -10   2  -6   82.83    3.48
   2   8  -6   83.41    3.48
  -2  -8   6   83.32    3.48
  10  -2   6   80.49    3.47
   3   7  -6    9.26    0.51
 -10   3  -6    9.59    0.52
  -3  -7   6    7.94    0.50
  10  -3   6    8.59    0.50
   4   6  -6   19.25    0.92
 -10   4  -6   19.57    0.93
  10  -4   6   18.92    0.92
  -4  -6   6   19.17    0.92
   5   5  -6    2.04    0.23
 -10   5  -6    1.96    0.23
  -5  -5   6    2.18    0.23
  10  -5   6    1.77    0.22
   6   4  -6   19.93    0.92
 -10   6  -6   19.17    0.92
  10  -6   6   19.06    0.92
  -6  -4   6   18.23    0.91
   3 -10  -6    8.99    0.38
   7   3  -6    8.94    0.50
 -10   7  -6    8.54    0.50
  10  -7   6    8.37    0.50
  -7  -3   6    8.25    0.49
   8   2  -6   87.10    3.59
   2 -10  -6   85.89    3.49
 -10   8  -6   85.00    3.59
  10  -8   6   83.26    3.60
   9   1  -6    1.12    0.18
 -10   9  -6    0.95    0.17
   1 -10  -6    1.24    0.13
  10  -9   6    1.17    0.21
  10   0  -6   17.08    0.85
 -10  10  -6   17.61    0.85
   0 -10  -6   17.09    0.77
  10 -10   6   16.75    0.86
  11  -1  -6    4.71    0.36
 -10  11  -6    4.76    0.36
  -1 -10  -6    4.82    0.30
  10 -11   6    4.63    0.38
  -2 -10  -6   10.44    0.53
  12  -2  -6    9.90    0.58
  10 -12   6    9.79    0.59
  -3 -10  -6    7.07    0.41
  13  -3  -6    6.37    0.45
  10 -13   6    6.54    0.47
  -4 -10  -6   38.84    1.76
  14  -4  -6   40.61    1.80
  10 -14   6   40.97    1.82
 -11  -3  -6    2.19    0.28
  14 -11  -6    2.32    0.22
   3 -14   6    1.65    0.26
  13 -11  -6    4.20    0.28
 -11  -2  -6    4.50    0.38
   2 -13   6    4.49    0.38
  12 -11  -6    4.92    0.28
 -11  -1  -6    5.38    0.40
   1 -12   6    4.75    0.39
   0  11  -6   14.07    0.74
 -11   0  -6   14.72    0.76
  11 -11  -6   13.92    0.63
   0 -11   6   14.25    0.75
   1  10  -6    4.50    0.35
  10 -11  -6    4.46    0.22
 -11   1  -6    4.62    0.36
  -1 -10   6    4.43    0.36
   2   9  -6    0.13    0.12
 -11   2  -6   -0.08    0.12
  -2  -9   6    0.33    0.15
  11  -2   6    0.04    0.11
   3   8  -6    0.85    0.17
 -11   3  -6    0.67    0.17
  -3  -8   6    1.06    0.19
  11  -3   6    1.28    0.19
 -11   4  -6    8.09    0.49
   4   7  -6    8.66    0.49
  -4  -7   6    8.01    0.49
  11  -4   6    7.58    0.48
   5   6  -6   13.79    0.71
 -11   5  -6   13.81    0.71
  11  -5   6   13.76    0.71
  -5  -6   6   13.28    0.71
   6   5  -6   13.12    0.69
 -11   6  -6   13.58    0.70
  -6  -5   6   12.99    0.69
  11  -6   6   13.31    0.69
 -11   7  -6    7.89    0.48
   7   4  -6    8.66    0.49
  11  -7   6    8.09    0.49
  -7  -4   6    8.03    0.48
 -11   8  -6    1.10    0.18
   8   3  -6    1.16    0.20
  11  -8   6    1.13    0.21
   2 -11  -6    0.21    0.07
   9   2  -6    0.23    0.13
 -11   9  -6    0.18    0.12
  11  -9   6   -0.06    0.12
  10   1  -6    5.36    0.38
 -11  10  -6    4.66    0.36
   1 -11  -6    5.24    0.28
  11 -10   6    5.05    0.39
  11   0  -6   14.99    0.77
   0 -11  -6   14.96    0.69
  11 -11   6   14.58    0.78
  12  -1  -6    4.96    0.39
  -1 -11  -6    5.34    0.32
  11 -12   6    4.97    0.41
  13  -2  -6    5.01    0.38
  -2 -11  -6    4.32    0.31
  11 -13   6    4.79    0.40
  -3 -11  -6    2.73    0.26
  14  -3  -6    2.04    0.27
  11 -14   6    1.78    0.26
  14 -12  -6    4.67    0.29
 -12  -2  -6    4.67    0.40
   2 -14   6    4.52    0.40
  13 -12  -6    0.39    0.09
 -12  -1  -6    0.39    0.16
   1 -13   6    0.20    0.15
  12 -12  -6   41.77    1.78
 -12   0  -6   45.24    1.93
   0 -12   6   41.77    1.91
 -12   1  -6    5.76    0.42
  -1 -11   6    5.31    0.41
   2  10  -6    9.63    0.56
 -12   2  -6    9.43    0.57
  -2 -10   6    9.54    0.57
 -12   3  -6    4.15    0.35
   3   9  -6    3.89    0.33
  -3  -9   6    4.01    0.35
  12  -3   6    3.83    0.32
 -12   4  -6   12.14    0.67
   4   8  -6   12.54    0.66
  -4  -8   6   12.23    0.67
  12  -4   6   11.96    0.66
   5   7  -6    4.50    0.36
 -12   5  -6    5.03    0.38
  -5  -7   6    4.53    0.36
  12  -5   6    4.87    0.37
 -12   6  -6   67.73    2.92
   6   6  -6   70.92    2.93
  12  -6   6   68.65    2.93
  -6  -6   6   66.32    2.92
 -12   7  -6    4.78    0.37
   7   5  -6    5.14    0.37
  12  -7   6    5.10    0.38
  -7  -5   6    4.79    0.37
 -12   8  -6   12.62    0.67
   8   4  -6   11.87    0.66
  12  -8   6   12.69    0.68
   9   3  -6    4.10    0.35
 -12   9  -6    3.90    0.33
  12  -9   6    4.03    0.35
 -12  10  -6    8.88    0.54
   2 -12  -6    9.50    0.44
  10   2  -6    9.97    0.57
  12 -10   6    9.59    0.57
   1 -12  -6    5.32    0.30
  11   1  -6    5.43    0.41
  12 -11   6    5.53    0.42
  12   0  -6   46.99    2.01
   0 -12  -6   43.75    1.90
  12 -12   6   44.26    2.01
  13  -1  -6    0.35    0.16
  -1 -12  -6    0.33    0.11
  12 -13   6    0.22    0.16
  14  -2  -6    4.93    0.40
  -2 -12  -6    5.10    0.33
  12 -14   6    4.44    0.40
  13 -13  -6    0.15    0.06
 -13   0  -6    0.12    0.15
   0 -13   6    0.36    0.17
 -13   1  -6    0.21    0.16
  -1 -12   6    0.43    0.18
 -13   2  -6    4.84    0.39
  -2 -11   6    4.29    0.38
   3  10  -6    6.66    0.44
 -13   3  -6    6.97    0.46
  -3 -10   6    5.86    0.45
 -13   4  -6   15.87    0.82
   4   9  -6   16.30    0.82
  -4  -9   6   15.68    0.82
  13  -4   6   15.04    0.81
 -13   5  -6    4.48    0.36
   5   8  -6    4.21    0.35
  13  -5   6    3.68    0.34
  -5  -8   6    3.86    0.35
 -13   6  -6    0.24    0.15
   6   7  -6    0.22    0.13
  13  -6   6    0.25    0.14
  -6  -7   6   -0.01    0.12
   7   6  -6    0.17    0.13
 -13   7  -6   -0.06    0.11
  -7  -6   6    0.21    0.14
  13  -7   6    0.12    0.13
   8   5  -6    4.51    0.37
 -13   8  -6    4.32    0.36
  13  -8   6    4.88    0.38
   9   4  -6   16.20    0.83
 -13   9  -6   15.51    0.82
  13  -9   6   16.56    0.84
  10   3  -6    6.84    0.45
  13 -10   6    6.01    0.45
   2 -13  -6    4.02    0.23
  11   2  -6    4.24    0.36
  13 -11   6    3.98    0.37
  12   1  -6    0.41    0.17
   1 -13  -6    0.23    0.09
  13 -12   6    0.22    0.16
  13   0  -6    0.12    0.15
   0 -13  -6   -0.01    0.08
  13 -13   6    0.15    0.16
 -14   2  -6    4.91    0.41
  -2 -12   6    4.99    0.42
 -14   3  -6    1.49    0.23
  -3 -11   6    2.51    0.30
 -14   4  -6   37.59    1.72
  -4 -10   6   38.09    1.73
   5   9  -6    2.00    0.26
 -14   5  -6    2.86    0.30
  14  -5   6    2.59    0.29
  -5  -9   6    3.12    0.34
   6   8  -6    7.48    0.50
 -14   6  -6    8.41    0.52
  -6  -8   6    7.91    0.51
  14  -6   6    8.01    0.52
   7   7  -6    2.64    0.29
 -14   7  -6    2.99    0.32
  14  -7   6    2.21    0.28
  -7  -7   6    2.88    0.32
   8   6  -6    7.52    0.49
 -14   8  -6    7.22    0.48
  14  -8   6    7.67    0.50
   9   5  -6    2.85    0.30
  14  -9   6    2.60    0.31
  10   4  -6   40.46    1.84
  14 -10   6   40.98    1.85
  11   3  -6    2.20    0.28
  14 -11   6    1.72    0.26
  12   2  -6    5.17    0.41
   2 -14  -6    4.45    0.24
  14 -12   6    4.61    0.41
  -5 -10   6    0.08    0.15
 -15   6  -6    4.49    0.39
   6   9  -6    4.25    0.39
  -6  -9   6    3.98    0.38
  15  -6   6    4.13    0.38
 -15   7  -6    7.21    0.50
   7   8  -6    7.76    0.51
  15  -7   6    7.97    0.52
  -7  -8   6    7.10    0.50
   8   7  -6    7.76    0.52
  15  -8   6    7.96    0.53
   9   6  -6    4.98    0.39
  15  -9   6    4.03    0.39
   0   0  -7    0.63    0.12
   0   0   7    0.42    0.09
   0   1  -7   20.00    0.88
  -1   0  -7   20.27    0.88
   1  -1  -7   19.29    0.87
   1   0   7   19.05    0.86
   0  -1   7   18.68    0.86
   0  -1   7   18.44    0.86
   0  -1  -7   18.56    0.86
   1   0  -7   19.79    0.87
  -1   1  -7   19.16    0.87
  -1   0   7   18.11    0.85
   1  -1   7   19.37    0.86
   2  -1  -7    0.00    0.07
  -1   2  -7    0.08    0.09
  -1  -1  -7    0.02    0.07
   1  -2   7    0.06    0.07
   3  -2  -7   19.02    0.84
  -2  -1  -7   18.10    0.84
  -1   3  -7   18.02    0.86
   1  -3   7   18.68    0.85
  -2   0  -7   26.27    1.15
   2  -2  -7   25.65    1.13
   0   2  -7   26.58    1.16
   2   0   7   25.81    1.13
   0  -2   7   26.41    1.14
   0  -2   7   24.71    1.14
  -2   1  -7    0.05    0.09
   1  -2  -7    0.00    0.07
   1   1  -7   -0.01    0.08
  -1  -1   7    0.10    0.07
   2  -1   7    0.02    0.07
  -2   2  -7   27.52    1.17
   0  -2  -7   26.10    1.15
   2   0  -7   26.69    1.16
   2  -2   7   25.85    1.15
  -2   0   7   25.10    1.14
  -2   3  -7   18.76    0.86
  -1  -2  -7   18.35    0.84
   3  -1  -7   18.55    0.84
   2  -3   7   18.21    0.85
  -2   4  -7    0.24    0.10
  -2  -2  -7    0.24    0.09
   4  -2  -7    0.42    0.09
   2  -4   7    0.31    0.10
  -3  -2  -7   11.11    0.56
   5  -3  -7   11.16    0.55
  -2   5  -7   11.16    0.59
   2  -5   7   12.22    0.59
  -3  -1  -7   18.60    0.88
   4  -3  -7   19.34    0.86
  -1   4  -7   19.24    0.89
   1  -4   7   19.30    0.88
   3  -3  -7    5.12    0.29
   0   3  -7    4.37    0.31
  -3   0  -7    5.25    0.32
   3   0   7    4.76    0.29
   0  -3   7    4.75    0.30
   0  -3   7    4.88    0.30
   2  -3  -7   18.69    0.84
   1   2  -7   19.40    0.87
  -3   1  -7   19.04    0.87
  -1  -2   7   18.49    0.86
   3  -1   7   18.26    0.85
  -3   2  -7   18.65    0.86
   1  -3  -7   19.08    0.84
   2   1  -7   19.70    0.86
  -2  -1   7   17.29    0.84
   3  -2   7   18.24    0.85
   3   0  -7    4.85    0.30
   0  -3  -7    4.74    0.29
  -3   3  -7    5.18    0.32
  -3   0   7    4.31    0.29
   3  -3   7    4.84    0.31
   4  -1  -7   18.79    0.87
  -1  -3  -7   19.30    0.87
  -3   4  -7   19.60    0.90
   3  -4   7   18.97    0.88
  -2  -3  -7   11.02    0.55
  -3   5  -7   11.06    0.57
   5  -2  -7   10.64    0.54
   3  -5   7   11.66    0.57
   6  -3  -7    0.00    0.07
  -3  -3  -7    0.00    0.07
  -3   6  -7    0.28    0.11
   3  -6   7    0.16    0.10
   7  -4  -7   21.62    0.95
  -4  -3  -7   21.34    0.97
  -3   7  -7   21.02    0.99
   3  -7   7   20.61    0.99
  -4  -2  -7   20.08    0.96
   6  -4  -7   21.78    0.94
  -2   6  -7   21.25    0.98
   2  -6   7   21.22    0.98
  -4  -1  -7    0.62    0.13
  -1   5  -7    0.77    0.14
   5  -4  -7    0.80    0.12
   1  -5   7    0.85    0.15
   1  -5   7    1.09    0.16
   4  -4  -7   25.04    1.07
  -4   0  -7   24.78    1.10
   0   4  -7   25.49    1.11
   4   0   7   23.42    1.08
   0  -4   7   24.01    1.10
   0  -4   7   24.23    1.10
   3  -4  -7   19.39    0.85
  -4   1  -7   20.02    0.90
   1   3  -7   19.81    0.90
   4  -1   7   18.33    0.87
  -1  -3   7   18.62    0.88
  -4   2  -7    0.31    0.10
   4  -2   7    0.35    0.10
   1  -4  -7   19.36    0.83
  -4   3  -7   18.85    0.87
   3   1  -7   18.88    0.86
   4  -3   7   18.52    0.86
  -3  -1   7   17.39    0.84
   4   0  -7   24.71    1.09
   0  -4  -7   23.84    1.07
  -4   4  -7   25.45    1.11
   4  -4   7   23.82    1.10
  -1  -4  -7    1.19    0.14
  -4   5  -7    0.81    0.16
   5  -1  -7    1.18    0.16
   4  -5   7    0.70    0.14
  -2  -4  -7   22.22    0.98
  -4   6  -7   22.06    1.01
   6  -2  -7   21.46    0.98
   4  -6   7   20.92    1.00
  -4   7  -7   21.51    1.00
  -3  -4  -7   21.31    0.97
   7  -3  -7   21.36    0.97
   4  -7   7   21.31    1.00
   8  -4  -7    0.26    0.10
  -4   8  -7    0.23    0.12
  -4  -4  -7    0.22    0.11
   4  -8   7    0.17    0.12
  -5  -4  -7    4.44    0.31
  -4   9  -7    4.25    0.33
   9  -5  -7    4.23    0.29
   4  -9   7    4.04    0.33
  -3   8  -7    6.88    0.43
   8  -5  -7    7.19    0.39
  -5  -3  -7    6.80    0.41
   3  -8   7    7.13    0.43
  -2   7  -7    2.78    0.27
  -5  -2  -7    2.75    0.24
   7  -5  -7    2.46    0.20
   2  -7   7    2.91    0.26
   2  -7   7    2.42    0.25
  -5  -1  -7   15.79    0.74
  -1   6  -7   15.74    0.75
   6  -5  -7   15.62    0.70
   1  -6   7   14.34    0.74
   1  -6   7   14.32    0.73
  -5   0  -7   18.11    0.84
   5  -5  -7   17.85    0.79
   0   5  -7   17.57    0.84
   0  -5   7   17.21    0.83
   1   4  -7    0.62    0.14
   4  -5  -7    0.86    0.11
  -5   1  -7    0.97    0.16
  -1  -4   7    0.70    0.13
   5  -1   7    1.03    0.15
   2   3  -7   11.01    0.57
  -5   2  -7   11.21    0.57
   3  -5  -7   11.30    0.52
   5  -2   7   10.42    0.55
  -2  -3   7   11.07    0.56
  -5   3  -7   11.32    0.58
   2  -5  -7   11.46    0.52
   3   2  -7   10.38    0.56
  -3  -2   7   10.67    0.55
   5  -3   7   11.16    0.56
   4   1  -7    0.94    0.14
  -5   4  -7    1.13    0.17
   1  -5  -7    0.96    0.12
  -4  -1   7    0.73    0.13
   5  -4   7    0.78    0.14
   0  -5  -7   18.19    0.80
   5   0  -7   17.22    0.82
  -5   5  -7   17.70    0.84
   5  -5   7   17.33    0.84
  -5   6  -7   15.45    0.74
  -1  -5  -7   14.94    0.70
   6  -1  -7   14.92    0.72
   5  -6   7   14.64    0.73
  -5   7  -7    2.91    0.26
  -2  -5  -7    2.56    0.22
   7  -2  -7    2.75    0.23
   5  -7   7    2.17    0.24
  -3  -5  -7    7.42    0.40
   8  -3  -7    7.03    0.40
  -5   8  -7    7.38    0.44
   5  -8   7    6.74    0.43
   9  -4  -7    4.42    0.30
  -5   9  -7    4.40    0.33
  -4  -5  -7    4.21    0.30
   5  -9   7    3.80    0.32
  -5  -5  -7    0.06    0.10
  -5  10  -7   -0.07    0.10
  10  -5  -7   -0.11    0.09
   5 -10   7   -0.12    0.10
  11  -6  -7    9.36    0.51
  -6  -5  -7    9.10    0.53
  -5  11  -7    9.11    0.54
   5 -11   7    9.39    0.55
  -4  10  -7   13.09    0.69
  10  -6  -7   12.78    0.64
  -6  -4  -7   13.01    0.67
   4 -10   7   13.51    0.70
   9  -6  -7    1.66    0.18
  -3   9  -7    1.61    0.21
  -6  -3  -7    1.78    0.22
   3  -9   7    1.83    0.23
   3  -9   7    1.90    0.24
  -2   8  -7   14.61    0.73
  -6  -2  -7   14.97    0.72
   8  -6  -7   14.32    0.67
   2  -8   7   13.81    0.72
   2  -8   7   14.28    0.72
   7  -6  -7    9.02    0.45
  -6  -1  -7    9.49    0.51
  -1   7  -7    9.21    0.51
   1  -7   7    8.86    0.51
   1  -7   7    9.01    0.51
  -6   0  -7    0.29    0.12
   6  -6  -7    0.43    0.09
   0   6  -7    0.65    0.15
   0  -6   7    0.48    0.12
   1   5  -7   15.41    0.74
  -6   1  -7   15.35    0.74
   5  -6  -7   15.47    0.68
   6  -1   7   14.60    0.72
  -1  -5   7   14.32    0.73
   2   4  -7   22.05    1.00
  -6   2  -7   21.78    1.00
   4  -6  -7   21.60    0.93
   6  -2   7   21.58    0.98
  -2  -4   7   20.39    0.98
  -6   3  -7    0.58    0.14
   3  -6  -7   -0.01    0.06
   3   3  -7    0.15    0.10
   6  -3   7    0.04    0.08
  -3  -3   7   -0.09    0.08
  -6   4  -7   21.40    0.99
   2  -6  -7   21.68    0.92
   4   2  -7   21.61    0.98
  -4  -2   7   20.00    0.96
   6  -4   7   20.96    0.98
   5   1  -7   14.99    0.74
  -6   5  -7   15.67    0.76
   1  -6  -7   15.53    0.70
   6  -5   7   15.66    0.76
   0  -6  -7    0.52    0.10
  -6   6  -7    0.80    0.16
   6   0  -7    0.60    0.13
   6  -6   7    0.33    0.12
   7  -1  -7    9.49    0.50
  -6   7  -7    9.00    0.51
  -1  -6  -7    8.87    0.46
   6  -7   7    8.97    0.51
  -2  -6  -7   14.87    0.70
   8  -2  -7   14.04    0.71
  -6   8  -7   14.90    0.74
   6  -8   7   15.08    0.74
  -3  -6  -7    1.49    0.18
  -6   9  -7    1.64    0.22
   9  -3  -7    1.22    0.18
   6  -9   7    1.77    0.23
  -6  10  -7   13.13    0.69
  -4  -6  -7   13.58    0.67
  10  -4  -7   12.73    0.66
   6 -10   7   13.42    0.70
  -6  11  -7    8.95    0.54
  11  -5  -7    9.38    0.52
  -5  -6  -7    9.67    0.53
   6 -11   7    9.59    0.56
  -6  -6  -7    0.04    0.12
  12  -6  -7    0.19    0.12
   6 -12   7   -0.20    0.11
  13  -7  -7    4.20    0.32
  -7  -6  -7    4.51    0.36
   6 -13   7    3.83    0.36
  12  -7  -7    8.24    0.46
  -7  -5  -7    7.66    0.49
   5 -12   7    7.78    0.51
   5 -12   7    8.32    0.52
  -7  -4  -7    3.93    0.32
  11  -7  -7    3.63    0.27
  -4  11  -7    3.34    0.31
   4 -11   7    3.41    0.32
   4 -11   7    3.24    0.32
  -3  10  -7    7.78    0.48
  10  -7  -7    7.95    0.43
  -7  -3  -7    7.55    0.47
   3 -10   7    7.49    0.48
   3 -10   7    8.06    0.49
  -7  -2  -7   15.08    0.74
   9  -7  -7   15.29    0.69
  -2   9  -7   14.01    0.74
   2  -9   7   14.51    0.75
   2  -9   7   13.95    0.74
  -1   8  -7    1.25    0.19
  -7  -1  -7    1.64    0.21
   8  -7  -7    1.29    0.14
   1  -8   7    1.24    0.19
   7  -7  -7    8.38    0.40
   0   7  -7    8.39    0.48
  -7   0  -7    8.08    0.47
   0  -7   7    7.56    0.47
   1   6  -7    8.36    0.49
  -7   1  -7    8.46    0.49
   6  -7  -7    8.69    0.41
  -1  -6   7    8.26    0.48
   2   5  -7    2.63    0.25
   5  -7  -7    2.09    0.16
  -7   2  -7    2.58    0.25
   7  -2   7    2.39    0.22
  -2  -5   7    2.68    0.26
   3   4  -7   21.23    0.98
  -7   3  -7   21.14    0.98
   4  -7  -7   22.06    0.90
   7  -3   7   20.65    0.97
  -3  -4   7   19.07    0.96
  -7   4  -7   21.71    0.97
   3  -7  -7   20.83    0.89
   4   3  -7   20.05    0.96
   7  -4   7   20.23    0.96
  -4  -3   7   20.02    0.95
  -7   5  -7    2.15    0.23
   5   2  -7    2.29    0.23
   2  -7  -7    2.43    0.17
   7  -5   7    2.44    0.24
   6   1  -7    8.32    0.47
   1  -7  -7    8.85    0.42
  -7   6  -7    8.18    0.48
   7  -6   7    8.21    0.48
   0  -7  -7    8.51    0.42
  -7   7  -7    8.34    0.48
   7   0  -7    7.78    0.46
   7  -7   7    7.67    0.47
  -1  -7  -7    1.55    0.17
  -7   8  -7    1.35    0.20
   8  -1  -7    1.15    0.17
   7  -8   7    1.50    0.20
  -2  -7  -7   14.89    0.69
  -7   9  -7   14.44    0.74
   9  -2  -7   14.95    0.73
   7  -9   7   13.70    0.74
  10  -3  -7    7.85    0.47
  -7  10  -7    7.92    0.49
  -3  -7  -7    7.94    0.44
   7 -10   7    8.05    0.50
  -4  -7  -7    3.49    0.28
  -7  11  -7    3.13    0.30
  11  -4  -7    3.10    0.28
   7 -11   7    3.33    0.32
  12  -5  -7    8.91    0.50
  -5  -7  -7    7.97    0.48
   7 -12   7    8.07    0.52
  13  -6  -7    4.25    0.33
  -6  -7  -7    4.03    0.34
   7 -13   7    4.03    0.37
  -7  -7  -7    0.12    0.13
  14  -7  -7    0.11    0.13
   7 -14   7    0.15    0.15
   6 -14   7    7.30    0.51
  13  -8  -7    1.65    0.21
  -8  -5  -7    1.73    0.24
   5 -13   7    1.84    0.26
   5 -13   7    1.46    0.24
  -8  -4  -7   10.21    0.57
  12  -8  -7    9.40    0.51
   4 -12   7    9.50    0.57
   4 -12   7    9.21    0.57
  11  -8  -7    6.19    0.36
  -3  11  -7    6.23    0.42
  -8  -3  -7    6.07    0.42
   3 -11   7    6.08    0.43
   3 -11   7    5.34    0.42
  10  -8  -7    0.20    0.09
  -2  10  -7    0.16    0.12
  -8  -2  -7    0.36    0.14
   2 -10   7    0.20    0.13
  -8  -1  -7   12.06    0.63
   9  -8  -7   12.14    0.56
  -1   9  -7   11.19    0.63
   1  -9   7   11.17    0.63
   0   8  -7   19.68    0.96
   8  -8  -7   20.06    0.87
  -8   0  -7   20.28    0.96
   0  -8   7   19.52    0.96
   7  -8  -7    1.24    0.12
   1   7  -7    1.51    0.21
  -8   1  -7    1.36    0.19
  -1  -7   7    1.27    0.19
   6  -8  -7   14.80    0.65
   2   6  -7   15.02    0.75
  -8   2  -7   15.28    0.75
  -2  -6   7   14.18    0.74
  -8   3  -7    7.19    0.44
   3   5  -7    7.41    0.44
   5  -8  -7    7.40    0.34
   8  -3   7    7.18    0.43
  -3  -5   7    7.11    0.43
   4   4  -7    0.06    0.11
  -8   4  -7    0.24    0.12
   4  -8  -7    0.02    0.05
  -4  -4   7    0.11    0.11
   8  -4   7    0.29    0.12
  -8   5  -7    7.53    0.44
   5   3  -7    7.18    0.43
   3  -8  -7    7.08    0.34
  -5  -3   7    6.54    0.43
   8  -5   7    7.29    0.44
   6   2  -7   14.99    0.74
  -8   6  -7   14.40    0.74
   2  -8  -7   14.96    0.66
   8  -6   7   15.11    0.75
   7   1  -7    1.52    0.20
   1  -8  -7    1.49    0.15
  -8   7  -7    1.23    0.19
   8  -7   7    1.30    0.19
  -8   8  -7   20.88    0.99
   0  -8  -7   20.91    0.92
   8   0  -7   20.26    0.97
   8  -8   7   20.39    0.99
   9  -1  -7   11.71    0.62
  -8   9  -7   11.48    0.63
  -1  -8  -7   11.23    0.56
   8  -9   7   11.88    0.64
  -8  10  -7    0.38    0.14
  -2  -8  -7    0.24    0.11
  10  -2  -7    0.14    0.13
   8 -10   7    0.27    0.15
  11  -3  -7    5.69    0.40
  -8  11  -7    5.60    0.42
  -3  -8  -7    6.75    0.38
   8 -11   7    5.92    0.43
  -4  -8  -7    9.94    0.55
  12  -4  -7   10.27    0.57
   8 -12   7    9.83    0.59
  -5  -8  -7    1.99    0.23
  13  -5  -7    1.82    0.24
   8 -13   7    1.35    0.25
  13  -9  -7    5.76    0.36
  -9  -4  -7    6.49    0.44
   4 -13   7    5.07    0.42
  12  -9  -7   -0.05    0.09
  -9  -3  -7   -0.09    0.13
   3 -12   7    0.01    0.13
  -9  -2  -7    3.46    0.32
  -2  11  -7    3.29    0.31
  11  -9  -7    3.25    0.23
   2 -11   7    2.64    0.30
  -1  10  -7    9.07    0.54
  -9  -1  -7    9.54    0.55
  10  -9  -7    9.46    0.46
   1 -10   7    8.95    0.55
   9  -9  -7    4.26    0.25
   0   9  -7    4.50    0.35
  -9   0  -7    4.78    0.36
   0  -9   7    4.00    0.35
   1   8  -7   11.41    0.63
   8  -9  -7   11.69    0.52
  -9   1  -7   12.26    0.64
  -1  -8   7   11.07    0.62
  -9   2  -7   14.42    0.73
   7  -9  -7   14.34    0.61
   2   7  -7   13.85    0.73
  -2  -7   7   13.73    0.72
   3   6  -7    1.62    0.22
  -9   3  -7    1.50    0.22
   6  -9  -7    1.56    0.11
   9  -3   7    0.96    0.17
  -3  -6   7    1.37    0.19
   5  -9  -7    4.25    0.21
  -9   4  -7    4.42    0.33
   4   5  -7    4.18    0.33
  -4  -5   7    4.21    0.33
   9  -4   7    4.36    0.33
   4  -9  -7    4.32    0.22
  -9   5  -7    4.15    0.33
   5   4  -7    4.34    0.33
  -5  -4   7    4.94    0.34
   9  -5   7    4.65    0.34
   6   3  -7    1.81    0.23
  -9   6  -7    1.78    0.23
   3  -9  -7    1.43    0.12
   9  -6   7    1.35    0.20
   7   2  -7   13.99    0.72
  -9   7  -7   14.13    0.73
   2  -9  -7   14.41    0.63
   9  -7   7   14.14    0.73
   8   1  -7   11.42    0.62
  -9   8  -7   10.91    0.62
   1  -9  -7   12.11    0.54
   9  -8   7   11.42    0.63
   0  -9  -7    4.45    0.27
   9   0  -7    4.60    0.35
  -9   9  -7    4.25    0.35
   9  -9   7    4.59    0.36
  -1  -9  -7    9.67    0.48
  10  -1  -7    9.72    0.55
  -9  10  -7    9.05    0.54
   9 -10   7    8.72    0.55
  -2  -9  -7    3.56    0.26
  11  -2  -7    3.10    0.31
  -9  11  -7    3.35    0.32
   9 -11   7    3.35    0.33
  -3  -9  -7   -0.03    0.10
  12  -3  -7    0.12    0.13
   9 -12   7    0.02    0.13
  -4  -9  -7    5.79    0.39
  13  -4  -7    6.06    0.42
   9 -13   7    6.28    0.45
  13 -10  -7    4.68    0.31
 -10  -3  -7    5.06    0.41
   3 -13   7    4.50    0.40
  12 -10  -7   10.62    0.52
 -10  -2  -7   11.26    0.63
   2 -12   7    9.94    0.62
  11 -10  -7    1.35    0.14
  -1  11  -7    1.38    0.21
 -10  -1  -7    1.22    0.22
   1 -11   7    0.97    0.20
  10 -10  -7   11.92    0.55
   0  10  -7   12.46    0.68
 -10   0  -7   12.66    0.68
   0 -10   7   12.40    0.68
   9 -10  -7    9.05    0.42
 -10   1  -7    9.84    0.56
   1   9  -7    9.47    0.55
  -1  -9   7    8.85    0.54
   2   8  -7    0.10    0.13
 -10   2  -7    0.37    0.14
  -2  -8   7    0.32    0.14
   3   7  -7    7.99    0.48
 -10   3  -7    7.63    0.48
  -3  -7   7    7.41    0.47
 -10   4  -7   13.67    0.70
   4   6  -7   12.98    0.69
  10  -4   7   12.66    0.68
  -4  -6   7   12.98    0.69
   5   5  -7   -0.06    0.11
 -10   5  -7    0.01    0.12
  -5  -5   7    0.24    0.13
  10  -5   7   -0.19    0.09
 -10   6  -7   13.45    0.70
   6   4  -7   13.10    0.69
  10  -6   7   13.21    0.70
   3 -10  -7    7.42    0.34
 -10   7  -7    7.13    0.47
   7   3  -7    7.87    0.47
  10  -7   7    7.56    0.48
 -10   8  -7    0.21    0.13
   8   2  -7    0.35    0.14
   2 -10  -7    0.17    0.07
  10  -8   7    0.19    0.14
   1 -10  -7    9.32    0.45
   9   1  -7    8.94    0.54
 -10   9  -7    9.04    0.54
  10  -9   7    9.83    0.56
   0 -10  -7   12.65    0.60
  10   0  -7   13.70    0.70
 -10  10  -7   12.78    0.69
  10 -10   7   12.40    0.70
  -1 -10  -7    1.38    0.16
  11  -1  -7    1.05    0.21
  10 -11   7    1.15    0.21
  12  -2  -7   11.30    0.64
  -2 -10  -7   11.70    0.58
  10 -12   7   10.81    0.65
  13  -3  -7    5.09    0.40
  -3 -10  -7    4.85    0.34
  10 -13   7    4.86    0.41
  13 -11  -7    2.25    0.20
 -11  -2  -7    2.10    0.29
   2 -13   7    2.32    0.29
 -11  -1  -7    5.03    0.40
  12 -11  -7    4.87    0.28
   1 -12   7    4.51    0.40
  11 -11  -7    7.05    0.34
 -11   0  -7    7.42    0.49
   0  11  -7    7.07    0.48
   0 -11   7    6.75    0.48
   1  10  -7    1.38    0.22
 -11   1  -7    1.34    0.22
  -1 -10   7    1.06    0.22
 -11   2  -7    3.20    0.32
   2   9  -7    3.40    0.32
  -2  -9   7    3.04    0.31
   3   8  -7    6.03    0.41
 -11   3  -7    5.95    0.42
  -3  -8   7    5.05    0.40
 -11   4  -7    3.59    0.33
   4   7  -7    3.43    0.32
  -4  -7   7    3.10    0.31
   5   6  -7    9.45    0.54
 -11   5  -7    8.74    0.54
  11  -5   7    8.79    0.53
  -5  -6   7    9.15    0.54
 -11   6  -7    9.18    0.54
   6   5  -7    9.48    0.54
  11  -6   7    8.47    0.54
   7   4  -7    3.34    0.32
 -11   7  -7    3.62    0.32
  11  -7   7    3.67    0.33
 -11   8  -7    5.69    0.41
   8   3  -7    6.01    0.42
  11  -8   7    6.13    0.43
   9   2  -7    3.17    0.32
   2 -11  -7    3.00    0.19
 -11   9  -7    3.01    0.30
  11  -9   7    3.49    0.34
  10   1  -7    1.36    0.22
   1 -11  -7    1.41    0.14
 -11  10  -7    1.27    0.22
  11 -10   7    1.92    0.26
  11   0  -7    7.80    0.49
   0 -11  -7    6.93    0.38
  11 -11   7    7.38    0.50
  12  -1  -7    5.55    0.41
  -1 -11  -7    5.05    0.32
  11 -12   7    4.80    0.41
  -2 -11  -7    2.45    0.23
  13  -2  -7    2.43    0.30
  11 -13   7    1.73    0.27
 -12   0  -7    0.49    0.18
   0 -12   7    0.26    0.15
 -12   1  -7    5.48    0.42
  -1 -11   7    4.49    0.39
   2  10  -7   10.31    0.62
 -12   2  -7   10.67    0.63
  -2 -10   7   11.00    0.63
 -12   3  -7    0.18    0.14
   3   9  -7   -0.07    0.13
  -3  -9   7    0.18    0.14
   4   8  -7    9.26    0.57
 -12   4  -7   10.03    0.59
  -4  -8   7   10.16    0.59
 -12   5  -7    8.27    0.52
   5   7  -7    8.21    0.51
  -5  -7   7    7.91    0.51
   6   6  -7    0.32    0.15
 -12   6  -7    0.04    0.12
  12  -6   7    0.05    0.12
 -12   7  -7    7.28    0.49
   7   5  -7    8.80    0.52
  12  -7   7    7.47    0.50
 -12   8  -7    9.85    0.58
   8   4  -7    9.99    0.58
  12  -8   7    9.16    0.58
   9   3  -7    0.27    0.15
 -12   9  -7    0.15    0.13
  12  -9   7    0.01    0.13
  10   2  -7   10.71    0.62
   2 -12  -7   10.08    0.46
  12 -10   7   10.24    0.61
  11   1  -7    4.90    0.40
   1 -12  -7    4.90    0.27
  12 -11   7    4.61    0.41
   0 -12  -7    0.36    0.10
  12   0  -7    0.44    0.16
  12 -12   7    0.30    0.17
 -13   2  -7    2.93    0.34
  -2 -11   7    2.53    0.32
 -13   3  -7    5.34    0.42
   3  10  -7    5.17    0.40
  -3 -10   7    4.26    0.39
 -13   4  -7    5.21    0.42
   4   9  -7    5.57    0.42
  -4  -9   7    5.32    0.43
 -13   5  -7    1.30    0.23
   5   8  -7    1.64    0.25
  -5  -8   7    1.46    0.24
   6   7  -7    3.68    0.35
 -13   6  -7    4.17    0.36
   7   6  -7    3.83    0.35
 -13   7  -7    3.52    0.34
  13  -7   7    3.32    0.34
 -13   8  -7    1.55    0.23
   8   5  -7    1.60    0.25
  13  -8   7    1.85    0.26
   9   4  -7    5.75    0.43
 -13   9  -7    5.50    0.42
  13  -9   7    5.43    0.43
  10   3  -7    5.55    0.43
  13 -10   7    4.71    0.42
  11   2  -7    2.70    0.32
  13 -11   7    3.00    0.34
   7   7  -7    0.01    0.14
 -14   7  -7    0.01    0.13
   0   0  -8  110.59    4.58
   0   1  -8    0.89    0.15
  -1   0  -8    1.18    0.17
   1  -1  -8    0.85    0.15
   0  -1  -8    1.07    0.15
  -1   1  -8    0.87    0.15
   1   0  -8    0.85    0.15
  -1   2  -8    5.86    0.37
  -1  -1  -8    6.15    0.36
   2  -1  -8    5.72    0.35
  -2  -1  -8    0.11    0.09
  -1   3  -8    0.17    0.11
   3  -2  -8    0.18    0.10
   1  -3   8    0.13    0.10
   1  -3   8    0.00    0.09
   2  -2  -8   37.51    1.61
  -2   0  -8   37.65    1.63
   0   2  -8   36.53    1.63
   1   1  -8    6.06    0.37
  -2   1  -8    6.04    0.38
   1  -2  -8    6.33    0.36
   0  -2  -8   36.23    1.60
   2   0  -8   38.07    1.62
  -2   2  -8   37.01    1.63
   3  -1  -8    0.10    0.09
  -2   3  -8    0.12    0.11
  -1  -2  -8    0.00    0.09
   2  -3   8    0.20    0.11
   4  -2  -8   92.84    3.88
  -2   4  -8   96.54    3.91
  -2  -2  -8   93.55    3.88
   2  -4   8   90.59    3.89
  -2   5  -8    0.95    0.17
   5  -3  -8    0.64    0.13
  -3  -2  -8    0.58    0.13
   2  -5   8    0.82    0.15
   4  -3  -8    0.05    0.08
  -1   4  -8   -0.07    0.10
  -3  -1  -8    0.12    0.10
   1  -4   8    0.06    0.10
   1  -4   8    0.11    0.10
   3  -3  -8    2.37    0.21
   0   3  -8    2.60    0.25
  -3   0  -8    2.69    0.24
   1   2  -8    0.11    0.12
  -3   1  -8    0.09    0.10
   2  -3  -8    0.15    0.09
   1  -3  -8    0.15    0.09
   2   1  -8    0.20    0.11
  -3   2  -8    0.22    0.11
   3   0  -8    2.71    0.24
   0  -3  -8    2.81    0.23
  -3   3  -8    2.70    0.27
   3  -3   8    2.38    0.24
   4  -1  -8    0.11    0.09
  -3   4  -8    0.20    0.12
  -1  -3  -8   -0.02    0.09
   3  -4   8    0.20    0.10
  -2  -3  -8    0.65    0.14
  -3   5  -8    0.78    0.16
   5  -2  -8    0.73    0.14
   3  -5   8    0.58    0.14
   6  -3  -8    6.03    0.35
  -3  -3  -8    5.68    0.36
  -3   6  -8    5.41    0.39
   3  -6   8    5.73    0.38
  -4  -3  -8    1.68    0.20
  -3   7  -8    1.19    0.20
   7  -4  -8    1.57    0.18
   3  -7   8    1.66    0.21
   6  -4  -8   26.38    1.12
  -2   6  -8   25.25    1.16
  -4  -2  -8   24.22    1.14
   2  -6   8   24.24    1.15
   2  -6   8   24.77    1.15
   5  -4  -8    5.28    0.31
  -1   5  -8    4.73    0.35
  -4  -1  -8    5.08    0.34
   1  -5   8    4.95    0.34
   1  -5   8    4.88    0.34
  -4   0  -8   35.93    1.53
   4  -4  -8   34.77    1.49
   0   4  -8   34.98    1.54
   0  -4   8   32.83    1.52
  -4   1  -8    0.14    0.11
   1   3  -8    0.20    0.11
   3  -4  -8    0.06    0.08
   2  -4  -8   97.40    3.97
  -4   2  -8   97.08    4.01
   2   2  -8   93.50    4.00
  -4   3  -8    0.17    0.12
   1  -4  -8    0.10    0.09
   3   1  -8    0.18    0.11
   4   0  -8   35.59    1.54
  -4   4  -8   35.99    1.55
   0  -4  -8   35.31    1.51
   4  -4   8   32.86    1.53
  -4   5  -8    4.90    0.36
  -1  -4  -8    4.92    0.32
   5  -1  -8    4.99    0.33
   4  -5   8    5.20    0.35
   6  -2  -8   25.82    1.14
  -4   6  -8   24.61    1.16
  -2  -4  -8   24.80    1.12
   4  -6   8   24.47    1.15
   7  -3  -8    1.72    0.20
  -3  -4  -8    1.60    0.19
  -4   7  -8    1.42    0.21
   4  -7   8    1.25    0.19
  -4   8  -8   62.22    2.73
   8  -4  -8   64.47    2.69
  -4  -4  -8   64.60    2.71
   4  -8   8   63.39    2.73
   9  -5  -8    1.49    0.19
  -4   9  -8    1.38    0.22
  -5  -4  -8    1.49    0.21
   4  -9   8    1.38    0.21
   8  -5  -8    0.84    0.14
  -3   8  -8    1.19    0.21
  -5  -3  -8    0.99    0.17
   3  -8   8    1.30    0.20
   3  -8   8    0.95    0.18
  -2   7  -8    3.98    0.34
   7  -5  -8    4.53    0.29
  -5  -2  -8    4.03    0.32
   2  -7   8    4.31    0.33
   2  -7   8    4.55    0.33
   6  -5  -8    0.95    0.14
  -5  -1  -8    1.14    0.18
  -1   6  -8    0.79    0.16
   1  -6   8    0.68    0.16
   1  -6   8    0.87    0.16
   0   5  -8    1.83    0.22
  -5   0  -8    1.27    0.19
   5  -5  -8    1.43    0.16
   0  -5   8    1.42    0.19
   4  -5  -8    4.78    0.29
  -5   1  -8    4.69    0.34
   1   4  -8    4.48    0.34
   2   3  -8    0.78    0.15
   3  -5  -8    0.96    0.13
  -5   2  -8    1.03    0.18
  -5   3  -8    0.71    0.16
   3   2  -8    0.89    0.17
   2  -5  -8    0.80    0.12
   4   1  -8    4.77    0.34
  -5   4  -8    4.76    0.35
   1  -5  -8    5.14    0.31
   5  -4   8    4.95    0.34
   0  -5  -8    1.50    0.17
  -5   5  -8    1.28    0.19
   5   0  -8    1.44    0.19
   5  -5   8    1.94    0.23
  -1  -5  -8    1.02    0.15
   6  -1  -8    0.97    0.16
  -5   6  -8    0.95    0.17
   5  -6   8    0.89    0.18
  -5   7  -8    4.50    0.36
  -2  -5  -8    4.06    0.30
   7  -2  -8    4.74    0.33
   5  -7   8    4.87    0.35
   8  -3  -8    0.90    0.16
  -3  -5  -8    1.14    0.17
  -5   8  -8    1.21    0.20
   5  -8   8    1.13    0.19
  -4  -5  -8    1.21    0.18
  -5   9  -8    2.03    0.25
   9  -4  -8    1.55    0.20
   5  -9   8    1.10    0.20
  -5  -5  -8    2.82    0.27
  10  -5  -8    2.75    0.26
  -5  10  -8    2.80    0.31
   5 -10   8    2.03    0.26
  -5  11  -8    1.78    0.25
  11  -6  -8    1.45    0.19
  -6  -5  -8    1.29    0.21
   5 -11   8    1.62    0.25
  -6  -4  -8   15.49    0.78
  -4  10  -8   14.42    0.79
  10  -6  -8   15.84    0.75
   4 -10   8   15.43    0.80
   4 -10   8   15.42    0.80
  -6  -3  -8    2.93    0.28
   9  -6  -8    2.80    0.25
  -3   9  -8    3.01    0.30
   3  -9   8    3.08    0.30
   3  -9   8    3.36    0.31
   8  -6  -8   21.87    0.98
  -2   8  -8   21.63    1.04
  -6  -2  -8   22.64    1.04
   2  -8   8   20.93    1.04
   2  -8   8   21.52    1.04
   7  -6  -8    0.88    0.13
  -6  -1  -8    0.92    0.18
  -1   7  -8    1.02    0.18
   1  -7   8    1.04    0.19
   0   6  -8   77.63    3.29
  -6   0  -8   79.37    3.28
   6  -6  -8   80.52    3.22
   0  -6   8   72.81    3.27
   1   5  -8    1.38    0.20
  -6   1  -8    0.83    0.17
   5  -6  -8    0.96    0.13
  -1  -5   8    0.80    0.15
   4  -6  -8   25.48    1.11
  -6   2  -8   25.04    1.17
   2   4  -8   25.52    1.17
   3  -6  -8    6.04    0.32
   3   3  -8    5.16    0.37
  -6   3  -8    5.47    0.38
   4   2  -8   26.09    1.17
   2  -6  -8   25.89    1.11
  -6   4  -8   25.16    1.17
   6  -4   8   24.06    1.17
   1  -6  -8    1.01    0.14
   5   1  -8    1.08    0.18
  -6   5  -8    1.26    0.20
   6  -5   8    0.95    0.17
   0  -6  -8   80.82    3.28
  -6   6  -8   76.56    3.33
   6   0  -8   80.40    3.32
   6  -6   8   77.50    3.33
  -1  -6  -8    0.95    0.15
   7  -1  -8    0.99    0.17
  -6   7  -8    0.58    0.16
   6  -7   8    0.90    0.18
  -6   8  -8   21.17    1.04
   8  -2  -8   21.05    1.01
  -2  -6  -8   23.12    1.00
   6  -8   8   21.02    1.03
   9  -3  -8    3.04    0.27
  -6   9  -8    2.44    0.28
  -3  -6  -8    3.15    0.26
   6  -9   8    2.68    0.29
  10  -4  -8   15.15    0.76
  -4  -6  -8   16.44    0.76
  -6  10  -8   14.51    0.78
   6 -10   8   14.15    0.78
  -5  -6  -8    1.52    0.22
  11  -5  -8    1.44    0.21
  -6  11  -8    1.59    0.23
   6 -11   8    1.47    0.24
  12  -6  -8   32.36    1.45
  -6  -6  -8   33.20    1.46
   6 -12   8   30.50    1.49
  -7  -5  -8    0.82    0.18
  12  -7  -8    0.65    0.15
   5 -12   8    0.46    0.17
   5 -12   8    0.20    0.15
  -4  11  -8    1.93    0.27
  11  -7  -8    2.88    0.25
  -7  -4  -8    2.66    0.29
   4 -11   8    2.60    0.31
   4 -11   8    2.94    0.32
  10  -7  -8    0.20    0.11
  -3  10  -8    0.14    0.14
  -7  -3  -8    0.20    0.14
   3 -10   8    0.04    0.14
   3 -10   8    0.21    0.15
   9  -7  -8    2.88    0.23
  -7  -2  -8    3.15    0.30
  -2   9  -8    3.21    0.31
   2  -9   8    3.05    0.32
  -7  -1  -8    3.30    0.31
  -1   8  -8    3.26    0.31
   8  -7  -8    3.22    0.23
   1  -8   8    3.14    0.32
   7  -7  -8    1.32    0.15
   0   7  -8    1.71    0.23
  -7   0  -8    0.99    0.18
   0  -7   8    1.35    0.20
   1   6  -8    0.79    0.18
   6  -7  -8    0.93    0.12
  -7   1  -8    0.90    0.18
  -1  -6   8    1.20    0.20
   5  -7  -8    4.81    0.27
  -7   2  -8    4.22    0.35
   2   5  -8    5.07    0.36
   3   4  -8    1.34    0.20
   4  -7  -8    1.52    0.15
  -7   3  -8    1.32    0.21
   3  -7  -8    1.43    0.15
  -7   4  -8    1.67    0.22
   4   3  -8    1.60    0.22
   5   2  -8    4.87    0.35
  -7   5  -8    4.67    0.36
   2  -7  -8    4.79    0.28
   7  -5   8    4.71    0.35
   6   1  -8    1.09    0.19
  -7   6  -8    0.73    0.17
   1  -7  -8    1.14    0.14
   7  -6   8    0.84    0.18
  -7   7  -8    1.18    0.20
   0  -7  -8    1.30    0.16
   7   0  -8    1.59    0.22
   7  -7   8    1.20    0.21
   8  -1  -8    2.92    0.28
  -7   8  -8    3.12    0.31
  -1  -7  -8    2.94    0.24
   7  -8   8    3.22    0.31
  -2  -7  -8    3.74    0.28
  -7   9  -8    3.23    0.32
   9  -2  -8    3.26    0.30
   7  -9   8    3.26    0.32
  -3  -7  -8    0.27    0.12
  10  -3  -8    0.21    0.13
  -7  10  -8    0.15    0.14
   7 -10   8    0.22    0.15
  -7  11  -8    2.84    0.31
  -4  -7  -8    2.45    0.26
  11  -4  -8    2.60    0.27
   7 -11   8    2.21    0.27
  -5  -7  -8    0.65    0.16
  12  -5  -8    0.42    0.14
   7 -12   8    0.56    0.17
  -8  -4  -8    9.58    0.56
  12  -8  -8    9.03    0.49
   4 -12   8    8.39    0.56
   4 -12   8    8.87    0.57
  -8  -3  -8    1.54    0.24
  11  -8  -8    1.38    0.18
  -3  11  -8    1.27    0.22
   3 -11   8    1.42    0.24
  10  -8  -8   47.21    1.95
  -8  -2  -8   47.64    2.03
  -2  10  -8   44.77    2.03
   2 -10   8   43.65    2.03
   9  -8  -8    1.04    0.14
  -1   9  -8    1.21    0.21
  -8  -1  -8    1.11    0.20
   1  -9   8    0.65    0.18
  -8   0  -8   19.06    0.92
   0   8  -8   18.13    0.92
   8  -8  -8   18.21    0.82
   0  -8   8   18.25    0.91
   7  -8  -8    3.00    0.20
  -8   1  -8    3.31    0.31
   1   7  -8    3.45    0.32
  -1  -7   8    2.80    0.29
   6  -8  -8   21.95    0.97
   2   6  -8   22.96    1.08
  -8   2  -8   22.81    1.08
   5  -8  -8    0.91    0.11
   3   5  -8    1.23    0.20
  -8   3  -8    0.81    0.18
  -8   4  -8   63.88    2.76
   4  -8  -8   64.22    2.66
   4   4  -8   64.78    2.76
   5   3  -8    0.76    0.17
  -8   5  -8    0.99    0.19
   3  -8  -8    1.03    0.12
   6   2  -8   21.46    1.04
   2  -8  -8   22.02    0.95
  -8   6  -8   22.43    1.05
   8  -6   8   20.86    1.04
  -8   7  -8    3.06    0.31
   1  -8  -8    3.03    0.23
   7   1  -8    3.50    0.31
   8  -7   8    3.48    0.31
   8   0  -8   18.50    0.91
   0  -8  -8   19.13    0.85
  -8   8  -8   18.31    0.93
   8  -8   8   18.80    0.93
  -1  -8  -8    0.75    0.14
  -8   9  -8    0.86    0.19
   9  -1  -8    0.98    0.18
   8  -9   8    0.86    0.19
  -8  10  -8   44.10    2.01
  10  -2  -8   46.66    2.00
  -2  -8  -8   48.28    1.96
   8 -10   8   42.30    2.01
  11  -3  -8    1.29    0.21
  -3  -8  -8    1.49    0.19
  -8  11  -8    1.17    0.21
   8 -11   8    1.08    0.21
  12  -4  -8    8.96    0.55
  -4  -8  -8    9.27    0.52
   8 -12   8    9.63    0.59
  -2  11  -8    1.50    0.24
  11  -9  -8    1.54    0.17
  -9  -2  -8    1.63    0.25
   2 -11   8    1.55    0.25
  -1  10  -8    1.14    0.22
  10  -9  -8    1.09    0.14
  -9  -1  -8    0.91    0.20
   1 -10   8    0.88    0.20
   9  -9  -8    4.27    0.26
  -9   0  -8    4.68    0.38
   0   9  -8    4.59    0.37
   0  -9   8    4.81    0.38
  -9   1  -8    1.17    0.20
   8  -9  -8    0.98    0.12
   1   8  -8    1.27    0.22
  -1  -8   8    1.19    0.21
   2   7  -8    3.68    0.33
   7  -9  -8    3.32    0.20
  -9   2  -8    3.97    0.34
  -2  -7   8    3.48    0.34
  -9   3  -8    2.32    0.27
   6  -9  -8    2.58    0.16
   3   6  -8    2.59    0.29
  -9   4  -8    1.67    0.24
   4   5  -8    1.45    0.22
   5  -9  -8    1.43    0.12
   5   4  -8    1.39    0.21
   4  -9  -8    1.39    0.13
  -9   5  -8    1.99    0.25
   6   3  -8    3.39    0.31
   3  -9  -8    2.84    0.19
  -9   6  -8    3.13    0.32
   9  -6   8    2.90    0.31
   2  -9  -8    3.60    0.22
   7   2  -8    3.29    0.32
  -9   7  -8    3.36    0.32
   9  -7   8    3.62    0.33
   8   1  -8    0.95    0.19
  -9   8  -8    1.03    0.20
   1  -9  -8    1.06    0.14
   9  -8   8    1.17    0.21
   0  -9  -8    4.91    0.30
  -9   9  -8    4.24    0.37
   9   0  -8    4.63    0.37
   9  -9   8    4.91    0.39
  -1  -9  -8    0.98    0.15
  10  -1  -8    1.00    0.20
  -9  10  -8    0.97    0.21
   9 -10   8    1.15    0.21
  11  -2  -8    1.68    0.24
  -2  -9  -8    1.96    0.21
   9 -11   8    1.72    0.27
 -10  -1  -8    1.64    0.26
  11 -10  -8    2.02    0.17
  -1  11  -8    2.07    0.28
   1 -11   8    1.91    0.26
  10 -10  -8   11.13    0.51
   0  10  -8   10.48    0.63
 -10   0  -8   10.48    0.63
   0 -10   8   11.18    0.64
   1   9  -8    0.94    0.20
   9 -10  -8    0.87    0.10
 -10   1  -8    1.41    0.22
  -1  -9   8    1.09    0.21
   2   8  -8   43.77    1.95
 -10   2  -8   45.93    1.96
  -2  -8   8   41.89    1.96
 -10   3  -8    0.06    0.13
   3   7  -8    0.41    0.17
 -10   4  -8   15.64    0.79
   4   6  -8   14.47    0.78
   5   5  -8    2.90    0.30
 -10   5  -8    2.27    0.28
 -10   6  -8   14.54    0.78
   6   4  -8   15.08    0.78
   7   3  -8    0.38    0.15
 -10   7  -8    0.20    0.14
   3 -10  -8    0.22    0.07
  10  -7   8    0.47    0.16
   2 -10  -8   45.99    1.91
 -10   8  -8   44.33    2.02
   8   2  -8   47.43    2.03
  10  -8   8   45.19    2.03
 -10   9  -8    0.95    0.19
   9   1  -8    1.12    0.22
   1 -10  -8    1.03    0.13
  10  -9   8    1.11    0.21
  10   0  -8   11.14    0.63
 -10  10  -8   10.42    0.63
   0 -10  -8   11.26    0.53
  10 -10   8   10.27    0.63
  11  -1  -8    1.94    0.26
  -1 -10  -8    2.06    0.21
  10 -11   8    2.57    0.31
   1  10  -8    2.52    0.30
 -11   1  -8    2.50    0.31
  -1 -10   8    1.96    0.27
   2   9  -8    1.51    0.25
 -11   2  -8    1.78    0.27
   3   8  -8    1.37    0.23
 -11   3  -8    1.28    0.22
 -11   4  -8    3.16    0.33
   4   7  -8    2.63    0.31
 -11   5  -8    1.52    0.24
   5   6  -8    1.66    0.25
 -11   6  -8    2.27    0.28
   6   5  -8    1.37    0.22
   7   4  -8    2.65    0.29
 -11   7  -8    2.24    0.28
 -11   8  -8    1.51    0.25
   8   3  -8    1.29    0.23
  11  -8   8    1.41    0.23
   2 -11  -8    1.75    0.14
 -11   9  -8    1.25    0.22
   9   2  -8    1.31    0.22
  11  -9   8    1.61    0.25
   1 -11  -8    2.34    0.18
 -11  10  -8    2.25    0.29
  10   1  -8    2.97    0.33
  11 -10   8    2.36    0.31
   4   8  -8    9.13    0.57
 -12   4  -8    9.18    0.57
   5   7  -8    0.49    0.19
 -12   5  -8    0.81    0.19
   6   6  -8   31.92    1.45
 -12   6  -8   29.73    1.44
   7   5  -8    0.80    0.20
 -12   7  -8    0.51    0.17
   8   4  -8    8.83    0.56
 -12   8  -8    8.86    0.56
   0   0  -9    0.28    0.12
   0   1  -9    3.22    0.29
   1  -1  -9    2.90    0.26
  -1   0  -9    3.11    0.28
   0  -1  -9    2.77    0.26
   1   0  -9    3.25    0.28
  -1   1  -9    3.16    0.28
  -1  -1  -9    0.00    0.10
   2  -1  -9    0.16    0.11
  -1   2  -9   -0.09    0.11
  -2  -1  -9    3.79    0.30
  -1   3  -9    3.40    0.30
   3  -2  -9    3.79    0.29
  -2   0  -9   41.05    1.79
   2  -2  -9   40.37    1.78
   0   2  -9   41.48    1.80
   1  -2  -9    0.08    0.10
  -2   1  -9    0.02    0.11
   1   1  -9    0.08    0.12
   0  -2  -9   41.38    1.81
  -2   2  -9   42.17    1.83
   2   0  -9   41.64    1.83
   3  -1  -9    2.94    0.27
  -1  -2  -9    3.64    0.29
  -2   3  -9    3.95    0.31
  -2   4  -9    0.16    0.13
  -2  -2  -9    0.03    0.10
   4  -2  -9    0.12    0.10
   5  -3  -9    0.90    0.16
  -3  -2  -9    1.09    0.18
  -2   5  -9    1.16    0.19
   4  -3  -9    1.72    0.20
  -1   4  -9    1.73    0.23
  -3  -1  -9    1.82    0.22
   0   3  -9    0.67    0.16
   3  -3  -9    0.48    0.13
  -3   0  -9    0.53    0.15
   2  -3  -9    3.78    0.28
  -3   1  -9    3.81    0.32
   1   2  -9    3.47    0.31
  -3   2  -9    4.10    0.32
   1  -3  -9    3.70    0.28
   2   1  -9    3.43    0.30
   0  -3  -9    0.65    0.14
   3   0  -9    0.37    0.13
  -3   3  -9    0.51    0.15
  -1  -3  -9    1.60    0.20
   4  -1  -9    1.96    0.23
  -3   4  -9    1.75    0.23
   5  -2  -9    0.96    0.17
  -2  -3  -9    1.13    0.17
  -3   5  -9    1.09    0.21
  -3  -3  -9   -0.02    0.11
   6  -3  -9   -0.01    0.10
  -3   6  -9    0.06    0.13
   7  -4  -9    3.61    0.30
  -4  -3  -9    4.14    0.32
  -3   7  -9    3.63    0.35
  -2   6  -9   35.71    1.60
  -4  -2  -9   34.96    1.58
   6  -4  -9   35.53    1.56
  -1   5  -9    0.30    0.13
   5  -4  -9    0.15    0.11
  -4  -1  -9    0.13    0.13
   0   4  -9   35.68    1.55
   4  -4  -9   34.86    1.50
  -4   0  -9   32.18    1.53
  -4   1  -9    1.72    0.23
   1   3  -9    1.88    0.25
   3  -4  -9    1.83    0.20
  -4   2  -9    0.02    0.11
   2  -4  -9   -0.07    0.09
   2   2  -9   -0.04    0.11
   1  -4  -9    1.90    0.21
  -4   3  -9    1.98    0.24
   3   1  -9    1.59    0.21
   4   0  -9   35.39    1.57
  -4   4  -9   35.76    1.59
   0  -4  -9   34.77    1.54
  -1  -4  -9    0.10    0.11
   5  -1  -9    0.02    0.11
  -4   5  -9    0.32    0.14
  -2  -4  -9   36.38    1.57
  -4   6  -9   35.91    1.61
   6  -2  -9   34.27    1.57
  -4   7  -9    4.11    0.36
  -3  -4  -9    4.09    0.32
   7  -3  -9    4.12    0.32
  -4  -4  -9   -0.03    0.11
  -4   8  -9    0.15    0.14
   8  -4  -9    0.10    0.11
  -5  -4  -9    0.14    0.13
  -4   9  -9   -0.03    0.12
   9  -5  -9    0.10    0.11
  -3   8  -9    0.77    0.19
  -5  -3  -9    1.22    0.20
   8  -5  -9    0.91    0.16
   7  -5  -9    0.03    0.09
  -5  -2  -9    0.05    0.12
  -2   7  -9    0.26    0.14
   6  -5  -9    2.83    0.25
  -1   6  -9    3.03    0.33
  -5  -1  -9    2.84    0.29
   0   5  -9    5.30    0.40
  -5   0  -9    5.58    0.40
   5  -5  -9    5.80    0.35
   4  -5  -9    0.10    0.10
   1   4  -9    0.12    0.13
  -5   1  -9    0.17    0.13
  -5   2  -9    1.11    0.20
   3  -5  -9    0.97    0.16
   2   3  -9    1.36    0.22
  -5   3  -9    1.03    0.19
   3   2  -9    0.85    0.18
   2  -5  -9    1.33    0.17
  -5   4  -9    0.25    0.15
   1  -5  -9    0.16    0.11
   4   1  -9    0.37    0.14
  -5   5  -9    5.56    0.41
   5   0  -9    5.68    0.39
   0  -5  -9    5.54    0.36
  -1  -5  -9    2.83    0.25
  -5   6  -9    3.14    0.31
   6  -1  -9    2.79    0.28
   7  -2  -9    0.15    0.12
  -2  -5  -9    0.02    0.11
  -5   7  -9    0.25    0.15
  -5   8  -9    1.11    0.22
  -3  -5  -9    0.96    0.18
   8  -3  -9    1.37    0.20
   9  -4  -9    0.02    0.11
  -4  -5  -9    0.09    0.12
  -5   9  -9    0.39    0.16
  -5  -5  -9    0.13    0.13
  -5  10  -9    0.14    0.14
  10  -5  -9   -0.03    0.11
  10  -6  -9   20.48    0.94
  -6  -4  -9   19.54    0.97
  -4  10  -9   19.26    0.99
  -6  -3  -9    0.19    0.14
  -3   9  -9    0.09    0.14
   9  -6  -9    0.15    0.11
  -2   8  -9   27.34    1.31
   8  -6  -9   27.69    1.24
  -6  -2  -9   28.87    1.31
  -1   7  -9    0.21    0.15
   7  -6  -9    0.48    0.12
  -6  -1  -9    0.35    0.15
  -6   0  -9    0.54    0.16
   6  -6  -9    0.24    0.10
   0   6  -9    0.39    0.17
  -6   1  -9    2.97    0.31
   5  -6  -9    2.46    0.22
   1   5  -9    2.73    0.30
  -6   2  -9   35.93    1.62
   2   4  -9   35.11    1.62
   4  -6  -9   36.66    1.55
   3  -6  -9   -0.02    0.09
   3   3  -9   -0.08    0.11
  -6   3  -9   -0.08    0.12
  -6   4  -9   36.40    1.62
   4   2  -9   33.96    1.60
   2  -6  -9   36.53    1.54
   5   1  -9    2.56    0.28
   1  -6  -9    2.70    0.23
  -6   5  -9    2.29    0.27
   6   0  -9    0.46    0.15
   0  -6  -9    0.27    0.12
  -6   6  -9    0.22    0.14
  -6   7  -9    0.48    0.17
  -1  -6  -9    0.33    0.12
   7  -1  -9    0.23    0.14
  -6   8  -9   26.56    1.28
   8  -2  -9   27.07    1.25
  -2  -6  -9   27.55    1.23
  -3  -6  -9    0.12    0.12
   9  -3  -9    0.28    0.14
  -6   9  -9    0.25    0.15
  -6  10  -9   19.13    0.99
  -4  -6  -9   20.33    0.95
  10  -4  -9   19.67    0.96
  -3  10  -9    0.80    0.20
  10  -7  -9    0.99    0.16
  -7  -3  -9    1.01    0.21
   9  -7  -9    3.60    0.27
  -7  -2  -9    3.69    0.34
  -2   9  -9    3.51    0.35
  -7  -1  -9    0.17    0.15
  -1   8  -9    0.01    0.14
   8  -7  -9    0.06    0.09
  -7   0  -9    0.09    0.14
   7  -7  -9    0.19    0.10
   0   7  -9    0.34    0.16
   1   6  -9    0.51    0.17
   6  -7  -9    0.54    0.11
  -7   1  -9    0.51    0.16
   2   5  -9    0.21    0.14
  -7   2  -9    0.17    0.15
   5  -7  -9    0.15    0.09
   4  -7  -9    4.54    0.28
   3   4  -9    3.80    0.35
  -7   3  -9    4.49    0.37
   4   3  -9    4.54    0.37
   3  -7  -9    4.50    0.29
  -7   4  -9    4.64    0.37
   2  -7  -9    0.07    0.09
   5   2  -9    0.13    0.12
  -7   5  -9    0.15    0.14
  -7   6  -9    0.26    0.16
   1  -7  -9    0.45    0.11
   6   1  -9    0.32    0.16
  -7   7  -9    0.22    0.15
   0  -7  -9    0.06    0.10
   7   0  -9    0.08    0.13
   8  -1  -9    0.30    0.14
  -7   8  -9    0.00    0.14
  -1  -7  -9    0.07    0.10
  -7   9  -9    4.03    0.36
   9  -2  -9    3.71    0.33
  -2  -7  -9    3.62    0.30
  -7  10  -9    0.63    0.17
  10  -3  -9    1.02    0.19
  -3  -7  -9    0.88    0.18
   9  -8  -9    2.70    0.22
  -8  -1  -9    2.84    0.30
  -1   9  -9    2.21    0.28
  -8   0  -9   24.14    1.13
   0   8  -9   23.95    1.14
   8  -8  -9   22.10    1.03
   7  -8  -9    0.09    0.08
   1   7  -9   -0.06    0.14
  -8   1  -9    0.14    0.14
   2   6  -9   26.72    1.28
   6  -8  -9   26.77    1.17
  -8   2  -9   27.66    1.28
   3   5  -9    1.24    0.23
   5  -8  -9    1.25    0.14
  -8   3  -9    1.01    0.21
   4  -8  -9    0.11    0.07
   4   4  -9   -0.09    0.12
  -8   4  -9   -0.11    0.12
   3  -8  -9    1.22    0.14
   5   3  -9    0.85    0.19
  -8   5  -9    1.03    0.21
   6   2  -9   28.50    1.31
   2  -8  -9   27.88    1.21
  -8   6  -9   27.24    1.31
   1  -8  -9    0.12    0.09
  -8   7  -9   -0.01    0.14
   7   1  -9    0.24    0.15
  -8   8  -9   24.14    1.16
   0  -8  -9   23.80    1.07
   8   0  -9   23.95    1.15
  -8   9  -9    2.96    0.33
   9  -1  -9    2.54    0.29
  -1  -8  -9    3.10    0.25
  -9   1  -9    2.64    0.30
   8  -9  -9    2.35    0.18
   1   8  -9    2.54    0.31
   7  -9  -9    3.58    0.22
  -9   2  -9    3.57    0.35
   2   7  -9    3.64    0.36
   6  -9  -9    0.18    0.07
  -9   3  -9    0.13    0.14
   3   6  -9    0.09    0.14
  -9   4  -9    0.08    0.15
   4   5  -9    0.19    0.15
   5  -9  -9    0.13    0.07
   5   4  -9    0.19    0.15
  -9   5  -9    0.29    0.17
   4  -9  -9    0.08    0.07
   3  -9  -9    0.18    0.08
   6   3  -9    0.27    0.15
  -9   6  -9    0.10    0.14
  -9   7  -9    4.05    0.37
   2  -9  -9    3.67    0.24
   7   2  -9    3.63    0.35
  -9   8  -9    2.64    0.31
   1  -9  -9    2.72    0.22
   8   1  -9    2.86    0.32
   3   7  -9    0.89    0.20
 -10   3  -9    1.10    0.22
 -10   4  -9   18.91    0.96
   4   6  -9   18.73    0.96
 -10   5  -9    0.12    0.15
   5   5  -9    0.14    0.14
   4 -10  -9   18.24    0.80
 -10   6  -9   18.53    0.96
   6   4  -9   19.68    0.96
   3 -10  -9    0.74    0.10
 -10   7  -9    0.66    0.19
   7   3  -9    0.77    0.19
   0   0 -10   49.83    2.17
   0   1 -10    0.64    0.17
   1  -1 -10    0.81    0.17
  -1   0 -10    0.59    0.17
   0  -1 -10    0.75    0.16
  -1   1 -10    0.49    0.16
   1   0 -10    0.58    0.17
  -1  -1 -10    4.85    0.36
   2  -1 -10    5.19    0.37
  -1   2 -10    4.98    0.38
  -2  -1 -10    1.22    0.21
  -1   3 -10    1.15    0.22
   3  -2 -10    0.91    0.18
   0   2 -10   11.12    0.63
  -2   0 -10   10.97    0.61
   2  -2 -10   10.85    0.60
   1  -2 -10    5.14    0.36
   1   1 -10    4.67    0.38
  -2   1 -10    5.41    0.39
  -2   2 -10   10.58    0.62
   0  -2 -10   11.34    0.60
   2   0 -10   11.06    0.61
  -2   3 -10    1.11    0.20
   3  -1 -10    0.76    0.17
  -1  -2 -10    0.82    0.18
  -2  -2 -10   43.73    1.93
  -2   4 -10   43.78    1.95
   4  -2 -10   44.17    1.93
  -2   5 -10    0.04    0.14
  -3  -2 -10   -0.07    0.12
   5  -3 -10    0.13    0.12
  -3  -1 -10    0.49    0.16
   4  -3 -10    0.62    0.15
  -1   4 -10    0.49    0.17
   3  -3 -10    5.73    0.39
   0   3 -10    5.96    0.43
  -3   0 -10    6.56    0.43
  -3   1 -10    0.89    0.19
   2  -3 -10    0.95    0.18
   1   2 -10    0.78    0.18
   1  -3 -10    0.90    0.18
   2   1 -10    0.84    0.18
  -3   2 -10    0.86    0.19
   3   0 -10    5.75    0.42
  -3   3 -10    6.27    0.44
   0  -3 -10    6.00    0.40
   4  -1 -10    0.86    0.17
  -3   4 -10    0.54    0.19
  -1  -3 -10    0.61    0.16
  -3   5 -10    0.17    0.15
  -2  -3 -10    0.10    0.12
   5  -2 -10    0.18    0.13
  -3  -3 -10    2.52    0.28
  -3   6 -10    2.34    0.30
   6  -3 -10    2.64    0.28
   7  -4 -10    2.25    0.26
  -4  -3 -10    2.40    0.28
  -3   7 -10    2.82    0.32
   6  -4 -10    9.27    0.51
  -4  -2 -10    8.55    0.53
  -2   6 -10    8.59    0.56
  -1   5 -10    4.45    0.38
  -4  -1 -10    3.94    0.35
   5  -4 -10    4.07    0.32
   0   4 -10    9.95    0.60
   4  -4 -10   10.71    0.56
  -4   0 -10   10.04    0.59
   3  -4 -10    0.60    0.15
  -4   1 -10    0.62    0.18
   1   3 -10    0.71    0.18
  -4   2 -10   44.15    1.99
   2  -4 -10   44.46    1.94
   2   2 -10   45.79    1.99
  -4   3 -10    0.87    0.19
   1  -4 -10    0.45    0.14
   3   1 -10    0.76    0.18
  -4   4 -10   10.37    0.61
   0  -4 -10    9.85    0.56
   4   0 -10   10.59    0.59
  -4   5 -10    4.76    0.39
   5  -1 -10    3.87    0.34
  -1  -4 -10    4.41    0.33
   6  -2 -10    9.34    0.54
  -4   6 -10    8.93    0.57
  -2  -4 -10    8.67    0.52
  -4   7 -10    2.25    0.30
   7  -3 -10    2.53    0.28
  -3  -4 -10    2.34    0.27
  -2   7 -10    4.08    0.37
  -5  -2 -10    3.94    0.35
   7  -5 -10    3.93    0.31
   6  -5 -10    1.31    0.18
  -1   6 -10    1.25    0.24
  -5  -1 -10    1.02    0.20
   0   5 -10    2.33    0.30
  -5   0 -10    2.54    0.30
   5  -5 -10    2.20    0.23
   4  -5 -10    4.11    0.31
  -5   1 -10    4.08    0.36
   1   4 -10    4.17    0.37
   2   3 -10    0.01    0.13
   3  -5 -10    0.20    0.12
  -5   2 -10    0.13    0.14
   2  -5 -10    0.18    0.11
   3   2 -10   -0.01    0.13
  -5   3 -10    0.28    0.15
  -5   4 -10    4.22    0.38
   4   1 -10    4.35    0.37
   1  -5 -10    4.68    0.33
  -5   5 -10    2.13    0.28
   5   0 -10    2.08    0.26
   0  -5 -10    2.18    0.24
  -5   6 -10    1.31    0.23
   6  -1 -10    1.15    0.21
  -1  -5 -10    1.64    0.21
  -5   7 -10    3.85    0.37
   7  -2 -10    3.74    0.33
  -2  -5 -10    4.04    0.32
   0   6 -10   33.69    1.59
   6  -6 -10   34.98    1.51
  -6   0 -10   34.39    1.58
   1   5 -10    0.96    0.20
   5  -6 -10    1.19    0.16
  -6   1 -10    0.99    0.21
   4  -6 -10    8.67    0.48
  -6   2 -10    8.83    0.55
   2   4 -10    8.95    0.56
   3  -6 -10    2.36    0.23
  -6   3 -10    2.28    0.28
   3   3 -10    2.57    0.30
   4   2 -10    8.72    0.55
   2  -6 -10    9.25    0.49
  -6   4 -10    8.98    0.57
  -6   5 -10    0.82    0.20
   1  -6 -10    1.22    0.17
   5   1 -10    1.53    0.24
   6   0 -10   36.75    1.60
   0  -6 -10   34.99    1.54
  -6   6 -10   33.05    1.60
  -7   2 -10    3.72    0.36
   5  -7 -10    3.75    0.27
   2   5 -10    4.20    0.37
   3   4 -10    3.20    0.33
  -7   3 -10    2.87    0.32
   4  -7 -10    2.63    0.23
  -7   4 -10    1.94    0.27
   3  -7 -10    2.60    0.23
   4   3 -10    2.88    0.32
   2  -7 -10    4.22    0.29
   5   2 -10    4.26    0.37
  -7   5 -10    4.03    0.38
   0   0   0    0.00    0.00
;
_shelx_hkl_checksum              87884
_shelx_res_file
;
TITL TEST in P6(3)mc
    test.res
    created by SHELXL-2017/1 at 21:15:18 on 24-Oct-2017
CELL 0.71073  12.4188  12.4188   7.4338  90.000  90.000 120.000
ZERR    2.00   0.0002   0.0002   0.0002   0.000   0.000   0.000
LATT -1
SYMM -Y, X-Y, Z
SYMM -X+Y, -X, Z
SYMM -X, -Y, 0.5+Z
SYMM Y, -X+Y, 0.5+Z
SYMM X-Y, X, 0.5+Z
SYMM -Y, -X, Z
SYMM -X+Y, Y, Z
SYMM X, X-Y, Z
SYMM Y, X, 0.5+Z
SYMM X-Y, -Y, 0.5+Z
SYMM -X, -X+Y, 0.5+Z
SFAC O K MO AG
UNIT 32 13.36 8 2.64
TEMP 23.000
L.S. 10
ACTA
SIZE 0.18 0.20 0.25
OMIT -2 4 0
OMIT 0 1 0
OMIT 0 1 -1
OMIT 0 2 -4
OMIT 0 2 4
BOND
CONN 20 2.5 $K
CONN 20 2.5 $AG
FMAP 2
PLAN 50
TWIN
REM EXTI    0.000171
WGHT    0.000000    2.033600
BASF   0.14955
FVAR       0.08402   0.10596
MO1   3    0.333333    0.666667    0.281482    10.16667    0.01983    0.01983 =
         0.01721    0.00000    0.00000    0.00991
MO2   3    0.339807    0.169903    0.171066    10.50000    0.01140    0.01374 =
         0.01394    0.00024    0.00047    0.00570
K1    2    0.000000    0.000000   10.000000    10.16667    0.02049    0.02049 =
         0.01532    0.00000    0.00000    0.01025
K2    2    0.171081    0.342162    0.175582    10.50000    0.02377    0.03005 =
         0.02367    0.00339    0.00170    0.01503
K3    2    0.516114    0.483886    0.391571   -20.50000    0.01854    0.01854 =
         0.03833    0.00266   -0.00266    0.00867
AG1   4    0.666667    0.333333    0.329601    10.16667    0.02586    0.02586 =
         0.03050    0.00000    0.00000    0.01293
AG2   4    0.507360    0.492640    0.428435    20.50000    0.03717    0.03717 =
         0.08880    0.01221   -0.01221    0.01766
O1    1    0.333333    0.666667    0.521730    10.16667    0.07984    0.07984 =
         0.07870    0.00000    0.00000    0.03992
O2    1    0.410044    0.589956    0.200255    10.50000    0.03732    0.03732 =
         0.03893   -0.00265    0.00265    0.02611
O3    1    0.355866    0.293145    0.037564    11.00000    0.04460    0.04462 =
         0.05690    0.03042    0.01374    0.03065
O4    1    0.188547    0.094274    0.262147    10.50000    0.01415    0.04702 =
         0.02972    0.00243    0.00485    0.00708
O5    1    0.451173    0.225587    0.347088    10.50000    0.01585    0.04650 =
         0.01989   -0.00123   -0.00246    0.00792
HKLF 4
REM  TEST in P6(3)mc
REM R1 =  0.0179 for    1178 Fo > 4sig(Fo)  and  0.0181 for all    1189 data
REM     65 parameters refined using      0 restraints
END
WGHT      0.0000      2.0336
REM Highest difference peak  1.401,  deepest hole -1.310,  1-sigma level  0.098
Q1    1   0.6356  0.2711  0.3181  10.50000  0.05    1.40
Q2    1   0.6667  0.3333  0.2216  10.16667  0.05    0.87
Q3    1   0.3333  0.6667  0.6183  10.16667  0.05    0.86
Q4    1   0.3638  0.7277  0.5223  10.50000  0.05    0.55
Q5    1   0.3333  0.6667  0.3958  10.16667  0.05    0.41
Q6    1   0.3607  0.7214  0.2979  10.50000  0.05    0.41
Q7    1   0.3766  0.6883  0.1598  10.50000  0.05    0.37
Q8    1   0.6253  0.2506  0.1866  10.50000  0.05    0.37
Q9    1   0.3646  0.6354  0.0439  10.50000  0.05    0.36
Q10   1   0.5941  0.3333  0.4295  11.00000  0.05    0.34
Q11   1   0.4247  0.2123 -0.0942  10.50000  0.05    0.32
Q12   1   0.0397 -0.0397 -0.0814  10.50000  0.05    0.32
Q13   1   0.3692  0.5770  0.2689  11.00000  0.05    0.32
Q14   1   0.3637  0.1818 -0.0707  10.50000  0.05    0.31
Q15   1   0.3649  0.7298  0.3945  10.50000  0.05    0.31
Q16   1   0.1266  0.3117  0.3567  11.00000  0.05    0.31
Q17   1   0.4710  0.5290  0.4565  10.50000  0.05    0.30
Q18   1   0.1242  0.2483 -0.0034  10.50000  0.05    0.30
Q19   1   0.6667  0.3333  0.4350  10.16667  0.05    0.29
Q20   1   0.5536  0.5536  0.5412  11.00000  0.05    0.29
Q21   1   0.2442  0.1221  0.2717  10.50000  0.05    0.28
Q22   1   0.5958  0.1916  0.2752  10.50000  0.05    0.28
Q23   1   0.2351  0.3638  0.0324  11.00000  0.05    0.28
Q24   1   0.4797  0.5203  0.5597  10.50000  0.05    0.27
Q25   1  -0.0429 -0.0859 -0.0738  10.50000  0.05    0.27
Q26   1   0.5370  0.5587  0.3771  11.00000  0.05    0.27
Q27   1   0.4754  0.5246  0.2583  10.50000  0.05    0.27
Q28   1   0.4307  0.2153  0.2483  10.50000  0.05    0.26
Q29   1   0.4154  0.7077  0.4397  10.50000  0.05    0.26
Q30   1   0.0272 -0.0272  0.2693  10.50000  0.05    0.26
Q31   1   0.4146  0.5854  0.6642  10.50000  0.05    0.26
Q32   1   0.2691  0.2311  0.3518  11.00000  0.05    0.25
Q33   1   0.4311  0.5689  0.5331  10.50000  0.05    0.25
Q34   1   0.4897  0.2449  0.5451  10.50000  0.05    0.24
Q35   1   0.2200  0.3617  0.1637  11.00000  0.05    0.24
Q36   1   0.2546  0.5092  0.4773  10.50000  0.05    0.23
Q37   1   0.4363  0.2182  0.4415  10.50000  0.05    0.23
Q38   1   0.4154  0.2893  0.1870  11.00000  0.05    0.23
Q39   1   0.2554  0.1277  0.3797  10.50000  0.05    0.22
Q40   1   0.5196  0.4804  0.6100  10.50000  0.05    0.22
Q41   1   0.2135  0.4270  0.0752  10.50000  0.05    0.22
Q42   1   0.3624  0.2339 -0.0014  11.00000  0.05    0.22
Q43   1   0.3165  0.1040  0.4193  11.00000  0.05    0.22
Q44   1   0.1123  0.2247  0.3535  10.50000  0.05    0.22
Q45   1   0.1476  0.2952  0.1384  10.50000  0.05    0.22
Q46   1   0.0000  0.0000 -0.1287  10.16667  0.05    0.22
Q47   1   0.5581  0.4419  0.2733  10.50000  0.05    0.21
Q48   1   0.1097  0.2194  0.1768  10.50000  0.05    0.21
Q49   1   0.1036  0.0518  0.2673  10.50000  0.05    0.21
Q50   1   0.5723  0.2862  0.3754  10.50000  0.05    0.21
;
_shelx_res_checksum              62149
loop_
_symmetry_equiv_pos_as_xyz
'x, y, z'
'-y, x-y, z'
'-x+y, -x, z'
'-x, -y, z+1/2'
'y, -x+y, z+1/2'
'x-y, x, z+1/2'
'-y, -x, z'
'-x+y, y, z'
'x, x-y, z'
'y, x, z+1/2'
'x-y, -y, z+1/2'
'-x, -x+y, z+1/2'
loop_
_atom_site_type_symbol
_atom_site_label
_atom_site_fract_x
_atom_site_fract_y
_atom_site_fract_z
_atom_site_U_iso_or_equiv
_atom_site_adp_type
_atom_site_calc_flag
_atom_site_occupancy
Mo Mo1 0.333333 0.666667 0.2815(3) 0.01895(17) Uani d 1
Mo Mo2 0.33981(4) 0.16990(2) 0.1711(3) 0.01329(9) Uani d 1
K K1 0.000000 0.000000 0.000000 0.0188(4) Uani d 1
K K2 0.17108(6) 0.34216(13) 0.1756(4) 0.0251(2) Uani d 1
K K3 0.5161(4) 0.4839(4) 0.3916(8) 0.0254(6) Uani d 0.894(5)
Ag Ag1 0.666667 0.333333 0.3296(3) 0.0274(2) Uani d 1
Ag Ag2 0.5074(12) 0.4926(12) 0.428(4) 0.055(8) Uani d 0.106(5)
O O1 0.333333 0.666667 0.522(2) 0.079(5) Uani d 1
O O2 0.4100(2) 0.5900(2) 0.2003(8) 0.0345(11) Uani d 1
O O3 0.3559(4) 0.2931(4) 0.0376(7) 0.0450(9) Uani d 1
O O4 0.1885(4) 0.0943(2) 0.2621(7) 0.0339(10) Uani d 1
O O5 0.4512(4) 0.22559(18) 0.3471(7) 0.0308(9) Uani d 1
loop_
_atom_site_aniso_label
_atom_site_aniso_U_11
_atom_site_aniso_U_22
_atom_site_aniso_U_33
_atom_site_aniso_U_12
_atom_site_aniso_U_13
_atom_site_aniso_U_23
Mo1 0.0198(2) 0.0198(2) 0.0172(4) 0.00991(11) 0.000 0.000
Mo2 0.01140(16) 0.01374(13) 0.01394(18) 0.00570(8) 0.00047(18) 0.00024(9)
K1 0.0205(5) 0.0205(5) 0.0153(10) 0.0102(3) 0.000 0.000
K2 0.0238(4) 0.0301(6) 0.0237(6) 0.0150(3) 0.0017(3) 0.0034(7)
K3 0.0185(7) 0.0185(7) 0.0383(15) 0.0087(9) -0.0027(5) 0.0027(5)
Ag1 0.0259(2) 0.0259(2) 0.0305(6) 0.01293(12) 0.000 0.000
Ag2 0.037(6) 0.037(6) 0.089(18) 0.018(4) -0.012(5) 0.012(5)
O1 0.080(7) 0.080(7) 0.079(14) 0.040(3) 0.000 0.000
O2 0.0373(19) 0.0373(19) 0.039(3) 0.026(2) 0.0027(10) -0.0027(10)
O3 0.0446(19) 0.045(2) 0.057(2) 0.0306(17) 0.014(2) 0.030(2)
O4 0.0142(17) 0.047(2) 0.030(2) 0.0071(9) 0.0049(17) 0.0024(9)
O5 0.0158(17) 0.046(2) 0.0199(19) 0.0079(9) -0.0025(15) -0.0012(8)
loop_
_atom_type_symbol
_atom_type_description
_atom_type_scat_dispersion_real
_atom_type_scat_dispersion_imag
_atom_type_scat_source
O O 0.0106 0.0060 'International Tables Vol C Tables 4.2.6.8 and 6.1.1.4'
K K 0.2009 0.2494 'International Tables Vol C Tables 4.2.6.8 and 6.1.1.4'
Mo Mo -1.6832 0.6857 'International Tables Vol C Tables 4.2.6.8 and 6.1.1.4'
Ag Ag -0.8971 1.1015 'International Tables Vol C Tables 4.2.6.8 and 6.1.1.4'
loop_
_geom_angle_atom_site_label_1
_geom_angle_atom_site_label_2
_geom_angle_atom_site_label_3
_geom_angle_site_symmetry_1
_geom_angle_site_symmetry_3
_geom_angle
O2 Mo1 O2 . 3_565 108.84(19)
O2 Mo1 O2 . 2_665 108.84(19)
O2 Mo1 O2 3_565 2_665 108.83(19)
O2 Mo1 O1 . . 110.10(19)
O2 Mo1 O1 3_565 . 110.10(19)
O2 Mo1 O1 2_665 . 110.10(19)
O2 Mo1 Ag1 . 4_664 69.90(19)
O2 Mo1 Ag1 3_565 4_664 69.90(19)
O2 Mo1 Ag1 2_665 4_664 69.90(19)
O1 Mo1 Ag1 . 4_664 180.0
O2 Mo1 K2 . 3_565 147.2(2)
O2 Mo1 K2 3_565 3_565 57.746(17)
O2 Mo1 K2 2_665 3_565 57.746(18)
O1 Mo1 K2 . 3_565 102.71(5)
Ag1 Mo1 K2 4_664 3_565 77.29(5)
O2 Mo1 K2 . 2_665 57.747(18)
O2 Mo1 K2 3_565 2_665 147.2(2)
O2 Mo1 K2 2_665 2_665 57.749(18)
O1 Mo1 K2 . 2_665 102.71(5)
Ag1 Mo1 K2 4_664 2_665 77.29(5)
K2 Mo1 K2 3_565 2_665 115.30(4)
O2 Mo1 K2 . . 57.747(18)
O2 Mo1 K2 3_565 . 57.749(18)
O2 Mo1 K2 2_665 . 147.2(2)
O1 Mo1 K2 . . 102.71(5)
Ag1 Mo1 K2 4_664 . 77.29(5)
K2 Mo1 K2 3_565 . 115.30(4)
K2 Mo1 K2 2_665 . 115.30(4)
O2 Mo1 Ag2 . 2_665 123.16(10)
O2 Mo1 Ag2 3_565 2_665 123.16(9)
O2 Mo1 Ag2 2_665 2_665 36.4(4)
O1 Mo1 Ag2 . 2_665 73.7(4)
Ag1 Mo1 Ag2 4_664 2_665 106.3(4)
K2 Mo1 Ag2 3_565 2_665 66.01(14)
K2 Mo1 Ag2 2_665 2_665 66.01(15)
K2 Mo1 Ag2 . 2_665 176.4(4)
O2 Mo1 Ag2 . 3_565 123.16(10)
O2 Mo1 Ag2 3_565 3_565 36.4(4)
O2 Mo1 Ag2 2_665 3_565 123.16(10)
O1 Mo1 Ag2 . 3_565 73.7(4)
Ag1 Mo1 Ag2 4_664 3_565 106.3(4)
K2 Mo1 Ag2 3_565 3_565 66.01(15)
K2 Mo1 Ag2 2_665 3_565 176.4(4)
K2 Mo1 Ag2 . 3_565 66.01(15)
Ag2 Mo1 Ag2 2_665 3_565 112.5(3)
O2 Mo1 Ag2 . . 36.4(4)
O2 Mo1 Ag2 3_565 . 123.16(10)
O2 Mo1 Ag2 2_665 . 123.16(10)
O1 Mo1 Ag2 . . 73.7(4)
Ag1 Mo1 Ag2 4_664 . 106.3(4)
K2 Mo1 Ag2 3_565 . 176.4(4)
K2 Mo1 Ag2 2_665 . 66.01(15)
K2 Mo1 Ag2 . . 66.01(14)
Ag2 Mo1 Ag2 2_665 . 112.5(3)
Ag2 Mo1 Ag2 3_565 . 112.5(3)
O2 Mo1 K3 . 2_665 121.99(3)
O2 Mo1 K3 3_565 2_665 121.99(3)
O2 Mo1 K3 2_665 2_665 31.9(2)
O1 Mo1 K3 . 2_665 78.24(9)
Ag1 Mo1 K3 4_664 2_665 101.76(9)
K2 Mo1 K3 3_565 2_665 64.36(3)
K2 Mo1 K3 2_665 2_665 64.36(3)
K2 Mo1 K3 . 2_665 179.05(11)
Ag2 Mo1 K3 2_665 2_665 4.5(4)
Ag2 Mo1 K3 3_565 2_665 114.38(12)
Ag2 Mo1 K3 . 2_665 114.38(12)
O3 Mo2 O3 9 . 109.7(3)
O3 Mo2 O4 9 . 108.00(14)
O3 Mo2 O4 . . 108.00(14)
O3 Mo2 O5 9 . 110.59(17)
O3 Mo2 O5 . . 110.59(17)
O4 Mo2 O5 . . 109.9(2)
O3 Mo2 K2 9 3 48.97(14)
O3 Mo2 K2 . 3 139.87(17)
O4 Mo2 K2 . 3 62.59(5)
O5 Mo2 K2 . 3 109.11(7)
O3 Mo2 K2 9 . 139.87(17)
O3 Mo2 K2 . . 48.97(14)
O4 Mo2 K2 . . 62.59(5)
O5 Mo2 K2 . . 109.11(7)
K2 Mo2 K2 3 . 120.68(4)
O3 Mo2 K2 9 5_554 55.40(17)
O3 Mo2 K2 . 5_554 55.40(17)
O4 Mo2 K2 . 5_554 112.99(17)
O5 Mo2 K2 . 5_554 137.14(15)
K2 Mo2 K2 3 5_554 90.72(5)
K2 Mo2 K2 . 5_554 90.72(5)
O3 Mo2 Ag1 9 . 94.97(14)
O3 Mo2 Ag1 . . 94.97(14)
O4 Mo2 Ag1 . . 138.87(17)
O5 Mo2 Ag1 . . 29.00(15)
K2 Mo2 Ag1 3 . 117.79(2)
K2 Mo2 Ag1 . . 117.79(2)
K2 Mo2 Ag1 5_554 . 108.14(3)
O3 Mo2 K2 9 5 124.50(17)
O3 Mo2 K2 . 5 124.50(17)
O4 Mo2 K2 . 5 67.79(17)
O5 Mo2 K2 . 5 42.08(15)
K2 Mo2 K2 3 5 89.67(5)
K2 Mo2 K2 . 5 89.67(5)
K2 Mo2 K2 5_554 5 179.22(5)
Ag1 Mo2 K2 . 5 71.08(3)
O3 Mo2 K3 9 2_655 65.7(2)
O3 Mo2 K3 . 2_655 143.81(15)
O4 Mo2 K3 . 2_655 107.34(14)
O5 Mo2 K3 . 2_655 48.56(11)
K2 Mo2 K3 3 2_655 66.27(11)
K2 Mo2 K3 . 2_655 153.30(11)
K2 Mo2 K3 5_554 2_655 115.61(9)
Ag1 Mo2 K3 . 2_655 51.94(10)
K2 Mo2 K3 5 2_655 63.95(9)
O3 Mo2 K3 9 . 143.81(15)
O3 Mo2 K3 . . 65.7(2)
O4 Mo2 K3 . . 107.34(14)
O5 Mo2 K3 . . 48.56(11)
K2 Mo2 K3 3 . 153.30(11)
K2 Mo2 K3 . . 66.27(11)
K2 Mo2 K3 5_554 . 115.61(9)
Ag1 Mo2 K3 . . 51.94(11)
K2 Mo2 K3 5 . 63.95(9)
K3 Mo2 K3 2_655 . 96.4(2)
O3 Mo2 K1 9 . 84.65(14)
O3 Mo2 K1 . . 84.65(14)
O4 Mo2 K1 . . 41.78(17)
O5 Mo2 K1 . . 151.66(15)
K2 Mo2 K1 3 . 62.34(2)
K2 Mo2 K1 . . 62.34(2)
K2 Mo2 K1 5_554 . 71.21(4)
Ag1 Mo2 K1 . . 179.35(3)
K2 Mo2 K1 5 . 109.57(4)
K3 Mo2 K1 2_655 . 128.27(11)
K3 Mo2 K1 . . 128.27(11)
O4 K1 O4 4_554 6_554 81.50(16)
O4 K1 O4 4_554 5_554 81.50(16)
O4 K1 O4 6_554 5_554 81.50(16)
O4 K1 O4 4_554 3 100.58(9)
O4 K1 O4 6_554 3 177.23(17)
O4 K1 O4 5_554 3 100.58(9)
O4 K1 O4 4_554 . 177.23(17)
O4 K1 O4 6_554 . 100.58(9)
O4 K1 O4 5_554 . 100.58(9)
O4 K1 O4 3 . 77.28(15)
O4 K1 O4 4_554 2 100.58(9)
O4 K1 O4 6_554 2 100.58(9)
O4 K1 O4 5_554 2 177.23(17)
O4 K1 O4 3 2 77.28(15)
O4 K1 O4 . 2 77.28(15)
O4 K1 K1 4_554 4_554 48.91(11)
O4 K1 K1 6_554 4_554 48.91(11)
O4 K1 K1 5_554 4_554 48.91(11)
O4 K1 K1 3 4_554 133.86(10)
O4 K1 K1 . 4_554 133.86(10)
O4 K1 K1 2 4_554 133.86(10)
O4 K1 K1 4_554 4 131.09(11)
O4 K1 K1 6_554 4 131.09(11)
O4 K1 K1 5_554 4 131.09(11)
O4 K1 K1 3 4 46.14(10)
O4 K1 K1 . 4 46.14(10)
O4 K1 K1 2 4 46.14(10)
K1 K1 K1 4_554 4 180.0
O4 K1 Mo2 4_554 3 81.95(6)
O4 K1 Mo2 6_554 3 158.10(12)
O4 K1 Mo2 5_554 3 81.96(6)
O4 K1 Mo2 3 3 24.67(9)
O4 K1 Mo2 . 3 96.48(6)
O4 K1 Mo2 2 3 96.48(6)
K1 K1 Mo2 4_554 3 109.19(3)
K1 K1 Mo2 4 3 70.81(3)
O4 K1 Mo2 4_554 . 158.10(12)
O4 K1 Mo2 6_554 . 81.95(6)
O4 K1 Mo2 5_554 . 81.95(6)
O4 K1 Mo2 3 . 96.48(6)
O4 K1 Mo2 . . 24.67(9)
O4 K1 Mo2 2 . 96.48(6)
K1 K1 Mo2 4_554 . 109.19(3)
K1 K1 Mo2 4 . 70.81(3)
Mo2 K1 Mo2 3 . 109.76(3)
O4 K1 Mo2 4_554 2 81.96(6)
O4 K1 Mo2 6_554 2 81.96(6)
O4 K1 Mo2 5_554 2 158.10(12)
O4 K1 Mo2 3 2 96.47(6)
O4 K1 Mo2 . 2 96.48(6)
O4 K1 Mo2 2 2 24.67(9)
K1 K1 Mo2 4_554 2 109.19(3)
K1 K1 Mo2 4 2 70.81(3)
Mo2 K1 Mo2 3 2 109.75(3)
Mo2 K1 Mo2 . 2 109.76(3)
O4 K1 K2 4_554 . 125.09(3)
O4 K1 K2 6_554 . 60.62(11)
O4 K1 K2 5_554 . 125.09(3)
O4 K1 K2 3 . 116.61(11)
O4 K1 K2 . . 55.15(3)
O4 K1 K2 2 . 55.15(3)
K1 K1 K2 4_554 . 109.53(4)
K1 K1 K2 4 . 70.47(4)
Mo2 K1 K2 3 . 141.28(6)
Mo2 K1 K2 . . 56.295(12)
Mo2 K1 K2 2 . 56.295(12)
O4 K1 K2 4_554 2 60.62(11)
O4 K1 K2 6_554 2 125.09(3)
O4 K1 K2 5_554 2 125.09(3)
O4 K1 K2 3 2 55.15(3)
O4 K1 K2 . 2 116.61(11)
O4 K1 K2 2 2 55.15(3)
K1 K1 K2 4_554 2 109.53(4)
K1 K1 K2 4 2 70.47(4)
Mo2 K1 K2 3 2 56.294(12)
Mo2 K1 K2 . 2 141.28(6)
Mo2 K1 K2 2 2 56.295(12)
K2 K1 K2 . 2 109.41(4)
O4 K1 K2 4_554 3 125.09(3)
O4 K1 K2 6_554 3 125.09(3)
O4 K1 K2 5_554 3 60.62(11)
O4 K1 K2 3 3 55.15(3)
O4 K1 K2 . 3 55.15(3)
O4 K1 K2 2 3 116.61(11)
K1 K1 K2 4_554 3 109.53(4)
K1 K1 K2 4 3 70.47(4)
Mo2 K1 K2 3 3 56.295(12)
Mo2 K1 K2 . 3 56.295(12)
Mo2 K1 K2 2 3 141.29(6)
K2 K1 K2 . 3 109.41(4)
K2 K1 K2 2 3 109.41(4)
O4 K1 K2 4_554 4_554 47.51(3)
O4 K1 K2 6_554 4_554 105.67(12)
O4 K1 K2 5_554 4_554 47.51(3)
O4 K1 K2 3 4_554 77.10(10)
O4 K1 K2 . 4_554 132.95(2)
O4 K1 K2 2 4_554 132.95(2)
K1 K1 K2 4_554 4_554 56.76(4)
K1 K1 K2 4 4_554 123.24(4)
Mo2 K1 K2 3 4_554 52.42(3)
Mo2 K1 K2 . 4_554 125.107(14)
Mo2 K1 K2 2 4_554 125.107(14)
K2 K1 K2 . 4_554 166.29(8)
K2 K1 K2 2 4_554 77.824(15)
K2 K1 K2 3 4_554 77.825(15)
O4 K1 K2 4_554 6_554 47.51(3)
O4 K1 K2 6_554 6_554 47.51(3)
O4 K1 K2 5_554 6_554 105.68(12)
O4 K1 K2 3 6_554 132.95(2)
O4 K1 K2 . 6_554 132.95(2)
O4 K1 K2 2 6_554 77.10(10)
K1 K1 K2 4_554 6_554 56.76(4)
K1 K1 K2 4 6_554 123.24(4)
Mo2 K1 K2 3 6_554 125.106(14)
Mo2 K1 K2 . 6_554 125.107(14)
Mo2 K1 K2 2 6_554 52.42(3)
K2 K1 K2 . 6_554 77.824(15)
K2 K1 K2 2 6_554 77.824(15)
K2 K1 K2 3 6_554 166.29(8)
K2 K1 K2 4_554 6_554 92.83(5)
O4 K1 K2 4_554 5_554 105.67(12)
O4 K1 K2 6_554 5_554 47.51(3)
O4 K1 K2 5_554 5_554 47.51(3)
O4 K1 K2 3 5_554 132.95(2)
O4 K1 K2 . 5_554 77.10(10)
O4 K1 K2 2 5_554 132.95(2)
K1 K1 K2 4_554 5_554 56.76(4)
K1 K1 K2 4 5_554 123.24(4)
Mo2 K1 K2 3 5_554 125.107(14)
Mo2 K1 K2 . 5_554 52.42(3)
Mo2 K1 K2 2 5_554 125.107(14)
K2 K1 K2 . 5_554 77.824(15)
K2 K1 K2 2 5_554 166.29(8)
K2 K1 K2 3 5_554 77.824(15)
K2 K1 K2 4_554 5_554 92.83(5)
K2 K1 K2 6_554 5_554 92.83(5)
O5 K2 O3 6_554 8 75.82(11)
O5 K2 O3 6_554 . 75.82(11)
O3 K2 O3 8 . 132.1(2)
O5 K2 O2 6_554 . 70.96(14)
O3 K2 O2 8 . 128.03(13)
O3 K2 O2 . . 75.75(12)
O5 K2 O2 6_554 3_565 70.96(14)
O3 K2 O2 8 3_565 75.75(12)
O3 K2 O2 . 3_565 128.03(13)
O2 K2 O2 . 3_565 56.29(18)
O5 K2 O3 6_554 10 140.73(10)
O3 K2 O3 8 10 139.09(16)
O3 K2 O3 . 10 84.18(9)
O2 K2 O3 . 10 71.51(13)
O2 K2 O3 3_565 10 97.20(14)
O5 K2 O3 6_554 6 140.73(10)
O3 K2 O3 8 6 84.18(9)
O3 K2 O3 . 6 139.09(16)
O2 K2 O3 . 6 97.20(14)
O2 K2 O3 3_565 6 71.51(13)
O3 K2 O3 10 6 55.93(14)
O5 K2 O4 6_554 . 122.17(14)
O3 K2 O4 8 . 114.36(12)
O3 K2 O4 . . 55.02(10)
O2 K2 O4 . . 116.99(12)
O2 K2 O4 3_565 . 164.27(17)
O3 K2 O4 10 . 67.20(12)
O3 K2 O4 6 . 96.78(13)
O5 K2 O4 6_554 2 122.17(14)
O3 K2 O4 8 2 55.01(10)
O3 K2 O4 . 2 114.36(12)
O2 K2 O4 . 2 164.27(17)
O2 K2 O4 3_565 2 116.99(12)
O3 K2 O4 10 2 96.79(13)
O3 K2 O4 6 2 67.20(12)
O4 K2 O4 . 2 65.27(15)
O5 K2 O4 6_554 6_554 53.91(12)
O3 K2 O4 8 6_554 66.07(12)
O3 K2 O4 . 6_554 66.07(12)
O2 K2 O4 . 6_554 118.02(15)
O2 K2 O4 3_565 6_554 118.02(15)
O3 K2 O4 10 6_554 143.10(8)
O3 K2 O4 6 6_554 143.10(8)
O4 K2 O4 . 6_554 77.67(10)
O4 K2 O4 2 6_554 77.67(10)
O5 K2 Mo1 6_554 . 77.06(10)
O3 K2 Mo1 8 . 105.08(9)
O3 K2 Mo1 . . 105.08(9)
O2 K2 Mo1 . . 29.37(9)
O2 K2 Mo1 3_565 . 29.37(9)
O3 K2 Mo1 10 . 76.04(9)
O3 K2 Mo1 6 . 76.04(9)
O4 K2 Mo1 . . 139.03(10)
O4 K2 Mo1 2 . 139.03(10)
O4 K2 Mo1 6_554 . 130.97(11)
O5 K2 Mo2 6_554 . 102.14(7)
O3 K2 Mo2 8 . 133.78(11)
O3 K2 Mo2 . . 27.66(7)
O2 K2 Mo2 . . 92.17(9)
O2 K2 Mo2 3_565 . 148.43(9)
O3 K2 Mo2 10 . 68.15(7)
O3 K2 Mo2 6 . 115.92(10)
O4 K2 Mo2 . . 28.71(7)
O4 K2 Mo2 2 . 93.08(8)
O4 K2 Mo2 6_554 . 75.68(5)
Mo1 K2 Mo2 . . 119.66(3)
O5 K2 Mo2 6_554 2 102.14(7)
O3 K2 Mo2 8 2 27.66(7)
O3 K2 Mo2 . 2 133.78(11)
O2 K2 Mo2 . 2 148.43(9)
O2 K2 Mo2 3_565 2 92.17(9)
O3 K2 Mo2 10 2 115.92(10)
O3 K2 Mo2 6 2 68.15(7)
O4 K2 Mo2 . 2 93.08(8)
O4 K2 Mo2 2 2 28.71(7)
O4 K2 Mo2 6_554 2 75.69(5)
Mo1 K2 Mo2 . 2 119.65(3)
Mo2 K2 Mo2 . 2 119.31(4)
O5 K2 Mo2 6_554 6 154.75(10)
O3 K2 Mo2 8 6 111.07(11)
O3 K2 Mo2 . 6 111.07(11)
O2 K2 Mo2 . 6 86.88(13)
O2 K2 Mo2 3_565 6 86.88(12)
O3 K2 Mo2 10 6 28.17(7)
O3 K2 Mo2 6 6 28.17(7)
O4 K2 Mo2 . 6 78.27(11)
O4 K2 Mo2 2 6 78.27(11)
O4 K2 Mo2 6_554 6 151.34(9)
Mo1 K2 Mo2 . 6 77.68(6)
Mo2 K2 Mo2 . 6 90.32(5)
Mo2 K2 Mo2 2 6 90.33(5)
O5 K2 Mo2 6_554 6_554 26.03(9)
O3 K2 Mo2 8 6_554 68.78(11)
O3 K2 Mo2 . 6_554 68.77(11)
O2 K2 Mo2 . 6_554 93.81(13)
O2 K2 Mo2 3_565 6_554 93.81(13)
O3 K2 Mo2 10 6_554 151.91(7)
O3 K2 Mo2 6 6_554 151.91(7)
O4 K2 Mo2 . 6_554 101.07(10)
O4 K2 Mo2 2 6_554 101.07(10)
O4 K2 Mo2 6_554 6_554 27.87(7)
Mo1 K2 Mo2 . 6_554 103.10(6)
Mo2 K2 Mo2 . 6_554 89.28(5)
Mo2 K2 Mo2 2 6_554 89.28(5)
Mo2 K2 Mo2 6 6_554 179.22(5)
O5 K2 K1 6_554 . 96.12(11)
O3 K2 K1 8 . 72.82(10)
O3 K2 K1 . . 72.82(10)
O2 K2 K1 . . 148.14(10)
O2 K2 K1 3_565 . 148.14(10)
O3 K2 K1 10 . 109.90(8)
O3 K2 K1 6 . 109.90(8)
O4 K2 K1 . . 45.13(9)
O4 K2 K1 2 . 45.13(9)
O4 K2 K1 6_554 . 42.21(8)
Mo1 K2 K1 . . 173.18(9)
Mo2 K2 K1 . . 61.37(2)
Mo2 K2 K1 2 . 61.37(2)
Mo2 K2 K1 6 . 109.13(5)
Mo2 K2 K1 6_554 . 70.08(5)
O5 K2 Ag2 6_554 4_664 51.7(4)
O3 K2 Ag2 8 4_664 127.4(4)
O3 K2 Ag2 . 4_664 38.9(3)
O2 K2 Ag2 . 4_664 43.3(3)
O2 K2 Ag2 3_565 4_664 89.2(3)
O3 K2 Ag2 10 4_664 92.1(4)
O3 K2 Ag2 6 4_664 138.3(3)
O4 K2 Ag2 . 4_664 93.2(4)
O4 K2 Ag2 2 4_664 150.8(3)
O4 K2 Ag2 6_554 4_664 78.6(3)
Mo1 K2 Ag2 . 4_664 70.2(3)
Mo2 K2 Ag2 . 4_664 64.6(3)
Mo2 K2 Ag2 2 4_664 151.5(4)
Mo2 K2 Ag2 6 4_664 118.2(3)
Mo2 K2 Ag2 6_554 4_664 62.2(3)
K1 K2 Ag2 . 4_664 105.7(3)
O5 K2 Ag2 6_554 6_554 51.7(4)
O3 K2 Ag2 8 6_554 38.9(3)
O3 K2 Ag2 . 6_554 127.4(4)
O2 K2 Ag2 . 6_554 89.2(3)
O2 K2 Ag2 3_565 6_554 43.3(3)
O3 K2 Ag2 10 6_554 138.3(3)
O3 K2 Ag2 6 6_554 92.1(4)
O4 K2 Ag2 . 6_554 150.8(3)
O4 K2 Ag2 2 6_554 93.2(4)
O4 K2 Ag2 6_554 6_554 78.6(3)
Mo1 K2 Ag2 . 6_554 70.2(3)
Mo2 K2 Ag2 . 6_554 151.5(3)
Mo2 K2 Ag2 2 6_554 64.6(3)
Mo2 K2 Ag2 6 6_554 118.2(3)
Mo2 K2 Ag2 6_554 6_554 62.2(3)
K1 K2 Ag2 . 6_554 105.7(3)
Ag2 K2 Ag2 4_664 6_554 98.5(7)
O5 K2 K3 6_554 4_664 47.00(10)
O3 K2 K3 8 4_664 122.69(16)
O3 K2 K3 . 4_664 41.52(12)
O2 K2 K3 . 4_664 44.43(13)
O2 K2 K3 3_565 4_664 87.19(15)
O3 K2 K3 10 4_664 96.59(11)
O3 K2 K3 6 4_664 140.89(11)
O4 K2 K3 . 4_664 96.30(13)
O4 K2 K3 2 4_664 150.47(13)
O4 K2 K3 6_554 4_664 75.83(10)
Mo1 K2 K3 . 4_664 70.00(9)
Mo2 K2 K3 . 4_664 67.93(10)
Mo2 K2 K3 2 4_664 147.26(12)
Mo2 K2 K3 6 4_664 122.27(9)
Mo2 K2 K3 6_554 4_664 58.16(9)
K1 K2 K3 . 4_664 105.42(9)
Ag2 K2 K3 4_664 4_664 4.7(4)
Ag2 K2 K3 6_554 4_664 94.1(3)
O5 K2 K3 6_554 6_554 47.00(10)
O3 K2 K3 8 6_554 41.52(12)
O3 K2 K3 . 6_554 122.69(16)
O2 K2 K3 . 6_554 87.19(15)
O2 K2 K3 3_565 6_554 44.43(13)
O3 K2 K3 10 6_554 140.89(11)
O3 K2 K3 6 6_554 96.59(11)
O4 K2 K3 . 6_554 150.47(13)
O4 K2 K3 2 6_554 96.30(13)
O4 K2 K3 6_554 6_554 75.83(10)
Mo1 K2 K3 . 6_554 70.00(9)
Mo2 K2 K3 . 6_554 147.26(12)
Mo2 K2 K3 2 6_554 67.93(10)
Mo2 K2 K3 6 6_554 122.28(9)
Mo2 K2 K3 6_554 6_554 58.16(9)
K1 K2 K3 . 6_554 105.42(9)
Ag2 K2 K3 4_664 6_554 94.1(3)
Ag2 K2 K3 6_554 6_554 4.7(4)
K3 K2 K3 4_664 6_554 89.7(2)
O3 K3 O3 4_665 10 111.3(3)
O3 K3 O2 4_665 . 83.6(2)
O3 K3 O2 10 . 83.6(2)
O3 K3 O2 4_665 4_665 83.23(19)
O3 K3 O2 10 4_665 83.23(19)
O2 K3 O2 . 4_665 156.6(3)
O3 K3 O5 4_665 . 153.2(3)
O3 K3 O5 10 . 75.74(13)
O2 K3 O5 . . 123.13(19)
O2 K3 O5 4_665 . 71.74(19)
O3 K3 O5 4_665 3_665 75.74(13)
O3 K3 O5 10 3_665 153.2(3)
O2 K3 O5 . 3_665 123.13(19)
O2 K3 O5 4_665 3_665 71.74(19)
O5 K3 O5 . 3_665 87.3(2)
O3 K3 Ag1 4_665 . 116.16(18)
O3 K3 Ag1 10 . 116.16(18)
O2 K3 Ag1 . . 140.0(3)
O2 K3 Ag1 4_665 . 63.41(19)
O5 K3 Ag1 . . 43.64(12)
O5 K3 Ag1 3_665 . 43.64(12)
O3 K3 O3 4_665 7_665 80.09(13)
O3 K3 O3 10 7_665 151.2(3)
O2 K3 O3 . 7_665 71.07(16)
O2 K3 O3 4_665 7_665 125.2(2)
O5 K3 O3 . 7_665 106.4(2)
O5 K3 O3 3_665 7_665 53.59(13)
Ag1 K3 O3 . 7_665 78.31(14)
O3 K3 O3 4_665 . 151.2(3)
O3 K3 O3 10 . 80.10(13)
O2 K3 O3 . . 71.07(16)
O2 K3 O3 4_665 . 125.2(2)
O5 K3 O3 . . 53.59(13)
O5 K3 O3 3_665 . 106.4(2)
Ag1 K3 O3 . . 78.31(14)
O3 K3 O3 7_665 . 78.83(18)
O3 K3 Ag2 4_665 4_664 110.52(17)
O3 K3 Ag2 10 4_664 110.52(17)
O2 K3 Ag2 . 4_664 49.7(4)
O2 K3 Ag2 4_665 4_664 153.7(3)
O5 K3 Ag2 . 4_664 89.5(3)
O5 K3 Ag2 3_665 4_664 89.5(3)
Ag1 K3 Ag2 . 4_664 90.2(4)
O3 K3 Ag2 7_665 4_664 41.87(18)
O3 K3 Ag2 . 4_664 41.87(18)
O3 K3 Mo2 4_665 3_665 70.32(10)
O3 K3 Mo2 10 3_665 178.3(2)
O2 K3 Mo2 . 3_665 95.94(15)
O2 K3 Mo2 4_665 3_665 97.72(16)
O5 K3 Mo2 . 3_665 103.2(2)
O5 K3 Mo2 3_665 3_665 27.20(9)
Ag1 K3 Mo2 . 3_665 63.19(10)
O3 K3 Mo2 7_665 3_665 27.67(6)
O3 K3 Mo2 . 3_665 98.17(16)
Ag2 K3 Mo2 4_664 3_665 68.0(2)
O3 K3 Mo2 4_665 . 178.3(2)
O3 K3 Mo2 10 . 70.32(10)
O2 K3 Mo2 . . 95.94(15)
O2 K3 Mo2 4_665 . 97.72(16)
O5 K3 Mo2 . . 27.20(9)
O5 K3 Mo2 3_665 . 103.1(2)
Ag1 K3 Mo2 . . 63.18(10)
O3 K3 Mo2 7_665 . 98.17(16)
O3 K3 Mo2 . . 27.67(6)
Ag2 K3 Mo2 4_664 . 68.0(2)
Mo2 K3 Mo2 3_665 . 108.07(16)
O3 K3 K3 4_665 4_665 61.64(18)
O3 K3 K3 10 4_665 61.64(18)
O2 K3 K3 . 4_665 111.4(3)
O2 K3 K3 4_665 4_665 45.26(17)
O5 K3 K3 . 4_665 104.1(2)
O5 K3 K3 3_665 4_665 104.1(2)
Ag1 K3 K3 . 4_665 108.7(3)
O3 K3 K3 7_665 4_665 140.46(10)
O3 K3 K3 . 4_665 140.46(10)
Ag2 K3 K3 4_664 4_665 161.09(17)
Mo2 K3 K3 3_665 4_665 120.04(12)
Mo2 K3 K3 . 4_665 120.04(12)
O3 K3 K3 4_665 4_664 109.5(2)
O3 K3 K3 10 4_664 109.5(2)
O2 K3 K3 . 4_664 47.5(2)
O2 K3 K3 4_665 4_664 155.9(4)
O5 K3 K3 . 4_664 91.1(2)
O5 K3 K3 3_665 4_664 91.1(2)
Ag1 K3 K3 . 4_664 92.5(2)
O3 K3 K3 7_665 4_664 42.60(9)
O3 K3 K3 . 4_664 42.60(9)
Ag2 K3 K3 4_664 4_664 2.2(5)
Mo2 K3 K3 3_665 4_664 69.13(11)
Mo2 K3 K3 . 4_664 69.13(11)
K3 K3 K3 4_665 4_664 158.9(5)
O3 K3 K2 4_665 4_665 45.56(11)
O3 K3 K2 10 4_665 123.7(2)
O2 K3 K2 . 4_665 126.82(12)
O2 K3 K2 4_665 4_665 49.45(8)
O5 K3 K2 . 4_665 108.4(2)
O5 K3 K2 3_665 4_665 42.92(12)
Ag1 K3 K2 . 4_665 72.73(12)
O3 K3 K2 7_665 4_665 83.60(9)
O3 K3 K2 . 4_665 148.6(2)
Ag2 K3 K2 4_664 4_665 125.42(16)
Mo2 K3 K2 3_665 4_665 57.89(6)
Mo2 K3 K2 . 4_665 134.3(2)
K3 K3 K2 4_665 4_665 63.07(11)
K3 K3 K2 4_664 4_665 126.20(11)
O3 K3 K2 4_665 5 123.7(2)
O3 K3 K2 10 5 45.56(11)
O2 K3 K2 . 5 126.82(12)
O2 K3 K2 4_665 5 49.45(8)
O5 K3 K2 . 5 42.92(12)
O5 K3 K2 3_665 5 108.4(2)
Ag1 K3 K2 . 5 72.73(12)
O3 K3 K2 7_665 5 148.6(2)
O3 K3 K2 . 5 83.60(9)
Ag2 K3 K2 4_664 5 125.42(16)
Mo2 K3 K2 3_665 5 134.3(2)
Mo2 K3 K2 . 5 57.89(6)
K3 K3 K2 4_665 5 63.07(11)
K3 K3 K2 4_664 5 126.20(11)
K2 K3 K2 4_665 5 98.90(16)
O3 K3 Mo1 4_665 . 72.85(18)
O3 K3 Mo1 10 . 72.85(18)
O2 K3 Mo1 . . 20.18(13)
O2 K3 Mo1 4_665 . 136.4(2)
O5 K3 Mo1 . . 132.59(14)
O5 K3 Mo1 3_665 . 132.59(14)
Ag1 K3 Mo1 . . 160.15(19)
O3 K3 Mo1 7_665 . 86.41(15)
O3 K3 Mo1 . . 86.41(15)
Ag2 K3 Mo1 4_664 . 69.9(3)
Mo2 K3 Mo1 3_665 . 107.25(13)
Mo2 K3 Mo1 . . 107.25(13)
K3 K3 Mo1 4_665 . 91.2(3)
K3 K3 Mo1 4_664 . 67.7(2)
K2 K3 Mo1 4_665 . 118.41(12)
K2 K3 Mo1 5 . 118.41(12)
O3 K3 Ag2 4_665 4_665 62.8(2)
O3 K3 Ag2 10 4_665 62.8(2)
O2 K3 Ag2 . 4_665 114.7(3)
O2 K3 Ag2 4_665 4_665 41.9(4)
O5 K3 Ag2 . 4_665 101.7(2)
O5 K3 Ag2 3_665 4_665 101.7(2)
Ag1 K3 Ag2 . 4_665 105.3(3)
O3 K3 Ag2 7_665 4_665 140.59(9)
O3 K3 Ag2 . 4_665 140.59(9)
Ag2 K3 Ag2 4_664 4_665 164.4(6)
Mo2 K3 Ag2 3_665 4_665 118.80(13)
Mo2 K3 Ag2 . 4_665 118.80(13)
K3 K3 Ag2 4_665 4_665 3.4(5)
K3 K3 Ag2 4_664 4_665 162.22(15)
K2 K3 Ag2 4_665 4_665 61.35(19)
K2 K3 Ag2 5 4_665 61.35(19)
Mo1 K3 Ag2 . 4_665 94.5(3)
O3 K3 K2 4_665 2_665 48.70(15)
O3 K3 K2 10 2_665 124.7(3)
O2 K3 K2 . 2_665 48.24(8)
O2 K3 K2 4_665 2_665 129.16(10)
O5 K3 K2 . 2_665 148.6(2)
O5 K3 K2 3_665 2_665 80.01(10)
Ag1 K3 K2 . 2_665 118.51(12)
O3 K3 K2 7_665 2_665 43.60(9)
O3 K3 K2 . 2_665 102.76(17)
Ag2 K3 K2 4_664 2_665 62.01(19)
Mo2 K3 K2 3_665 2_665 55.76(5)
Mo2 K3 K2 . 2_665 129.94(17)
K3 K3 K2 4_665 2_665 106.9(2)
K3 K3 K2 4_664 2_665 60.83(14)
K2 K3 K2 4_665 2_665 81.17(4)
K2 K3 K2 5 2_665 167.8(2)
Mo1 K3 K2 . 2_665 52.58(9)
Ag2 K3 K2 4_665 2_665 108.94(16)
O3 K3 K2 4_665 . 124.7(3)
O3 K3 K2 10 . 48.70(15)
O2 K3 K2 . . 48.24(8)
O2 K3 K2 4_665 . 129.16(10)
O5 K3 K2 . . 80.01(10)
O5 K3 K2 3_665 . 148.6(2)
Ag1 K3 K2 . . 118.51(12)
O3 K3 K2 7_665 . 102.76(17)
O3 K3 K2 . . 43.60(9)
Ag2 K3 K2 4_664 . 62.01(19)
Mo2 K3 K2 3_665 . 129.94(17)
Mo2 K3 K2 . . 55.76(5)
K3 K3 K2 4_665 . 106.9(2)
K3 K3 K2 4_664 . 60.83(14)
K2 K3 K2 4_665 . 167.8(2)
K2 K3 K2 5 . 81.17(4)
Mo1 K3 K2 . . 52.58(9)
Ag2 K3 K2 4_665 . 108.94(16)
K2 K3 K2 2_665 . 96.18(16)
O1 Ag1 O5 4_664 . 93.21(12)
O1 Ag1 O5 4_664 2_655 93.21(12)
O5 Ag1 O5 . 2_655 119.69(2)
O1 Ag1 O5 4_664 3_665 93.21(12)
O5 Ag1 O5 . 3_665 119.69(2)
O5 Ag1 O5 2_655 3_665 119.69(2)
O1 Ag1 O2 4_664 4_665 149.08(8)
O5 Ag1 O2 . 4_665 72.27(11)
O5 Ag1 O2 2_655 4_665 117.70(15)
O5 Ag1 O2 3_665 4_665 72.27(11)
O1 Ag1 O2 4_664 6_655 149.09(9)
O5 Ag1 O2 . 6_655 117.71(15)
O5 Ag1 O2 2_655 6_655 72.27(11)
O5 Ag1 O2 3_665 6_655 72.27(11)
O2 Ag1 O2 4_665 6_655 52.84(14)
O1 Ag1 O2 4_664 5 149.09(9)
O5 Ag1 O2 . 5 72.27(11)
O5 Ag1 O2 2_655 5 72.27(11)
O5 Ag1 O2 3_665 5 117.70(15)
O2 Ag1 O2 4_665 5 52.84(14)
O2 Ag1 O2 6_655 5 52.84(14)
O1 Ag1 K3 4_664 . 98.09(11)
O5 Ag1 K3 . . 59.859(16)
O5 Ag1 K3 2_655 . 168.69(17)
O5 Ag1 K3 3_665 . 59.859(16)
O2 Ag1 K3 4_665 . 50.99(14)
O2 Ag1 K3 6_655 . 97.67(11)
O2 Ag1 K3 5 . 97.67(11)
O1 Ag1 K3 4_664 3_665 98.10(11)
O5 Ag1 K3 . 3_665 168.69(17)
O5 Ag1 K3 2_655 3_665 59.859(16)
O5 Ag1 K3 3_665 3_665 59.859(16)
O2 Ag1 K3 4_665 3_665 97.67(11)
O2 Ag1 K3 6_655 3_665 50.99(14)
O2 Ag1 K3 5 3_665 97.67(11)
K3 Ag1 K3 . 3_665 118.05(5)
O1 Ag1 K3 4_664 2_655 98.10(11)
O5 Ag1 K3 . 2_655 59.859(16)
O5 Ag1 K3 2_655 2_655 59.859(16)
O5 Ag1 K3 3_665 2_655 168.69(17)
O2 Ag1 K3 4_665 2_655 97.67(11)
O2 Ag1 K3 6_655 2_655 97.67(11)
O2 Ag1 K3 5 2_655 50.99(14)
K3 Ag1 K3 . 2_655 118.05(5)
K3 Ag1 K3 3_665 2_655 118.05(5)
O1 Ag1 Mo1 4_664 4_665 180.0
O5 Ag1 Mo1 . 4_665 86.79(12)
O5 Ag1 Mo1 2_655 4_665 86.79(12)
O5 Ag1 Mo1 3_665 4_665 86.79(12)
O2 Ag1 Mo1 4_665 4_665 30.91(8)
O2 Ag1 Mo1 6_655 4_665 30.92(8)
O2 Ag1 Mo1 5 4_665 30.92(8)
K3 Ag1 Mo1 . 4_665 81.90(11)
K3 Ag1 Mo1 3_665 4_665 81.90(11)
K3 Ag1 Mo1 2_655 4_665 81.90(11)
O1 Ag1 Ag2 4_664 . 102.1(5)
O5 Ag1 Ag2 . . 60.01(4)
O5 Ag1 Ag2 2_655 . 164.7(5)
O5 Ag1 Ag2 3_665 . 60.01(4)
O2 Ag1 Ag2 4_665 . 47.0(5)
O2 Ag1 Ag2 6_655 . 94.1(4)
O2 Ag1 Ag2 5 . 94.1(4)
K3 Ag1 Ag2 . . 4.0(5)
K3 Ag1 Ag2 3_665 . 117.03(10)
K3 Ag1 Ag2 2_655 . 117.03(10)
Mo1 Ag1 Ag2 4_665 . 77.9(5)
O1 Ag1 Ag2 4_664 3_665 102.1(5)
O5 Ag1 Ag2 . 3_665 164.7(5)
O5 Ag1 Ag2 2_655 3_665 60.01(4)
O5 Ag1 Ag2 3_665 3_665 60.01(4)
O2 Ag1 Ag2 4_665 3_665 94.1(4)
O2 Ag1 Ag2 6_655 3_665 47.0(5)
O2 Ag1 Ag2 5 3_665 94.1(4)
K3 Ag1 Ag2 . 3_665 117.03(10)
K3 Ag1 Ag2 3_665 3_665 4.0(5)
K3 Ag1 Ag2 2_655 3_665 117.03(10)
Mo1 Ag1 Ag2 4_665 3_665 77.9(5)
Ag2 Ag1 Ag2 . 3_665 115.7(3)
O1 Ag1 Ag2 4_664 2_655 102.1(5)
O5 Ag1 Ag2 . 2_655 60.01(4)
O5 Ag1 Ag2 2_655 2_655 60.01(4)
O5 Ag1 Ag2 3_665 2_655 164.7(5)
O2 Ag1 Ag2 4_665 2_655 94.1(4)
O2 Ag1 Ag2 6_655 2_655 94.1(4)
O2 Ag1 Ag2 5 2_655 47.0(5)
K3 Ag1 Ag2 . 2_655 117.03(10)
K3 Ag1 Ag2 3_665 2_655 117.03(10)
K3 Ag1 Ag2 2_655 2_655 4.0(5)
Mo1 Ag1 Ag2 4_665 2_655 77.9(5)
Ag2 Ag1 Ag2 . 2_655 115.7(3)
Ag2 Ag1 Ag2 3_665 2_655 115.7(3)
O1 Ag1 Mo2 4_664 2_655 71.468(16)
O5 Ag1 Mo2 . 2_655 119.41(4)
O5 Ag1 Mo2 2_655 2_655 21.74(12)
O5 Ag1 Mo2 3_665 2_655 119.42(4)
O2 Ag1 Mo2 4_665 2_655 139.45(9)
O2 Ag1 Mo2 6_655 2_655 91.67(5)
O2 Ag1 Mo2 5 2_655 91.67(5)
K3 Ag1 Mo2 . 2_655 169.56(11)
K3 Ag1 Mo2 3_665 2_655 64.88(5)
K3 Ag1 Mo2 2_655 2_655 64.88(5)
Mo1 Ag1 Mo2 4_665 2_655 108.535(16)
Ag2 Ag1 Mo2 . 2_655 173.6(5)
Ag2 Ag1 Mo2 3_665 2_655 66.6(2)
Ag2 Ag1 Mo2 2_655 2_655 66.6(2)
O1 Ag1 Mo2 4_664 . 71.466(16)
O5 Ag1 Mo2 . . 21.74(12)
O5 Ag1 Mo2 2_655 . 119.41(4)
O5 Ag1 Mo2 3_665 . 119.41(4)
O2 Ag1 Mo2 4_665 . 91.67(5)
O2 Ag1 Mo2 6_655 . 139.45(9)
O2 Ag1 Mo2 5 . 91.67(5)
K3 Ag1 Mo2 . . 64.88(5)
K3 Ag1 Mo2 3_665 . 169.56(11)
K3 Ag1 Mo2 2_655 . 64.88(5)
Mo1 Ag1 Mo2 4_665 . 108.533(16)
Ag2 Ag1 Mo2 . . 66.6(2)
Ag2 Ag1 Mo2 3_665 . 173.6(5)
Ag2 Ag1 Mo2 2_655 . 66.6(2)
Mo2 Ag1 Mo2 2_655 . 110.392(16)
O1 Ag1 Mo2 4_664 3_665 71.466(17)
O5 Ag1 Mo2 . 3_665 119.41(4)
O5 Ag1 Mo2 2_655 3_665 119.42(4)
O5 Ag1 Mo2 3_665 3_665 21.74(12)
O2 Ag1 Mo2 4_665 3_665 91.67(5)
O2 Ag1 Mo2 6_655 3_665 91.67(5)
O2 Ag1 Mo2 5 3_665 139.45(9)
K3 Ag1 Mo2 . 3_665 64.88(5)
K3 Ag1 Mo2 3_665 3_665 64.88(5)
K3 Ag1 Mo2 2_655 3_665 169.56(11)
Mo1 Ag1 Mo2 4_665 3_665 108.533(16)
Ag2 Ag1 Mo2 . 3_665 66.6(2)
Ag2 Ag1 Mo2 3_665 3_665 66.6(2)
Ag2 Ag1 Mo2 2_655 3_665 173.6(5)
Mo2 Ag1 Mo2 2_655 3_665 110.393(16)
Mo2 Ag1 Mo2 . 3_665 110.392(16)
O1 Ag1 Mo1 4_664 4_664 0.0010(10)
O5 Ag1 Mo1 . 4_664 93.21(12)
O5 Ag1 Mo1 2_655 4_664 93.21(12)
O5 Ag1 Mo1 3_665 4_664 93.21(12)
O2 Ag1 Mo1 4_665 4_664 149.08(8)
O2 Ag1 Mo1 6_655 4_664 149.09(8)
O2 Ag1 Mo1 5 4_664 149.09(8)
K3 Ag1 Mo1 . 4_664 98.10(11)
K3 Ag1 Mo1 3_665 4_664 98.10(11)
K3 Ag1 Mo1 2_655 4_664 98.10(11)
Mo1 Ag1 Mo1 4_665 4_664 180.0
Ag2 Ag1 Mo1 . 4_664 102.1(5)
Ag2 Ag1 Mo1 3_665 4_664 102.1(5)
Ag2 Ag1 Mo1 2_655 4_664 102.1(5)
Mo2 Ag1 Mo1 2_655 4_664 71.467(16)
Mo2 Ag1 Mo1 . 4_664 71.466(16)
Mo2 Ag1 Mo1 3_665 4_664 71.466(16)
O1 Ag1 K2 4_664 6_655 126.39(4)
O5 Ag1 K2 . 6_655 111.63(8)
O5 Ag1 K2 2_655 6_655 33.18(12)
O5 Ag1 K2 3_665 6_655 111.63(8)
O2 Ag1 K2 4_665 6_655 84.53(9)
O2 Ag1 K2 6_655 6_655 44.29(3)
O2 Ag1 K2 5 6_655 44.29(3)
K3 Ag1 K2 . 6_655 135.52(12)
K3 Ag1 K2 3_665 6_655 61.18(7)
K3 Ag1 K2 2_655 6_655 61.18(7)
Mo1 Ag1 K2 4_665 6_655 53.61(4)
Ag2 Ag1 K2 . 6_655 131.5(5)
Ag2 Ag1 K2 3_665 6_655 58.8(3)
Ag2 Ag1 K2 2_655 6_655 58.8(3)
Mo2 Ag1 K2 2_655 6_655 54.92(3)
Mo2 Ag1 K2 . 6_655 124.764(10)
Mo2 Ag1 K2 3_665 6_655 124.765(10)
Mo1 Ag1 K2 4_664 6_655 126.39(4)
O1 Ag1 K2 4_664 4_665 126.39(4)
O5 Ag1 K2 . 4_665 111.63(8)
O5 Ag1 K2 2_655 4_665 111.63(8)
O5 Ag1 K2 3_665 4_665 33.18(12)
O2 Ag1 K2 4_665 4_665 44.29(3)
O2 Ag1 K2 6_655 4_665 44.29(3)
O2 Ag1 K2 5 4_665 84.53(9)
K3 Ag1 K2 . 4_665 61.18(7)
K3 Ag1 K2 3_665 4_665 61.18(7)
K3 Ag1 K2 2_655 4_665 135.52(12)
Mo1 Ag1 K2 4_665 4_665 53.61(4)
Ag2 Ag1 K2 . 4_665 58.8(3)
Ag2 Ag1 K2 3_665 4_665 58.8(3)
Ag2 Ag1 K2 2_655 4_665 131.5(5)
Mo2 Ag1 K2 2_655 4_665 124.765(10)
Mo2 Ag1 K2 . 4_665 124.765(9)
Mo2 Ag1 K2 3_665 4_665 54.92(3)
Mo1 Ag1 K2 4_664 4_665 126.39(4)
K2 Ag1 K2 6_655 4_665 88.40(6)
O3 Ag2 O3 4_665 10 123.8(10)
O3 Ag2 O2 4_665 4_665 88.6(7)
O3 Ag2 O2 10 4_665 88.6(7)
O3 Ag2 O2 4_665 . 86.8(7)
O3 Ag2 O2 10 . 86.8(7)
O2 Ag2 O2 4_665 . 170.3(11)
O3 Ag2 O5 4_665 . 152.3(10)
O3 Ag2 O5 10 . 74.8(3)
O2 Ag2 O5 4_665 . 70.3(6)
O2 Ag2 O5 . . 116.6(7)
O3 Ag2 O5 4_665 3_665 74.8(3)
O3 Ag2 O5 10 3_665 152.3(10)
O2 Ag2 O5 4_665 3_665 70.3(6)
O2 Ag2 O5 . 3_665 116.6(7)
O5 Ag2 O5 . 3_665 81.1(6)
O3 Ag2 K3 4_665 4_665 68.0(6)
O3 Ag2 K3 10 4_665 68.0(6)
O2 Ag2 K3 4_665 4_665 49.7(5)
O2 Ag2 K3 . 4_665 120.7(7)
O5 Ag2 K3 . 4_665 107.5(6)
O5 Ag2 K3 3_665 4_665 107.5(6)
O3 Ag2 Ag1 4_665 . 113.5(6)
O3 Ag2 Ag1 10 . 113.5(6)
O2 Ag2 Ag1 4_665 . 60.8(5)
O2 Ag2 Ag1 . . 128.9(9)
O5 Ag2 Ag1 . . 40.6(3)
O5 Ag2 Ag1 3_665 . 40.6(3)
K3 Ag2 Ag1 4_665 . 110.4(7)
O3 Ag2 Ag2 4_665 4_664 107.4(8)
O3 Ag2 Ag2 10 4_664 107.4(8)
O2 Ag2 Ag2 4_665 4_664 143.5(12)
O2 Ag2 Ag2 . 4_664 46.1(7)
O5 Ag2 Ag2 . 4_664 82.4(7)
O5 Ag2 Ag2 3_665 4_664 82.4(7)
K3 Ag2 Ag2 4_665 4_664 166.8(11)
Ag1 Ag2 Ag2 . 4_664 82.8(8)
O3 Ag2 Ag2 4_665 4_665 69.2(6)
O3 Ag2 Ag2 10 4_665 69.2(6)
O2 Ag2 Ag2 4_665 4_665 46.2(6)
O2 Ag2 Ag2 . 4_665 124.1(12)
O5 Ag2 Ag2 . 4_665 104.9(9)
O5 Ag2 Ag2 3_665 4_665 104.9(9)
K3 Ag2 Ag2 4_665 4_665 3.5(5)
Ag1 Ag2 Ag2 . 4_665 107.0(10)
Ag2 Ag2 Ag2 4_664 4_665 170.3(16)
O3 Ag2 Mo1 4_665 . 76.6(6)
O3 Ag2 Mo1 10 . 76.6(6)
O2 Ag2 Mo1 4_665 . 147.6(9)
O2 Ag2 Mo1 . . 22.7(3)
O5 Ag2 Mo1 . . 130.5(6)
O5 Ag2 Mo1 3_665 . 130.5(6)
K3 Ag2 Mo1 4_665 . 97.9(5)
Ag1 Ag2 Mo1 . . 151.6(8)
Ag2 Ag2 Mo1 4_664 . 68.9(8)
Ag2 Ag2 Mo1 4_665 . 101.4(9)
O3 Ag2 K2 4_665 4_665 46.4(3)
O3 Ag2 K2 10 4_665 132.2(10)
O2 Ag2 K2 4_665 4_665 50.5(3)
O2 Ag2 K2 . 4_665 129.0(3)
O5 Ag2 K2 . 4_665 106.1(7)
O5 Ag2 K2 3_665 4_665 43.5(2)
K3 Ag2 K2 4_665 4_665 66.3(4)
Ag1 Ag2 K2 . 4_665 71.2(4)
Ag2 Ag2 K2 4_664 4_665 120.3(5)
Ag2 Ag2 K2 4_665 4_665 64.5(5)
Mo1 Ag2 K2 . 4_665 122.9(4)
O3 Ag2 K2 4_665 5 132.2(10)
O3 Ag2 K2 10 5 46.4(3)
O2 Ag2 K2 4_665 5 50.5(3)
O2 Ag2 K2 . 5 129.0(3)
O5 Ag2 K2 . 5 43.5(2)
O5 Ag2 K2 3_665 5 106.1(7)
K3 Ag2 K2 4_665 5 66.3(4)
Ag1 Ag2 K2 . 5 71.2(4)
Ag2 Ag2 K2 4_664 5 120.3(5)
Ag2 Ag2 K2 4_665 5 64.5(5)
Mo1 Ag2 K2 . 5 122.9(4)
K2 Ag2 K2 4_665 5 101.0(6)
O3 Ag2 Mo2 4_665 3_665 67.8(3)
O3 Ag2 Mo2 10 3_665 168.0(8)
O2 Ag2 Mo2 4_665 3_665 94.8(5)
O2 Ag2 Mo2 . 3_665 91.3(6)
O5 Ag2 Mo2 . 3_665 95.5(6)
O5 Ag2 Mo2 3_665 3_665 25.47(16)
K3 Ag2 Mo2 4_665 3_665 122.6(4)
Ag1 Ag2 Mo2 . 3_665 59.1(3)
Ag2 Ag2 Mo2 4_664 3_665 63.6(4)
Ag2 Ag2 Mo2 4_665 3_665 121.1(6)
Mo1 Ag2 Mo2 . 3_665 105.6(5)
K2 Ag2 Mo2 4_665 3_665 56.84(17)
K2 Ag2 Mo2 5 3_665 129.7(7)
O3 Ag2 Mo2 4_665 . 168.0(8)
O3 Ag2 Mo2 10 . 67.8(3)
O2 Ag2 Mo2 4_665 . 94.8(5)
O2 Ag2 Mo2 . . 91.3(6)
O5 Ag2 Mo2 . . 25.47(16)
O5 Ag2 Mo2 3_665 . 95.5(6)
K3 Ag2 Mo2 4_665 . 122.6(4)
Ag1 Ag2 Mo2 . . 59.1(3)
Ag2 Ag2 Mo2 4_664 . 63.6(4)
Ag2 Ag2 Mo2 4_665 . 121.1(6)
Mo1 Ag2 Mo2 . . 105.6(5)
K2 Ag2 Mo2 4_665 . 129.7(7)
K2 Ag2 Mo2 5 . 56.84(17)
Mo2 Ag2 Mo2 3_665 . 100.3(5)
O3 Ag2 K3 4_665 4_664 106.5(7)
O3 Ag2 K3 10 4_664 106.5(7)
O2 Ag2 K3 4_665 4_664 145.9(8)
O2 Ag2 K3 . 4_664 43.8(4)
O5 Ag2 K3 . 4_664 84.1(5)
O5 Ag2 K3 3_665 4_664 84.1(5)
K3 Ag2 K3 4_665 4_664 164.4(6)
Ag1 Ag2 K3 . 4_664 85.1(5)
Ag2 Ag2 K3 4_664 4_664 2.3(5)
Ag2 Ag2 K3 4_665 4_664 167.9(11)
Mo1 Ag2 K3 . 4_664 66.5(4)
K2 Ag2 K3 4_665 4_664 121.3(4)
K2 Ag2 K3 5 4_664 121.3(4)
Mo2 Ag2 K3 3_665 4_664 64.8(4)
Mo2 Ag2 K3 . 4_664 64.8(4)
O3 Ag2 Mo2 4_665 4_665 13.4(3)
O3 Ag2 Mo2 10 4_665 110.5(8)
O2 Ag2 Mo2 4_665 4_665 89.4(5)
O2 Ag2 Mo2 . 4_665 84.2(5)
O5 Ag2 Mo2 . 4_665 159.1(9)
O5 Ag2 Mo2 3_665 4_665 87.64(17)
K3 Ag2 Mo2 4_665 4_665 59.3(3)
Ag1 Ag2 Mo2 . 4_665 124.9(4)
Ag2 Ag2 Mo2 4_664 4_665 113.7(7)
Ag2 Ag2 Mo2 4_665 4_665 61.0(4)
Mo1 Ag2 Mo2 . 4_665 69.8(4)
K2 Ag2 Mo2 4_665 4_665 54.73(18)
K2 Ag2 Mo2 5 4_665 125.5(7)
Mo2 Ag2 Mo2 3_665 4_665 81.05(3)
Mo2 Ag2 Mo2 . 4_665 175.4(8)
K3 Ag2 Mo2 4_664 4_665 112.3(4)
O3 Ag2 Mo2 4_665 6 110.5(8)
O3 Ag2 Mo2 10 6 13.4(3)
O2 Ag2 Mo2 4_665 6 89.4(5)
O2 Ag2 Mo2 . 6 84.2(5)
O5 Ag2 Mo2 . 6 87.64(17)
O5 Ag2 Mo2 3_665 6 159.1(9)
K3 Ag2 Mo2 4_665 6 59.3(3)
Ag1 Ag2 Mo2 . 6 124.9(4)
Ag2 Ag2 Mo2 4_664 6 113.7(7)
Ag2 Ag2 Mo2 4_665 6 61.0(4)
Mo1 Ag2 Mo2 . 6 69.8(4)
K2 Ag2 Mo2 4_665 6 125.5(7)
K2 Ag2 Mo2 5 6 54.73(18)
Mo2 Ag2 Mo2 3_665 6 175.4(8)
Mo2 Ag2 Mo2 . 6 81.05(3)
K3 Ag2 Mo2 4_664 6 112.3(4)
Mo2 Ag2 Mo2 4_665 6 97.2(5)
O3 Ag2 K2 4_665 2_665 48.2(4)
O3 Ag2 K2 10 2_665 129.8(9)
O2 Ag2 K2 4_665 2_665 132.0(3)
O2 Ag2 K2 . 2_665 47.9(3)
O5 Ag2 K2 . 2_665 138.6(8)
O5 Ag2 K2 3_665 2_665 77.8(3)
K3 Ag2 K2 4_665 2_665 112.6(4)
Ag1 Ag2 K2 . 2_665 112.5(5)
Ag2 Ag2 K2 4_664 2_665 60.0(5)
Ag2 Ag2 K2 4_665 2_665 114.7(6)
Mo1 Ag2 K2 . 2_665 53.2(3)
K2 Ag2 K2 4_665 2_665 81.65(4)
K2 Ag2 K2 5 2_665 176.1(7)
Mo2 Ag2 K2 3_665 2_665 54.21(19)
Mo2 Ag2 K2 . 2_665 123.5(7)
K3 Ag2 K2 4_664 2_665 58.8(3)
Mo2 Ag2 K2 4_665 2_665 53.81(18)
Mo2 Ag2 K2 6 2_665 121.4(6)
O3 Ag2 K2 4_665 . 129.8(9)
O3 Ag2 K2 10 . 48.2(4)
O2 Ag2 K2 4_665 . 132.0(3)
O2 Ag2 K2 . . 47.9(3)
O5 Ag2 K2 . . 77.8(3)
O5 Ag2 K2 3_665 . 138.6(8)
K3 Ag2 K2 4_665 . 112.6(4)
Ag1 Ag2 K2 . . 112.5(5)
Ag2 Ag2 K2 4_664 . 60.0(5)
Ag2 Ag2 K2 4_665 . 114.7(6)
Mo1 Ag2 K2 . . 53.2(3)
K2 Ag2 K2 4_665 . 176.1(7)
K2 Ag2 K2 5 . 81.65(4)
Mo2 Ag2 K2 3_665 . 123.5(7)
Mo2 Ag2 K2 . . 54.21(19)
K3 Ag2 K2 4_664 . 58.8(3)
Mo2 Ag2 K2 4_665 . 121.4(6)
Mo2 Ag2 K2 6 . 53.81(18)
K2 Ag2 K2 2_665 . 95.5(6)
Mo1 O1 Ag1 . 4_665 180.0
Mo1 O2 K3 . . 128.0(3)
Mo1 O2 Ag2 . 4_664 151.4(6)
K3 O2 Ag2 . 4_664 80.6(6)
Mo1 O2 Ag2 . . 120.9(6)
K3 O2 Ag2 . . 7.1(6)
Ag2 O2 Ag2 4_664 . 87.70(17)
Mo1 O2 K3 . 4_664 144.8(3)
K3 O2 K3 . 4_664 87.25(14)
Ag2 O2 K3 4_664 4_664 6.6(6)
Ag2 O2 K3 . 4_664 94.3(6)
Mo1 O2 K2 . 2_665 92.88(9)
K3 O2 K2 . 2_665 90.31(10)
Ag2 O2 K2 4_664 2_665 86.21(11)
Ag2 O2 K2 . 2_665 90.79(11)
K3 O2 K2 4_664 2_665 86.12(11)
Mo1 O2 K2 . . 92.88(9)
K3 O2 K2 . . 90.31(10)
Ag2 O2 K2 4_664 . 86.21(11)
Ag2 O2 K2 . . 90.79(11)
K3 O2 K2 4_664 . 86.12(11)
K2 O2 K2 2_665 . 172.2(2)
Mo1 O2 Ag1 . 4_664 79.19(18)
K3 O2 Ag1 . 4_664 152.9(2)
Ag2 O2 Ag1 4_664 4_664 72.2(5)
Ag2 O2 Ag1 . 4_664 159.9(6)
K3 O2 Ag1 4_664 4_664 65.61(19)
K2 O2 Ag1 2_665 4_664 87.95(12)
K2 O2 Ag1 . 4_664 87.95(12)
Mo2 O3 Ag2 . 4_664 147.6(6)
Mo2 O3 K3 . 4_664 153.6(2)
Ag2 O3 K3 4_664 4_664 6.4(6)
Mo2 O3 K2 . . 103.38(18)
Ag2 O3 K2 4_664 . 94.7(6)
K3 O3 K2 4_664 . 92.92(19)
Mo2 O3 K2 . 5_554 96.43(18)
Ag2 O3 K2 4_664 5_554 94.8(7)
K3 O3 K2 4_664 5_554 90.8(2)
K2 O3 K2 . 5_554 125.03(16)
Mo2 O3 K3 . . 86.7(2)
Ag2 O3 K3 4_664 . 70.1(7)
K3 O3 K3 4_664 . 75.76(13)
K2 O3 K3 . . 80.05(17)
K2 O3 K3 5_554 . 152.63(16)
Mo2 O4 K1 . 4 161.5(3)
Mo2 O4 K1 . . 113.5(2)
K1 O4 K1 4 . 84.95(12)
Mo2 O4 K2 . . 88.70(9)
K1 O4 K2 4 . 94.96(8)
K1 O4 K2 . . 79.72(9)
Mo2 O4 K2 . 3 88.70(9)
K1 O4 K2 4 3 94.96(8)
K1 O4 K2 . 3 79.72(9)
K2 O4 K2 . 3 156.2(2)
Mo2 O4 K2 . 5 84.34(17)
K1 O4 K2 4 5 77.17(13)
K1 O4 K2 . 5 162.12(17)
K2 O4 K2 . 5 101.62(10)
K2 O4 K2 3 5 101.62(10)
Mo2 O5 Ag1 . . 129.3(2)
Mo2 O5 K2 . 5 111.88(19)
Ag1 O5 K2 . 5 118.86(18)
Mo2 O5 K3 . . 104.24(15)
Ag1 O5 K3 . . 76.51(12)
K2 O5 K3 5 . 90.08(15)
Mo2 O5 K3 . 2_655 104.24(15)
Ag1 O5 K3 . 2_655 76.51(12)
K2 O5 K3 5 2_655 90.08(15)
K3 O5 K3 . 2_655 149.2(3)
Mo2 O5 Ag2 . . 106.1(5)
Ag1 O5 Ag2 . . 79.4(3)
K2 O5 Ag2 5 . 84.7(5)
K3 O5 Ag2 . . 5.4(5)
K3 O5 Ag2 2_655 . 149.0(4)
Mo2 O5 Ag2 . 2_655 106.1(5)
Ag1 O5 Ag2 . 2_655 79.4(3)
K2 O5 Ag2 5 2_655 84.7(5)
K3 O5 Ag2 . 2_655 149.0(4)
K3 O5 Ag2 2_655 2_655 5.4(5)
Ag2 O5 Ag2 . 2_655 147.9(10)
loop_
_geom_bond_atom_site_label_1
_geom_bond_atom_site_label_2
_geom_bond_site_symmetry_2
_geom_bond_distance
Mo1 O2 . 1.757(5)
Mo1 O2 3_565 1.757(5)
Mo1 O2 2_665 1.757(5)
Mo1 O1 . 1.786(18)
Mo1 Ag1 4_664 3.3592(12)
Mo1 K2 3_565 3.5777(15)
Mo1 K2 2_665 3.5777(15)
Mo1 K2 . 3.5777(15)
Mo1 Ag2 2_665 3.90(3)
Mo1 Ag2 3_565 3.90(3)
Mo1 Ag2 . 3.90(3)
Mo1 K3 2_665 4.016(8)
Mo2 O3 9 1.750(3)
Mo2 O3 . 1.750(3)
Mo2 O4 . 1.762(4)
Mo2 O5 . 1.774(4)
Mo2 K2 3 3.6675(7)
Mo2 K2 . 3.6675(7)
Mo2 K2 5_554 3.683(3)
Mo2 Ag1 . 3.7077(6)
Mo2 K2 5 3.751(3)
Mo2 K3 2_655 3.761(4)
Mo2 K3 . 3.761(4)
Mo2 K1 . 3.8695(8)
K1 O4 4_554 2.690(5)
K1 O4 6_554 2.690(5)
K1 O4 5_554 2.690(5)
K1 O4 3 2.812(5)
K1 O4 . 2.812(5)
K1 O4 2 2.812(5)
K1 K1 4_554 3.71690(10)
K1 K1 4 3.71690(10)
K1 K2 . 3.9046(17)
K1 K2 2 3.9046(17)
K1 K2 3 3.9046(17)
K1 K2 4_554 4.400(2)
K1 K2 6_554 4.400(2)
K1 K2 5_554 4.400(2)
K2 O5 6_554 2.709(5)
K2 O3 8 2.844(4)
K2 O3 . 2.844(4)
K2 O2 . 3.0295(13)
K2 O2 3_565 3.0296(13)
K2 O3 10 3.051(6)
K2 O3 6 3.051(6)
K2 O4 . 3.2567(17)
K2 O4 2 3.2567(17)
K2 O4 6_554 3.489(6)
K2 Ag2 4_664 3.916(18)
K2 Ag2 6_554 3.917(18)
K2 K3 4_664 3.978(5)
K2 K3 6_554 3.978(5)
K3 O3 4_665 2.640(5)
K3 O3 10 2.640(5)
K3 O2 . 2.689(9)
K3 O2 4_665 2.791(9)
K3 O5 . 2.909(6)
K3 O5 3_665 2.909(6)
K3 Ag1 . 3.271(7)
K3 O3 7_665 3.433(7)
K3 O3 . 3.433(7)
K3 Ag2 4_664 3.48(3)
K3 K3 4_665 3.781(3)
K3 K3 4_664 3.781(3)
K3 Ag2 4_665 4.02(3)
Ag1 O1 4_664 2.289(17)
Ag1 O5 . 2.321(4)
Ag1 O5 2_655 2.321(4)
Ag1 O5 3_665 2.321(4)
Ag1 O2 4_665 3.212(6)
Ag1 O2 6_655 3.212(6)
Ag1 O2 5 3.212(6)
Ag1 Ag2 . 3.50(3)
Ag1 Ag2 3_665 3.50(3)
Ag1 Ag2 2_655 3.50(3)
Ag2 O3 4_665 2.470(12)
Ag2 O3 10 2.470(12)
Ag2 O2 4_665 2.69(3)
Ag2 O2 . 2.69(3)
Ag2 O5 . 3.088(19)
Ag2 O5 3_665 3.088(19)
Ag2 Ag2 4_664 3.730(4)
Ag2 Ag2 4_665 3.730(4)
