#------------------------------------------------------------------------------
#$Date: 2019-12-26 21:24:38 +0200 (Thu, 26 Dec 2019) $
#$Revision: 246104 $
#$URL: file:///home/coder/svn-repositories/cod/cif/2/31/17/2311778.cif $
#------------------------------------------------------------------------------
#
# This file is available in the Crystallography Open Database (COD),
# http://www.crystallography.net/. The original data for this entry
# were provided by IUCr Journals, http://journals.iucr.org/.
#
# The file may be used within the scientific community so long as
# proper attribution is given to the journal article from which the
# data were obtained.
#
data_2311778
loop_
_publ_author_name
'Fulle, Kyle'
'Sanjeewa, Liurukara D.'
'McMillen, Colin D.'
'Kolis, Joseph W.'
_publ_section_title
;
 Crystal chemistry and the role of ionic radius in rare earth
 tetrasilicates:
 Ba<sub>2</sub>RE<sub>2</sub>Si<sub>4</sub>O<sub>12</sub>F<sub>2</sub> (RE
 = Er<sup>3+</sup>-Lu<sup>3+</sup>) and
 Ba<sub>2</sub>RE<sub>2</sub>Si<sub>4</sub>O<sub>13</sub> (RE =
 La<sup>3+</sup>-Ho<sup>3+</sup>).
;
_journal_issue                   'Pt 5'
_journal_name_full
'Acta crystallographica Section B, Structural science, crystal engineering and materials'
_journal_page_first              907
_journal_page_last               915
_journal_paper_doi               10.1107/S2052520617009544
_journal_volume                  73
_journal_year                    2017
_chemical_formula_sum            'Ba2 O13 Pr2 Si4'
_chemical_formula_weight         876.86
_space_group_crystal_system      triclinic
_space_group_IT_number           2
_space_group_name_Hall           '-P 1'
_space_group_name_H-M_alt        'P -1'
_atom_sites_solution_primary     direct
_atom_sites_solution_secondary   difmap
_audit_creation_method           SHELXL-2014/7
_cell_angle_alpha                86.5023(13)
_cell_angle_beta                 73.5481(13)
_cell_angle_gamma                86.2929(15)
_cell_formula_units_Z            2
_cell_length_a                   6.6880(3)
_cell_length_b                   8.9530(4)
_cell_length_c                   10.1324(4)
_cell_measurement_reflns_used    9962
_cell_measurement_temperature    300(2)
_cell_measurement_theta_max      28.32
_cell_measurement_theta_min      3.03
_cell_volume                     580.07(4)
_computing_cell_refinement       'Bruker SAINT'
_computing_data_collection       'Bruker APEX3'
_computing_data_reduction        'Bruker SAINT'
_computing_molecular_graphics    'DIAMOND (Bradenburg, 1999)'
_computing_publication_material  'Bruker SHELXTL'
_computing_structure_refinement  'SHELXL-2014/7 (Sheldrick, 2014)'
_computing_structure_solution    'SHELXT-2014 (Sheldrick 2014)'
_diffrn_ambient_temperature      300(2)
_diffrn_measured_fraction_theta_full 0.997
_diffrn_measured_fraction_theta_max 0.997
_diffrn_measurement_device_type  'Bruker Photon 100'
_diffrn_measurement_method       '\f and \w scans'
_diffrn_radiation_type           MoK\a
_diffrn_radiation_wavelength     0.71073
_diffrn_reflns_av_R_equivalents  0.0310
_diffrn_reflns_av_unetI/netI     0.0216
_diffrn_reflns_Laue_measured_fraction_full 0.997
_diffrn_reflns_Laue_measured_fraction_max 0.997
_diffrn_reflns_limit_h_max       8
_diffrn_reflns_limit_h_min       -8
_diffrn_reflns_limit_k_max       11
_diffrn_reflns_limit_k_min       -11
_diffrn_reflns_limit_l_max       11
_diffrn_reflns_limit_l_min       -12
_diffrn_reflns_number            11990
_diffrn_reflns_point_group_measured_fraction_full 0.997
_diffrn_reflns_point_group_measured_fraction_max 0.997
_diffrn_reflns_theta_full        25.242
_diffrn_reflns_theta_max         25.993
_diffrn_reflns_theta_min         2.282
_diffrn_source                   Ius
_exptl_absorpt_coefficient_mu    15.434
_exptl_absorpt_correction_T_max  1.0000
_exptl_absorpt_correction_T_min  0.7739
_exptl_absorpt_correction_type   multi-scan
_exptl_absorpt_process_details   'SADABS, Bruker'
_exptl_crystal_colour            green
_exptl_crystal_density_diffrn    5.020
_exptl_crystal_description       block
_exptl_crystal_F_000             780
_exptl_crystal_size_max          0.072
_exptl_crystal_size_mid          0.060
_exptl_crystal_size_min          0.055
_refine_diff_density_max         0.861
_refine_diff_density_min         -2.135
_refine_diff_density_rms         0.286
_refine_ls_extinction_method     none
_refine_ls_goodness_of_fit_ref   1.165
_refine_ls_matrix_type           full
_refine_ls_number_parameters     190
_refine_ls_number_reflns         2269
_refine_ls_number_restraints     0
_refine_ls_restrained_S_all      1.165
_refine_ls_R_factor_all          0.0222
_refine_ls_R_factor_gt           0.0205
_refine_ls_shift/su_max          0.001
_refine_ls_shift/su_mean         0.000
_refine_ls_structure_factor_coef Fsqd
_refine_ls_weighting_details
'w=1/[\s^2^(Fo^2^)+(0.0427P)^2^+0.3644P] where P=(Fo^2^+2Fc^2^)/3'
_refine_ls_weighting_scheme      calc
_refine_ls_wR_factor_gt          0.0500
_refine_ls_wR_factor_ref         0.0507
_reflns_Friedel_coverage         0.000
_reflns_number_gt                2147
_reflns_number_total             2269
_reflns_threshold_expression     'I > 2\s(I)'
_cod_data_source_file            rm5005sup1.cif
_cod_data_source_block           Pr
_cod_database_code               2311778
_shelx_shelxl_version_number     2014/7
_shelx_space_group_comment
;
The symmetry employed for this shelxl refinement is uniquely defined
by the following loop, which should always be used as a source of
symmetry information in preference to the above space-group names.
They are only intended as comments.
;
_shelx_estimated_absorpt_t_min   0.403
_shelx_estimated_absorpt_t_max   0.484
_shelx_res_file
;

    P-1.res created by SHELXL-2014/7


TITL P-1 in P-1
CELL 0.71073   6.68800   8.95300  10.13240  86.5023  73.5481  86.2929
ZERR    2.00   0.00030   0.00040   0.00040   0.0013   0.0013   0.0015
LATT  1
SFAC O SI BA PR
UNIT 26 8 4 4
TEMP 26.520
SIZE 0.055 0.06 0.072

L.S. 20
BOND
FMAP 2
PLAN 20
acta
omit -3 52
WGHT    0.023400    1.298200
FVAR       0.09878
MOLE   1
BA1   3    0.230602    0.330729    0.556023    11.00000    0.01098    0.00706 =
         0.00949    0.00039   -0.00467   -0.00148
BA2   3    0.754906    0.826969    1.075559    11.00000    0.00573    0.00606 =
         0.00867   -0.00097   -0.00284   -0.00025
PR1   4    0.814475    0.108855    0.394697    11.00000    0.00378    0.00355 =
         0.00507   -0.00033   -0.00177   -0.00003
PR2   4    0.309908    0.622192    0.898100    11.00000    0.00444    0.00414 =
         0.00543    0.00080   -0.00157    0.00033
SI1   2    0.605162   -0.059813    0.687366    11.00000    0.00381    0.00448 =
         0.00369   -0.00066   -0.00081   -0.00152
SI2   2    0.800977    0.122169    0.845052    11.00000    0.00359    0.00357 =
         0.00415   -0.00033   -0.00030   -0.00107
SI3   2    0.678796    0.385910    0.676474    11.00000    0.00601    0.00362 =
         0.00459   -0.00087   -0.00154   -0.00111
SI4   2    0.889854    0.566897    0.823025    11.00000    0.00349    0.00444 =
         0.00440   -0.00058   -0.00130   -0.00144
O1    1    1.026856    0.714193    0.797050    11.00000    0.00825    0.00732 =
         0.00808    0.00129   -0.00386   -0.00354
O2    1    0.470551   -0.207437    0.707698    11.00000    0.00881    0.00763 =
         0.00875    0.00095   -0.00257   -0.00487
O3    1    0.664542    0.595151    0.936014    11.00000    0.00576    0.00901 =
         0.00661   -0.00017   -0.00068   -0.00181
O4    1    0.828166   -0.086681    0.574263    11.00000    0.00395    0.00764 =
         0.00463   -0.00163   -0.00080   -0.00029
O5    1    0.651629   -0.015715    0.833944    11.00000    0.00461    0.00629 =
         0.00551   -0.00099   -0.00143   -0.00362
O6    1    0.845342    0.515846    0.679716    11.00000    0.00675    0.00951 =
         0.00454   -0.00057   -0.00249   -0.00405
O7    1    0.471218    0.075758    0.634137    11.00000    0.00977    0.00768 =
         0.01492   -0.00122   -0.00646    0.00267
O8    1    1.018184    0.429092    0.878140    11.00000    0.01190    0.00896 =
         0.01380   -0.00087   -0.00786    0.00190
O9    1    1.027371    0.105381    0.740349    11.00000    0.00853    0.00736 =
         0.00806   -0.00326   -0.00099   -0.00012
O10   1    0.449458    0.460494    0.701238    11.00000    0.01122    0.00832 =
         0.01871   -0.00527   -0.00773    0.00201
O11   1    0.782979    0.316040    0.531260    11.00000    0.01973    0.01027 =
         0.01001   -0.00618    0.00127   -0.00249
O12   1    0.804827    0.128516    1.001570    11.00000    0.00925    0.00764 =
         0.00489   -0.00020   -0.00208   -0.00144
O13   1    0.667763    0.273697    0.812735    11.00000    0.00471    0.00555 =
         0.00708    0.00150    0.00060    0.00079
MOLE   2
HKLF 4

REM  P-1 in P-1
REM R1 =  0.0205 for    2147 Fo > 4sig(Fo)  and  0.0222 for all    2269 data
REM    190 parameters refined using      0 restraints

END

WGHT      0.0237      1.0393

REM Highest difference peak  0.861,  deepest hole -2.135,  1-sigma level  0.286
Q1    1   0.7322  0.0095  1.0571  11.00000  0.05    0.86
Q2    1   0.2376  0.4971  0.5658  11.00000  0.05    0.85
Q3    1   0.3034  0.4294  0.6623  11.00000  0.05    0.82
Q4    1   0.7074  0.5418  1.0585  11.00000  0.05    0.79
Q5    1   0.8586  0.3464  0.5996  11.00000  0.05    0.75
Q6    1   0.3879  0.5053  0.8247  11.00000  0.05    0.74
Q7    1   0.8430 -0.0551  0.3988  11.00000  0.05    0.71
Q8    1   0.3711 -0.1950  0.6057  11.00000  0.05    0.70
Q9    1   0.7347  0.5815  0.9845  11.00000  0.05    0.70
Q10   1   0.8791 -0.2141  0.5181  11.00000  0.05    0.70
Q11   1   0.6266  0.1479  0.3868  11.00000  0.05    0.69
Q12   1   0.6298  0.7257  0.9861  11.00000  0.05    0.68
Q13   1   0.7755  0.9539  1.1641  11.00000  0.05    0.68
Q14   1   0.3280  0.2261  0.4746  11.00000  0.05    0.68
Q15   1   0.2337  0.5079  0.7454  11.00000  0.05    0.65
Q16   1   0.8040 -0.0908  0.5021  11.00000  0.05    0.65
Q17   1   0.8025  0.1799  0.5160  11.00000  0.05    0.65
Q18   1   0.9636  0.1843  0.4533  11.00000  0.05    0.65
Q19   1   1.2086  0.0184  0.6779  11.00000  0.05    0.64
Q20   1   0.8153  0.1941  0.9442  11.00000  0.05    0.64
;
_shelx_res_checksum              36132
_shelx_hkl_file
;
  -1   0   0    2.39    0.18
  -1   0   0    2.78    0.18
   1   0   0    2.39    0.18
   1   0   0    2.68    0.18
   1   0   0    2.44    0.15
  -3   0   0   14.74    0.71
  -3   0   0   14.65    0.84
  -3   0   0   14.80    0.82
   3   0   0   14.83    0.72
   3   0   0   14.15    0.83
   3   0   0   14.41    0.82
  -4   0   0  145.59    5.60
  -4   0   0  137.54    5.78
  -4   0   0  145.24    5.76
   4   0   0  134.74    5.77
   4   0   0  148.48    5.78
   4   0   0  147.03    5.77
  -5   0   0   32.39    1.77
  -5   0   0   34.16    1.54
  -5   0   0   31.28    1.71
   5   0   0   32.51    1.78
   5   0   0   33.89    1.75
   5   0   0   35.05    1.79
  -6   0   0    5.30    0.89
  -6   0   0    7.54    0.93
  -6   0   0    6.45    0.62
   6   0   0    7.27    1.10
   6   0   0    6.43    0.89
  -7   0   0   17.87    1.11
  -7   0   0   14.62    1.50
   7   0   0   14.65    1.63
   7   0   0   18.03    1.51
  -8   0   0   18.65    1.41
  -8   0   0   16.35    1.99
   8   0   0   15.33    1.85
   8  -1   0    7.77    1.58
  -8   1   0    5.83    1.13
  -8   1   0    8.68    1.72
   7  -1   0  332.43   13.81
   7  -1   0  358.51   13.88
  -7   1   0  357.09   13.51
  -7   1   0  340.89   13.89
   6  -1   0   11.19    1.05
   6  -1   0   12.19    1.20
  -6   1   0   12.53    1.11
  -6   1   0   10.90    0.85
   5  -1   0  629.36   23.83
   5  -1   0  633.04   23.77
   5  -1   0  580.83   23.76
  -5   1   0  568.88   23.79
  -5   1   0  699.72   23.84
  -5   1   0  612.50   23.58
   4  -1   0   11.39    0.80
   4  -1   0    8.87    0.70
   4  -1   0   10.26    0.58
  -4   1   0    9.83    0.55
  -4   1   0   10.60    0.75
  -4   1   0    9.33    0.74
   3  -1   0  326.41   12.47
   3  -1   0  313.72   12.62
   3  -1   0  344.84   12.67
  -3   1   0  311.39   12.45
  -3   1   0  330.57   12.66
  -3   1   0  347.66   12.64
   2  -1   0    5.45    0.38
   2  -1   0    5.79    0.40
   2  -1   0    6.18    0.31
  -2   1   0    6.30    0.41
  -2   1   0    6.08    0.35
  -2   1   0    5.92    0.39
   1  -1   0   11.31    0.50
   1  -1   0   11.52    0.53
   1  -1   0   11.16    0.54
  -1   1   0   12.40    0.54
  -1   1   0   11.24    0.54
  -1   1   0   10.56    0.50
   0  -1   0    0.17    0.06
   0   1   0    0.25    0.04
   0   1   0    0.34    0.06
  -1  -1   0    4.01    0.28
  -1  -1   0    3.92    0.26
  -1  -1   0    3.72    0.24
  -1  -1   0    4.16    0.28
   1   1   0    3.96    0.28
   1   1   0    3.89    0.28
   1   1   0    4.49    0.26
   1   1   0    4.61    0.28
  -2  -1   0    9.87    0.55
  -2  -1   0   11.99    0.62
  -2  -1   0   10.78    0.61
   2   1   0   11.71    0.63
   2   1   0   10.66    0.61
   2   1   0    9.98    0.60
  -3  -1   0   47.42    2.14
  -3  -1   0   43.84    2.14
  -3  -1   0   51.68    2.08
   3   1   0   47.49    2.16
   3   1   0   53.95    2.20
   3   1   0   51.75    2.18
  -4  -1   0   18.07    1.08
  -4  -1   0   17.73    0.96
  -4  -1   0   19.38    1.09
   4   1   0   16.96    1.07
   4   1   0   18.99    1.11
  -5  -1   0    0.72    0.28
  -5  -1   0    0.98    0.40
  -5  -1   0    0.81    0.40
   5   1   0    0.77    0.42
   5   1   0    0.18    0.33
   5   1   0    0.69    0.43
  -6  -1   0   13.63    0.94
  -6  -1   0   15.75    1.25
  -6  -1   0   11.54    1.12
   6   1   0   14.02    1.18
  -7  -1   0  135.34    6.01
  -7  -1   0  141.09    5.67
  -7  -1   0  142.46    5.66
   7   1   0  129.93    5.98
  -8  -1   0   13.68    1.71
  -8  -1   0   14.44    1.46
  -8  -1   0    9.53    1.24
   8   1   0    9.99    1.65
   8  -2   0    1.62    1.00
  -8   2   0    1.35    1.03
  -8   2   0    0.80    0.69
   7  -2   0    1.24    0.73
   7  -2   0    1.17    0.95
  -7   2   0    1.86    0.55
  -7   2   0    0.91    0.79
   6  -2   0   22.31    1.54
   6  -2   0   20.49    1.43
  -6   2   0   22.86    1.26
  -6   2   0   20.12    1.49
   5  -2   0    0.41    0.23
   5  -2   0    0.69    0.40
   5  -2   0    0.19    0.30
  -5   2   0    0.33    0.36
  -5   2   0    1.12    0.41
  -5   2   0    0.09    0.24
   4  -2   0   76.74    3.08
   4  -2   0   82.23    3.35
   4  -2   0   76.41    3.35
  -4   2   0   80.33    3.33
  -4   2   0   74.15    3.35
  -4   2   0   77.64    3.19
   3  -2   0    0.66    0.21
   3  -2   0    0.57    0.13
   3  -2   0    0.50    0.21
  -3   2   0    1.21    0.29
  -3   2   0    0.71    0.24
  -3   2   0    0.67    0.18
   2  -2   0   92.58    3.71
   2  -2   0   91.16    3.72
   2  -2   0   95.63    3.65
  -2   2   0   94.64    3.66
  -2   2   0   91.90    3.72
  -2   2   0   91.86    3.70
   1  -2   0    0.37    0.11
   1  -2   0    0.81    0.16
   1  -2   0    0.48    0.13
  -1   2   0    0.67    0.15
  -1   2   0    0.41    0.11
  -1   2   0    0.50    0.13
   0  -2   0    4.61    0.31
   0  -2   0    6.25    0.29
   0  -2   0    5.97    0.34
   0   2   0    7.01    0.35
   0   2   0    5.35    0.28
   0   2   0    4.92    0.32
  -1  -2   0    0.47    0.14
  -1  -2   0    0.67    0.17
  -1  -2   0    0.44    0.14
  -1  -2   0    0.33    0.11
   1   2   0    0.31    0.11
   1   2   0    0.39    0.12
   1   2   0    0.33    0.13
   1   2   0    0.46    0.14
  -2  -2   0  543.67   23.57
  -2  -2   0  657.11   23.56
  -2  -2   0  639.19   23.62
  -2  -2   0  650.01   23.57
   2   2   0  583.06   23.60
   2   2   0  661.49   23.61
  -3  -2   0    0.00    0.16
  -3  -2   0   -0.15    0.15
  -3  -2   0   -0.10    0.16
  -3  -2   0   -0.02    0.22
   3   2   0    0.01    0.18
   3   2   0    0.20    0.19
   3   2   0    0.34    0.23
  -4  -2   0  714.64   29.22
  -4  -2   0  767.08   29.13
  -4  -2   0  800.78   29.09
  -4  -2   0  789.22   29.25
   4   2   0  749.15   29.25
   4   2   0  745.81   29.26
   4   2   0  805.85   29.25
  -5  -2   0    6.56    0.67
  -5  -2   0    7.69    0.67
  -5  -2   0    6.81    0.79
  -5  -2   0    8.73    0.87
   5   2   0    6.55    0.84
   5   2   0    7.05    0.80
   5   2   0    7.11    0.82
  -6  -2   0  249.75   10.05
  -6  -2   0  269.40   10.31
  -6  -2   0  262.40   10.02
  -6  -2   0  249.77   10.28
   6   2   0  244.56   10.30
  -7  -2   0   16.48    1.26
  -7  -2   0   16.06    1.30
  -7  -2   0   16.94    1.55
  -7  -2   0   18.62    1.76
   7   2   0   16.60    1.57
  -8  -2   0   52.30    2.77
  -8  -2   0   53.88    3.16
   8   2   0   56.44    3.29
   8  -3   0    6.15    1.65
  -8   3   0    4.26    1.25
  -8   3   0    6.62    1.28
   7  -3   0   59.66    3.22
   7  -3   0   58.55    3.13
  -7   3   0   63.73    2.88
  -7   3   0   60.79    3.21
   6  -3   0    2.70    0.68
   6  -3   0    1.38    0.53
   6  -3   0    2.33    0.77
  -6   3   0    2.43    0.62
  -6   3   0    1.35    0.59
  -6   3   0   -0.33    0.57
   5  -3   0    2.61    0.61
   5  -3   0    2.83    0.76
   5  -3   0    2.64    0.35
  -5   3   0    3.64    0.65
  -5   3   0    1.85    0.46
  -5   3   0    2.23    0.55
   4  -3   0    0.39    0.27
   4  -3   0    0.52    0.30
   4  -3   0    0.10    0.13
  -4   3   0    0.31    0.27
  -4   3   0    0.01    0.27
  -4   3   0    0.04    0.19
   3  -3   0  500.94   19.69
   3  -3   0  522.49   19.45
   3  -3   0  502.69   19.67
  -3   3   0  531.19   19.68
  -3   3   0  522.94   19.61
  -3   3   0  513.74   19.71
   2  -3   0   20.53    0.99
   2  -3   0   20.51    1.04
   2  -3   0   20.26    1.02
  -2   3   0   20.12    1.04
  -2   3   0   21.72    1.04
  -2   3   0   20.90    0.99
   1  -3   0  277.36   10.64
   1  -3   0  278.37   10.52
   1  -3   0  265.26   10.62
   1  -3   0  287.84   10.63
  -1   3   0  280.50   10.65
  -1   3   0  280.99   10.63
  -1   3   0  276.19   10.64
   0  -3   0    2.05    0.18
   0  -3   0    1.80    0.22
   0  -3   0    1.65    0.23
   0  -3   0    1.81    0.22
   0   3   0    1.75    0.23
   0   3   0    1.99    0.18
   0   3   0    1.51    0.22
   0   3   0    1.79    0.22
  -1  -3   0   40.09    1.73
  -1  -3   0   39.16    1.71
  -1  -3   0   38.47    1.72
  -1  -3   0   40.39    1.69
   1   3   0   39.69    1.74
   1   3   0   41.39    1.69
   1   3   0   39.56    1.72
   1   3   0   40.13    1.74
  -2  -3   0    0.15    0.19
  -2  -3   0    0.15    0.15
  -2  -3   0    0.17    0.18
  -2  -3   0   -0.25    0.15
   2   3   0    0.12    0.15
   2   3   0    0.39    0.21
   2   3   0    0.16    0.18
   2   3   0    0.03    0.14
  -3  -3   0    0.58    0.28
  -3  -3   0    0.26    0.22
  -3  -3   0    0.37    0.21
   3   3   0    0.05    0.26
   3   3   0    0.27    0.25
  -4  -3   0    9.32    0.71
  -4  -3   0   10.12    0.75
  -4  -3   0    9.54    0.83
  -4  -3   0    9.42    0.79
   4   3   0    9.54    0.85
   4   3   0    9.99    0.82
   4   3   0    8.83    0.84
  -5  -3   0   80.70    3.53
  -5  -3   0   76.01    3.37
  -5  -3   0   75.11    3.48
   5   3   0   70.92    3.46
   5   3   0   81.66    3.58
   5   3   0   79.13    3.56
  -6  -3   0    7.67    0.91
  -6  -3   0    8.54    0.91
  -6  -3   0    8.91    1.03
   6   3   0    8.97    1.08
  -7  -3   0   65.17    3.09
  -7  -3   0   62.65    3.26
  -7  -3   0   64.41    3.04
   7   3   0   63.53    3.38
  -8  -3   0    8.15    1.31
  -8  -3   0    6.30    1.67
   8   3   0    9.43    1.77
   7  -4   0    4.63    1.10
   7  -4   0    4.19    1.17
  -7   4   0    3.43    0.96
  -7   4   0    3.10    0.71
   6  -4   0   21.73    1.49
   6  -4   0   17.52    1.51
   6  -4   0   20.43    1.73
  -6   4   0   20.87    1.31
  -6   4   0   19.98    1.55
   5  -4   0    5.39    0.42
   5  -4   0    3.73    0.70
   5  -4   0    5.71    0.91
  -5   4   0    5.05    0.64
  -5   4   0    5.52    0.78
   4  -4   0   31.22    1.67
   4  -4   0   31.75    1.73
   4  -4   0   33.49    1.39
  -4   4   0   32.99    1.70
  -4   4   0   31.56    1.58
  -4   4   0   36.22    1.76
   3  -4   0   13.33    0.80
   3  -4   0   14.20    0.89
   3  -4   0   11.78    0.82
  -3   4   0   13.34    0.86
  -3   4   0   11.55    0.82
  -3   4   0   12.19    0.77
   2  -4   0  221.17    8.49
   2  -4   0  207.64    8.31
   2  -4   0  223.89    8.45
   2  -4   0  212.85    8.49
  -2   4   0  216.37    8.46
  -2   4   0  214.31    8.51
  -2   4   0  228.75    8.50
   1  -4   0   40.42    1.81
   1  -4   0   44.43    1.82
   1  -4   0   40.65    1.67
   1  -4   0   41.91    1.81
  -1   4   0   40.39    1.82
  -1   4   0   40.92    1.80
  -1   4   0   39.50    1.81
   0  -4   0  607.29   23.14
   0  -4   0  576.81   23.23
   0  -4   0  653.77   23.26
   0  -4   0  625.72   23.26
   0   4   0  639.66   23.27
   0   4   0  582.33   23.25
   0   4   0  606.80   23.26
  -1  -4   0    2.86    0.36
  -1  -4   0    3.30    0.34
  -1  -4   0    3.44    0.39
  -1  -4   0    3.21    0.38
   1   4   0    2.86    0.36
   1   4   0    3.27    0.39
   1   4   0    2.92    0.36
   1   4   0    2.76    0.32
  -2  -4   0  565.62   21.75
  -2  -4   0  557.34   21.75
  -2  -4   0  584.39   21.72
  -2  -4   0  596.13   21.73
   2   4   0  556.38   21.78
   2   4   0  570.51   21.72
   2   4   0  553.13   21.78
   2   4   0  578.68   21.72
  -3  -4   0    0.57    0.28
  -3  -4   0   -0.04    0.28
  -3  -4   0    0.09    0.25
  -3  -4   0    0.54    0.24
   3   4   0    0.25    0.31
   3   4   0    0.15    0.28
   3   4   0    0.19    0.31
  -4  -4   0   31.56    1.59
  -4  -4   0   28.11    1.62
  -4  -4   0   29.93    1.60
   4   4   0   29.09    1.66
   4   4   0   34.80    1.77
   4   4   0   33.00    1.76
  -5  -4   0    2.67    0.66
  -5  -4   0    2.10    0.51
  -5  -4   0    3.50    0.79
  -5  -4   0    2.50    0.71
   5   4   0    3.89    0.85
   5   4   0    2.82    0.72
   5   4   0    3.03    0.86
  -6  -4   0   46.25    2.22
  -6  -4   0   43.97    2.37
  -6  -4   0   46.16    2.28
   6   4   0   39.48    2.50
   6   4   0   39.05    2.42
  -7  -4   0    1.14    0.68
  -7  -4   0    2.33    0.73
  -7  -4   0    2.09    0.84
   7   4   0    1.28    0.85
  -8  -4   0   78.71    3.86
  -8  -4   0   80.53    4.12
   8   4   0   76.60    4.24
   7  -5   0  160.19    7.00
   7  -5   0  150.61    6.87
  -7   5   0  161.93    6.71
  -7   5   0  171.85    7.13
   6  -5   0   49.45    2.51
   6  -5   0   45.22    1.83
  -6   5   0   39.65    2.23
  -6   5   0   42.15    2.48
   5  -5   0  565.01   21.46
   5  -5   0  562.19   21.92
  -5   5   0  565.79   21.79
  -5   5   0  579.01   22.01
   4  -5   0   11.18    0.60
   4  -5   0    9.26    0.96
   4  -5   0   11.25    0.93
  -4   5   0   10.66    0.83
  -4   5   0   11.02    0.94
   3  -5   0  561.60   21.67
   3  -5   0  601.58   21.79
   3  -5   0  551.01   21.78
   3  -5   0  548.82   21.53
  -3   5   0  568.63   21.72
  -3   5   0  584.03   21.82
  -3   5   0  564.84   21.77
   2  -5   0    7.11    0.60
   2  -5   0    7.34    0.59
   2  -5   0    7.31    0.64
   2  -5   0    7.27    0.45
  -2   5   0    6.34    0.59
  -2   5   0    8.01    0.65
  -2   5   0    7.81    0.62
   1  -5   0   63.13    2.56
   1  -5   0   60.21    2.37
   1  -5   0   56.82    2.52
   1  -5   0   58.68    2.54
  -1   5   0   55.34    2.54
  -1   5   0   59.16    2.56
  -1   5   0   58.50    2.54
   0  -5   0   11.00    0.74
   0  -5   0   10.40    0.59
   0  -5   0   10.96    0.69
   0  -5   0   10.47    0.70
   0   5   0   10.89    0.70
   0   5   0   11.56    0.74
   0   5   0   10.72    0.72
   0   5   0   10.17    0.59
  -1  -5   0   87.74    3.50
  -1  -5   0   78.19    3.47
  -1  -5   0   85.32    3.41
  -1  -5   0   84.98    3.51
   1   5   0   84.52    3.51
   1   5   0   82.45    3.40
   1   5   0   79.27    3.51
   1   5   0   86.87    3.53
  -2  -5   0   11.31    0.83
  -2  -5   0   12.95    0.82
  -2  -5   0   12.14    0.84
  -2  -5   0   12.65    0.85
   2   5   0   13.09    0.92
   2   5   0   12.50    0.83
   2   5   0   12.04    0.83
   2   5   0   13.08    0.89
  -3  -5   0   47.98    2.13
  -3  -5   0   47.05    2.18
  -3  -5   0   42.34    2.14
  -3  -5   0   43.22    2.11
   3   5   0   44.12    2.23
   3   5   0   43.80    2.22
   3   5   0   43.19    2.11
   3   5   0   45.15    2.15
  -4  -5   0   10.93    0.90
  -4  -5   0   11.07    0.98
  -4  -5   0   10.17    0.89
  -4  -5   0    8.48    0.85
   4   5   0    9.72    0.98
   4   5   0    9.68    0.97
   4   5   0    9.33    1.01
  -5  -5   0   21.44    1.46
  -5  -5   0   23.31    1.42
  -5  -5   0   22.38    1.44
  -5  -5   0   21.13    1.52
   5   5   0   22.34    1.61
   5   5   0   23.85    1.58
   5   5   0   20.49    1.63
  -6  -5   0    3.92    1.00
  -6  -5   0    4.76    1.05
  -6  -5   0    4.86    0.94
   6   5   0    2.43    0.93
   6   5   0    3.76    1.07
   6   5   0    1.71    0.97
  -7  -5   0   23.55    1.76
  -7  -5   0   22.23    1.90
   7   5   0   18.88    1.91
   7  -6   0   20.86    1.99
  -7   6   0   22.33    2.18
  -7   6   0   22.17    1.86
   6  -6   0    0.60    0.68
  -6   6   0    1.76    0.81
  -6   6   0    0.48    0.60
   5  -6   0    3.64    0.59
   5  -6   0    2.13    0.60
   5  -6   0    2.05    0.41
   5  -6   0    2.53    0.79
  -5   6   0    2.34    0.68
  -5   6   0    1.93    0.56
   4  -6   0    5.05    0.71
   4  -6   0    4.27    0.87
   4  -6   0    4.72    0.51
  -4   6   0    5.57    0.73
  -4   6   0    3.54    0.74
   3  -6   0    3.91    0.58
   3  -6   0    4.30    0.70
   3  -6   0    3.88    0.62
   3  -6   0    4.09    0.41
  -3   6   0    4.75    0.62
  -3   6   0    4.28    0.70
  -3   6   0    4.39    0.64
   2  -6   0    2.99    0.55
   2  -6   0    2.77    0.54
   2  -6   0    2.61    0.32
   2  -6   0    3.09    0.51
  -2   6   0    2.88    0.49
  -2   6   0    2.50    0.50
  -2   6   0    2.84    0.55
   1  -6   0    0.66    0.18
   1  -6   0    0.34    0.25
   1  -6   0    1.04    0.34
   1  -6   0    0.74    0.32
  -1   6   0    0.51    0.30
  -1   6   0    0.40    0.28
  -1   6   0    0.33    0.24
   0  -6   0   13.25    0.76
   0  -6   0   13.76    0.88
   0  -6   0   13.98    0.94
   0  -6   0   14.29    0.92
   0   6   0   14.48    0.95
   0   6   0   13.61    0.76
   0   6   0   15.55    0.93
   0   6   0   13.54    0.90
  -1  -6   0    4.22    0.47
  -1  -6   0    4.48    0.53
  -1  -6   0    3.75    0.56
  -1  -6   0    4.44    0.56
   1   6   0    3.84    0.54
   1   6   0    4.22    0.60
   1   6   0    3.95    0.47
   1   6   0    4.62    0.56
  -2  -6   0  356.58   14.44
  -2  -6   0  379.36   14.47
  -2  -6   0  376.24   14.40
  -2  -6   0  385.74   14.48
   2   6   0  362.23   14.39
   2   6   0  372.45   14.53
   2   6   0  371.49   14.48
   2   6   0  380.25   14.53
  -3  -6   0    0.31    0.35
  -3  -6   0    0.30    0.38
  -3  -6   0    0.30    0.31
  -3  -6   0    0.40    0.36
  -3  -6   0    0.21    0.31
   3   6   0    0.32    0.35
   3   6   0    0.17    0.31
   3   6   0    0.71    0.43
   3   6   0   -0.20    0.35
  -4  -6   0  632.75   23.63
  -4  -6   0  596.10   23.68
  -4  -6   0  615.38   23.69
  -4  -6   0  582.58   23.69
   4   6   0  632.71   23.84
   4   6   0  634.85   23.72
  -5  -6   0    1.12    0.55
  -5  -6   0    3.07    0.79
  -5  -6   0    1.83    0.56
  -5  -6   0    1.96    0.59
   5   6   0    2.32    0.70
   5   6   0    2.66    0.80
   5   6   0    2.59    0.89
  -6  -6   0  441.99   17.30
  -6  -6   0  442.70   17.38
  -6  -6   0  452.11   17.35
   6   6   0  427.23   17.48
  -7  -6   0    4.00    1.09
  -7  -6   0    4.86    1.12
  -7  -6   0    3.67    0.97
   7   6   0    4.07    1.18
   6  -7   0    3.73    0.96
   6  -7   0    4.12    0.89
  -6   7   0    3.49    1.08
  -6   7   0    5.34    1.28
   5  -7   0   32.87    1.94
   5  -7   0   30.28    1.54
   5  -7   0   29.75    1.38
  -5   7   0   29.78    1.85
  -5   7   0   27.83    2.01
   4  -7   0   23.24    1.18
   4  -7   0   22.35    1.52
   4  -7   0   22.04    1.48
  -4   7   0   22.32    1.56
  -4   7   0   22.15    1.48
   3  -7   0  267.50   10.66
   3  -7   0  264.84   10.38
   3  -7   0  259.93   10.68
  -3   7   0  286.27   10.81
  -3   7   0  274.70   10.70
   2  -7   0   15.73    1.15
   2  -7   0   15.87    1.11
   2  -7   0   17.18    0.88
   2  -7   0   17.41    1.16
  -2   7   0   16.87    1.18
  -2   7   0   18.34    1.17
  -2   7   0   16.92    1.12
   1  -7   0  863.28   31.83
   1  -7   0  862.90   31.82
   1  -7   0  818.85   31.55
   1  -7   0  797.88   31.76
  -1   7   0  847.88   31.83
  -1   7   0  815.45   31.83
  -1   7   0  841.09   31.85
   0  -7   0   10.31    0.79
   0  -7   0    8.93    0.65
   0  -7   0    8.72    0.85
   0  -7   0    9.96    0.88
   0   7   0    9.41    0.65
   0   7   0    8.99    0.80
   0   7   0    9.59    0.81
   0   7   0    9.82    0.87
  -1  -7   0  427.29   16.35
  -1  -7   0  423.24   16.32
  -1  -7   0  437.30   16.33
  -1  -7   0  408.31   16.17
   1   7   0  396.03   16.34
   1   7   0  414.79   16.16
   1   7   0  444.52   16.41
   1   7   0  424.23   16.36
  -2  -7   0    0.33    0.36
  -2  -7   0    1.31    0.46
  -2  -7   0    1.06    0.37
  -2  -7   0    0.55    0.38
   2   7   0    1.03    0.43
   2   7   0    0.33    0.45
   2   7   0    1.01    0.38
   2   7   0    0.69    0.37
  -3  -7   0  143.29    5.94
  -3  -7   0  155.80    5.99
  -3  -7   0  132.51    5.92
  -3  -7   0  137.89    5.92
   3   7   0  146.35    5.95
   3   7   0  143.42    6.05
   3   7   0  143.61    5.91
   3   7   0  136.10    6.05
  -4  -7   0   15.95    1.23
  -4  -7   0   13.05    1.29
  -4  -7   0   16.89    1.27
  -4  -7   0   15.56    1.33
   4   7   0   13.92    1.32
   4   7   0   15.88    1.37
   4   7   0   14.28    1.45
  -5  -7   0    0.18    0.58
  -5  -7   0   -0.06    0.58
   5   7   0    0.06    0.64
   5   7   0    1.09    0.79
   5   7   0    0.26    0.79
  -6  -7   0   22.38    1.79
  -6  -7   0   23.08    1.86
  -6  -7   0   21.97    1.90
   6   7   0   26.82    2.00
  -7  -7   0    9.07    1.66
  -7  -7   0   12.02    1.89
   7   7   0   10.42    1.87
   6  -8   0  176.98    7.56
  -6   8   0  172.42    7.43
   5  -8   0   19.54    1.20
   5  -8   0   22.50    1.75
  -5   8   0   17.18    1.74
  -5   8   0   18.68    1.63
   4  -8   0   70.54    2.95
   4  -8   0   66.77    3.36
   4  -8   0   79.61    3.43
   4  -8   0   64.35    3.48
  -4   8   0   71.56    3.47
  -4   8   0   68.48    3.33
   3  -8   0    4.37    0.53
   3  -8   0    5.43    0.88
   3  -8   0    6.12    1.09
  -3   8   0    4.00    0.88
  -3   8   0    4.64    0.86
  -3   8   0    7.32    1.16
   2  -8   0    0.33    0.53
   2  -8   0    0.46    0.27
   2  -8   0    0.14    0.55
   2  -8   0    0.34    0.42
  -2   8   0    0.01    0.54
  -2   8   0    0.39    0.46
  -2   8   0    0.31    0.43
   1  -8   0    2.28    0.59
   1  -8   0    2.45    0.64
   1  -8   0    1.38    0.45
   1  -8   0    1.44    0.35
  -1   8   0    1.80    0.52
  -1   8   0    1.39    0.45
  -1   8   0    1.66    0.61
   0  -8   0    4.85    0.70
   0  -8   0    6.94    0.90
   0  -8   0    6.64    0.61
   0   8   0    6.34    0.78
   0   8   0    5.09    0.90
   0   8   0    6.28    0.60
   0   8   0    4.67    0.77
  -1  -8   0    8.11    0.94
  -1  -8   0    7.68    0.72
  -1  -8   0    7.15    0.84
   1   8   0    7.88    0.92
   1   8   0    7.15    1.00
   1   8   0    8.57    0.78
   1   8   0    6.76    0.82
  -2  -8   0   34.46    1.89
  -2  -8   0   33.44    1.78
  -2  -8   0   36.88    1.96
   2   8   0   31.09    2.02
   2   8   0   35.50    1.84
   2   8   0   34.70    1.95
   2   8   0   33.90    1.94
  -3  -8   0   18.87    1.37
  -3  -8   0   18.63    1.45
  -3  -8   0   16.41    1.35
   3   8   0   17.57    1.64
   3   8   0   21.07    1.50
   3   8   0   18.47    1.39
   3   8   0   18.92    1.42
  -4  -8   0    4.81    1.01
  -4  -8   0    0.65    0.89
  -4  -8   0    5.26    1.27
  -4  -8   0    3.35    0.79
   4   8   0    2.26    0.80
   4   8   0    1.95    0.93
   4   8   0    3.01    0.87
  -5  -8   0    3.49    0.85
  -5  -8   0    3.38    0.85
  -5  -8   0    3.77    1.01
  -5  -8   0    3.11    1.02
   5   8   0    3.87    1.00
  -6  -8   0  127.41    5.57
  -6  -8   0  124.69    5.58
   6   8   0  116.46    5.71
   5  -9   0   71.93    3.80
  -5   9   0   72.94    3.93
  -5   9   0   78.14    3.78
   4  -9   0    7.26    1.32
   4  -9   0    8.45    0.78
  -4   9   0    7.80    1.40
  -4   9   0    8.57    1.30
   3  -9   0   94.56    4.14
   3  -9   0   89.33    3.69
   3  -9   0   90.74    4.25
  -3   9   0   87.76    4.24
  -3   9   0   92.50    4.17
   2  -9   0    4.30    0.81
   2  -9   0    2.30    0.51
   2  -9   0    5.73    1.19
  -2   9   0    1.95    0.64
  -2   9   0    0.96    0.71
  -2   9   0    2.41    0.60
   1  -9   0    0.45    0.59
   1  -9   0    0.51    0.63
   1  -9   0   -0.18    0.46
   1  -9   0    2.12    0.52
  -1   9   0   -0.34    0.49
  -1   9   0    0.47    0.69
  -1   9   0    3.12    0.82
   0  -9   0    2.24    0.72
   0  -9   0    2.00    0.58
   0  -9   0    2.14    0.48
   0   9   0    2.26    0.81
   0   9   0    3.06    0.80
   0   9   0    1.82    0.45
   0   9   0    2.07    0.64
  -1  -9   0  181.45    7.19
  -1  -9   0  167.19    7.37
  -1  -9   0  188.37    7.41
   1   9   0  177.81    7.18
   1   9   0  175.10    7.47
   1   9   0  187.30    7.59
   1   9   0  179.29    7.45
  -2  -9   0    3.90    0.83
  -2  -9   0    2.39    0.66
  -2  -9   0    3.60    0.91
  -2  -9   0    4.39    0.82
   2   9   0    4.29    0.96
   2   9   0    4.28    0.99
   2   9   0    4.62    1.24
   2   9   0    4.63    0.95
  -3  -9   0  262.68   10.50
  -3  -9   0  221.91   10.45
  -3  -9   0  275.25   10.57
   3   9   0  268.95   10.47
   3   9   0  273.56   10.58
   3   9   0  259.80   10.66
  -4  -9   0    9.20    1.57
  -4  -9   0   11.80    1.46
  -4  -9   0    9.42    1.33
   4   9   0    8.81    1.61
   4   9   0   11.02    1.34
   4   9   0   11.76    1.57
  -5  -9   0  129.19    5.63
  -5  -9   0  121.61    5.65
   5   9   0  127.33    5.89
   4 -10   0   78.69    3.83
  -4  10   0   72.79    3.90
  -4  10   0   72.05    3.83
   3 -10   0    2.96    0.91
   3 -10   0    2.75    0.66
  -3  10   0    2.57    0.85
  -3  10   0    1.87    0.93
   2 -10   0   63.38    3.08
   2 -10   0   58.54    2.58
  -2  10   0   58.16    3.17
  -2  10   0   61.37    3.16
   1 -10   0    7.56    1.48
   1 -10   0   10.04    0.82
   1 -10   0    7.22    1.13
  -1  10   0    8.34    1.25
  -1  10   0    9.62    1.23
   0 -10   0   19.15    1.20
   0 -10   0   18.74    1.91
   0 -10   0   19.49    1.49
   0  10   0   16.28    1.49
   0  10   0   20.26    1.59
   0  10   0   17.00    1.20
  -1 -10   0    0.13    0.50
  -1 -10   0    0.31    0.62
   1  10   0   -0.33    0.56
   1  10   0   -0.54    0.62
   1  10   0    1.44    0.64
  -2 -10   0    9.92    1.31
  -2 -10   0    8.96    1.48
  -2 -10   0    9.31    1.26
   2  10   0   12.19    1.44
   2  10   0    9.45    1.35
   2  10   0   10.73    1.40
  -3 -10   0    4.72    1.13
  -3 -10   0    5.59    1.27
  -3 -10   0    5.50    1.36
   3  10   0    4.85    1.40
   3  10   0    6.60    1.55
   3  10   0    7.03    1.36
  -4 -10   0  120.75    5.35
  -4 -10   0  118.18    5.43
   4  10   0  119.72    5.39
   4  10   0  113.70    5.57
   2 -11   0   19.79    1.84
  -2  11   0   21.90    1.98
  -2  11   0   18.53    1.90
   1 -11   0  230.67    9.81
   1 -11   0  250.15   10.26
  -1  11   0  258.00   10.43
  -1  11   0  269.39   10.48
   0 -11   0   23.47    1.84
   0 -11   0   22.32    1.40
   0  11   0   18.79    1.81
   0  11   0   21.07    1.88
  -1 -11   0  236.99    9.61
  -1 -11   0  226.19    9.56
  -1 -11   0  240.03    9.29
   1  11   0  239.84    9.78
   1  11   0  222.97    9.70
  -2 -11   0    2.07    0.90
  -2 -11   0    2.10    0.95
   2  11   0    1.78    1.07
   2  11   0    1.17    0.99
   2  11   0    2.48    1.01
  -3 -11   0   28.87    2.27
  -3 -11   0   25.34    2.26
   3  11   0   31.55    2.41
   3  11   0   28.19    2.51
   3  11   0   27.33    2.30
   3  11  -1    9.37    1.90
   3  11  -1    9.19    1.81
  -3 -11   1   10.34    1.61
  -3 -11   1    9.18    1.77
   2  11  -1  181.59    7.74
   2  11  -1  178.63    7.80
  -2 -11   1  187.50    7.69
  -2 -11   1  164.37    7.56
  -2 -11   1  182.80    7.54
   1  11  -1   27.18    2.10
   1  11  -1   28.62    2.14
  -1 -11   1   23.55    2.18
  -1 -11   1   30.84    2.14
  -1 -11   1   26.89    1.96
   0  11  -1  124.86    5.91
   0  11  -1  131.70    5.89
   0 -11   1  127.37    5.79
   0 -11   1  136.07    5.79
   0 -11   1  137.15    5.75
  -1  11  -1   12.22    1.64
  -1  11  -1   12.68    1.71
   1 -11   1   15.42    1.87
   1 -11   1   15.47    1.59
   1 -11   1   15.32    1.57
  -2  11  -1   52.24    2.98
  -2  11  -1   48.32    2.96
   2 -11   1   51.38    2.71
   2 -11   1   47.70    2.77
   4  10  -1    1.91    1.10
   4  10  -1    2.75    0.98
  -4 -10   1    2.61    0.96
  -4 -10   1    2.40    1.13
  -4 -10   1    3.73    1.02
   3  10  -1   37.01    2.46
   3  10  -1   40.53    2.46
   3  10  -1   39.33    2.57
  -3 -10   1   37.98    2.43
  -3 -10   1   38.01    2.31
   2  10  -1    6.02    1.28
   2  10  -1    5.21    0.98
   2  10  -1    7.68    1.24
  -2 -10   1    7.38    1.18
  -2 -10   1    6.95    1.27
   1  10  -1    2.37    0.82
   1  10  -1    3.20    0.70
   1  10  -1    2.43    0.73
  -1 -10   1    3.78    0.79
  -1 -10   1    3.11    0.80
  -1 -10   1    0.92    0.83
   0  10  -1    5.30    1.14
   0  10  -1    5.93    1.12
   0  10  -1    4.32    0.74
   0 -10   1    5.75    1.05
   0 -10   1    6.15    1.13
  -1  10  -1    3.11    0.82
  -1  10  -1    1.56    0.72
   1 -10   1    4.25    1.03
   1 -10   1    4.96    1.04
  -2  10  -1    1.37    0.76
  -2  10  -1    1.60    0.73
   2 -10   1   -0.19    0.85
   2 -10   1    2.35    0.71
  -3  10  -1   53.94    2.98
  -3  10  -1   56.03    3.07
   3 -10   1   55.43    2.89
   3 -10   1   53.74    2.66
  -4  10  -1    5.93    1.20
  -4  10  -1    3.52    1.09
   4 -10   1    7.18    1.52
   5   9  -1    9.52    1.76
  -5  -9   1    8.38    1.76
  -5  -9   1    7.18    1.57
  -5  -9   1    7.14    1.43
   4   9  -1    1.36    0.72
   4   9  -1   -1.11    0.78
   4   9  -1    0.78    1.00
  -4  -9   1   -0.06    0.77
  -4  -9   1    0.94    0.71
   3   9  -1    2.16    0.70
   3   9  -1    2.49    0.81
   3   9  -1    2.71    0.85
  -3  -9   1    2.43    0.72
  -3  -9   1    1.75    0.81
  -3  -9   1    1.60    0.85
  -3  -9   1    1.91    0.76
   2   9  -1   94.02    4.14
   2   9  -1   93.11    4.35
   2   9  -1   92.73    4.47
   2   9  -1   94.87    4.32
  -2  -9   1   87.72    4.34
  -2  -9   1   96.41    4.30
  -2  -9   1   98.92    4.24
  -2  -9   1  100.59    4.25
   1   9  -1    3.78    0.89
   1   9  -1    3.12    0.61
   1   9  -1    3.79    0.91
   1   9  -1    4.60    0.86
  -1  -9   1    4.75    1.13
  -1  -9   1    4.90    0.89
  -1  -9   1    6.10    0.93
  -1  -9   1    4.79    0.86
   0   9  -1  207.19    7.98
   0   9  -1  201.49    8.36
   0   9  -1  212.14    8.46
   0   9  -1  202.10    8.37
   0  -9   1  202.18    8.26
   0  -9   1  206.67    8.01
   0  -9   1  200.66    8.26
  -1   9  -1   31.12    1.87
  -1   9  -1   32.53    1.88
  -1   9  -1   28.58    2.01
   1  -9   1   31.03    1.87
   1  -9   1   32.09    1.79
   1  -9   1   31.47    1.45
  -2   9  -1  175.62    7.85
  -2   9  -1  189.50    7.85
  -2   9  -1  186.43    7.83
   2  -9   1  202.60    7.79
   2  -9   1  195.40    7.31
  -3   9  -1   76.57    3.53
  -3   9  -1   74.53    3.55
   3  -9   1   71.63    3.41
   3  -9   1   69.20    3.57
  -4   9  -1  160.29    6.86
  -4   9  -1  161.44    6.78
   4  -9   1  160.75    6.31
   4  -9   1  138.96    6.08
   4  -9   1  172.22    6.75
  -5   9  -1   35.08    2.43
  -5   9  -1   34.10    2.36
   5  -9   1   31.85    2.26
   6   8  -1   -0.34    1.03
  -6  -8   1   -0.11    0.95
  -6  -8   1    0.91    0.93
   5   8  -1   46.68    2.70
  -5  -8   1   41.72    2.42
  -5  -8   1   40.98    2.53
  -5  -8   1   42.76    2.54
   4   8  -1    3.55    0.94
   4   8  -1    3.96    1.15
   4   8  -1    2.99    0.99
   4   8  -1    4.75    1.25
  -4  -8   1    7.67    1.09
  -4  -8   1    4.77    1.11
  -4  -8   1    4.82    0.99
  -4  -8   1    6.05    1.19
   3   8  -1  104.97    4.64
   3   8  -1  100.63    4.71
   3   8  -1  105.28    4.52
   3   8  -1  105.16    4.55
  -3  -8   1  101.50    4.56
  -3  -8   1   99.51    4.47
  -3  -8   1  103.03    4.48
   2   8  -1    7.12    0.93
   2   8  -1    8.79    1.14
   2   8  -1    6.82    0.93
   2   8  -1    8.40    0.91
  -2  -8   1    6.62    0.91
  -2  -8   1    7.71    0.90
  -2  -8   1    6.95    0.95
   1   8  -1  103.95    4.80
   1   8  -1  113.44    4.62
   1   8  -1  117.90    4.93
   1   8  -1  116.45    4.88
  -1  -8   1  114.50    4.87
  -1  -8   1  109.34    4.75
  -1  -8   1  113.38    4.81
  -1  -8   1  109.57    4.75
  -1  -8   1  117.87    4.63
   0   8  -1    0.22    0.35
   0   8  -1    0.47    0.28
   0   8  -1    0.18    0.38
   0   8  -1   -0.07    0.50
   0  -8   1    0.29    0.44
   0  -8   1    0.03    0.34
   0  -8   1    0.34    0.27
  -1   8  -1    3.48    0.83
  -1   8  -1    3.13    0.68
  -1   8  -1    4.09    0.70
   1  -8   1    3.56    0.44
   1  -8   1    3.56    0.67
   1  -8   1    4.25    0.77
  -2   8  -1    0.90    0.52
  -2   8  -1    0.28    0.41
  -2   8  -1   -0.08    0.41
   2  -8   1    0.11    0.53
   2  -8   1    0.39    0.38
   2  -8   1    0.27    0.48
   2  -8   1    0.53    0.24
  -3   8  -1   27.79    1.69
  -3   8  -1   27.83    1.79
  -3   8  -1   28.14    1.71
   3  -8   1   28.63    1.22
   3  -8   1   28.18    1.77
   3  -8   1   21.93    1.55
   3  -8   1   27.85    1.77
  -4   8  -1    6.02    1.04
  -4   8  -1    5.87    1.01
   4  -8   1    5.01    1.32
   4  -8   1    2.90    0.88
   4  -8   1    5.39    0.51
   4  -8   1    5.61    0.98
  -5   8  -1   10.74    1.39
  -5   8  -1    9.41    1.36
   5  -8   1   11.60    1.37
   5  -8   1    9.62    0.75
   5  -8   1    7.37    0.61
  -6   8  -1    0.17    0.93
  -6   8  -1    2.85    1.15
   6  -8   1    1.70    0.99
   6   7  -1    0.92    0.86
  -6  -7   1    0.81    0.90
  -6  -7   1   -0.40    0.78
  -6  -7   1    1.06    1.05
  -6  -7   1    0.40    0.77
   5   7  -1    0.80    0.93
   5   7  -1   -0.07    0.63
  -5  -7   1    0.92    0.63
  -5  -7   1    1.15    0.74
  -5  -7   1    0.46    0.64
   4   7  -1   73.31    3.49
   4   7  -1   65.55    3.55
   4   7  -1   75.21    3.59
  -4  -7   1   77.28    3.50
  -4  -7   1   73.91    3.44
  -4  -7   1   74.72    3.43
  -4  -7   1   77.84    3.42
   3   7  -1    0.64    0.44
   3   7  -1    0.23    0.49
   3   7  -1    0.37    0.43
   3   7  -1    1.23    0.59
  -3  -7   1   -0.23    0.42
  -3  -7   1    0.70    0.47
  -3  -7   1    0.90    0.50
  -3  -7   1    0.80    0.43
   2   7  -1  167.20    6.72
   2   7  -1  171.95    6.64
   2   7  -1  165.92    6.76
   2   7  -1  153.71    6.75
  -2  -7   1  162.43    6.69
  -2  -7   1  173.54    6.70
  -2  -7   1  156.42    6.62
  -2  -7   1  161.47    6.71
   1   7  -1   16.19    0.97
   1   7  -1   15.46    1.09
   1   7  -1   16.45    1.10
   1   7  -1   16.04    1.17
  -1  -7   1   16.87    1.08
  -1  -7   1   17.50    1.07
  -1  -7   1   16.11    0.96
  -1  -7   1   15.57    1.17
   0   7  -1   19.76    0.99
   0   7  -1   19.56    1.25
   0   7  -1   20.74    1.22
   0   7  -1   18.53    1.17
   0  -7   1   18.17    0.99
   0  -7   1   18.41    1.17
   0  -7   1   19.95    1.24
   0  -7   1   20.06    1.16
  -1   7  -1    4.50    0.61
  -1   7  -1    5.22    0.72
  -1   7  -1    4.32    0.59
   1  -7   1    3.95    0.64
   1  -7   1    3.90    0.39
   1  -7   1    4.61    0.58
   1  -7   1    4.20    0.60
  -2   7  -1    6.35    0.73
  -2   7  -1    5.55    0.72
  -2   7  -1    7.35    0.84
   2  -7   1    6.55    0.75
   2  -7   1    6.61    0.43
   2  -7   1    5.51    0.70
   2  -7   1    7.52    0.82
  -3   7  -1    1.40    0.47
  -3   7  -1    0.91    0.52
  -3   7  -1    1.47    0.48
   3  -7   1    1.56    0.52
   3  -7   1    0.91    0.50
   3  -7   1    1.27    0.43
   3  -7   1    1.05    0.23
  -4   7  -1   13.72    1.21
  -4   7  -1   14.21    1.33
  -4   7  -1   14.35    1.18
   4  -7   1   13.36    0.79
   4  -7   1   15.66    1.18
  -5   7  -1   29.43    1.79
  -5   7  -1   28.62    1.90
   5  -7   1   26.96    1.54
   5  -7   1   28.37    1.81
   5  -7   1   30.11    2.06
   5  -7   1   27.01    1.39
  -6   7  -1   34.61    2.20
  -6   7  -1   38.03    2.46
   6  -7   1   36.07    2.25
   6  -7   1   34.85    1.78
   7   6  -1  157.58    7.30
  -7  -6   1  168.51    7.08
  -7  -6   1  155.51    6.83
  -7  -6   1  170.85    7.08
   6   6  -1    2.49    0.88
  -6  -6   1    1.93    0.96
  -6  -6   1    0.36    0.68
  -6  -6   1    0.78    0.73
  -6  -6   1    1.74    0.72
   5   6  -1   84.59    4.07
   5   6  -1   95.67    4.16
   5   6  -1   86.60    4.16
  -5  -6   1   87.93    4.01
  -5  -6   1   90.20    3.96
  -5  -6   1   84.20    3.85
  -5  -6   1   81.77    3.94
   4   6  -1    1.17    0.58
   4   6  -1    1.01    0.66
  -4  -6   1    1.14    0.48
  -4  -6   1    1.34    0.50
  -4  -6   1    1.51    0.49
  -4  -6   1    1.45    0.57
   3   6  -1   29.25    1.74
   3   6  -1   27.44    1.72
   3   6  -1   28.68    1.67
   3   6  -1   27.33    1.59
  -3  -6   1   35.48    1.69
  -3  -6   1   30.02    1.67
  -3  -6   1   33.21    1.66
  -3  -6   1   29.68    1.63
   2   6  -1    0.42    0.31
   2   6  -1    0.14    0.35
   2   6  -1    0.08    0.32
   2   6  -1    0.36    0.30
  -2  -6   1   -0.07    0.28
  -2  -6   1   -0.02    0.28
  -2  -6   1   -0.22    0.28
  -2  -6   1   -0.02    0.29
   1   6  -1   14.33    0.86
   1   6  -1   15.54    1.02
   1   6  -1   15.08    0.96
   1   6  -1   13.81    0.95
  -1  -6   1   17.14    0.97
  -1  -6   1   14.10    0.98
  -1  -6   1   13.70    0.84
  -1  -6   1   14.33    0.92
   0   6  -1   16.27    0.81
   0   6  -1   15.48    0.95
   0   6  -1   16.16    0.98
   0  -6   1   15.39    0.93
   0  -6   1   15.51    0.81
   0  -6   1   16.28    0.95
   0  -6   1   15.59    1.00
  -1   6  -1   54.23    2.55
  -1   6  -1   58.58    2.60
  -1   6  -1   57.46    2.58
   1  -6   1   55.97    2.57
   1  -6   1   60.07    2.56
   1  -6   1   60.51    2.54
   1  -6   1   58.27    2.33
  -2   6  -1    2.55    0.49
  -2   6  -1    2.55    0.55
  -2   6  -1    3.22    0.53
   2  -6   1    2.86    0.51
   2  -6   1    2.69    0.27
   2  -6   1    3.42    0.55
   2  -6   1    2.66    0.47
  -3   6  -1    4.93    0.61
  -3   6  -1    3.29    0.68
   3  -6   1    3.66    0.34
   3  -6   1    4.32    0.64
   3  -6   1    3.10    0.56
   3  -6   1    3.94    0.63
  -4   6  -1    0.25    0.39
  -4   6  -1    0.00    0.38
  -4   6  -1    0.52    0.46
   4  -6   1    0.21    0.21
   4  -6   1    0.26    0.48
   4  -6   1    0.08    0.36
  -5   6  -1   29.82    1.85
  -5   6  -1   28.70    1.90
  -5   6  -1   30.04    1.74
   5  -6   1   30.45    1.79
   5  -6   1   30.41    1.46
  -6   6  -1    6.62    1.07
  -6   6  -1    6.04    1.18
   6  -6   1    5.48    1.16
   6  -6   1    5.70    1.16
  -7   6  -1   76.31    3.70
  -7   6  -1   68.97    3.89
   7  -6   1   76.99    3.78
   7   5  -1   11.22    1.72
  -7  -5   1   11.93    1.53
  -7  -5   1   12.20    1.51
   6   5  -1    0.44    0.70
  -6  -5   1   -1.50    0.54
  -6  -5   1    0.03    0.63
  -6  -5   1   -0.31    0.59
   5   5  -1   23.22    1.60
   5   5  -1   23.24    1.65
   5   5  -1   26.27    1.74
  -5  -5   1   22.00    1.58
  -5  -5   1   22.36    1.50
  -5  -5   1   24.20    1.52
  -5  -5   1   21.17    1.41
   4   5  -1    0.38    0.40
   4   5  -1    0.85    0.43
   4   5  -1    0.36    0.51
  -4  -5   1    0.75    0.40
  -4  -5   1    0.67    0.35
  -4  -5   1    0.66    0.45
  -4  -5   1    0.38    0.40
   3   5  -1    3.29    0.62
   3   5  -1    3.33    0.61
   3   5  -1    3.70    0.68
   3   5  -1    3.25    0.52
  -3  -5   1    3.06    0.56
  -3  -5   1    2.87    0.57
  -3  -5   1    3.48    0.55
  -3  -5   1    2.61    0.52
   2   5  -1  126.67    5.39
   2   5  -1  139.09    5.49
   2   5  -1  131.78    5.46
   2   5  -1  139.26    5.40
  -2  -5   1  133.36    5.39
  -2  -5   1  133.81    5.43
  -2  -5   1  131.57    5.38
  -2  -5   1  132.58    5.40
   1   5  -1    0.58    0.24
   1   5  -1    0.29    0.19
   1   5  -1   -0.24    0.23
   1   5  -1    0.46    0.21
  -1  -5   1    0.76    0.22
  -1  -5   1    0.24    0.20
  -1  -5   1    0.34    0.22
  -1  -5   1    0.57    0.25
   0   5  -1  558.00   21.89
   0   5  -1  572.85   21.72
   0   5  -1  542.41   21.88
   0   5  -1  623.65   21.92
   0  -5   1  564.15   21.74
   0  -5   1  587.16   21.91
   0  -5   1  585.46   21.86
   0  -5   1  566.85   21.85
  -1   5  -1   37.45    1.77
  -1   5  -1   39.38    1.77
  -1   5  -1   36.91    1.76
   1  -5   1   37.92    1.73
   1  -5   1   38.88    1.77
   1  -5   1   38.02    1.55
   1  -5   1   39.22    1.74
  -2   5  -1  473.03   18.99
  -2   5  -1  519.16   19.01
  -2   5  -1  493.81   18.99
   2  -5   1  503.00   18.96
   2  -5   1  496.14   18.97
   2  -5   1  504.52   18.98
   2  -5   1  485.98   18.73
  -3   5  -1   80.12    3.29
  -3   5  -1   73.78    3.28
  -3   5  -1   74.45    3.23
   3  -5   1   70.68    3.21
   3  -5   1   78.43    3.23
   3  -5   1   78.39    3.27
   3  -5   1   73.48    2.99
  -4   5  -1  192.88    7.65
  -4   5  -1  180.32    7.73
  -4   5  -1  201.83    7.73
   4  -5   1  192.67    7.69
   4  -5   1  188.15    7.30
   4  -5   1  196.14    7.73
  -5   5  -1   40.48    2.10
  -5   5  -1   37.28    1.93
   5  -5   1   37.51    1.87
   5  -5   1   36.34    1.99
  -6   5  -1   75.85    3.62
  -6   5  -1   74.98    3.41
   6  -5   1   68.42    3.62
   6  -5   1   77.12    3.42
   6  -5   1   77.68    3.56
  -7   5  -1   12.25    1.56
  -7   5  -1    9.88    1.33
   7  -5   1   11.97    1.48
   7   4  -1   50.63    3.10
  -7  -4   1   57.75    2.96
  -7  -4   1   52.57    2.83
  -7  -4   1   55.12    2.71
   6   4  -1    5.40    1.01
   6   4  -1    5.57    1.37
   6   4  -1    5.16    1.14
  -6  -4   1    6.57    1.02
  -6  -4   1    6.43    0.97
  -6  -4   1    7.79    0.94
   5   4  -1  379.57   15.09
   5   4  -1  358.39   15.09
   5   4  -1  388.27   15.18
  -5  -4   1  381.08   15.04
  -5  -4   1  390.23   15.01
  -5  -4   1  408.15   15.07
  -5  -4   1  388.42   14.86
   4   4  -1   -0.11    0.39
   4   4  -1    0.57    0.35
   4   4  -1   -0.61    0.36
  -4  -4   1    0.35    0.33
  -4  -4   1    0.34    0.31
  -4  -4   1   -0.48    0.35
  -4  -4   1    0.83    0.37
   3   4  -1  432.25   15.89
   3   4  -1  403.34   15.79
   3   4  -1  400.27   15.93
   3   4  -1  415.61   15.92
  -3  -4   1  418.14   15.78
  -3  -4   1  422.88   15.87
  -3  -4   1  388.84   15.82
  -3  -4   1  410.95   15.86
   2   4  -1    0.75    0.26
   2   4  -1    0.69    0.27
   2   4  -1    0.37    0.22
   2   4  -1    0.41    0.28
  -2  -4   1    0.47    0.24
  -2  -4   1    0.36    0.21
  -2  -4   1    0.75    0.24
  -2  -4   1    0.54    0.22
   1   4  -1  632.14   23.52
   1   4  -1  612.49   23.56
   1   4  -1  586.42   23.56
   1   4  -1  621.35   23.60
  -1  -4   1  602.23   23.57
  -1  -4   1  638.12   23.57
  -1  -4   1  624.41   23.55
  -1  -4   1  652.39   23.54
  -1  -4   1  618.28   23.51
   0   4  -1    3.14    0.36
   0   4  -1    3.21    0.26
   0   4  -1    2.81    0.33
   0   4  -1    3.53    0.34
   0  -4   1    2.90    0.31
   0  -4   1    3.14    0.32
   0  -4   1    3.37    0.27
   0  -4   1    4.25    0.38
  -1   4  -1  314.18   11.81
  -1   4  -1  299.54   11.81
  -1   4  -1  301.63   11.81
   1  -4   1  318.82   11.79
   1  -4   1  304.21   11.81
   1  -4   1  307.99   11.78
  -2   4  -1    1.15    0.29
  -2   4  -1    1.15    0.30
  -2   4  -1    1.59    0.33
   2  -4   1    1.62    0.33
   2  -4   1    1.61    0.29
   2  -4   1    1.63    0.17
   2  -4   1    1.41    0.32
  -3   4  -1   20.55    1.09
  -3   4  -1   18.61    1.03
  -3   4  -1   19.51    1.09
   3  -4   1   17.12    1.03
   3  -4   1   19.34    1.08
  -4   4  -1    0.73    0.34
  -4   4  -1    0.31    0.28
  -4   4  -1    0.33    0.24
   4  -4   1    0.15    0.34
   4  -4   1    1.66    0.43
   4  -4   1    0.11    0.11
  -5   4  -1   26.83    1.44
   5  -4   1   26.14    1.61
   5  -4   1   24.72    1.51
   5  -4   1   26.99    1.44
  -6   4  -1    4.84    0.79
  -6   4  -1    4.91    0.89
   6  -4   1    5.12    0.86
   6  -4   1    4.98    1.17
   6  -4   1    4.53    0.97
  -7   4  -1    0.94    0.83
  -7   4  -1    1.14    0.62
   7  -4   1    1.85    0.78
  -8   4  -1    4.95    0.97
   8  -4   1    2.79    1.14
   8   3  -1   97.08    5.30
  -8  -3   1  116.47    5.25
  -8  -3   1  113.56    4.99
   7   3  -1   11.20    1.56
  -7  -3   1   11.48    1.19
  -7  -3   1   10.88    1.62
  -7  -3   1    9.98    1.39
  -7  -3   1   10.88    1.22
   6   3  -1  122.54    5.45
   6   3  -1  119.81    5.47
  -6  -3   1  120.71    5.06
  -6  -3   1  119.84    5.22
  -6  -3   1  134.18    5.39
   5   3  -1    8.97    1.02
   5   3  -1    8.22    0.94
  -5  -3   1    8.07    0.74
  -5  -3   1    8.10    0.94
  -5  -3   1    9.75    0.89
  -5  -3   1    6.85    0.79
   4   3  -1  192.88    7.51
   4   3  -1  177.17    7.50
   4   3  -1  197.58    7.56
  -4  -3   1  187.87    7.31
  -4  -3   1  179.80    7.43
  -4  -3   1  181.74    7.41
   3   3  -1   10.48    0.83
   3   3  -1   12.40    0.84
   3   3  -1   11.79    0.83
  -3  -3   1   12.04    0.71
  -3  -3   1   11.88    0.80
  -3  -3   1   10.24    0.75
  -3  -3   1   10.78    0.76
   2   3  -1   42.51    1.85
   2   3  -1   38.92    1.86
   2   3  -1   40.60    1.88
   2   3  -1   41.24    1.80
  -2  -3   1   41.99    1.84
  -2  -3   1   41.84    1.85
  -2  -3   1   42.22    1.79
  -2  -3   1   41.09    1.83
   1   3  -1    2.29    0.26
   1   3  -1    2.20    0.27
   1   3  -1    2.44    0.31
   1   3  -1    1.74    0.26
  -1  -3   1    1.88    0.26
  -1  -3   1    1.73    0.26
  -1  -3   1    1.61    0.26
  -1  -3   1    1.92    0.25
   0   3  -1    2.14    0.24
   0   3  -1    2.38    0.25
   0   3  -1    1.48    0.20
   0   3  -1    2.04    0.18
   0  -3   1    2.07    0.25
   0  -3   1    2.08    0.22
   0  -3   1    1.87    0.19
   0  -3   1    1.98    0.22
  -1   3  -1   17.39    0.89
  -1   3  -1   19.99    0.91
  -1   3  -1   18.00    0.89
   1  -3   1   19.67    0.91
   1  -3   1   17.68    0.88
   1  -3   1   19.67    0.89
   1  -3   1   19.26    0.76
  -2   3  -1   79.29    3.27
  -2   3  -1   88.02    3.32
  -2   3  -1   86.48    3.30
   2  -3   1   80.44    3.26
   2  -3   1   76.68    3.28
   2  -3   1   75.32    3.26
  -3   3  -1   21.55    1.15
  -3   3  -1   21.50    1.08
  -3   3  -1   21.73    1.13
   3  -3   1   22.02    0.88
   3  -3   1   22.86    1.15
   3  -3   1   21.07    1.11
  -4   3  -1  313.11   12.47
  -4   3  -1  334.76   12.36
  -4   3  -1  310.49   12.41
   4  -3   1  321.58   12.08
   4  -3   1  321.66   12.46
   4  -3   1  319.66   12.42
  -5   3  -1   91.81    3.85
  -5   3  -1   83.73    3.82
  -5   3  -1   86.83    3.66
   5  -3   1   88.80    3.71
   5  -3   1   85.25    3.75
   5  -3   1   84.60    3.81
  -6   3  -1  264.50   10.13
  -6   3  -1  249.58   10.36
   6  -3   1  265.70   10.23
   6  -3   1  247.88   10.26
  -7   3  -1   56.90    2.77
  -7   3  -1   55.66    3.08
   7  -3   1   59.97    3.01
  -8   3  -1  152.76    6.24
  -8   3  -1  141.86    6.65
   8  -3   1  145.71    6.55
   8   2  -1    0.43    1.08
  -8  -2   1    0.40    1.00
  -8  -2   1    2.49    0.87
   7   2  -1   63.33    3.39
  -7  -2   1   63.01    3.26
  -7  -2   1   65.10    3.42
  -7  -2   1   63.62    3.07
  -7  -2   1   64.71    2.94
   6   2  -1    0.35    0.72
   6   2  -1    1.86    0.63
  -6  -2   1    1.26    0.71
  -6  -2   1    0.51    0.41
  -6  -2   1    1.14    0.50
  -6  -2   1    0.85    0.38
   5   2  -1   14.13    1.15
   5   2  -1   13.05    1.08
  -5  -2   1   12.60    1.02
  -5  -2   1   13.25    0.95
  -5  -2   1   12.67    0.85
  -5  -2   1   14.93    1.12
   4   2  -1    0.92    0.33
   4   2  -1    0.79    0.35
   4   2  -1    0.61    0.34
  -4  -2   1    0.80    0.24
  -4  -2   1    1.53    0.43
  -4  -2   1    0.98    0.29
  -4  -2   1    0.55    0.36
   3   2  -1   75.78    3.43
   3   2  -1   89.15    3.47
   3   2  -1   81.74    3.44
  -3  -2   1   80.04    3.38
  -3  -2   1   77.68    3.39
  -3  -2   1   81.95    3.31
  -3  -2   1   86.91    3.44
   2   2  -1    0.61    0.20
   2   2  -1    0.54    0.19
   2   2  -1    0.57    0.21
   2   2  -1    0.57    0.16
  -2  -2   1    0.46    0.16
  -2  -2   1    0.69    0.21
  -2  -2   1    0.81    0.20
  -2  -2   1    0.61    0.16
   1   2  -1  234.07    8.99
   1   2  -1  240.22    9.01
   1   2  -1  233.48    8.97
   1   2  -1  225.31    9.00
  -1  -2   1  231.41    8.96
  -1  -2   1  246.43    8.99
  -1  -2   1  224.60    9.00
  -1  -2   1  246.80    8.99
   0   2  -1    4.82    0.31
   0   2  -1    5.49    0.28
   0   2  -1    5.03    0.32
   0   2  -1    4.99    0.30
   0  -2   1    5.68    0.33
   0  -2   1    5.56    0.33
   0  -2   1    5.83    0.31
   0  -2   1    5.50    0.29
  -1   2  -1  270.48   10.20
  -1   2  -1  252.47   10.20
   1  -2   1  277.50   10.19
   1  -2   1  272.56   10.20
   1  -2   1  268.82   10.21
  -2   2  -1    0.54    0.15
  -2   2  -1    0.46    0.12
  -2   2  -1    0.54    0.15
   2  -2   1    1.05    0.19
   2  -2   1    0.98    0.21
  -3   2  -1  398.46   16.09
  -3   2  -1  381.53   16.11
  -3   2  -1  416.61   16.05
   3  -2   1  464.85   16.16
   3  -2   1  424.51   15.87
   3  -2   1  444.70   16.12
  -4   2  -1   15.99    0.98
  -4   2  -1   17.05    0.89
  -4   2  -1   15.08    0.98
   4  -2   1   15.49    0.95
   4  -2   1   16.46    1.01
   4  -2   1   16.04    0.93
  -5   2  -1  121.13    5.00
  -5   2  -1  113.61    5.02
  -5   2  -1  122.87    4.87
   5  -2   1  118.22    4.98
   5  -2   1  124.82    4.96
   5  -2   1  118.28    5.03
  -6   2  -1    9.65    0.84
  -6   2  -1    8.28    0.98
   6  -2   1    8.78    1.07
   6  -2   1    9.46    0.96
  -7   2  -1    1.29    0.53
  -7   2  -1    1.26    0.74
   7  -2   1    1.84    0.68
  -8   2  -1    6.66    1.20
  -8   2  -1    4.68    1.20
   8  -2   1    5.21    1.47
   8   1  -1    6.40    1.75
  -8  -1   1    3.03    1.10
  -8  -1   1    4.25    0.90
  -8  -1   1    3.95    1.00
   7   1  -1    1.34    0.71
  -7  -1   1    1.06    0.71
  -7  -1   1   -0.39    0.89
  -7  -1   1    0.72    0.51
  -7  -1   1    0.98    0.52
   6   1  -1   27.92    2.17
   6   1  -1   28.42    1.79
  -6  -1   1   26.90    1.76
  -6  -1   1   31.30    1.60
  -6  -1   1   31.49    1.54
   5   1  -1    0.75    0.38
   5   1  -1    1.08    0.47
   5   1  -1    1.91    0.53
  -5  -1   1    0.80    0.42
  -5  -1   1    1.78    0.47
  -5  -1   1    1.54    0.40
  -5  -1   1    0.55    0.29
   4   1  -1   76.62    3.21
   4   1  -1   77.05    3.34
   4   1  -1   81.38    3.37
   4   1  -1   77.64    3.34
  -4  -1   1   77.49    3.22
  -4  -1   1   76.61    3.32
  -4  -1   1   73.89    3.29
   3   1  -1    3.97    0.43
   3   1  -1    4.69    0.46
   3   1  -1    4.19    0.39
  -3  -1   1    3.97    0.37
  -3  -1   1    4.01    0.43
  -3  -1   1    4.06    0.43
  -3  -1   1    4.64    0.34
   2   1  -1  149.19    5.96
   2   1  -1  156.69    5.92
   2   1  -1  145.85    5.94
  -2  -1   1  160.55    5.95
  -2  -1   1  153.85    5.86
  -2  -1   1  150.63    5.92
   1   1  -1    0.22    0.07
   1   1  -1    0.07    0.07
   1   1  -1    0.07    0.08
   1   1  -1    0.09    0.09
  -1  -1   1    0.08    0.06
  -1  -1   1    0.09    0.09
  -1  -1   1    0.16    0.07
  -1  -1   1    0.06    0.07
   0   1  -1   26.82    1.07
   0   1  -1   26.79    1.03
   0  -1   1   26.75    1.06
   0  -1   1   25.32    1.06
   0  -1   1   25.62    1.01
  -1   1  -1    0.09    0.06
  -1   1  -1    0.34    0.09
  -1   1  -1    0.08    0.06
   1  -1   1    0.14    0.05
   1  -1   1    0.09    0.05
   1  -1   1    0.07    0.06
  -2   1  -1  213.27    7.92
  -2   1  -1  198.14    7.88
   2  -1   1  203.61    7.88
   2  -1   1  207.66    7.91
   2  -1   1  205.77    7.86
  -3   1  -1    6.72    0.49
  -3   1  -1    7.01    0.33
  -3   1  -1    5.65    0.49
   3  -1   1    6.87    0.48
   3  -1   1    6.39    0.51
   3  -1   1    5.75    0.46
  -4   1  -1   58.71    2.51
  -4   1  -1   53.44    2.20
   4  -1   1   59.16    2.50
   4  -1   1   52.03    2.42
   4  -1   1   53.84    2.42
  -5   1  -1    0.21    0.31
  -5   1  -1    0.20    0.15
  -5   1  -1    0.80    0.34
   5  -1   1    0.55    0.33
   5  -1   1    0.31    0.36
   5  -1   1    0.61    0.39
  -6   1  -1    1.31    0.57
  -6   1  -1    2.38    0.59
   6  -1   1    1.61    0.52
   6  -1   1    1.68    0.55
   6  -1   1    0.83    0.63
  -7   1  -1    3.86    0.86
  -7   1  -1    4.14    1.06
   7  -1   1    6.48    1.34
   7  -1   1    4.46    1.00
  -8   1  -1    8.14    1.73
  -8   1  -1   10.57    1.27
   8  -1   1    9.86    1.62
   8   0  -1    5.82    1.64
  -8   0   1    2.93    1.18
  -8   0   1    2.32    0.64
   7   0  -1    0.14    0.70
  -7   0   1    0.74    0.69
  -7   0   1   -0.19    0.69
  -7   0   1    0.35    0.40
   6   0  -1    3.41    0.80
  -6   0   1    4.52    0.65
  -6   0   1    5.40    0.86
   5   0  -1  325.86   12.82
   5   0  -1  345.60   12.84
   5   0  -1  327.02   12.59
  -5   0   1  315.33   12.79
  -5   0   1  324.73   12.77
  -5   0   1  322.13   12.58
   4   0  -1   10.37    0.67
   4   0  -1   11.88    0.79
   4   0  -1   11.23    0.82
  -4   0   1   11.13    0.78
  -4   0   1   10.45    0.66
  -4   0   1   11.06    0.81
   3   0  -1  584.20   22.79
   3   0  -1  602.54   22.69
   3   0  -1  587.63   22.79
  -3   0   1  591.59   22.77
  -3   0   1  595.33   22.69
  -3   0   1  636.29   22.81
   2   0  -1    9.99    0.56
   2   0  -1    9.79    0.51
   2   0  -1    9.98    0.56
  -2   0   1    9.52    0.50
  -2   0   1    9.45    0.54
  -2   0   1    9.42    0.54
   1   0  -1  202.92    7.13
   1   0  -1  190.96    7.12
   1   0  -1  175.14    7.12
  -1   0   1  184.50    7.11
  -1   0   1  195.10    7.12
  -1   0   1  174.44    7.11
  -1   0  -1   41.49    1.69
   1   0   1   39.41    1.70
   1   0   1   49.35    1.70
   1   0   1   41.37    1.69
  -2   0  -1    1.75    0.23
  -2   0  -1    1.98    0.22
   2   0   1    1.62    0.20
   2   0   1    2.27    0.25
   2   0   1    2.19    0.24
  -3   0  -1   64.06    2.82
  -3   0  -1   68.83    2.66
  -3   0  -1   66.08    2.78
   3   0   1   67.17    2.79
   3   0   1   66.18    2.82
   3   0   1   69.90    2.80
  -4   0  -1    2.21    0.40
  -4   0  -1    2.48    0.28
  -4   0  -1    1.42    0.40
   4   0   1    2.28    0.39
   4   0   1    2.46    0.44
   4   0   1    2.08    0.45
  -5   0  -1   33.56    1.70
  -5   0  -1   27.62    1.34
  -5   0  -1   31.55    1.61
   5   0   1   30.35    1.60
   5   0   1   27.64    1.56
   5   0   1   27.68    1.63
  -6   0  -1    0.60    0.28
  -6   0  -1    0.90    0.49
  -6   0  -1    1.25    0.51
   6   0   1    0.33    0.55
   6   0   1    0.99    0.48
   6   0   1    1.19    0.46
  -7   0  -1   74.58    3.70
  -7   0  -1   65.79    3.57
  -7   0  -1   80.74    3.22
   7   0   1   77.61    3.69
   7   0   1   79.63    3.67
  -8   0  -1    5.37    1.13
  -8   0  -1    5.01    1.47
   8   0   1    2.89    0.95
   8  -1  -1  148.17    7.10
  -8   1   1  171.30    7.19
  -8   1   1  162.79    6.54
   7  -1  -1   59.14    3.03
  -7   1   1   51.69    2.95
  -7   1   1   54.88    2.53
   6  -1  -1  147.18    6.40
  -6   1   1  154.99    6.07
  -6   1   1  155.78    6.46
   5  -1  -1   28.44    1.65
   5  -1  -1   33.58    1.76
   5  -1  -1   30.23    1.47
  -5   1   1   29.75    1.69
  -5   1   1   31.65    1.68
  -5   1   1   31.70    1.44
   4  -1  -1  106.38    4.61
   4  -1  -1  114.41    4.62
   4  -1  -1  113.59    4.43
  -4   1   1  108.68    4.61
  -4   1   1  114.42    4.60
  -4   1   1  112.18    4.40
   3  -1  -1    1.20    0.32
   3  -1  -1    1.55    0.24
   3  -1  -1    2.13    0.31
  -3   1   1    1.77    0.32
  -3   1   1    2.11    0.33
  -3   1   1    1.99    0.22
   2  -1  -1  105.24    4.18
   2  -1  -1   99.75    4.16
   2  -1  -1  107.21    4.09
  -2   1   1  103.80    4.18
  -2   1   1  110.20    4.17
  -2   1   1  107.39    4.06
   1  -1  -1    3.94    0.26
   1  -1  -1    4.13    0.22
   1  -1  -1    3.64    0.26
  -1   1   1    4.02    0.26
  -1   1   1    3.95    0.22
  -1   1   1    4.55    0.28
   0  -1  -1   30.27    1.22
   0  -1  -1   30.09    1.23
   0   1   1   30.00    1.23
   0   1   1   31.30    1.22
   0   1   1   31.04    1.22
  -1  -1  -1    7.46    0.38
  -1  -1  -1    7.27    0.41
  -1  -1  -1    7.21    0.40
   1   1   1    7.42    0.40
   1   1   1    6.38    0.39
  -2  -1  -1    5.55    0.42
  -2  -1  -1    6.37    0.42
  -2  -1  -1    5.38    0.40
   2   1   1    5.82    0.43
   2   1   1    5.73    0.40
   2   1   1    5.26    0.40
  -3  -1  -1    7.60    0.53
  -3  -1  -1    6.89    0.45
  -3  -1  -1    7.16    0.55
   3   1   1    6.03    0.53
   3   1   1    6.53    0.54
   3   1   1    6.18    0.50
  -4  -1  -1  158.58    6.59
  -4  -1  -1  160.37    6.40
  -4  -1  -1  159.01    6.54
   4   1   1  168.90    6.56
   4   1   1  160.18    6.55
   4   1   1  175.90    6.63
  -5  -1  -1    9.72    0.68
  -5  -1  -1    9.65    0.87
  -5  -1  -1   10.38    0.88
   5   1   1    9.92    0.92
   5   1   1   10.38    0.91
   5   1   1    8.13    0.81
  -6  -1  -1  237.74    9.19
  -6  -1  -1  241.27    9.47
   6   1   1  230.62    9.43
   6   1   1  229.25    9.46
  -7  -1  -1   10.07    1.44
  -7  -1  -1   11.35    1.31
  -7  -1  -1   11.62    0.93
   7   1   1   10.08    1.23
   7   1   1    8.88    1.44
  -8  -1  -1   97.30    4.11
  -8  -1  -1   96.90    4.69
   8   1   1   91.07    4.62
   8  -2  -1    1.15    1.04
  -8   2   1   -0.93    0.66
  -8   2   1    1.22    1.10
   7  -2  -1    0.67    0.71
  -7   2   1    1.28    0.49
  -7   2   1    1.15    0.81
   6  -2  -1    1.11    0.50
   6  -2  -1    0.20    0.37
  -6   2   1    0.06    0.48
  -6   2   1    0.51    0.33
   5  -2  -1    2.77    0.45
   5  -2  -1    2.34    0.57
  -5   2   1    2.54    0.64
  -5   2   1    2.77    0.46
  -5   2   1    2.95    0.65
   4  -2  -1    0.04    0.24
   4  -2  -1    0.22    0.18
   4  -2  -1    0.39    0.33
  -4   2   1   -0.13    0.17
  -4   2   1    0.13    0.26
  -4   2   1   -0.01    0.28
   3  -2  -1   63.05    2.54
   3  -2  -1   69.17    2.73
  -3   2   1   62.30    2.56
  -3   2   1   62.57    2.71
  -3   2   1   59.13    2.67
   2  -2  -1    4.07    0.37
   2  -2  -1    4.23    0.36
   2  -2  -1    4.19    0.30
  -2   2   1    3.66    0.35
  -2   2   1    4.38    0.30
  -2   2   1    4.26    0.36
  -1   2   1  610.08   23.06
   0  -2  -1    0.60    0.14
   0  -2  -1    0.70    0.12
   0  -2  -1    0.59    0.14
   0  -2  -1    0.72    0.14
   0   2   1    0.81    0.14
   0   2   1    0.77    0.12
   0   2   1    0.74    0.14
   0   2   1    0.62    0.14
   1   2   1  582.79   21.97
   1   2   1  579.06   21.99
  -2  -2  -1    3.16    0.31
  -2  -2  -1    2.88    0.33
  -2  -2  -1    2.86    0.33
  -2  -2  -1    3.04    0.31
   2   2   1    2.91    0.35
   2   2   1    2.92    0.32
  -3  -2  -1  584.77   22.82
  -3  -2  -1  603.56   22.87
  -3  -2  -1  643.52   22.87
  -3  -2  -1  600.34   22.75
   3   2   1  605.08   22.87
   3   2   1  562.37   22.82
   3   2   1  596.98   22.82
  -4  -2  -1   17.45    1.06
  -4  -2  -1   18.86    1.08
  -4  -2  -1   16.37    0.92
   4   2   1   16.66    1.04
   4   2   1   13.06    1.02
  -5  -2  -1  230.20    9.05
  -5  -2  -1  232.18    9.22
  -5  -2  -1  216.98    9.23
   5   2   1  239.50    9.27
   5   2   1  224.93    9.26
   5   2   1  241.12    9.23
  -6  -2  -1   18.75    1.41
  -6  -2  -1   18.49    1.17
  -6  -2  -1   19.80    1.45
  -6  -2  -1   19.84    1.25
   6   2   1   17.51    1.35
   6   2   1   17.27    1.40
  -7  -2  -1   14.41    1.45
  -7  -2  -1   15.09    1.19
  -7  -2  -1   15.59    1.58
  -7  -2  -1   18.08    1.38
   7   2   1   14.83    1.51
  -8  -2  -1   13.47    1.31
  -8  -2  -1   11.34    1.65
   8   2   1   14.41    1.77
   7  -3  -1   19.73    1.72
  -7   3   1   17.15    1.71
  -7   3   1   17.65    1.28
   6  -3  -1  244.04    9.27
   6  -3  -1  236.03    9.68
  -6   3   1  244.02    9.38
  -6   3   1  211.47    9.60
  -6   3   1  259.12    9.76
   5  -3  -1   44.66    1.88
   5  -3  -1   41.31    2.16
  -5   3   1   43.01    1.96
  -5   3   1   41.21    2.17
  -5   3   1   43.10    2.19
   4  -3  -1  210.48    8.71
   4  -3  -1  225.92    8.48
  -4   3   1  229.42    8.57
  -4   3   1  217.50    8.71
  -4   3   1  218.11    8.74
   3  -3  -1   67.64    2.88
   3  -3  -1   65.58    2.84
   3  -3  -1   66.39    2.65
  -3   3   1   65.94    2.72
  -3   3   1   69.32    2.84
  -3   3   1   61.85    2.84
   2  -3  -1  558.43   21.19
   2  -3  -1  606.79   21.32
  -2   3   1  584.60   21.31
  -2   3   1  504.64   21.24
  -2   3   1  545.11   21.20
   1  -3  -1    4.89    0.38
   1  -3  -1    5.23    0.33
   1  -3  -1    5.10    0.37
   1  -3  -1    5.49    0.41
  -1   3   1    5.06    0.39
  -1   3   1    4.59    0.35
  -1   3   1    5.02    0.39
   0  -3  -1  284.89   11.17
   0  -3  -1  310.69   11.21
   0  -3  -1  285.43   11.11
   0   3   1  288.84   11.11
   0   3   1  281.93   11.19
   0   3   1  310.87   11.20
   0   3   1  285.31   11.17
  -1  -3  -1    9.67    0.56
  -1  -3  -1   10.10    0.62
  -1  -3  -1   10.05    0.61
  -1  -3  -1   10.96    0.61
   1   3   1   11.37    0.62
   1   3   1   10.48    0.57
   1   3   1   10.30    0.63
   1   3   1    9.35    0.60
  -2  -3  -1  255.89    9.73
  -2  -3  -1  263.82    9.79
  -2  -3  -1  243.65    9.78
  -2  -3  -1  263.07    9.75
   2   3   1  244.53    9.80
   2   3   1  241.93    9.77
   2   3   1  261.39    9.74
   2   3   1  240.92    9.73
  -3  -3  -1   23.29    1.22
  -3  -3  -1   24.88    1.32
  -3  -3  -1   25.00    1.28
  -3  -3  -1   23.32    1.29
   3   3   1   23.17    1.29
   3   3   1   24.20    1.32
   3   3   1   25.87    1.29
  -4  -3  -1    1.40    0.41
  -4  -3  -1    1.07    0.35
  -4  -3  -1    2.76    0.48
  -4  -3  -1    2.58    0.44
   4   3   1    0.98    0.36
   4   3   1    1.03    0.34
   4   3   1    0.92    0.34
  -5  -3  -1   26.91    1.48
  -5  -3  -1   26.95    1.47
  -5  -3  -1   29.39    1.67
  -5  -3  -1   28.28    1.64
   5   3   1   24.65    1.58
   5   3   1   27.94    1.69
   5   3   1   30.06    1.65
  -6  -3  -1   20.19    1.34
  -6  -3  -1   21.04    1.31
  -6  -3  -1   20.81    1.49
   6   3   1   18.89    1.46
  -7  -3  -1   26.06    1.72
  -7  -3  -1   26.63    1.66
  -7  -3  -1   27.80    1.95
   7   3   1   26.35    1.92
  -8  -3  -1   37.58    2.37
  -8  -3  -1   36.17    2.57
  -8  -3  -1   35.82    2.18
   8   3   1   35.95    2.60
   7  -4  -1   37.67    2.47
  -7   4   1   43.68    2.61
  -7   4   1   38.39    2.12
   6  -4  -1    0.93    0.61
   6  -4  -1    0.80    0.37
  -6   4   1   -0.07    0.59
  -6   4   1    0.60    0.45
   5  -4  -1   29.61    1.69
   5  -4  -1   28.11    1.35
  -5   4   1   30.11    1.51
  -5   4   1   27.63    1.73
   4  -4  -1    0.86    0.42
   4  -4  -1    0.42    0.33
   4  -4  -1    0.79    0.22
  -4   4   1    0.36    0.26
  -4   4   1    0.65    0.42
  -4   4   1    0.79    0.35
   3  -4  -1   42.97    2.07
   3  -4  -1   44.36    2.11
   3  -4  -1   45.26    1.96
  -3   4   1   47.20    2.10
  -3   4   1   45.19    2.11
  -3   4   1   44.12    1.98
   2  -4  -1    8.08    0.62
   2  -4  -1    8.49    0.52
   2  -4  -1    9.02    0.68
   2  -4  -1    9.14    0.59
  -2   4   1    8.71    0.59
  -2   4   1    8.93    0.65
  -2   4   1    9.82    0.67
   1  -4  -1   10.28    0.67
   1  -4  -1    9.85    0.62
   1  -4  -1   10.07    0.64
   1  -4  -1   10.88    0.56
  -1   4   1    9.72    0.65
  -1   4   1    9.99    0.62
  -1   4   1   10.15    0.65
   0  -4  -1   13.68    0.67
   0  -4  -1   12.91    0.75
   0  -4  -1   12.56    0.72
   0  -4  -1   12.47    0.74
   0   4   1   13.52    0.75
   0   4   1   11.69    0.73
   0   4   1   13.13    0.75
   0   4   1   13.66    0.67
  -1  -4  -1   38.25    1.66
  -1  -4  -1   36.46    1.59
  -1  -4  -1   34.45    1.67
  -1  -4  -1   35.47    1.65
   1   4   1   37.57    1.60
   1   4   1   34.67    1.65
   1   4   1   39.71    1.68
   1   4   1   33.59    1.66
  -2  -4  -1    5.54    0.52
  -2  -4  -1    4.60    0.47
  -2  -4  -1    4.93    0.53
  -2  -4  -1    5.29    0.51
   2   4   1    4.61    0.47
   2   4   1    4.63    0.47
   2   4   1    4.68    0.50
   2   4   1    5.39    0.52
  -3  -4  -1  218.20    8.74
  -3  -4  -1  217.27    8.77
  -3  -4  -1  219.75    8.82
  -3  -4  -1  236.51    8.86
   3   4   1  221.73    8.86
   3   4   1  219.68    8.77
   3   4   1  226.93    8.86
  -4  -4  -1    7.57    0.74
  -4  -4  -1    6.05    0.76
  -4  -4  -1    6.85    0.74
  -4  -4  -1    7.75    0.69
   4   4   1    6.96    0.79
   4   4   1    6.25    0.81
   4   4   1    7.74    0.78
  -5  -4  -1  226.38    9.33
  -5  -4  -1  238.57    9.36
  -5  -4  -1  230.91    9.50
  -5  -4  -1  221.06    9.46
   5   4   1  252.21   10.51
   5   4   1  242.26    9.56
   5   4   1  241.49    9.51
  -6  -4  -1    9.02    1.06
  -6  -4  -1   10.65    1.20
  -6  -4  -1    9.31    0.97
   6   4   1    9.85    1.14
  -7  -4  -1  238.65    9.74
  -7  -4  -1  235.50    9.99
   7   4   1  252.39   10.12
  -8  -4  -1   16.14    1.85
  -8  -4  -1   14.30    2.03
  -8  -4  -1   19.51    1.68
   8   4   1   13.44    1.99
   7  -5  -1   25.44    2.01
  -7   5   1   20.00    1.95
  -7   5   1   19.38    1.64
   6  -5  -1   56.88    2.45
   6  -5  -1   58.31    3.00
  -6   5   1   58.49    2.75
  -6   5   1   56.24    3.00
   5  -5  -1   10.34    1.19
   5  -5  -1    7.89    0.64
   5  -5  -1    7.38    0.99
  -5   5   1    9.33    0.88
  -5   5   1    8.93    1.04
   4  -5  -1   15.49    1.12
   4  -5  -1   15.06    0.84
   4  -5  -1   14.47    1.17
  -4   5   1   18.15    1.05
  -4   5   1   15.16    1.15
  -4   5   1   15.49    1.16
   3  -5  -1    0.33    0.21
   3  -5  -1   -0.02    0.25
   3  -5  -1   -0.03    0.24
   3  -5  -1    0.59    0.35
  -3   5   1    0.06    0.25
  -3   5   1    0.57    0.33
  -3   5   1    0.40    0.31
   2  -5  -1   78.16    3.18
   2  -5  -1   69.59    3.11
   2  -5  -1   72.20    2.96
   2  -5  -1   74.18    3.07
  -2   5   1   72.79    3.13
  -2   5   1   76.15    3.17
  -2   5   1   68.13    3.06
   1  -5  -1    5.50    0.55
   1  -5  -1    6.32    0.52
   1  -5  -1    5.73    0.53
   1  -5  -1    5.09    0.40
  -1   5   1    5.86    0.55
  -1   5   1    5.37    0.50
  -1   5   1    5.02    0.50
   0  -5  -1  307.94   11.68
   0  -5  -1  294.09   11.66
   0  -5  -1  291.37   11.55
   0  -5  -1  315.78   11.70
   0   5   1  305.29   11.70
   0   5   1  301.84   11.55
   0   5   1  314.50   11.70
   0   5   1  286.00   11.66
  -1  -5  -1   15.78    0.85
  -1  -5  -1   16.61    0.96
  -1  -5  -1   16.26    0.96
  -1  -5  -1   14.72    0.90
   1   5   1   15.06    0.84
   1   5   1   16.47    0.96
   1   5   1   14.00    0.92
   1   5   1   14.71    0.91
  -2  -5  -1  255.05    9.88
  -2  -5  -1  252.93    9.97
  -2  -5  -1  243.44    9.92
  -2  -5  -1  258.98    9.96
   2   5   1  243.27    9.98
   2   5   1  269.95   10.01
   2   5   1  253.60    9.89
  -3  -5  -1    0.11    0.36
  -3  -5  -1    0.30    0.29
  -3  -5  -1    0.37    0.31
  -3  -5  -1    0.47    0.31
   3   5   1    0.75    0.36
   3   5   1    0.71    0.37
   3   5   1    0.64    0.31
   3   5   1    0.97    0.35
  -4  -5  -1   27.35    1.58
  -4  -5  -1   28.59    1.57
  -4  -5  -1   27.10    1.67
  -4  -5  -1   29.61    1.56
  -4  -5  -1   28.09    1.62
   4   5   1   28.13    1.70
   4   5   1   27.50    1.61
  -5  -5  -1    3.21    0.81
  -5  -5  -1    3.13    0.78
  -5  -5  -1    5.30    0.94
  -5  -5  -1    2.84    0.72
   5   5   1    3.21    0.73
   5   5   1    3.25    0.79
  -6  -5  -1    9.39    1.38
  -6  -5  -1    8.31    1.02
  -6  -5  -1   10.13    1.20
  -6  -5  -1   10.70    1.20
   6   5   1    7.77    1.47
   6   5   1    6.90    1.16
  -7  -5  -1   11.88    1.36
  -7  -5  -1   11.18    1.51
  -7  -5  -1   10.30    1.54
   7   5   1   12.99    1.55
  -8  -5  -1   17.08    1.81
  -8  -5  -1   17.66    2.13
   8   5   1   14.60    2.68
   6  -6  -1    4.96    1.30
  -6   6   1    6.67    1.12
  -6   6   1    6.66    1.34
   5  -6  -1   23.36    1.32
   5  -6  -1   20.76    1.56
   5  -6  -1   22.79    1.15
  -5   6   1   22.25    1.44
  -5   6   1   20.71    1.59
   4  -6  -1    7.20    0.66
   4  -6  -1    6.11    0.88
  -4   6   1    6.06    0.76
  -4   6   1    7.77    0.90
   3  -6  -1   18.85    1.17
   3  -6  -1   19.91    1.23
   3  -6  -1   19.35    1.03
  -3   6   1   19.95    1.18
  -3   6   1   18.85    1.26
   2  -6  -1    0.19    0.28
   2  -6  -1   -0.11    0.27
   2  -6  -1   -0.07    0.17
   2  -6  -1   -0.19    0.34
  -2   6   1    0.12    0.27
  -2   6   1   -0.11    0.31
  -2   6   1   -0.07    0.28
   1  -6  -1   27.51    1.40
   1  -6  -1   26.50    1.23
   1  -6  -1   25.84    1.37
   1  -6  -1   24.51    1.40
  -1   6   1   25.29    1.41
  -1   6   1   24.35    1.35
  -1   6   1   27.63    1.42
   0  -6  -1    0.50    0.27
   0  -6  -1    0.49    0.31
   0  -6  -1    0.37    0.19
   0  -6  -1    0.15    0.28
   0   6   1    0.07    0.26
   0   6   1    0.43    0.20
   0   6   1    0.26    0.26
   0   6   1   -0.12    0.26
  -1  -6  -1  214.85    8.72
  -1  -6  -1  241.14    8.79
  -1  -6  -1  222.47    8.75
  -1  -6  -1  221.26    8.62
   1   6   1  223.77    8.61
   1   6   1  217.17    8.74
   1   6   1  204.87    8.72
   1   6   1  223.13    8.78
  -2  -6  -1   14.71    1.03
  -2  -6  -1   13.88    0.99
  -2  -6  -1   14.30    1.04
  -2  -6  -1   14.95    0.93
   2   6   1   13.14    0.97
   2   6   1   15.00    1.05
   2   6   1   14.27    0.94
   2   6   1   15.92    1.07
  -3  -6  -1  150.56    6.19
  -3  -6  -1  151.12    6.27
  -3  -6  -1  149.79    6.26
  -3  -6  -1  148.92    6.20
   3   6   1  148.34    6.22
   3   6   1  146.60    6.18
   3   6   1  158.45    6.33
   3   6   1  159.06    6.35
  -4  -6  -1    3.27    0.78
  -4  -6  -1    3.89    0.75
  -4  -6  -1    3.53    0.70
  -4  -6  -1    3.44    0.77
  -4  -6  -1    3.78    0.85
   4   6   1    3.97    0.87
   4   6   1    4.12    0.81
  -5  -6  -1   18.82    1.39
  -5  -6  -1   18.69    1.35
  -5  -6  -1   17.20    1.39
   5   6   1   15.99    1.46
   5   6   1   16.72    1.42
  -6  -6  -1    1.05    0.66
  -6  -6  -1    0.88    0.61
  -6  -6  -1    1.57    0.94
   6   6   1    1.09    0.77
  -7  -6  -1    1.39    0.94
  -7  -6  -1    0.94    0.80
   7   6   1    1.39    0.99
   6  -7  -1  104.34    4.98
   6  -7  -1  105.94    4.56
  -6   7   1  105.18    4.75
  -6   7   1  110.08    5.05
   5  -7  -1   39.48    1.86
   5  -7  -1   40.17    2.33
   5  -7  -1   39.63    2.00
  -5   7   1   42.02    2.23
  -5   7   1   41.86    2.44
   4  -7  -1  257.90   10.44
   4  -7  -1  262.12   10.27
   4  -7  -1  256.58   10.57
   4  -7  -1  265.75   10.66
  -4   7   1  271.56   10.67
  -4   7   1  271.13   10.50
   3  -7  -1   83.02    3.49
   3  -7  -1   75.99    3.37
   3  -7  -1   75.22    3.17
  -3   7   1   72.15    3.37
  -3   7   1   74.58    3.49
   2  -7  -1  227.60    8.73
   2  -7  -1  223.56    8.97
   2  -7  -1  227.68    9.02
   2  -7  -1  237.96    8.96
  -2   7   1  216.22    8.93
  -2   7   1  218.14    9.01
   1  -7  -1   27.50    1.53
   1  -7  -1   26.15    1.46
   1  -7  -1   27.30    1.50
   1  -7  -1   26.12    1.28
  -1   7   1   25.92    1.53
  -1   7   1   26.48    1.52
  -1   7   1   26.79    1.48
   0  -7  -1  163.01    6.55
   0  -7  -1  161.46    6.37
   0  -7  -1  161.77    6.57
   0  -7  -1  156.14    6.56
   0   7   1  164.72    6.59
   0   7   1  156.69    6.35
   0   7   1  158.84    6.55
   0   7   1  167.91    6.60
  -1  -7  -1    0.43    0.35
  -1  -7  -1    0.51    0.37
  -1  -7  -1   -0.20    0.30
  -1  -7  -1    0.83    0.29
   1   7   1    0.24    0.35
   1   7   1    0.66    0.30
   1   7   1    0.03    0.29
   1   7   1    0.53    0.35
  -2  -7  -1   11.49    0.95
  -2  -7  -1   14.01    1.10
  -2  -7  -1   11.58    0.88
  -2  -7  -1   10.36    0.97
   2   7   1   10.82    1.03
   2   7   1   11.02    0.90
   2   7   1   10.64    0.94
   2   7   1   12.59    1.04
  -3  -7  -1   19.01    1.29
  -3  -7  -1   19.80    1.38
  -3  -7  -1   18.04    1.35
  -3  -7  -1   18.50    1.24
   3   7   1   17.26    1.27
   3   7   1   19.90    1.32
   3   7   1   18.75    1.36
   3   7   1   20.41    1.48
  -4  -7  -1   15.31    1.36
  -4  -7  -1   14.06    1.27
  -4  -7  -1   16.17    1.24
  -4  -7  -1   13.78    1.18
  -4  -7  -1   14.34    1.26
   4   7   1   14.79    1.36
   4   7   1   14.68    1.60
   4   7   1   15.09    1.34
  -5  -7  -1   16.80    1.36
  -5  -7  -1   15.66    2.03
  -5  -7  -1   14.60    1.35
   5   7   1   12.67    1.53
   5   7   1   17.80    1.52
   5   7   1   15.42    1.58
  -6  -7  -1   26.91    1.90
  -6  -7  -1   26.54    1.89
  -6  -7  -1   21.65    1.97
   6   7   1   27.25    2.04
  -7  -7  -1    9.31    1.51
  -7  -7  -1    6.99    1.70
   7   7   1    4.06    1.24
   5  -8  -1   51.56    2.40
   5  -8  -1   48.32    2.82
  -5   8   1   54.18    2.96
  -5   8   1   46.30    2.67
   4  -8  -1    1.99    0.77
   4  -8  -1    1.25    0.45
   4  -8  -1    1.10    0.63
  -4   8   1    0.80    0.58
  -4   8   1    1.11    0.71
   3  -8  -1   21.21    1.44
   3  -8  -1   20.38    1.16
   3  -8  -1   21.73    1.66
   3  -8  -1   20.41    1.52
  -3   8   1   21.65    1.44
  -3   8   1   20.27    1.51
   2  -8  -1   25.64    1.60
   2  -8  -1   24.93    1.30
   2  -8  -1   26.89    1.58
  -2   8   1   26.07    1.58
  -2   8   1   24.89    1.60
   1  -8  -1    1.03    0.55
   1  -8  -1    1.12    0.31
   1  -8  -1    0.32    0.39
   1  -8  -1    0.21    0.45
  -1   8   1   -0.37    0.36
  -1   8   1    0.57    0.41
   0  -8  -1   18.86    1.09
   0  -8  -1   19.47    1.36
   0  -8  -1   19.83    1.27
   0  -8  -1   16.87    1.32
   0   8   1   18.71    1.10
   0   8   1   19.59    1.38
   0   8   1   19.17    1.29
   0   8   1   17.71    1.29
  -1  -8  -1   39.32    1.90
  -1  -8  -1   40.04    2.06
  -1  -8  -1   40.02    2.10
   1   8   1   38.30    1.90
   1   8   1   37.62    2.14
   1   8   1   39.43    2.11
  -2  -8  -1   17.34    1.34
  -2  -8  -1   14.95    1.32
  -2  -8  -1   15.76    1.11
  -2  -8  -1   18.62    1.28
   2   8   1   17.41    1.32
   2   8   1   16.32    1.25
   2   8   1   13.98    1.31
   2   8   1   14.36    1.15
  -3  -8  -1   98.38    4.44
  -3  -8  -1  101.41    4.34
   3   8   1   99.54    4.43
   3   8   1  105.79    4.55
   3   8   1   97.77    4.36
   3   8   1   93.18    4.51
  -4  -8  -1    0.79    0.57
  -4  -8  -1    0.65    0.61
  -4  -8  -1    0.91    0.80
   4   8   1    0.34    0.63
   4   8   1    0.76    0.73
   4   8   1    2.29    0.96
  -5  -8  -1  151.17    6.59
  -5  -8  -1  155.79    6.60
  -5  -8  -1  138.71    6.63
   5   8   1  170.48    6.84
  -6  -8  -1   -0.12    0.86
  -6  -8  -1   -0.33    0.82
   6   8   1    1.36    0.97
   5  -9  -1   -0.24    0.95
  -5   9   1   -0.02    1.31
  -5   9   1    1.50    0.98
   4  -9  -1   30.10    2.09
   4  -9  -1   28.78    1.60
  -4   9   1   29.37    2.05
  -4   9   1   31.82    2.16
   3  -9  -1    1.33    0.68
   3  -9  -1    0.56    0.41
  -3   9   1    0.77    0.61
  -3   9   1    0.49    0.65
   2  -9  -1  190.67    8.26
   2  -9  -1  203.45    7.93
   2  -9  -1  197.29    8.26
   2  -9  -1  198.64    8.36
  -2   9   1  215.35    8.34
  -2   9   1  207.33    8.39
   1  -9  -1   33.89    1.66
   1  -9  -1   33.99    1.92
   1  -9  -1   32.35    2.02
  -1   9   1   29.22    2.13
  -1   9   1   34.74    1.97
  -1   9   1   33.46    1.97
   0  -9  -1  260.02   11.25
   0  -9  -1  279.75   10.99
   0  -9  -1  298.11   11.27
   0   9   1  287.84   10.99
   0   9   1  275.98   11.35
   0   9   1  288.80   11.31
   0   9   1  283.48   11.33
  -1  -9  -1   31.59    1.88
  -1  -9  -1   30.72    1.68
   1   9   1   31.38    1.89
   1   9   1   29.18    2.04
   1   9   1   35.17    1.76
   1   9   1   30.55    1.91
  -2  -9  -1  279.81   11.08
  -2  -9  -1  296.95   11.27
   2   9   1  273.03   11.32
   2   9   1  253.66   11.30
   2   9   1  291.38   11.30
   2   9   1  287.52   11.09
  -3  -9  -1    2.44    0.98
  -3  -9  -1    1.11    0.65
  -3  -9  -1    1.35    0.68
  -3  -9  -1    2.47    0.67
   3   9   1    1.32    0.78
   3   9   1    3.13    0.83
   3   9   1    2.93    0.77
  -4  -9  -1  174.37    7.34
  -4  -9  -1  174.34    7.39
  -4  -9  -1  178.42    7.31
   4   9   1  168.44    7.32
   4   9   1  167.76    7.46
  -5  -9  -1    8.26    1.47
  -5  -9  -1    8.70    1.50
   5   9   1    6.24    1.67
  -6  -9  -1   14.99    1.88
  -6  -9  -1   16.88    1.97
   6   9   1   11.62    2.64
   4 -10  -1   41.77    2.65
  -4  10   1   39.57    2.66
   3 -10  -1  142.72    6.12
   3 -10  -1  134.99    5.59
  -3  10   1  140.54    6.21
  -3  10   1  137.99    6.12
   2 -10  -1   13.69    1.40
   2 -10  -1   12.26    0.98
  -2  10   1    9.19    1.39
  -2  10   1   10.88    1.37
   1 -10  -1   45.18    2.44
   1 -10  -1   42.03    2.11
  -1  10   1   42.37    2.52
  -1  10   1   46.97    2.60
   0 -10  -1    2.40    0.76
   0 -10  -1    3.92    0.79
   0 -10  -1    3.75    0.99
   0  10   1    2.24    0.67
   0  10   1    3.99    0.89
   0  10   1    3.73    0.85
  -1 -10  -1    2.57    0.77
  -1 -10  -1    2.71    0.93
   1  10   1    2.38    0.74
   1  10   1    1.25    0.63
   1  10   1    2.39    0.79
  -2 -10  -1   23.35    1.63
  -2 -10  -1   23.73    1.99
  -2 -10  -1   22.37    1.74
   2  10   1   24.72    1.81
   2  10   1   26.02    1.84
   2  10   1   24.61    1.87
  -3 -10  -1    4.34    0.83
  -3 -10  -1    4.05    0.96
   3  10   1    1.40    0.98
   3  10   1    2.11    0.81
   3  10   1    3.45    0.98
  -4 -10  -1   26.81    2.12
  -4 -10  -1   25.77    2.06
   4  10   1   24.79    2.18
  -5 -10  -1   21.26    2.09
   2 -11  -1   11.20    1.61
  -2  11   1   11.03    1.74
  -2  11   1    7.42    1.55
   1 -11  -1   15.10    1.19
   1 -11  -1   16.08    1.67
  -1  11   1   14.75    1.70
  -1  11   1   14.39    1.72
   0 -11  -1    1.32    0.62
   0 -11  -1    0.78    0.86
   0  11   1    1.92    0.91
   0  11   1   -0.07    0.79
  -1 -11  -1    1.38    0.72
  -1 -11  -1    1.15    0.88
   1  11   1    0.72    0.85
   1  11   1    1.99    0.85
   1  11   1    1.39    0.88
  -2 -11  -1   27.91    1.94
  -2 -11  -1   27.63    2.17
   2  11   1   29.75    2.23
   2  11   1   34.76    2.42
   2  11   1   29.41    2.28
  -3 -11  -1   11.90    1.74
  -3 -11  -1    5.65    1.22
   3  11   1    6.68    1.36
   3  11   1    6.52    1.64
   2  11  -2   10.10    1.73
   2  11  -2    6.76    1.56
  -2 -11   2    5.86    1.37
  -2 -11   2    3.57    1.10
   1  11  -2   27.40    2.13
   1  11  -2   28.00    2.14
  -1 -11   2   27.05    2.14
  -1 -11   2   29.07    1.94
   0  11  -2   -0.98    0.87
   0  11  -2    0.46    0.83
   0 -11   2    0.50    0.76
   0 -11   2   -0.59    0.91
   0 -11   2    1.28    0.87
  -1  11  -2   16.59    1.79
  -1  11  -2   14.14    1.73
   1 -11   2   17.26    1.65
   1 -11   2   16.46    1.60
  -2  11  -2    8.18    1.70
  -2  11  -2    9.00    1.53
   2 -11   2   10.84    1.49
   2 -11   2   10.42    1.41
   2 -11   2    3.94    1.72
   4  10  -2   11.73    1.94
   4  10  -2    9.28    1.68
  -4 -10   2   11.42    1.82
  -4 -10   2   13.39    1.52
   3  10  -2   11.69    1.59
   3  10  -2   11.78    1.69
   3  10  -2   11.02    1.73
  -3 -10   2   12.63    1.59
  -3 -10   2   11.75    1.33
  -3 -10   2   13.86    1.63
   2  10  -2   11.16    1.48
   2  10  -2   11.48    1.41
   2  10  -2   12.76    1.44
  -2 -10   2   11.72    1.51
  -2 -10   2   10.41    1.42
  -2 -10   2    9.97    1.24
   1  10  -2    7.77    1.24
   1  10  -2   10.86    1.34
   1  10  -2    9.61    1.05
  -1 -10   2    8.78    1.29
  -1 -10   2    7.53    1.14
  -1 -10   2    8.28    1.25
   0  10  -2    2.53    0.47
   0  10  -2    2.04    0.70
   0  10  -2    2.64    0.80
   0 -10   2    2.72    0.71
   0 -10   2    2.59    0.68
   0 -10   2    4.29    1.13
  -1  10  -2    2.62    0.78
  -1  10  -2    1.31    0.65
   1 -10   2    0.84    0.72
   1 -10   2    0.58    0.59
   1 -10   2    1.07    0.65
  -2  10  -2   18.59    1.66
  -2  10  -2   20.01    1.70
   2 -10   2   22.19    1.55
   2 -10   2   19.04    1.45
  -3  10  -2   12.48    1.52
  -3  10  -2   14.22    1.59
   3 -10   2   12.62    1.79
   3 -10   2   13.39    1.42
   3 -10   2   13.72    1.23
  -4  10  -2   28.29    2.25
  -4  10  -2   28.62    2.22
   4 -10   2   29.89    2.08
   5   9  -2   21.83    2.06
  -5  -9   2   22.18    1.81
  -5  -9   2   21.19    2.11
   4   9  -2    1.29    1.07
   4   9  -2    2.41    0.82
   4   9  -2    2.51    1.01
  -4  -9   2    2.20    0.75
  -4  -9   2    2.90    0.88
  -4  -9   2    4.95    1.35
   3   9  -2   90.78    4.20
   3   9  -2   90.19    4.34
   3   9  -2   94.57    4.24
  -3  -9   2   92.92    4.09
  -3  -9   2   87.61    4.26
  -3  -9   2   94.17    4.07
   2   9  -2   13.46    1.69
   2   9  -2   15.61    1.37
   2   9  -2   13.30    1.23
   2   9  -2   12.15    1.26
  -2  -9   2   12.38    1.22
  -2  -9   2   11.05    1.43
  -2  -9   2   14.73    1.30
  -2  -9   2   12.56    1.17
   1   9  -2  376.30   14.62
   1   9  -2  357.66   15.01
   1   9  -2  389.70   14.99
   1   9  -2  384.53   14.96
  -1  -9   2  367.45   14.94
  -1  -9   2  386.41   14.76
  -1  -9   2  399.02   14.81
  -1  -9   2  375.51   14.90
   0   9  -2   35.14    1.60
   0   9  -2   34.79    2.00
   0   9  -2   34.42    2.00
   0   9  -2   34.62    2.20
   0  -9   2   31.84    2.09
   0  -9   2   33.79    1.87
   0  -9   2   35.90    1.91
   0  -9   2   37.13    1.98
  -1   9  -2  431.37   17.94
  -1   9  -2  484.80   18.09
  -1   9  -2  475.65   18.02
   1  -9   2  456.25   17.84
   1  -9   2  467.05   17.86
   1  -9   2  453.96   17.83
  -2   9  -2   33.97    2.01
  -2   9  -2   31.70    2.17
  -2   9  -2   35.23    2.00
   2  -9   2   33.94    1.88
   2  -9   2   36.23    1.99
   2  -9   2   33.58    1.83
  -3   9  -2  132.74    5.77
  -3   9  -2  131.00    5.76
   3  -9   2  140.41    5.45
   3  -9   2  128.52    5.60
  -4   9  -2   12.83    1.49
  -4   9  -2   13.21    1.46
   4  -9   2   12.39    0.92
   4  -9   2   11.43    1.39
   4  -9   2   11.24    1.65
  -5   9  -2    0.84    0.89
  -5   9  -2    0.71    0.89
   5  -9   2    0.40    0.90
   6   8  -2  307.74   11.79
  -6  -8   2  297.30   11.34
  -6  -8   2  237.78   11.67
   5   8  -2    0.93    0.87
  -5  -8   2    0.51    0.83
  -5  -8   2    0.61    0.74
  -5  -8   2    0.58    0.87
  -5  -8   2    1.39    0.93
   4   8  -2  421.82   16.58
   4   8  -2  405.70   16.75
   4   8  -2  415.89   16.62
  -4  -8   2  427.90   16.48
  -4  -8   2  424.12   16.61
  -4  -8   2  428.39   16.70
  -4  -8   2  439.85   16.48
   3   8  -2    4.78    0.94
   3   8  -2    7.02    1.34
   3   8  -2    6.97    1.12
   3   8  -2    4.84    0.99
  -3  -8   2    7.43    0.90
  -3  -8   2    6.55    1.02
  -3  -8   2    5.76    0.97
   2   8  -2  131.83    5.35
   2   8  -2  124.71    5.56
   2   8  -2  124.28    5.44
  -2  -8   2  134.04    5.33
  -2  -8   2  126.30    5.32
  -2  -8   2  129.86    5.48
   1   8  -2    0.38    0.38
   1   8  -2   -0.23    0.39
   1   8  -2    0.27    0.53
   1   8  -2    0.10    0.44
  -1  -8   2    0.32    0.43
  -1  -8   2    0.10    0.43
  -1  -8   2    0.23    0.46
  -1  -8   2    0.87    0.43
   0   8  -2    1.35    0.59
   0   8  -2    2.32    0.66
   0   8  -2    0.96    0.46
   0   8  -2    1.95    0.44
   0  -8   2    1.72    0.51
   0  -8   2    1.82    0.55
   0  -8   2    2.31    0.61
   0  -8   2    2.00    0.51
  -1   8  -2   -0.20    0.38
  -1   8  -2    0.53    0.42
  -1   8  -2   -0.01    0.53
   1  -8   2    0.28    0.41
   1  -8   2    0.01    0.35
   1  -8   2    0.49    0.42
  -2   8  -2    1.95    0.51
  -2   8  -2    1.85    0.54
  -2   8  -2    1.92    0.63
   2  -8   2    2.87    0.77
   2  -8   2    2.08    0.50
   2  -8   2    2.07    0.46
  -3   8  -2    0.01    0.42
  -3   8  -2    0.63    0.46
  -3   8  -2    0.26    0.60
   3  -8   2    0.47    0.58
   3  -8   2    0.52    0.49
   3  -8   2    0.08    0.58
   3  -8   2    1.09    0.38
  -4   8  -2    0.34    0.63
  -4   8  -2    0.98    0.59
   4  -8   2    0.83    0.59
  -5   8  -2   11.44    1.48
  -5   8  -2   11.65    1.40
   5  -8   2    9.36    1.28
   5  -8   2   10.17    1.63
  -6   8  -2    8.72    1.58
  -6   8  -2    5.40    1.26
   6  -8   2    6.16    1.53
   6   7  -2    6.56    1.51
  -6  -7   2    5.22    1.16
  -6  -7   2    5.72    1.10
  -6  -7   2    5.78    1.36
  -6  -7   2    6.73    1.61
   5   7  -2    1.90    0.82
  -5  -7   2    2.60    0.75
  -5  -7   2    0.82    0.65
  -5  -7   2    4.36    1.15
   4   7  -2   11.22    1.33
   4   7  -2   10.78    1.47
   4   7  -2   12.32    1.10
   4   7  -2   13.05    1.31
  -4  -7   2   11.50    1.17
  -4  -7   2   10.26    1.07
  -4  -7   2    9.94    1.12
  -4  -7   2   10.61    1.20
   3   7  -2   14.59    1.16
   3   7  -2   15.58    1.27
   3   7  -2   15.91    1.42
   3   7  -2   16.52    1.28
  -3  -7   2   15.58    1.25
  -3  -7   2   18.76    1.17
  -3  -7   2   13.30    1.18
  -3  -7   2   14.89    1.10
   2   7  -2   12.19    1.10
   2   7  -2    8.89    0.93
   2   7  -2   10.88    0.91
   2   7  -2   10.66    0.92
  -2  -7   2    9.72    0.97
  -2  -7   2    9.21    0.84
  -2  -7   2   11.99    0.99
  -2  -7   2   10.47    0.88
   1   7  -2    0.74    0.47
   1   7  -2    0.42    0.36
   1   7  -2    0.78    0.31
   1   7  -2    2.47    0.56
  -1  -7   2    0.75    0.33
  -1  -7   2    1.18    0.35
  -1  -7   2    0.96    0.41
  -1  -7   2    0.51    0.37
   0   7  -2    2.75    0.51
   0   7  -2    1.96    0.37
   0   7  -2    2.09    0.49
   0   7  -2    2.88    0.56
   0  -7   2    2.32    0.61
   0  -7   2    1.83    0.41
   0  -7   2    2.34    0.52
   0  -7   2    2.94    0.57
  -1   7  -2   56.30    2.64
  -1   7  -2   58.63    2.66
  -1   7  -2   57.60    2.61
   1  -7   2   56.88    2.55
   1  -7   2   55.88    2.54
   1  -7   2   57.03    2.53
   1  -7   2   58.31    2.66
  -2   7  -2   44.28    2.15
  -2   7  -2   46.55    2.21
  -2   7  -2   46.22    2.20
   2  -7   2   43.73    2.19
   2  -7   2   41.45    2.05
   2  -7   2   43.47    2.00
   2  -7   2   43.80    2.11
  -3   7  -2  515.37   18.90
  -3   7  -2  462.25   18.84
  -3   7  -2  478.63   18.85
   3  -7   2  479.54   18.56
   3  -7   2  506.48   18.81
   3  -7   2  497.67   18.85
   3  -7   2  474.74   18.76
  -4   7  -2   60.49    2.80
  -4   7  -2   51.04    2.75
  -4   7  -2   55.37    2.71
   4  -7   2   59.33    2.76
   4  -7   2   54.07    2.63
   4  -7   2   55.57    2.24
   4  -7   2   53.70    2.20
   4  -7   2   54.36    2.26
  -5   7  -2  482.27   18.65
  -5   7  -2  484.46   18.75
   5  -7   2  480.29   18.96
   5  -7   2  461.26   18.20
   5  -7   2  472.45   18.15
   5  -7   2  492.51   18.62
  -6   7  -2   55.65    2.93
  -6   7  -2   49.78    2.78
   6  -7   2   48.18    2.73
   6  -7   2   50.34    2.24
   7   6  -2    3.75    1.33
  -7  -6   2    6.98    1.58
  -7  -6   2    6.57    1.67
   6   6  -2    9.79    1.49
  -6  -6   2   13.17    1.53
  -6  -6   2    7.20    1.31
  -6  -6   2   10.89    1.38
   5   6  -2   -0.87    0.75
   5   6  -2   -0.04    0.87
   5   6  -2    0.27    0.61
  -5  -6   2    0.26    0.67
  -5  -6   2    0.13    0.57
  -5  -6   2    0.13    0.53
  -5  -6   2    0.33    0.56
   4   6  -2  136.67    5.56
   4   6  -2  130.62    5.42
   4   6  -2  110.21    5.41
  -4  -6   2  126.29    5.40
  -4  -6   2  131.18    5.28
  -4  -6   2  124.94    5.28
  -4  -6   2  125.79    5.25
   3   6  -2   10.23    1.04
   3   6  -2    9.88    0.95
   3   6  -2    7.85    0.80
   3   6  -2    9.17    0.93
  -3  -6   2    7.77    0.77
  -3  -6   2    8.58    0.81
  -3  -6   2    9.32    0.90
  -3  -6   2    8.37    0.83
   2   6  -2  551.90   20.74
   2   6  -2  513.77   20.74
   2   6  -2  557.29   20.84
   2   6  -2  530.40   20.85
  -2  -6   2  543.06   20.81
  -2  -6   2  571.31   20.69
  -2  -6   2  521.14   20.68
  -2  -6   2  542.12   20.75
   1   6  -2   20.57    1.17
   1   6  -2   20.06    1.17
   1   6  -2   19.24    1.07
  -1  -6   2   20.98    1.13
  -1  -6   2   19.51    1.08
  -1  -6   2   20.18    1.19
  -1  -6   2   22.27    1.22
   0   6  -2  446.29   17.51
   0   6  -2  486.77   17.54
   0   6  -2  443.05   17.28
   0   6  -2  468.96   17.50
   0  -6   2  429.45   17.41
   0  -6   2  472.35   17.53
   0  -6   2  456.18   17.49
   0  -6   2  445.71   17.39
  -1   6  -2   31.38    1.55
  -1   6  -2   31.31    1.59
  -1   6  -2   33.97    1.61
   1  -6   2   29.69    1.49
   1  -6   2   32.00    1.61
   1  -6   2   29.76    1.50
   1  -6   2   31.77    1.51
  -2   6  -2   87.55    3.79
  -2   6  -2   94.08    3.84
  -2   6  -2   88.95    3.82
   2  -6   2   92.78    3.83
   2  -6   2   86.32    3.65
   2  -6   2   88.76    3.75
   2  -6   2   92.90    3.75
  -3   6  -2    0.94    0.42
  -3   6  -2    1.45    0.42
  -3   6  -2    1.31    0.42
   3  -6   2    1.95    0.45
   3  -6   2    1.70    0.34
   3  -6   2    2.45    0.64
   3  -6   2    1.41    0.23
   3  -6   2    1.13    0.37
  -4   6  -2   -0.07    0.44
  -4   6  -2   -0.17    0.37
  -4   6  -2    0.01    0.39
   4  -6   2    0.30    0.44
   4  -6   2    0.02    0.16
   4  -6   2   -0.03    0.34
   4  -6   2    0.32    0.25
  -5   6  -2    2.73    0.61
  -5   6  -2    2.73    0.79
  -5   6  -2    3.29    0.74
   5  -6   2    3.63    0.64
   5  -6   2    3.26    0.44
   5  -6   2    3.50    0.79
  -6   6  -2   11.05    1.26
  -6   6  -2   11.80    1.38
   6  -6   2   10.75    1.27
   6  -6   2   10.67    1.17
   6  -6   2   12.28    1.57
  -7   6  -2    2.49    1.03
  -7   6  -2    3.50    0.94
   7  -6   2    3.20    0.98
   7   5  -2  101.44    4.97
  -7  -5   2  103.08    4.77
  -7  -5   2   98.87    4.67
   6   5  -2    7.69    1.30
  -6  -5   2    6.69    1.20
  -6  -5   2    8.17    1.13
  -6  -5   2    7.56    1.04
   5   5  -2   19.24    1.56
   5   5  -2   14.50    1.56
   5   5  -2   19.85    1.47
  -5  -5   2   19.14    1.32
  -5  -5   2   19.03    1.44
  -5  -5   2   20.25    1.45
  -5  -5   2   21.01    1.27
   4   5  -2    0.36    0.42
   4   5  -2    0.71    0.47
   4   5  -2    0.86    0.56
  -4  -5   2    1.09    0.39
  -4  -5   2    1.52    0.43
  -4  -5   2    0.94    0.42
  -4  -5   2    1.21    0.45
   3   5  -2   34.42    1.84
   3   5  -2   34.10    1.76
   3   5  -2   33.92    1.80
   3   5  -2   37.07    1.71
  -3  -5   2   32.62    1.67
  -3  -5   2   32.84    1.66
  -3  -5   2   33.22    1.76
  -3  -5   2   32.82    1.66
   2   5  -2    9.16    0.74
   2   5  -2    9.58    0.67
   2   5  -2    7.97    0.77
   2   5  -2    8.10    0.70
  -2  -5   2    8.07    0.63
  -2  -5   2    7.59    0.71
  -2  -5   2    8.64    0.68
  -2  -5   2    8.41    0.64
   1   5  -2   82.09    3.34
   1   5  -2   84.04    3.41
   1   5  -2   79.07    3.39
   1   5  -2   81.26    3.44
  -1  -5   2   77.33    3.29
  -1  -5   2   79.68    3.34
  -1  -5   2   82.01    3.43
  -1  -5   2   84.61    3.41
   0   5  -2    6.85    0.57
   0   5  -2    6.91    0.44
   0   5  -2    7.15    0.59
   0   5  -2    6.43    0.53
   0  -5   2    7.92    0.51
   0  -5   2    6.37    0.58
   0  -5   2    7.79    0.58
   0  -5   2    7.87    0.53
  -1   5  -2  201.75    7.75
  -1   5  -2  190.35    7.71
  -1   5  -2  194.52    7.70
   1  -5   2  199.26    7.66
   1  -5   2  204.38    7.76
   1  -5   2  196.44    7.66
   1  -5   2  193.50    7.65
  -2   5  -2   12.85    0.83
  -2   5  -2   12.36    0.82
  -2   5  -2   13.48    0.83
   2  -5   2   13.73    0.79
   2  -5   2   12.29    0.70
   2  -5   2   12.95    0.85
   2  -5   2   13.06    0.79
  -3   5  -2  104.61    4.31
  -3   5  -2  100.20    4.30
  -3   5  -2  104.57    4.33
   3  -5   2   98.41    4.01
   3  -5   2  101.79    4.03
   3  -5   2  108.68    4.28
   3  -5   2  106.33    4.29
   3  -5   2  106.27    4.31
   3  -5   2  102.96    3.99
  -4   5  -2    3.86    0.61
  -4   5  -2    3.69    0.68
  -4   5  -2    4.33    0.59
   4  -5   2    4.52    0.59
   4  -5   2    4.12    0.47
   4  -5   2    4.80    0.71
  -5   5  -2   10.08    0.90
  -5   5  -2   10.54    1.07
  -5   5  -2    9.37    0.94
   5  -5   2    8.91    0.91
   5  -5   2    9.86    0.80
   5  -5   2    9.57    1.01
  -6   5  -2   10.41    1.09
  -6   5  -2   12.33    1.28
   6  -5   2   10.60    1.44
   6  -5   2   12.75    1.13
   6  -5   2   12.61    1.18
  -7   5  -2  133.82    6.13
  -7   5  -2  137.98    5.92
   7  -5   2  141.09    5.88
   7  -5   2  139.52    6.04
   7   4  -2    2.72    1.02
  -7  -4   2    2.92    0.80
  -7  -4   2    5.03    1.31
  -7  -4   2    3.73    1.15
  -7  -4   2    3.58    0.92
   6   4  -2  218.27    9.73
  -6  -4   2  240.83    9.33
  -6  -4   2  232.07    9.59
  -6  -4   2  257.08    9.62
   5   4  -2    0.14    0.60
   5   4  -2    0.37    0.49
   5   4  -2   -0.30    0.52
  -5  -4   2   -0.07    0.43
  -5  -4   2   -0.03    0.47
  -5  -4   2    0.68    0.49
  -5  -4   2    0.50    0.37
   4   4  -2  556.94   20.29
   4   4  -2  522.89   20.24
   4   4  -2  524.43   20.30
  -4  -4   2  539.79   20.23
  -4  -4   2  455.55   20.10
  -4  -4   2  533.50   20.15
  -4  -4   2  540.73   20.03
   3   4  -2    2.56    0.41
   3   4  -2    1.82    0.44
   3   4  -2    1.40    0.38
  -3  -4   2    1.93    0.47
  -3  -4   2    1.80    0.47
  -3  -4   2    1.77    0.43
  -3  -4   2    2.06    0.43
   2   4  -2  216.19    8.78
   2   4  -2  221.88    8.79
   2   4  -2  219.79    8.71
   2   4  -2  229.58    8.76
  -2  -4   2  226.74    8.68
  -2  -4   2  220.83    8.78
  -2  -4   2  231.77    8.70
  -2  -4   2  224.68    8.68
   1   4  -2    3.39    0.38
   1   4  -2    2.60    0.35
   1   4  -2    3.47    0.42
   1   4  -2    3.57    0.37
  -1  -4   2    3.37    0.38
  -1  -4   2    4.04    0.43
  -1  -4   2    3.52    0.33
  -1  -4   2    3.64    0.36
   0   4  -2   27.91    1.38
   0   4  -2   31.41    1.40
   0   4  -2   32.58    1.29
   0   4  -2   29.25    1.35
   0  -4   2   31.77    1.32
   0  -4   2   29.52    1.39
   0  -4   2   30.42    1.40
   0  -4   2   29.65    1.33
  -1   4  -2    0.15    0.15
  -1   4  -2    0.09    0.15
  -1   4  -2    0.00    0.15
   1  -4   2   -0.02    0.13
   1  -4   2    0.20    0.14
   1  -4   2    0.29    0.14
   1  -4   2    0.20    0.16
  -2   4  -2  356.42   13.15
  -2   4  -2  353.94   13.15
  -2   4  -2  335.17   13.16
   2  -4   2  339.39   12.99
   2  -4   2  349.21   13.15
   2  -4   2  326.31   13.08
   2  -4   2  337.47   13.10
  -3   4  -2    6.08    0.56
  -3   4  -2    6.80    0.60
  -3   4  -2    6.89    0.60
   3  -4   2    7.01    0.60
   3  -4   2    6.85    0.34
   3  -4   2    6.45    0.54
   3  -4   2    6.39    0.42
  -4   4  -2   54.21    2.48
  -4   4  -2   55.21    2.53
  -4   4  -2   56.82    2.56
   4  -4   2   54.26    2.52
   4  -4   2   54.98    2.36
   4  -4   2   58.76    2.51
  -5   4  -2    0.06    0.36
  -5   4  -2    0.21    0.40
  -5   4  -2    0.44    0.34
   5  -4   2    0.84    0.38
   5  -4   2    0.16    0.46
   5  -4   2    0.45    0.33
  -6   4  -2    7.04    1.15
  -6   4  -2    6.71    1.02
  -6   4  -2    5.26    0.84
   6  -4   2    5.27    0.86
   6  -4   2    7.38    0.96
  -7   4  -2    1.07    0.79
  -7   4  -2    0.29    0.58
   7  -4   2    1.90    0.88
   7  -4   2   -0.11    0.68
  -8   4  -2   21.56    1.88
  -8   4  -2   15.37    2.05
   8  -4   2   23.66    2.08
   7   3  -2   55.80    3.19
  -7  -3   2   53.43    2.89
  -7  -3   2   59.00    3.01
  -7  -3   2   54.40    3.16
  -7  -3   2   58.88    2.66
   6   3  -2    8.88    1.36
   6   3  -2    6.71    1.10
   6   3  -2    7.75    1.41
  -6  -3   2    6.82    0.95
  -6  -3   2    6.76    1.19
  -6  -3   2    7.43    0.83
  -6  -3   2    6.07    1.03
   5   3  -2   20.19    1.39
   5   3  -2   19.50    1.46
   5   3  -2   16.55    1.38
  -5  -3   2   17.69    1.23
  -5  -3   2   18.94    1.08
  -5  -3   2   18.54    1.34
  -5  -3   2   18.88    1.25
   4   3  -2    3.92    0.69
   4   3  -2    3.18    0.69
   4   3  -2    3.24    0.60
  -4  -3   2    4.19    0.57
  -4  -3   2    3.81    0.63
  -4  -3   2    3.73    0.47
  -4  -3   2    3.94    0.60
   3   3  -2   27.63    1.40
   3   3  -2   26.58    1.37
   3   3  -2   24.36    1.36
  -3  -3   2   23.66    1.28
  -3  -3   2   24.92    1.32
  -3  -3   2   24.87    1.27
  -3  -3   2   25.22    1.20
   2   3  -2    3.70    0.44
   2   3  -2    4.38    0.46
   2   3  -2    3.70    0.37
   2   3  -2    3.50    0.44
  -2  -3   2    4.08    0.37
  -2  -3   2    3.38    0.37
  -2  -3   2    4.39    0.37
  -2  -3   2    3.65    0.41
   1   3  -2    4.28    0.33
   1   3  -2    4.06    0.37
   1   3  -2    3.97    0.35
  -1  -3   2    3.61    0.36
  -1  -3   2    3.45    0.30
  -1  -3   2    3.95    0.33
   0   3  -2   12.51    0.59
   0   3  -2   12.65    0.66
   0   3  -2   11.81    0.61
   0   3  -2   13.06    0.65
   0  -3   2   11.97    0.60
   0  -3   2   12.66    0.66
   0  -3   2   12.65    0.67
   0  -3   2   13.00    0.58
  -1   3  -2  251.49   10.05
  -1   3  -2  265.96   10.11
  -1   3  -2  261.34   10.06
   1  -3   2  261.10   10.02
   1  -3   2  259.32   10.02
   1  -3   2  272.74   10.11
   1  -3   2  272.25   10.02
  -2   3  -2   10.98    0.64
  -2   3  -2   10.72    0.63
  -2   3  -2   10.42    0.61
   2  -3   2   10.68    0.65
   2  -3   2   11.09    0.62
   2  -3   2   10.69    0.47
   2  -3   2   10.51    0.59
   2  -3   2   10.52    0.49
  -3   3  -2  244.56    9.94
  -3   3  -2  250.07    9.91
  -3   3  -2  255.21    9.91
   3  -3   2  260.21    9.90
   3  -3   2  276.63    9.95
   3  -3   2  250.73    9.78
  -4   3  -2   28.06    1.48
  -4   3  -2   27.04    1.40
  -4   3  -2   31.52    1.50
   4  -3   2   28.39    1.36
   4  -3   2   27.43    1.42
  -5   3  -2  619.25   23.73
  -5   3  -2  583.95   23.55
  -5   3  -2  635.03   23.68
   5  -3   2  606.72   23.53
   5  -3   2  609.65   23.63
   5  -3   2  649.57   23.71
  -6   3  -2   21.58    1.39
  -6   3  -2   23.99    1.59
   6  -3   2   24.16    1.49
   6  -3   2   23.10    1.49
  -7   3  -2  147.40    6.59
  -7   3  -2  153.08    6.33
   7  -3   2  154.77    6.47
  -8   3  -2    8.42    1.34
  -8   3  -2    4.40    1.24
   8  -3   2    5.37    1.15
  -8  -2   2    4.36    1.08
  -8  -2   2    4.35    1.28
   7   2  -2   14.98    1.63
  -7  -2   2   17.51    1.57
  -7  -2   2   16.75    1.41
  -7  -2   2   15.28    1.80
  -7  -2   2   13.89    1.19
   6   2  -2   33.28    2.18
   6   2  -2   34.28    2.12
  -6  -2   2   36.78    2.13
  -6  -2   2   32.55    1.98
  -6  -2   2   38.21    1.97
  -6  -2   2   37.40    1.73
   5   2  -2   12.30    1.08
   5   2  -2   13.19    1.13
  -5  -2   2   13.61    1.03
  -5  -2   2   13.05    0.82
  -5  -2   2   12.80    0.95
  -5  -2   2   12.61    1.07
   4   2  -2  132.60    5.44
   4   2  -2  136.95    5.54
   4   2  -2  131.51    5.51
   4   2  -2  129.03    5.54
  -4  -2   2  138.47    5.29
  -4  -2   2  146.53    5.53
  -4  -2   2  134.02    5.46
  -4  -2   2  125.87    5.43
   3   2  -2   12.52    0.79
   3   2  -2   12.88    0.80
   3   2  -2   10.96    0.78
  -3  -2   2   12.18    0.77
  -3  -2   2   11.30    0.76
  -3  -2   2   12.10    0.74
  -3  -2   2   12.04    0.65
   2   2  -2 1000.00   37.77
   1   2  -2   11.12    0.56
   1   2  -2   12.29    0.60
   1   2  -2   12.34    0.64
   1   2  -2   11.60    0.60
  -1  -2   2   10.46    0.61
  -1  -2   2   11.40    0.56
  -1  -2   2   10.94    0.53
  -1  -2   2   11.20    0.53
  -1   2  -2   28.84    1.18
  -1   2  -2   28.39    1.19
  -1   2  -2   28.78    1.19
  -1   2  -2   29.80    1.25
   1  -2   2   29.97    1.25
   1  -2   2   27.13    1.16
   1  -2   2   28.22    1.17
   1  -2   2   28.28    1.17
  -2   2  -2  767.26   29.45
  -2   2  -2  786.70   29.48
   2  -2   2  788.36   29.44
  -3   2  -2   44.81    1.91
  -3   2  -2   43.38    1.94
  -3   2  -2   43.79    1.89
   3  -2   2   43.77    1.84
   3  -2   2   45.02    1.93
   3  -2   2   41.05    1.87
  -4   2  -2   28.49    1.39
  -4   2  -2   30.20    1.46
  -4   2  -2   26.66    1.47
   4  -2   2   31.35    1.49
   4  -2   2   27.82    1.41
   4  -2   2   28.27    1.38
  -5   2  -2   27.54    1.49
  -5   2  -2   29.65    1.64
  -5   2  -2   28.54    1.59
   5  -2   2   31.35    1.59
   5  -2   2   31.55    1.57
   5  -2   2   30.45    1.64
  -6   2  -2    7.18    0.94
  -6   2  -2    7.53    0.79
   6  -2   2    6.62    0.84
   6  -2   2    9.44    0.99
   6  -2   2    7.06    1.03
  -7   2  -2    7.67    1.23
  -7   2  -2   10.35    1.07
   7  -2   2    8.47    1.50
   7  -2   2   11.08    1.16
  -8   2  -2   24.96    1.78
  -8   2  -2   21.88    2.13
   8  -2   2   26.83    2.07
   8   1  -2    3.64    1.33
  -8  -1   2    7.96    1.77
   7   1  -2  347.46   13.55
  -7  -1   2  343.09   13.19
  -7  -1   2  288.44   13.31
  -7  -1   2  343.50   12.91
  -7  -1   2  346.14   13.42
  -7  -1   2  341.23   12.94
   6   1  -2    0.58    0.71
   6   1  -2    1.31    0.74
   6   1  -2    1.30    0.59
  -6  -1   2    2.02    0.50
  -6  -1   2    0.27    0.53
  -6  -1   2    2.44    0.56
  -6  -1   2    2.39    0.74
   5   1  -2  468.86   17.98
   5   1  -2  446.76   18.15
   5   1  -2  519.73   18.20
  -5  -1   2  466.01   17.99
  -5  -1   2  439.01   18.05
  -5  -1   2  467.93   17.80
   4   1  -2    0.02    0.29
   4   1  -2    0.46    0.28
   4   1  -2    0.04    0.26
  -4  -1   2   -0.20    0.19
  -4  -1   2   -0.13    0.23
  -4  -1   2    0.07    0.17
   3   1  -2  125.99    5.00
   3   1  -2  126.47    5.06
   3   1  -2  133.86    5.05
  -3  -1   2  114.57    4.97
  -3  -1   2  130.57    5.01
  -3  -1   2  120.99    4.85
   2   1  -2    2.37    0.30
   2   1  -2    2.58    0.29
   2   1  -2    1.80    0.27
  -2  -1   2    2.78    0.30
  -2  -1   2    2.82    0.20
  -2  -1   2    2.49    0.27
  -2  -1   2    2.63    0.29
   1   1  -2    1.67    0.17
   1   1  -2    2.12    0.22
   1   1  -2    1.67    0.15
  -1  -1   2    1.99    0.14
  -1  -1   2    2.48    0.19
  -1  -1   2    2.07    0.16
  -1  -1   2    1.56    0.19
   0   1  -2    2.63    0.18
   0   1  -2    2.73    0.21
   0  -1   2    2.79    0.19
   0  -1   2    2.86    0.21
  -1   1  -2    2.81    0.17
  -1   1  -2    2.82    0.17
  -1   1  -2    2.90    0.18
  -1   1  -2    2.80    0.19
   1  -1   2    2.91    0.17
   1  -1   2    3.15    0.17
   1  -1   2    3.02    0.16
   1  -1   2    3.03    0.17
  -2   1  -2    2.43    0.23
  -2   1  -2    2.69    0.26
  -2   1  -2    2.34    0.23
   2  -1   2    2.47    0.23
   2  -1   2    2.40    0.22
   2  -1   2    2.98    0.27
  -3   1  -2    0.77    0.22
  -3   1  -2    0.72    0.20
   3  -1   2    0.76    0.20
   3  -1   2    0.67    0.18
   3  -1   2    1.03    0.27
  -4   1  -2   24.09    1.29
  -4   1  -2   24.38    0.98
  -4   1  -2   23.26    1.24
   4  -1   2   22.19    1.21
   4  -1   2   24.30    1.29
   4  -1   2   24.05    1.23
  -5   1  -2   22.19    1.00
  -5   1  -2   22.93    1.34
  -5   1  -2   24.87    1.42
   5  -1   2   24.96    1.35
   5  -1   2   23.64    1.40
   5  -1   2   23.17    1.31
  -6   1  -2   29.67    1.80
   6  -1   2   29.71    1.83
   6  -1   2   30.77    1.73
   6  -1   2   30.56    1.71
  -7   1  -2  223.88    8.93
  -7   1  -2  217.93    8.60
   7  -1   2  207.86    8.74
   7  -1   2  204.35    8.84
  -8   1  -2   49.45    2.53
  -8   1  -2   43.37    2.84
   8  -1   2   46.58    2.74
   8   0  -2    5.39    1.72
  -8   0   2    9.19    1.87
   7   0  -2    0.30    0.78
  -7   0   2    0.96    0.76
  -7   0   2    0.31    0.40
  -7   0   2   -0.21    0.47
   6   0  -2   19.77    1.62
   6   0  -2   23.14    1.53
   6   0  -2   17.00    1.62
   6   0  -2   21.88    1.33
  -6   0   2   20.72    1.27
  -6   0   2   19.79    1.09
  -6   0   2   21.12    1.15
  -6   0   2   22.80    1.53
   5   0  -2    0.95    0.47
   5   0  -2    0.73    0.40
   5   0  -2    0.99    0.36
  -5   0   2    1.84    0.47
  -5   0   2    1.04    0.23
  -5   0   2    1.34    0.44
  -5   0   2    1.47    0.46
   4   0  -2   46.10    2.05
   4   0  -2   45.44    2.15
   4   0  -2   46.18    2.17
  -4   0   2   45.60    2.03
  -4   0   2   45.38    2.13
  -4   0   2   46.93    2.14
   3   0  -2    2.70    0.42
   3   0  -2    2.90    0.35
   3   0  -2    2.82    0.39
  -3   0   2    2.98    0.38
  -3   0   2    2.81    0.38
  -3   0   2    2.96    0.34
   2   0  -2   40.43    1.79
   2   0  -2   42.83    1.78
   2   0  -2   43.79    1.81
  -2   0   2   41.33    1.77
  -2   0   2   41.71    1.77
  -2   0   2   42.82    1.78
   1   0  -2    3.62    0.25
   1   0  -2    3.63    0.27
   1   0  -2    3.85    0.25
  -1   0   2    4.10    0.25
  -1   0   2    3.80    0.24
  -1   0   2    3.53    0.26
   0   0  -2  105.17    4.04
  -1   0  -2    9.49    0.44
  -1   0  -2    9.16    0.44
  -1   0  -2    9.81    0.42
   1   0   2    9.01    0.44
   1   0   2    8.93    0.40
   1   0   2    8.99    0.40
  -3   0  -2   63.37    2.68
  -3   0  -2   65.62    2.74
  -3   0  -2   61.39    2.67
   3   0   2   66.21    2.67
   3   0   2   66.91    2.68
   3   0   2   62.55    2.72
  -4   0  -2  655.68   25.88
  -4   0  -2  640.75   26.13
   4   0   2  702.05   26.08
   4   0   2  681.58   26.08
   4   0   2  749.39   26.18
  -5   0  -2   36.57    1.62
  -5   0  -2   42.77    1.93
  -5   0  -2   37.65    1.95
   5   0   2   36.13    1.85
   5   0   2   35.64    1.94
   5   0   2   36.59    1.87
  -6   0  -2  179.20    7.07
   6   0   2  179.26    7.50
   6   0   2  187.57    7.44
   6   0   2  180.77    7.39
  -7   0  -2   34.28    2.23
  -7   0  -2   39.28    1.72
   7   0   2   35.49    2.32
   7   0   2   38.17    2.17
  -8   0  -2   32.33    2.38
   8   0   2   33.97    2.30
  -8   1   2    1.10    1.15
   7  -1  -2   39.62    2.51
  -7   1   2   44.37    2.48
  -7   1   2   40.18    1.94
   6  -1  -2    0.93    0.66
   6  -1  -2    0.34    0.52
   6  -1  -2    0.18    0.44
  -6   1   2    0.28    0.51
  -6   1   2    0.53    0.30
   5  -1  -2   51.80    2.60
   5  -1  -2   49.45    2.36
   5  -1  -2   61.39    2.63
  -5   1   2   50.25    2.51
  -5   1   2   52.54    2.24
  -5   1   2   56.35    2.56
   4  -1  -2    0.11    0.32
   4  -1  -2   -0.05    0.26
   4  -1  -2    0.03    0.21
  -4   1   2    0.06    0.14
  -4   1   2    0.46    0.28
  -4   1   2   -0.01    0.26
   3  -1  -2  513.28   19.73
   3  -1  -2  524.68   19.63
   3  -1  -2  502.84   19.73
  -3   1   2  560.23   19.73
  -3   1   2  517.58   19.51
  -3   1   2  485.40   19.70
   2  -1  -2    4.35    0.36
   2  -1  -2    4.15    0.32
   2  -1  -2    4.55    0.39
  -2   1   2    4.68    0.36
  -2   1   2    4.46    0.36
   0  -1  -2    0.39    0.10
   0  -1  -2    0.68    0.11
   0  -1  -2    0.54    0.12
   0  -1  -2    0.61    0.12
   0   1   2    0.58    0.09
   0   1   2    0.53    0.12
   0   1   2    0.67    0.12
  -1  -1  -2   79.85    3.20
  -1  -1  -2   77.21    3.22
  -1  -1  -2   83.75    3.21
   1   1   2   86.56    3.19
   1   1   2   81.90    3.21
   1   1   2   82.26    3.21
  -2  -1  -2    1.38    0.25
  -2  -1  -2    1.53    0.23
  -2  -1  -2    1.90    0.24
   2   1   2    1.84    0.23
   2   1   2    1.79    0.27
   2   1   2    1.71    0.23
  -3  -1  -2   44.92    2.07
  -3  -1  -2   48.65    2.07
   3   1   2   47.34    2.05
   3   1   2   48.59    2.11
   3   1   2   46.07    2.06
  -4  -1  -2    0.49    0.29
  -4  -1  -2    0.43    0.19
  -4  -1  -2    0.06    0.23
   4   1   2    0.53    0.25
   4   1   2   -0.13    0.27
   4   1   2    0.31    0.24
  -5  -1  -2   89.94    3.97
  -5  -1  -2   86.01    3.67
  -5  -1  -2   92.95    3.91
   5   1   2   91.07    3.96
   5   1   2   90.31    3.88
   5   1   2   91.51    3.90
  -6  -1  -2    4.41    0.85
  -6  -1  -2    6.59    0.63
   6   1   2    7.77    0.87
   6   1   2    6.80    0.95
   6   1   2    5.74    0.97
  -7  -1  -2   89.49    3.75
  -7  -1  -2   82.13    4.17
   7   1   2   90.83    4.17
   7   1   2   88.70    4.28
   7   1   2   94.13    4.17
  -8  -1  -2   11.68    1.70
  -8  -1  -2   11.77    1.09
   8   1   2   11.13    1.61
   7  -2  -2    5.11    1.24
  -7   2   2    5.22    1.40
  -7   2   2    5.56    0.79
   6  -2  -2    5.11    0.89
   6  -2  -2    3.72    0.69
   6  -2  -2    3.25    0.91
  -6   2   2    3.95    0.99
  -6   2   2    5.17    0.98
  -6   2   2    5.70    0.60
   5  -2  -2    5.65    0.60
   5  -2  -2    5.04    0.92
   5  -2  -2    6.15    0.76
  -5   2   2    5.08    0.79
  -5   2   2    5.29    0.50
  -5   2   2    5.64    0.76
   4  -2  -2   31.32    1.60
   4  -2  -2   30.56    1.42
   4  -2  -2   29.21    1.59
  -4   2   2   32.83    1.60
  -4   2   2   30.77    1.59
  -4   2   2   28.70    1.35
   3  -2  -2    4.40    0.46
   3  -2  -2    3.45    0.35
   3  -2  -2    3.88    0.48
  -3   2   2    4.11    0.45
  -3   2   2    4.17    0.46
  -3   2   2    4.06    0.32
   2  -2  -2  330.96   12.47
   2  -2  -2  329.82   12.53
   2  -2  -2  320.43   12.62
   2  -2  -2  327.19   12.63
  -2   2   2  327.84   12.48
  -2   2   2  333.78   12.60
  -2   2   2  335.54   12.62
   1  -2  -2    0.75    0.20
   1  -2  -2    0.76    0.18
   1  -2  -2    0.91    0.15
  -1   2   2    0.80    0.18
  -1   2   2    0.65    0.15
  -1   2   2    0.89    0.18
  -1  -2  -2    0.35    0.13
  -1  -2  -2    0.48    0.17
  -1  -2  -2    0.56    0.15
  -1  -2  -2    0.39    0.12
   1   2   2    0.69    0.16
   1   2   2    0.62    0.17
   1   2   2    0.50    0.14
  -2  -2  -2  378.76   14.33
  -2  -2  -2  373.12   14.38
  -2  -2  -2  386.80   14.38
  -2  -2  -2  368.01   14.33
   2   2   2  353.79   14.36
   2   2   2  398.52   14.37
   2   2   2  370.58   14.32
  -3  -2  -2    0.28    0.19
  -3  -2  -2    0.22    0.21
  -3  -2  -2    0.14    0.21
   3   2   2    0.23    0.20
   3   2   2    0.45    0.24
   3   2   2    0.07    0.17
  -4  -2  -2    0.21    0.29
  -4  -2  -2    0.36    0.26
  -4  -2  -2    0.63    0.29
   4   2   2    0.14    0.27
   4   2   2    0.27    0.25
  -5  -2  -2    2.04    0.59
  -5  -2  -2    1.88    0.44
  -5  -2  -2    1.57    0.49
   5   2   2    1.82    0.46
   5   2   2    2.25    0.66
   5   2   2    3.12    0.68
  -6  -2  -2  164.37    7.44
  -6  -2  -2  183.20    7.22
  -6  -2  -2  199.43    7.60
   6   2   2  181.86    7.45
   6   2   2  179.94    7.49
   6   2   2  177.58    7.50
  -7  -2  -2    1.61    0.49
  -7  -2  -2    0.26    0.77
  -7  -2  -2    0.96    0.70
   7   2   2    0.72    0.86
   7   2   2    0.63    0.67
   7   2   2    0.48    0.83
  -8  -2  -2   84.66    4.16
  -8  -2  -2   90.36    3.92
  -8  -2  -2   85.36    4.44
   8   2   2   93.08    4.41
   7  -3  -2  171.20    7.60
   7  -3  -2  187.51    8.11
  -7   3   2  202.60    8.16
  -7   3   2  203.71    7.62
   6  -3  -2   18.91    1.16
   6  -3  -2   16.52    1.43
  -6   3   2   17.30    1.54
  -6   3   2   16.87    1.43
  -6   3   2   18.48    1.09
   5  -3  -2  459.09   17.37
   5  -3  -2  480.32   17.70
  -5   3   2  444.23   17.35
  -5   3   2  470.66   17.64
  -5   3   2  418.68   17.63
   4  -3  -2    0.74    0.33
   4  -3  -2    1.36    0.45
   4  -3  -2    1.27    0.28
  -4   3   2    0.82    0.39
  -4   3   2    1.36    0.38
  -4   3   2    1.59    0.36
   3  -3  -2  435.83   15.88
   3  -3  -2  441.51   15.70
  -3   3   2  411.68   15.87
  -3   3   2  348.17   15.77
  -3   3   2  424.75   15.69
   2  -3  -2    0.31    0.19
   2  -3  -2    0.33    0.13
   2  -3  -2    0.24    0.19
  -2   3   2    0.30    0.13
  -2   3   2    0.16    0.17
  -2   3   2   -0.05    0.17
   1  -3  -2   30.55    1.32
   1  -3  -2   29.80    1.31
   1  -3  -2   33.23    1.41
   1  -3  -2   30.67    1.37
  -1   3   2   30.09    1.32
  -1   3   2   27.65    1.37
  -1   3   2   28.51    1.35
   0  -3  -2    8.68    0.48
   0  -3  -2    7.75    0.50
   0  -3  -2    8.12    0.53
   0  -3  -2    7.77    0.50
   0   3   2    7.91    0.50
   0   3   2    8.02    0.51
   0   3   2    8.10    0.47
   0   3   2    7.52    0.51
  -1  -3  -2  177.86    6.51
  -1  -3  -2  162.87    6.41
  -1  -3  -2  159.22    6.44
  -1  -3  -2  166.33    6.47
   1   3   2  161.53    6.40
   1   3   2  167.18    6.44
   1   3   2  174.40    6.49
   1   3   2  153.22    6.45
  -2  -3  -2   13.76    0.80
  -2  -3  -2   13.44    0.76
  -2  -3  -2   11.84    0.80
  -2  -3  -2   14.02    0.80
   2   3   2   14.30    0.81
   2   3   2   13.83    0.77
   2   3   2   12.03    0.80
  -3  -3  -2   50.66    2.25
  -3  -3  -2   47.97    2.17
  -3  -3  -2   45.62    2.21
  -3  -3  -2   50.99    2.17
   3   3   2   45.20    2.15
   3   3   2   47.98    2.21
  -4  -3  -2   15.07    0.98
  -4  -3  -2   15.86    1.09
  -4  -3  -2   15.22    1.03
  -4  -3  -2   14.61    1.05
   4   3   2   15.00    1.03
   4   3   2   19.45    1.16
   4   3   2   15.80    1.06
  -5  -3  -2   36.08    1.84
  -5  -3  -2   37.66    2.05
  -5  -3  -2   39.88    1.93
  -5  -3  -2   38.18    2.03
   5   3   2   35.48    2.00
   5   3   2   41.95    2.06
   5   3   2   38.60    2.05
  -6  -3  -2    6.22    0.79
  -6  -3  -2    7.25    1.00
  -6  -3  -2    7.54    0.90
   6   3   2    7.10    1.00
  -7  -3  -2   59.46    2.76
  -7  -3  -2   58.96    3.09
   7   3   2   53.64    3.02
  -8  -3  -2    3.51    1.13
  -8  -3  -2    1.50    1.00
  -8  -3  -2    2.06    0.74
   8   3   2    5.78    1.53
   7  -4  -2    9.49    1.53
  -7   4   2    7.97    1.08
  -7   4   2    8.50    1.60
   6  -4  -2    7.64    0.85
   6  -4  -2    9.22    1.18
  -6   4   2    6.23    1.12
  -6   4   2    9.71    0.89
   5  -4  -2    3.23    0.75
   5  -4  -2    4.00    0.55
  -5   4   2    2.54    0.75
  -5   4   2    4.59    0.63
   4  -4  -2    3.95    0.62
   4  -4  -2    3.30    0.43
  -4   4   2    3.20    0.61
  -4   4   2    3.20    0.49
  -4   4   2    2.76    0.63
   3  -4  -2    0.82    0.24
   3  -4  -2    0.55    0.27
   3  -4  -2    1.01    0.35
  -3   4   2    1.63    0.44
  -3   4   2    0.92    0.30
  -3   4   2    0.19    0.20
   2  -4  -2    2.27    0.32
   2  -4  -2    2.34    0.37
   2  -4  -2    2.29    0.33
   2  -4  -2    2.91    0.44
  -2   4   2    1.98    0.37
  -2   4   2    1.56    0.31
   1  -4  -2    1.05    0.22
   1  -4  -2    0.65    0.20
   1  -4  -2    0.48    0.22
   1  -4  -2    0.95    0.28
  -1   4   2    0.69    0.22
  -1   4   2    0.44    0.19
  -1   4   2    0.73    0.23
   0  -4  -2  274.99   10.11
   0  -4  -2  259.70   10.02
   0  -4  -2  257.40   10.12
   0  -4  -2  263.29   10.09
   0   4   2  254.91   10.11
   0   4   2  257.35   10.09
   0   4   2  263.01   10.02
   0   4   2  260.11   10.10
  -1  -4  -2    0.10    0.13
  -1  -4  -2    0.10    0.18
  -1  -4  -2   -0.02    0.18
  -1  -4  -2    0.37    0.17
   1   4   2    0.32    0.20
   1   4   2    0.14    0.18
   1   4   2   -0.03    0.15
   1   4   2    0.14    0.15
  -2  -4  -2  525.73   20.53
  -2  -4  -2  532.22   20.48
  -2  -4  -2  565.66   20.60
  -2  -4  -2  549.15   20.54
   2   4   2  496.48   20.55
   2   4   2  530.38   20.53
   2   4   2  557.91   20.55
   2   4   2  543.18   20.48
  -3  -4  -2    4.25    0.57
  -3  -4  -2    4.50    0.57
  -3  -4  -2    3.80    0.51
  -3  -4  -2    4.17    0.60
   3   4   2    4.55    0.59
   3   4   2    3.84    0.57
   3   4   2    3.81    0.53
  -4  -4  -2  850.71   33.28
  -4  -4  -2  864.58   33.28
  -4  -4  -2  825.25   33.19
  -4  -4  -2  901.24   33.19
   4   4   2  909.10   33.31
   4   4   2  894.52   33.30
   4   4   2  859.78   33.21
  -5  -4  -2    7.82    1.00
  -5  -4  -2    8.83    0.79
  -5  -4  -2    8.28    0.87
  -5  -4  -2    6.87    0.88
   5   4   2    6.82    1.01
   5   4   2    8.07    0.91
   5   4   2    8.41    1.04
  -6  -4  -2  285.23   11.31
  -6  -4  -2  280.44   11.53
  -6  -4  -2  285.52   11.36
   6   4   2  296.61   11.60
  -7  -4  -2   12.34    1.21
  -7  -4  -2   11.31    1.43
   7   4   2   11.63    1.44
  -8  -4  -2   22.15    1.71
  -8  -4  -2   18.82    2.09
   8   4   2   17.78    2.15
   7  -5  -2    7.82    1.73
  -7   5   2   12.10    1.32
  -7   5   2   10.26    1.77
   6  -5  -2    3.29    0.89
   6  -5  -2    4.28    0.80
  -6   5   2    4.27    0.71
  -6   5   2    4.16    0.93
   5  -5  -2  115.18    5.04
   5  -5  -2  118.21    4.67
  -5   5   2  111.06    5.04
  -5   5   2  114.00    4.78
  -5   5   2  119.50    5.09
   4  -5  -2   22.73    1.44
   4  -5  -2   23.25    1.20
  -4   5   2   23.14    1.47
  -4   5   2   23.87    1.29
   3  -5  -2  701.15   25.88
   3  -5  -2  662.15   25.66
   3  -5  -2  659.87   25.67
   3  -5  -2  708.95   25.87
  -3   5   2  646.87   25.69
  -3   5   2  636.03   25.83
  -3   5   2  716.71   25.85
   2  -5  -2    3.35    0.38
   2  -5  -2    3.48    0.46
   2  -5  -2    3.92    0.57
   2  -5  -2    2.83    0.47
  -2   5   2    2.51    0.43
  -2   5   2    2.90    0.51
  -2   5   2    3.74    0.49
   1  -5  -2  719.14   26.27
   1  -5  -2  659.24   26.36
   1  -5  -2  728.80   26.35
  -1   5   2  693.95   26.36
  -1   5   2  743.33   26.44
  -1   5   2  617.26   26.35
   0  -5  -2    2.60    0.38
   0  -5  -2    2.31    0.32
   0  -5  -2    2.28    0.44
   0  -5  -2    2.10    0.43
   0   5   2    2.00    0.39
   0   5   2    2.31    0.42
   0   5   2    2.12    0.34
   0   5   2    1.75    0.38
  -1  -5  -2  435.64   17.58
  -1  -5  -2  465.88   17.57
  -1  -5  -2  456.61   17.48
   1   5   2  461.41   17.59
   1   5   2  457.08   17.47
   1   5   2  479.98   17.62
   1   5   2  449.73   17.56
  -2  -5  -2    6.99    0.63
  -2  -5  -2    5.84    0.65
  -2  -5  -2    6.83    0.66
  -2  -5  -2    6.84    0.58
   2   5   2    6.02    0.60
   2   5   2    6.00    0.64
   2   5   2    6.11    0.63
   2   5   2    6.54    0.59
  -3  -5  -2   11.14    0.92
  -3  -5  -2    8.93    0.80
  -3  -5  -2    9.71    0.81
  -3  -5  -2   11.21    0.88
   3   5   2    9.92    0.88
   3   5   2   11.50    0.86
   3   5   2   10.22    0.88
  -4  -5  -2   41.18    2.05
  -4  -5  -2   38.73    2.09
  -4  -5  -2   38.66    2.04
  -4  -5  -2   41.88    2.17
   4   5   2   39.14    2.11
   4   5   2   42.90    2.15
   4   5   2   39.49    2.07
  -5  -5  -2    2.01    0.54
  -5  -5  -2    3.52    0.76
  -5  -5  -2    1.80    0.63
  -5  -5  -2    4.22    0.71
  -5  -5  -2    4.23    0.86
   5   5   2    3.40    0.82
   5   5   2    2.75    0.76
  -6  -5  -2   43.92    2.27
  -6  -5  -2   37.62    2.49
  -6  -5  -2   47.57    2.48
   6   5   2   43.52    2.49
  -7  -5  -2    9.19    1.60
  -7  -5  -2   11.73    1.30
  -7  -5  -2   14.58    1.57
   7   5   2   14.48    1.65
  -8  -5  -2   32.40    2.61
  -8  -5  -2   29.57    2.14
   8   5   2   33.34    2.62
   6  -6  -2  191.35    8.41
  -6   6   2  204.14    8.13
  -6   6   2  206.53    8.51
   5  -6  -2    9.75    0.83
   5  -6  -2    6.20    1.21
   5  -6  -2   10.50    0.98
  -5   6   2   10.98    1.25
  -5   6   2   10.04    1.02
   4  -6  -2   51.52    2.38
   4  -6  -2   51.05    2.60
  -4   6   2   52.42    2.63
  -4   6   2   53.05    2.45
   3  -6  -2    0.17    0.34
   3  -6  -2   -0.25    0.45
   3  -6  -2   -0.37    0.24
   3  -6  -2   -0.35    0.32
  -3   6   2    0.15    0.30
  -3   6   2    0.02    0.35
  -3   6   2    0.18    0.43
   2  -6  -2    5.45    0.62
   2  -6  -2    4.40    0.66
   2  -6  -2    4.40    0.47
   2  -6  -2    3.19    0.55
  -2   6   2    4.13    0.61
  -2   6   2    3.33    0.58
  -2   6   2    4.02    0.55
   1  -6  -2    6.00    0.63
   1  -6  -2    4.95    0.65
   1  -6  -2    6.22    0.51
   1  -6  -2    6.43    0.63
  -1   6   2    6.43    0.67
  -1   6   2    5.24    0.60
  -1   6   2    6.32    0.65
   0  -6  -2   10.30    0.67
   0  -6  -2    8.10    0.78
   0  -6  -2    9.20    0.77
   0   6   2   10.77    0.81
   0   6   2   10.09    0.78
   0   6   2   10.59    0.82
   0   6   2   10.15    0.69
  -1  -6  -2   18.56    1.17
  -1  -6  -2   19.02    1.04
  -1  -6  -2   18.99    1.18
  -1  -6  -2   17.77    1.11
   1   6   2   19.73    1.17
   1   6   2   20.34    1.08
   1   6   2   18.88    1.15
   1   6   2   18.15    1.16
  -2  -6  -2   16.27    1.17
  -2  -6  -2   17.81    1.14
  -2  -6  -2   16.47    1.09
  -2  -6  -2   18.23    1.05
   2   6   2   19.04    1.08
   2   6   2   16.54    1.13
   2   6   2   15.57    1.12
   2   6   2   15.95    1.09
  -3  -6  -2   18.55    1.22
  -3  -6  -2   18.38    1.17
  -3  -6  -2   19.32    1.31
  -3  -6  -2   17.51    1.21
   3   6   2   17.49    1.26
   3   6   2   18.78    1.19
   3   6   2   18.53    1.20
   3   6   2   15.51    1.21
  -4  -6  -2   64.58    3.03
  -4  -6  -2   56.08    2.86
  -4  -6  -2   60.04    2.89
  -4  -6  -2   63.95    2.98
   4   6   2   61.36    2.93
  -5  -6  -2    8.38    1.10
  -5  -6  -2   11.46    1.05
  -5  -6  -2   11.01    1.09
   5   6   2    9.28    1.10
   5   6   2    8.20    1.18
  -6  -6  -2  309.57   12.10
  -6  -6  -2  300.27   12.11
  -6  -6  -2  275.13   12.22
  -6  -6  -2  311.33   12.27
   6   6   2  321.85   12.36
  -7  -6  -2    8.66    1.65
  -7  -6  -2   13.72    1.45
   7   6   2   10.95    1.71
   6  -7  -2    7.98    1.73
   6  -7  -2    9.88    1.27
  -6   7   2    5.85    1.33
  -6   7   2   10.20    1.69
   5  -7  -2   72.66    3.31
   5  -7  -2   72.90    3.15
   5  -7  -2   75.91    3.63
  -5   7   2   73.05    3.69
  -5   7   2   72.91    3.41
   4  -7  -2    6.98    1.00
   4  -7  -2    7.05    0.77
   4  -7  -2    7.25    1.04
  -4   7   2    7.19    0.92
  -4   7   2    7.76    1.06
   3  -7  -2   27.61    1.59
   3  -7  -2   27.01    1.66
   3  -7  -2   29.11    1.46
  -3   7   2   28.16    1.71
  -3   7   2   27.29    1.58
   2  -7  -2    1.58    0.48
   2  -7  -2    1.98    0.39
   2  -7  -2    2.03    0.60
   2  -7  -2    2.31    0.50
  -2   7   2    1.67    0.48
  -2   7   2    2.35    0.51
   1  -7  -2   27.93    1.54
   1  -7  -2   26.82    1.37
   1  -7  -2   29.11    1.63
   1  -7  -2   29.12    1.56
  -1   7   2   25.81    1.52
  -1   7   2   25.40    1.56
  -1   7   2   30.98    1.63
   0  -7  -2    4.63    0.72
   0  -7  -2    5.29    0.76
   0  -7  -2    4.56    0.52
   0  -7  -2    3.76    0.60
   0   7   2    4.36    0.56
   0   7   2    5.02    0.73
   0   7   2    3.94    0.64
   0   7   2    4.10    0.64
  -1  -7  -2  397.92   15.32
  -1  -7  -2  404.91   15.49
  -1  -7  -2  393.39   15.50
  -1  -7  -2  387.52   15.44
   1   7   2  391.47   15.49
   1   7   2  382.85   15.50
   1   7   2  406.50   15.51
   1   7   2  419.56   15.34
  -2  -7  -2    2.03    0.58
  -2  -7  -2    2.75    0.53
  -2  -7  -2    1.81    0.53
  -2  -7  -2    3.12    0.74
   2   7   2    2.57    0.57
   2   7   2    2.44    0.60
   2   7   2    2.55    0.67
   2   7   2    2.99    0.72
  -3  -7  -2  343.09   13.90
  -3  -7  -2  361.85   13.96
  -3  -7  -2  346.46   13.81
  -3  -7  -2  366.90   13.91
   3   7   2  354.16   13.91
   3   7   2  372.47   13.86
   3   7   2  331.78   13.94
  -4  -7  -2   -1.02    0.55
  -4  -7  -2    0.66    0.49
  -4  -7  -2    0.29    0.64
  -4  -7  -2    0.69    0.51
   4   7   2    0.60    0.60
   4   7   2    0.27    0.56
  -5  -7  -2  108.95    4.77
  -5  -7  -2  107.69    4.70
  -5  -7  -2  100.58    4.85
  -5  -7  -2  103.94    4.75
  -5  -7  -2  112.87    4.86
   5   7   2  113.01    4.92
   5   7   2   98.77    4.78
  -6  -7  -2    6.40    1.31
  -6  -7  -2    8.74    1.30
   6   7   2    9.57    1.47
  -7  -7  -2   14.96    1.74
  -7  -7  -2   18.07    1.95
   7   7   2   20.80    2.05
   5  -8  -2    1.40    0.91
   5  -8  -2    1.63    0.67
  -5   8   2    1.22    0.95
  -5   8   2    3.08    0.86
   4  -8  -2   69.10    3.27
   4  -8  -2   64.22    3.12
   4  -8  -2   63.57    2.88
  -4   8   2   61.72    3.08
  -4   8   2   60.37    3.25
   3  -8  -2    4.76    1.03
   3  -8  -2    5.28    1.03
   3  -8  -2    4.84    0.95
   3  -8  -2    4.87    0.71
  -3   8   2    5.73    0.95
  -3   8   2    4.89    0.95
   2  -8  -2   71.78    3.40
   2  -8  -2   76.43    3.39
   2  -8  -2   74.68    3.17
  -2   8   2   73.13    3.46
  -2   8   2   73.80    3.39
   1  -8  -2    3.43    0.56
   1  -8  -2    4.08    0.72
   1  -8  -2    2.89    0.61
   1  -8  -2    2.30    0.71
  -1   8   2    3.96    0.74
  -1   8   2    3.70    0.74
   0  -8  -2    9.66    1.02
   0  -8  -2    7.05    0.70
   0  -8  -2    8.81    1.02
   0  -8  -2    7.18    0.83
   0   8   2    8.44    0.92
   0   8   2    6.51    0.75
   0   8   2    6.80    0.82
  -1  -8  -2    8.84    1.04
  -1  -8  -2   10.10    0.96
  -1  -8  -2   10.91    0.86
   1   8   2   11.55    0.91
   1   8   2    8.03    0.94
   1   8   2   10.70    1.03
  -2  -8  -2    5.71    1.04
  -2  -8  -2    5.25    0.83
  -2  -8  -2    5.70    0.76
   2   8   2    5.65    0.86
   2   8   2    6.28    0.89
   2   8   2    7.92    0.96
  -3  -8  -2    8.97    1.04
  -3  -8  -2    8.84    0.97
   3   8   2    9.60    1.12
   3   8   2    7.82    1.02
   3   8   2    7.79    1.07
  -4  -8  -2   92.54    4.30
  -4  -8  -2   97.68    4.33
  -4  -8  -2   92.00    4.20
  -4  -8  -2   99.18    4.41
   4   8   2   86.65    4.34
   4   8   2   91.16    4.27
  -5  -8  -2   12.63    1.40
  -5  -8  -2   13.23    1.52
   5   8   2   12.91    1.49
  -6  -8  -2  153.74    6.66
  -6  -8  -2  142.57    6.67
   6   8   2  162.76    6.91
   4  -9  -2   19.75    1.37
   4  -9  -2   20.95    1.83
  -4   9   2   18.72    1.92
  -4   9   2   18.50    1.75
   3  -9  -2  140.67    5.86
   3  -9  -2  150.03    6.25
  -3   9   2  144.16    6.18
  -3   9   2  143.03    6.30
   2  -9  -2   19.88    1.47
   2  -9  -2   16.22    1.57
   2  -9  -2   17.01    1.15
  -2   9   2   17.78    1.53
  -2   9   2   17.52    1.45
   1  -9  -2  293.01   12.31
   1  -9  -2  291.05   12.22
   1  -9  -2  316.07   12.00
   1  -9  -2  305.51   12.27
  -1   9   2  324.98   12.32
  -1   9   2  320.74   12.37
   0  -9  -2    3.56    0.83
   0  -9  -2    5.75    0.76
   0  -9  -2    4.68    0.86
   0   9   2    8.00    1.00
   0   9   2    5.64    0.82
   0   9   2    6.06    0.93
  -1  -9  -2  206.55    8.26
  -1  -9  -2  206.44    8.46
   1   9   2  200.84    8.51
   1   9   2  210.77    8.28
   1   9   2  207.95    8.51
  -2  -9  -2    1.24    0.61
  -2  -9  -2    2.75    0.59
  -2  -9  -2    2.23    0.99
   2   9   2    2.76    0.74
   2   9   2    2.37    0.73
   2   9   2    1.83    0.60
  -3  -9  -2    4.64    0.99
  -3  -9  -2    6.66    1.35
  -3  -9  -2    3.69    0.80
   3   9   2    5.18    0.91
   3   9   2    5.20    0.96
   3   9   2    4.73    1.07
  -4  -9  -2    4.49    0.87
  -4  -9  -2    3.65    0.91
   4   9   2    4.79    1.06
   4   9   2    5.14    1.27
  -5  -9  -2   29.00    2.13
  -5  -9  -2   27.29    1.98
   5   9   2   24.63    2.16
  -6  -9  -2   13.79    1.91
  -6  -9  -2   14.21    1.93
   6   9   2   14.36    2.01
   3 -10  -2    0.86    0.86
   3 -10  -2    2.19    0.62
  -3  10   2    3.23    0.95
  -3  10   2    3.26    1.04
   2 -10  -2    5.16    0.86
   2 -10  -2    4.31    0.94
  -2  10   2    3.81    0.96
  -2  10   2    4.23    0.90
   1 -10  -2    0.90    0.71
   1 -10  -2    0.66    0.51
  -1  10   2    0.51    0.61
  -1  10   2    0.43    0.74
   0 -10  -2    2.39    0.70
   0 -10  -2    2.02    0.59
   0  10   2    4.68    1.02
   0  10   2    1.83    0.78
   0  10   2    2.56    0.74
  -1 -10  -2   21.17    1.65
  -1 -10  -2   20.56    1.39
   1  10   2   18.59    1.47
   1  10   2   17.90    1.66
   1  10   2   17.15    1.62
  -2 -10  -2   -0.16    0.66
  -2 -10  -2    0.52    0.60
   2  10   2    1.76    0.78
   2  10   2   -0.14    0.75
   2  10   2    0.81    0.82
  -3 -10  -2   10.36    1.33
  -3 -10  -2    8.10    1.39
   3  10   2   10.41    1.70
   3  10   2    9.46    1.43
   3  10   2   10.21    1.43
  -4 -10  -2    0.08    0.83
  -4 -10  -2    0.60    0.96
   4  10   2   -0.11    0.90
  -5 -10  -2    2.42    1.17
  -5 -10  -2    2.99    1.10
   2 -11  -2    1.77    0.75
   2 -11  -2    1.14    0.97
  -2  11   2    1.68    0.95
  -2  11   2    0.21    1.08
   1 -11  -2   38.81    2.15
   1 -11  -2   42.42    2.56
  -1  11   2   42.99    2.69
  -1  11   2   37.48    2.55
   0 -11  -2    2.62    0.71
   0 -11  -2    1.84    0.85
   0  11   2    1.07    0.89
   0  11   2    1.52    0.92
  -1 -11  -2  201.31    8.10
  -1 -11  -2  192.03    8.36
   1  11   2  200.30    8.15
   1  11   2  197.20    8.48
   1  11   2  202.35    8.48
  -2 -11  -2    1.73    0.77
  -2 -11  -2   -0.16    0.88
   2  11   2    2.02    0.95
   2  11   2    1.52    1.03
   2  11   2    2.60    1.05
  -3 -11  -2  427.75   17.16
  -3 -11  -2  456.33   17.01
   3  11   2  425.76   17.21
   3  11   2  414.06   17.26
   2  11  -3  121.87    5.60
   2  11  -3  117.60    5.64
  -2 -11   3  119.77    5.53
   1  11  -3   13.09    1.81
   1  11  -3   14.59    1.72
  -1 -11   3   15.88    1.78
   0  11  -3  199.25    8.38
   0  11  -3  192.26    8.36
   0 -11   3  193.84    7.97
   0 -11   3  204.31    8.26
  -1  11  -3   44.00    2.85
  -1  11  -3   46.61    2.79
   1 -11   3   51.72    2.70
   1 -11   3   48.49    2.52
  -2  11  -3  114.43    5.15
   2 -11   3   99.09    4.75
   2 -11   3  116.98    4.86
   3  10  -3   58.14    3.13
   3  10  -3   57.46    3.28
  -3 -10   3   57.78    2.74
  -3 -10   3   51.83    3.14
   2  10  -3    5.12    1.29
   2  10  -3    4.02    0.95
   2  10  -3    2.39    0.87
  -2 -10   3    5.41    0.98
  -2 -10   3    8.09    1.38
   1  10  -3   49.41    2.41
   1  10  -3   50.56    2.84
   1  10  -3   48.90    2.78
  -1 -10   3   51.93    2.48
  -1 -10   3   53.62    2.53
  -1 -10   3   53.23    2.80
   0  10  -3    1.88    0.72
   0  10  -3   -0.20    0.67
   0  10  -3   -0.12    0.36
   0 -10   3   -0.19    0.58
   0 -10   3   -0.06    0.65
   0 -10   3   -0.05    0.55
  -1  10  -3    0.66    0.68
  -1  10  -3   -0.34    0.63
   1 -10   3    0.77    0.62
   1 -10   3    0.49    0.63
   1 -10   3    0.21    0.65
  -2  10  -3    1.74    0.78
  -2  10  -3    0.86    0.79
   2 -10   3    1.24    0.78
   2 -10   3    1.12    0.68
   2 -10   3    2.28    0.68
  -3  10  -3   38.29    2.47
  -3  10  -3   37.92    2.52
   3 -10   3   42.44    2.11
   3 -10   3   45.34    2.30
  -4  10  -3    1.35    1.02
  -4  10  -3    1.61    0.96
   4 -10   3    2.31    0.85
   4   9  -3  111.96    5.07
   4   9  -3  102.29    4.83
  -4  -9   3  106.72    4.52
  -4  -9   3  104.13    4.93
   3   9  -3    7.28    1.47
   3   9  -3    5.98    1.27
   3   9  -3    6.86    1.21
  -3  -9   3    5.88    0.97
  -3  -9   3    5.12    1.05
  -3  -9   3    7.59    1.33
   2   9  -3  103.66    4.44
   2   9  -3  100.85    4.50
   2   9  -3   97.72    4.25
   2   9  -3   86.65    4.57
  -2  -9   3   89.65    4.42
  -2  -9   3  101.97    4.15
  -2  -9   3   98.88    4.44
  -2  -9   3   99.12    4.12
   1   9  -3    6.94    0.87
   1   9  -3    7.73    1.09
   1   9  -3    7.61    1.06
   1   9  -3    9.61    1.43
  -1  -9   3    8.78    1.09
  -1  -9   3    6.50    0.86
  -1  -9   3    6.33    0.91
  -1  -9   3    6.34    1.27
   0   9  -3    4.88    1.03
   0   9  -3    6.20    0.58
   0   9  -3    6.29    0.97
   0   9  -3    6.52    0.99
   0  -9   3    5.98    0.84
   0  -9   3    9.83    1.10
   0  -9   3    8.57    1.26
   0  -9   3    6.24    0.84
  -1   9  -3    0.52    0.53
  -1   9  -3    0.45    0.72
  -1   9  -3    0.17    0.48
   1  -9   3   -0.53    0.48
   1  -9   3    0.35    0.49
   1  -9   3    0.17    0.45
  -2   9  -3   47.11    2.54
  -2   9  -3   49.84    2.63
  -2   9  -3   46.95    2.72
   2  -9   3   51.89    2.46
   2  -9   3   52.19    2.43
   2  -9   3   52.13    2.44
  -3   9  -3   11.77    1.22
  -3   9  -3   11.11    1.26
   3  -9   3   10.78    1.27
   3  -9   3   11.03    1.10
   3  -9   3   10.52    0.93
  -4   9  -3   45.56    2.57
  -4   9  -3   47.28    2.65
   4  -9   3   41.64    2.35
   4  -9   3   46.02    1.98
  -5   9  -3   31.67    2.31
  -5   9  -3   31.46    2.35
   5  -9   3   36.90    2.20
   5  -9   3   29.01    2.37
   5   8  -3   15.46    1.84
  -5  -8   3   20.56    1.52
  -5  -8   3   13.89    1.75
  -5  -8   3   15.97    1.85
   4   8  -3    0.46    0.63
   4   8  -3    3.42    0.94
   4   8  -3    2.89    1.06
  -4  -8   3    0.53    0.77
  -4  -8   3    1.26    0.59
  -4  -8   3    1.54    0.70
  -4  -8   3    2.06    0.69
   3   8  -3    0.05    0.66
   3   8  -3    0.40    0.57
   3   8  -3    1.94    0.73
   3   8  -3    1.57    0.89
  -3  -8   3    1.23    0.69
  -3  -8   3    1.73    0.54
  -3  -8   3    1.20    0.58
   2   8  -3    1.93    0.60
   2   8  -3    0.62    0.72
   2   8  -3    1.04    0.48
   2   8  -3    1.37    0.58
  -2  -8   3    1.17    0.48
  -2  -8   3    0.88    0.43
  -2  -8   3    0.71    0.57
   1   8  -3   16.73    1.10
   1   8  -3   17.71    1.29
   1   8  -3   18.11    1.40
   1   8  -3   17.88    1.27
  -1  -8   3   18.17    1.08
  -1  -8   3   18.27    1.12
  -1  -8   3   15.60    1.26
   0   8  -3    5.34    0.79
   0   8  -3    6.34    0.75
   0   8  -3    5.29    0.52
   0   8  -3    6.22    0.98
   0  -8   3    5.18    0.67
   0  -8   3    6.00    0.85
   0  -8   3    5.49    0.67
  -1   8  -3   42.16    2.19
  -1   8  -3   41.34    2.22
  -1   8  -3   40.12    2.13
   1  -8   3   40.81    2.08
   1  -8   3   45.24    2.02
   1  -8   3   43.76    2.02
  -2   8  -3   -0.01    0.40
  -2   8  -3    0.94    0.57
  -2   8  -3   -0.26    0.40
   2  -8   3    0.33    0.44
   2  -8   3    0.15    0.39
   2  -8   3    0.68    0.39
  -3   8  -3    0.80    0.67
  -3   8  -3    2.65    0.61
  -3   8  -3    3.55    0.87
   3  -8   3    1.17    0.55
   3  -8   3    1.19    0.67
   3  -8   3    2.46    0.54
   3  -8   3    1.35    0.46
  -4   8  -3    0.39    0.58
  -4   8  -3    1.22    0.63
   4  -8   3    0.71    0.68
   4  -8   3    1.22    0.30
   4  -8   3    0.33    0.55
  -5   8  -3   81.50    3.89
  -5   8  -3   82.23    3.87
   5  -8   3   76.21    4.32
   5  -8   3   79.12    3.68
  -6   8  -3    7.33    1.60
  -6   8  -3    5.99    1.59
   6  -8   3    7.23    1.45
   6   7  -3    1.64    1.08
  -6  -7   3    3.39    1.11
  -6  -7   3    3.88    0.92
   5   7  -3    5.98    1.38
  -5  -7   3    6.76    1.38
  -5  -7   3    5.69    1.19
  -5  -7   3    7.65    1.08
   4   7  -3    0.28    0.87
   4   7  -3    1.84    0.80
   4   7  -3    0.81    0.53
  -4  -7   3    0.50    0.49
  -4  -7   3    1.00    0.55
  -4  -7   3    0.71    0.54
  -4  -7   3   -0.37    0.55
   3   7  -3   -0.08    0.50
   3   7  -3    1.04    0.60
   3   7  -3    0.62    0.48
   3   7  -3    0.36    0.66
  -3  -7   3    0.14    0.47
  -3  -7   3    1.17    0.42
  -3  -7   3   -0.06    0.46
  -3  -7   3    0.71    0.44
   2   7  -3   93.96    4.05
   2   7  -3   91.11    4.10
   2   7  -3   94.38    4.02
   2   7  -3   95.98    4.19
  -2  -7   3   96.88    4.07
  -2  -7   3   92.53    3.85
  -2  -7   3   90.80    3.86
  -2  -7   3   95.61    4.14
   1   7  -3    4.73    0.82
   1   7  -3    6.35    0.66
   1   7  -3    4.90    0.70
   1   7  -3    5.73    0.69
  -1  -7   3    5.13    0.56
  -1  -7   3    5.77    0.61
  -1  -7   3    6.14    0.78
  -1  -7   3    5.40    0.74
   0   7  -3  608.51   24.02
   0   7  -3  656.56   24.01
   0   7  -3  660.70   24.07
   0   7  -3  607.39   23.72
   0  -7   3  619.59   24.01
   0  -7   3  613.74   23.85
   0  -7   3  635.54   23.82
   0  -7   3  618.34   24.03
  -1   7  -3   33.85    1.83
  -1   7  -3   34.88    1.84
  -1   7  -3   34.61    1.78
   1  -7   3   35.32    1.88
   1  -7   3   37.65    1.69
   1  -7   3   36.15    1.76
   1  -7   3   37.64    1.71
  -2   7  -3  364.99   13.87
  -2   7  -3  333.21   13.85
  -2   7  -3  336.34   13.81
   2  -7   3  361.88   13.71
   2  -7   3  384.67   13.73
   2  -7   3  352.00   13.67
  -3   7  -3   34.51    1.85
  -3   7  -3   33.96    1.91
  -3   7  -3   34.51    1.89
   3  -7   3   35.27    1.59
   3  -7   3   37.02    1.81
   3  -7   3   34.39    1.75
  -4   7  -3  127.98    5.29
  -4   7  -3  115.15    5.25
  -4   7  -3  122.50    5.27
   4  -7   3  121.56    4.73
   4  -7   3  126.79    5.13
   4  -7   3  124.38    5.18
  -5   7  -3   20.92    1.58
  -5   7  -3   24.76    1.63
   5  -7   3   21.55    1.52
  -6   7  -3    2.39    0.83
  -6   7  -3    1.89    0.88
   6  -7   3    5.87    1.54
   6  -7   3    2.75    0.83
   6   6  -3   -0.47    0.90
  -6  -6   3    1.12    0.75
  -6  -6   3   -1.35    0.77
  -6  -6   3   -0.43    0.87
  -6  -6   3    0.32    0.73
   5   6  -3  329.78   14.19
   5   6  -3  380.96   14.30
  -5  -6   3  342.10   13.88
  -5  -6   3  357.36   14.17
  -5  -6   3  359.39   13.88
  -5  -6   3  371.63   13.95
   4   6  -3    2.22    0.68
   4   6  -3    2.06    0.78
   4   6  -3    2.40    0.68
  -4  -6   3    1.85    0.50
  -4  -6   3    1.13    0.51
  -4  -6   3    1.99    0.60
  -4  -6   3    2.77    0.75
   3   6  -3  382.80   15.20
   3   6  -3  400.47   15.12
   3   6  -3  381.53   15.05
   3   6  -3  373.06   15.20
  -3  -6   3  380.88   14.92
  -3  -6   3  382.09   14.92
  -3  -6   3  395.68   15.03
  -3  -6   3  411.89   15.22
   2   6  -3    1.48    0.42
   2   6  -3    0.85    0.48
   2   6  -3    0.81    0.39
   2   6  -3    0.77    0.32
  -2  -6   3    2.10    0.42
  -2  -6   3    1.13    0.37
  -2  -6   3    1.46    0.32
  -2  -6   3    0.60    0.35
   1   6  -3  132.86    5.56
   1   6  -3  131.79    5.47
   1   6  -3  148.29    5.66
   1   6  -3  154.05    5.62
  -1  -6   3  134.54    5.57
  -1  -6   3  139.28    5.39
  -1  -6   3  126.72    5.40
  -1  -6   3  130.51    5.59
   0   6  -3   11.96    0.86
   0   6  -3   12.67    0.91
   0   6  -3   11.69    0.68
   0   6  -3   13.02    0.83
   0  -6   3   13.12    0.73
   0  -6   3   12.22    0.86
   0  -6   3   13.23    0.90
   0  -6   3   12.62    0.76
  -1   6  -3   90.25    3.75
  -1   6  -3   91.29    3.73
  -1   6  -3   88.31    3.68
   1  -6   3   84.18    3.58
   1  -6   3   85.87    3.56
   1  -6   3   90.04    3.66
  -2   6  -3    7.34    0.68
  -2   6  -3    7.82    0.72
  -2   6  -3    8.21    0.74
   2  -6   3    8.30    0.62
   2  -6   3    7.43    0.64
   2  -6   3    7.36    0.76
   2  -6   3    8.58    0.61
  -3   6  -3    3.46    0.59
  -3   6  -3    4.80    0.69
  -3   6  -3    3.75    0.64
   3  -6   3    4.05    0.38
   3  -6   3    4.17    0.59
   3  -6   3    4.09    0.55
   3  -6   3    2.92    0.71
  -4   6  -3    6.89    0.81
  -4   6  -3    6.22    0.81
  -4   6  -3    5.66    0.83
   4  -6   3    6.55    0.72
   4  -6   3    6.96    0.85
  -5   6  -3   13.94    1.42
  -5   6  -3   15.59    1.23
  -5   6  -3   14.91    1.25
   5  -6   3   16.83    0.81
   5  -6   3   17.36    1.23
   5  -6   3   17.72    1.37
   5  -6   3   16.51    0.88
  -6   6  -3    9.76    1.21
  -6   6  -3   10.61    1.34
   6  -6   3   10.19    1.14
   6  -6   3    9.59    1.47
   6  -6   3   10.68    0.92
  -7   6  -3    7.83    1.55
  -7   6  -3   10.64    1.52
   7  -6   3   14.00    1.57
   7   5  -3    7.24    1.95
  -7  -5   3    9.27    1.68
  -7  -5   3   12.34    1.57
   6   5  -3   55.15    3.01
  -6  -5   3   50.62    2.81
  -6  -5   3   48.79    2.60
  -6  -5   3   50.23    2.73
  -6  -5   3   51.28    2.47
   5   5  -3    1.55    0.82
   5   5  -3    2.16    0.67
   5   5  -3   -0.28    0.69
  -5  -5   3    0.87    0.51
  -5  -5   3    2.59    0.66
  -5  -5   3    1.51    0.60
  -5  -5   3    0.76    0.47
   4   5  -3   11.16    1.06
   4   5  -3    9.72    1.10
   4   5  -3   11.57    1.14
  -4  -5   3   12.53    0.89
  -4  -5   3    9.55    1.04
  -4  -5   3   10.37    0.93
   3   5  -3    2.27    0.51
   3   5  -3    3.30    0.69
   3   5  -3    2.83    0.67
   3   5  -3    2.52    0.64
  -3  -5   3    2.50    0.51
  -3  -5   3    2.43    0.46
  -3  -5   3    3.22    0.53
  -3  -5   3    1.79    0.44
   2   5  -3    1.30    0.32
   2   5  -3    2.41    0.50
   2   5  -3    0.90    0.44
   2   5  -3    1.16    0.36
  -2  -5   3    1.23    0.34
  -2  -5   3    1.10    0.32
  -2  -5   3    1.10    0.28
   1   5  -3    2.94    0.42
   1   5  -3    3.17    0.44
   1   5  -3    3.07    0.52
   1   5  -3    3.37    0.46
  -1  -5   3    2.65    0.46
  -1  -5   3    2.97    0.34
  -1  -5   3    3.80    0.49
  -1  -5   3    3.48    0.33
   0   5  -3    2.20    0.41
   0   5  -3    2.50    0.36
   0   5  -3    2.65    0.40
   0   5  -3    1.78    0.29
   0  -5   3    2.44    0.42
   0  -5   3    2.37    0.28
   0  -5   3    1.69    0.29
   0  -5   3    2.07    0.38
  -1   5  -3    8.40    0.65
  -1   5  -3    8.38    0.64
  -1   5  -3    8.92    0.60
   1  -5   3    9.21    0.60
   1  -5   3    9.39    0.54
   1  -5   3    8.20    0.67
   1  -5   3    9.23    0.55
  -2   5  -3  236.09    9.54
  -2   5  -3  248.31    9.61
  -2   5  -3  256.71    9.58
   2  -5   3  237.59    9.45
   2  -5   3  243.39    9.42
   2  -5   3  249.54    9.60
   2  -5   3  248.15    9.47
  -3   5  -3   30.75    1.58
  -3   5  -3   31.52    1.58
  -3   5  -3   31.11    1.56
   3  -5   3   30.78    1.30
   3  -5   3   31.28    1.50
   3  -5   3   32.08    1.53
  -4   5  -3  357.14   14.16
  -4   5  -3  381.82   14.22
  -4   5  -3  344.60   14.14
   4  -5   3  362.68   13.83
   4  -5   3  377.46   14.10
   4  -5   3  365.73   14.13
  -5   5  -3   77.71    3.67
  -5   5  -3   81.38    3.64
  -5   5  -3   82.18    3.70
   5  -5   3   84.75    3.67
   5  -5   3   84.37    3.37
   5  -5   3   81.32    3.58
  -6   5  -3  225.76    9.54
  -6   5  -3  233.12    9.43
   6  -5   3  228.78    9.18
   6  -5   3  249.33    9.45
  -7   5  -3   68.38    3.31
  -7   5  -3   66.61    3.48
   7  -5   3   62.16    3.26
   7  -5   3   67.42    3.16
   7   4  -3   49.31    3.02
  -7  -4   3   45.07    2.83
  -7  -4   3   46.72    2.80
  -7  -4   3   48.06    2.70
   6   4  -3    0.77    0.72
  -6  -4   3   -0.20    0.72
  -6  -4   3    0.05    0.50
  -6  -4   3    0.82    0.63
  -6  -4   3    1.51    0.67
   5   4  -3    1.12    0.71
   5   4  -3    1.02    0.58
   5   4  -3    1.14    0.76
  -5  -4   3    2.78    0.73
  -5  -4   3    1.16    0.56
  -5  -4   3    2.29    0.62
  -5  -4   3    1.60    0.43
   4   4  -3   -0.21    0.42
   4   4  -3    0.03    0.48
   4   4  -3   -0.18    0.45
  -4  -4   3    0.06    0.31
  -4  -4   3    0.17    0.28
  -4  -4   3    0.36    0.36
  -4  -4   3    0.29    0.38
   3   4  -3  310.68   11.62
   3   4  -3  329.40   11.60
   3   4  -3  281.49   11.39
   3   4  -3  291.47   11.54
  -3  -4   3  281.82   11.36
  -3  -4   3  289.62   11.35
  -3  -4   3  300.98   11.58
  -3  -4   3  276.57   11.37
   2   4  -3    1.54    0.45
   2   4  -3    2.17    0.43
   2   4  -3    2.20    0.47
   2   4  -3    2.09    0.35
  -2  -4   3    2.09    0.31
  -2  -4   3    1.63    0.43
  -2  -4   3    1.89    0.30
  -2  -4   3    1.61    0.35
   1   4  -3  437.40   17.44
   1   4  -3  478.91   17.42
   1   4  -3  451.81   17.41
   1   4  -3  462.47   17.40
  -1  -4   3  463.83   17.25
  -1  -4   3  437.13   17.26
  -1  -4   3  457.91   17.49
  -1  -4   3  466.34   17.41
   0   4  -3    9.71    0.61
   0   4  -3    8.68    0.50
   0   4  -3    8.62    0.57
   0   4  -3    8.97    0.53
   0  -4   3    8.71    0.42
   0  -4   3    8.39    0.58
   0  -4   3    8.58    0.59
  -1   4  -3  302.12   11.73
  -1   4  -3  317.14   11.66
  -1   4  -3  298.67   11.67
   1  -4   3  314.25   11.74
   1  -4   3  297.14   11.56
   1  -4   3  301.45   11.57
   1  -4   3  303.33   11.65
  -2   4  -3   19.29    0.99
  -2   4  -3   20.23    1.05
  -2   4  -3   18.78    1.00
   2  -4   3   19.53    0.89
   2  -4   3   19.04    1.06
   2  -4   3   20.35    0.96
   2  -4   3   19.64    0.94
  -3   4  -3  192.54    7.41
  -3   4  -3  189.17    7.41
  -3   4  -3  178.16    7.36
   3  -4   3  193.57    7.36
   3  -4   3  185.98    7.31
   3  -4   3  186.14    7.11
  -4   4  -3   42.29    2.06
  -4   4  -3   44.11    2.07
  -4   4  -3   41.35    2.08
   4  -4   3   44.55    1.85
   4  -4   3   43.89    2.05
   4  -4   3   45.35    2.02
  -5   4  -3   12.00    0.93
  -5   4  -3   10.93    1.00
  -5   4  -3   11.27    1.01
   5  -4   3   13.00    0.94
   5  -4   3   11.48    0.99
   5  -4   3   10.85    0.79
  -6   4  -3   13.67    1.37
  -6   4  -3   16.89    1.32
  -6   4  -3   14.84    1.19
   6  -4   3   15.17    1.11
   6  -4   3   15.12    1.18
  -7   4  -3    9.95    1.44
  -7   4  -3   11.00    1.26
   7  -4   3    6.55    1.50
   7  -4   3   11.36    1.29
   7  -4   3   14.81    1.36
  -8   4  -3   13.97    1.64
  -8   4  -3    9.56    1.77
   8  -4   3   13.40    1.70
   7   3  -3    0.49    1.04
  -7  -3   3    0.17    0.80
  -7  -3   3    1.06    1.13
  -7  -3   3   -0.82    0.79
   6   3  -3   85.28    4.13
  -6  -3   3   89.58    4.01
  -6  -3   3   87.16    3.98
  -6  -3   3   84.91    3.88
  -6  -3   3   87.47    3.58
   5   3  -3    1.05    0.66
   5   3  -3    1.52    0.54
   5   3  -3    1.98    0.71
  -5  -3   3    2.43    0.57
  -5  -3   3    1.78    0.51
  -5  -3   3    2.23    0.59
  -5  -3   3    1.00    0.33
   4   3  -3   56.62    2.66
   4   3  -3   57.01    2.72
   4   3  -3   56.83    2.70
   4   3  -3   59.67    2.74
  -4  -3   3   58.93    2.68
  -4  -3   3   60.56    2.60
  -4  -3   3   53.89    2.53
  -4  -3   3   56.83    2.41
   3   3  -3    0.28    0.30
   3   3  -3    0.27    0.32
   3   3  -3    0.44    0.30
  -3  -3   3    0.26    0.22
  -3  -3   3    0.59    0.19
  -3  -3   3    0.24    0.25
  -3  -3   3    0.76    0.31
   2   3  -3   54.64    2.35
   2   3  -3   51.88    2.37
   2   3  -3   54.56    2.40
   2   3  -3   53.43    2.26
  -2  -3   3   54.14    2.39
  -2  -3   3   55.74    2.23
  -2  -3   3   55.38    2.21
  -2  -3   3   53.35    2.24
   1   3  -3    4.63    0.38
   1   3  -3    4.52    0.40
   1   3  -3    4.79    0.36
   1   3  -3    4.81    0.46
  -1  -3   3    4.74    0.36
  -1  -3   3    4.22    0.42
   0   3  -3   34.67    1.44
   0   3  -3   33.48    1.40
   0   3  -3   32.71    1.47
   0   3  -3   35.75    1.52
   0  -3   3   32.67    1.49
   0  -3   3   32.96    1.47
  -1   3  -3    0.25    0.13
  -1   3  -3    0.42    0.14
  -1   3  -3    0.41    0.13
   1  -3   3    0.39    0.10
   1  -3   3    0.55    0.12
   1  -3   3    0.39    0.13
   1  -3   3    0.29    0.16
  -2   3  -3  225.66    8.73
  -2   3  -3  222.51    8.72
  -2   3  -3  224.14    8.79
   2  -3   3  221.68    8.61
   2  -3   3  232.31    8.69
   2  -3   3  235.00    8.67
  -3   3  -3    6.20    0.52
  -3   3  -3    6.45    0.53
  -3   3  -3    7.47    0.56
   3  -3   3    6.73    0.53
   3  -3   3    7.07    0.50
   3  -3   3    7.04    0.40
  -4   3  -3    6.71    0.62
  -4   3  -3    5.23    0.57
  -4   3  -3    5.84    0.61
   4  -3   3    5.86    0.49
   4  -3   3    5.61    0.54
   4  -3   3    6.64    0.62
  -5   3  -3   -0.13    0.33
  -5   3  -3    0.66    0.43
  -5   3  -3    0.09    0.30
   5  -3   3   -0.18    0.29
   5  -3   3    0.09    0.30
   5  -3   3   -0.01    0.37
  -6   3  -3    7.62    0.87
  -6   3  -3    9.39    1.08
  -6   3  -3    9.42    1.03
   6  -3   3    9.52    0.94
   6  -3   3    9.92    0.93
   6  -3   3    9.09    1.07
  -7   3  -3   12.69    1.24
  -7   3  -3   13.14    1.47
   7  -3   3   13.24    1.65
   7  -3   3   14.16    1.37
   7  -3   3   15.26    1.32
  -8   3  -3   67.83    3.32
  -8   3  -3   73.99    3.70
   8  -3   3   50.76    3.35
   8  -3   3   62.79    3.36
   7   2  -3   17.02    1.76
  -7  -2   3   10.83    1.48
  -7  -2   3   13.10    0.88
  -7  -2   3   13.57    1.51
  -7  -2   3   13.26    1.80
   6   2  -3    3.14    0.81
   6   2  -3    5.98    1.31
  -6  -2   3    3.88    0.56
  -6  -2   3    3.98    1.09
  -6  -2   3    4.50    0.92
  -6  -2   3    4.94    0.92
   5   2  -3  296.20   11.15
   5   2  -3  281.01   11.01
   5   2  -3  266.40   11.12
  -5  -2   3  287.02   10.69
  -5  -2   3  272.37   11.00
  -5  -2   3  277.57   11.02
  -5  -2   3  273.22   10.96
   4   2  -3    0.19    0.31
   4   2  -3    0.34    0.35
   4   2  -3    0.33    0.37
  -4  -2   3    0.38    0.29
  -4  -2   3   -0.09    0.32
  -4  -2   3    0.21    0.18
  -4  -2   3    0.36    0.30
   3   2  -3  414.60   16.96
   3   2  -3  459.93   16.96
   3   2  -3  464.16   16.95
  -3  -2   3  449.51   16.97
  -3  -2   3  447.88   16.73
  -3  -2   3  420.97   16.83
  -3  -2   3  437.12   16.89
   2   2  -3    0.14    0.12
   2   2  -3    0.38    0.22
   2   2  -3    0.02    0.16
   2   2  -3    0.12    0.17
  -2  -2   3    0.05    0.10
  -2  -2   3    0.14    0.14
  -2  -2   3    0.02    0.16
  -2  -2   3    0.12    0.12
   1   2  -3  259.86   10.01
   1   2  -3  262.43   10.09
   1   2  -3  271.90    9.99
   1   2  -3  260.62    9.98
  -1  -2   3  258.33    9.97
  -1  -2   3  261.23   10.09
   0   2  -3   18.68    0.89
   0   2  -3   19.04    0.75
   0   2  -3   18.26    0.84
   0   2  -3   19.09    0.77
   0  -2   3   18.16    0.85
   0  -2   3   17.89    0.87
  -1   2  -3   24.64    1.03
  -1   2  -3   24.12    1.14
  -1   2  -3   27.83    1.06
  -1   2  -3   25.86    1.10
  -1   2  -3   26.99    1.06
   1  -2   3   23.97    1.08
  -2   2  -3    0.40    0.14
  -2   2  -3    0.23    0.12
  -2   2  -3    0.32    0.15
  -2   2  -3    0.39    0.11
  -2   2  -3    0.48    0.10
   2  -2   3    0.41    0.12
   2  -2   3    0.37    0.09
   2  -2   3    0.27    0.12
  -3   2  -3   80.87    3.39
  -3   2  -3   86.81    3.37
  -3   2  -3   89.10    3.43
   3  -2   3   79.45    3.27
   3  -2   3   78.21    3.32
   3  -2   3   82.30    3.37
  -4   2  -3    0.66    0.26
  -4   2  -3    0.47    0.26
  -4   2  -3    0.17    0.24
   4  -2   3    0.51    0.24
   4  -2   3    0.08    0.18
   4  -2   3    0.33    0.25
  -5   2  -3  242.96    9.70
  -5   2  -3  246.18    9.82
  -5   2  -3  266.76    9.79
   5  -2   3  244.75    9.66
   5  -2   3  230.43    9.68
   5  -2   3  252.46    9.80
  -6   2  -3    7.02    0.95
  -6   2  -3    6.74    0.78
  -6   2  -3    5.69    0.93
   6  -2   3    6.20    0.80
   6  -2   3    5.28    0.98
   6  -2   3    7.95    0.87
  -7   2  -3   36.43    2.32
  -7   2  -3   38.58    2.10
   7  -2   3   38.61    2.20
   7  -2   3   40.45    2.47
   7  -2   3   41.46    2.24
  -8   2  -3    3.78    1.06
  -8   2  -3    3.71    0.86
   8  -2   3    2.85    0.92
   8  -2   3    2.12    1.12
   7   1  -3   15.21    1.71
  -7  -1   3   17.08    0.94
  -7  -1   3   17.39    1.63
  -7  -1   3   17.08    1.94
   6   1  -3   49.94    2.75
   6   1  -3   51.69    2.81
  -6  -1   3   51.67    2.16
  -6  -1   3   49.89    2.69
  -6  -1   3   51.55    2.56
  -6  -1   3   53.88    2.20
  -6  -1   3   54.60    2.64
   5   1  -3    7.72    0.89
   5   1  -3    7.56    0.96
   5   1  -3    7.41    0.83
  -5  -1   3    7.57    0.92
  -5  -1   3    7.13    0.80
  -5  -1   3    7.42    0.78
  -5  -1   3    7.97    0.53
   4   1  -3   10.63    0.87
   4   1  -3   13.39    0.89
   4   1  -3   11.05    0.86
  -4  -1   3   10.96    0.80
  -4  -1   3   11.00    0.58
  -4  -1   3   10.60    0.84
  -4  -1   3   11.03    0.79
   3   1  -3    1.06    0.28
   3   1  -3    0.58    0.25
   3   1  -3    0.21    0.23
  -3  -1   3    0.49    0.22
  -3  -1   3    0.28    0.23
  -3  -1   3    0.46    0.21
  -3  -1   3    0.46    0.12
   2   1  -3    1.23    0.26
   2   1  -3    1.71    0.27
   2   1  -3    1.40    0.27
  -2  -1   3    1.75    0.13
  -2  -1   3    1.48    0.25
  -2  -1   3    1.42    0.27
  -2  -1   3    1.37    0.22
   1   1  -3    4.94    0.29
   1   1  -3    4.57    0.32
   1   1  -3    4.32    0.35
   1   1  -3    4.83    0.26
  -1  -1   3    4.60    0.36
  -1  -1   3    4.80    0.25
   0   1  -3   26.27    1.07
   0   1  -3   25.37    1.12
   0  -1   3   25.07    1.11
  -1   1  -3    0.23    0.07
  -1   1  -3    0.16    0.05
  -1   1  -3    0.34    0.09
  -1   1  -3    0.15    0.08
   1  -1   3    0.22    0.07
  -2   1  -3    4.95    0.26
  -2   1  -3    5.56    0.37
  -2   1  -3    4.91    0.32
  -2   1  -3    4.77    0.33
   2  -1   3    4.99    0.33
   2  -1   3    4.76    0.29
   2  -1   3    4.54    0.30
  -3   1  -3   18.61    0.97
  -3   1  -3   19.05    0.98
  -3   1  -3   20.46    1.03
   3  -1   3   19.97    0.95
   3  -1   3   19.45    1.01
   3  -1   3   20.29    0.95
  -4   1  -3  298.42   10.70
  -4   1  -3  266.52   10.73
   4  -1   3  271.69   10.70
   4  -1   3  277.55   10.63
   4  -1   3  260.03   10.61
  -5   1  -3   11.39    0.91
  -5   1  -3   10.88    0.86
  -5   1  -3   10.19    0.48
   5  -1   3   10.90    0.84
   5  -1   3    9.74    0.77
   5  -1   3    9.71    0.89
  -6   1  -3  267.79    9.99
  -6   1  -3  219.14    9.77
   6  -1   3  252.75    9.78
   6  -1   3  229.69    9.75
   6  -1   3  261.56    9.93
  -7   1  -3   13.31    1.37
   7  -1   3   15.07    1.30
   7  -1   3   16.14    1.59
  -8   1  -3   85.45    4.46
  -8   1  -3   94.46    4.19
   8  -1   3   90.51    4.31
   7   0  -3    0.34    0.80
  -7   0   3    0.28    0.79
  -7   0   3    0.46    0.32
   6   0  -3    0.11    0.49
   6   0  -3    0.87    0.78
   6   0  -3   -0.20    0.55
  -6   0   3   -0.49    0.62
  -6   0   3    0.80    0.59
  -6   0   3    0.38    0.24
  -6   0   3    0.33    0.31
   5   0  -3    2.35    0.60
   5   0  -3    2.43    0.64
   5   0  -3    3.74    0.70
  -5   0   3    2.64    0.57
  -5   0   3    4.73    0.70
  -5   0   3    2.93    0.32
  -5   0   3    3.74    0.37
  -5   0   3    2.57    0.70
   4   0  -3   -0.16    0.26
   4   0  -3    0.30    0.30
   4   0  -3    0.08    0.33
  -4   0   3    0.38    0.15
  -4   0   3   -0.12    0.24
  -4   0   3    0.60    0.31
  -4   0   3   -0.28    0.27
  -4   0   3    0.15    0.11
   3   0  -3  177.37    6.83
   3   0  -3  180.49    6.89
   3   0  -3  172.14    6.86
  -3   0   3  174.46    6.83
  -3   0   3  169.08    6.81
  -3   0   3  169.80    6.80
   2   0  -3    7.66    0.49
   2   0  -3    7.75    0.50
   2   0  -3    7.02    0.49
  -2   0   3    6.43    0.44
  -2   0   3    7.32    0.49
  -2   0   3    7.05    0.46
   0   0  -3    4.48    0.20
   0   0  -3    4.12    0.21
   0   0  -3    4.14    0.28
   0   0  -3    4.36    0.30
  -1   0  -3  611.56   23.06
  -2   0  -3   32.92    1.44
  -2   0  -3   34.49    1.47
  -2   0  -3   36.79    1.52
   2   0   3   33.10    1.45
   2   0   3   34.24    1.41
   2   0   3   34.17    1.44
  -3   0  -3  586.43   21.76
  -3   0  -3  569.30   21.77
  -3   0  -3  533.12   21.80
   3   0   3  611.34   21.76
   3   0   3  573.34   21.72
   3   0   3  565.61   21.79
  -4   0  -3   28.82    1.45
  -4   0  -3   30.31    1.54
  -4   0  -3   29.23    1.45
   4   0   3   29.62    1.42
   4   0   3   30.30    1.46
   4   0   3   27.29    1.49
  -5   0  -3   62.87    2.98
  -5   0  -3   62.85    2.90
  -5   0  -3   63.20    2.63
   5   0   3   66.22    2.91
   5   0   3   66.47    2.87
   5   0   3   67.67    2.99
  -6   0  -3   17.95    1.42
  -6   0  -3   22.27    1.07
   6   0   3   21.04    1.43
   6   0   3   24.86    1.42
   6   0   3   22.92    1.54
  -7   0  -3    2.86    0.47
  -7   0  -3    4.18    1.09
   7   0   3    2.88    0.96
   7   0   3    2.20    0.65
  -8   0  -3   16.49    0.99
  -8   0  -3   19.66    1.94
   8   0   3   17.25    1.68
   7  -1  -3    6.36    1.46
  -7   1   3    6.02    1.33
  -7   1   3    3.92    0.71
   6  -1  -3  338.47   13.32
   6  -1  -3  358.36   13.63
  -6   1   3  348.89   13.04
  -6   1   3  327.15   13.48
  -6   1   3  337.65   13.02
   5  -1  -3   21.82    1.22
   5  -1  -3   15.97    1.26
   5  -1  -3   20.23    1.41
  -5   1   3   19.01    1.31
  -5   1   3   21.57    1.33
  -5   1   3   21.98    0.95
   4  -1  -3  524.29   19.84
   4  -1  -3  543.48   19.70
   4  -1  -3  506.91   19.81
  -4   1   3  504.29   19.75
  -4   1   3  505.96   19.45
  -4   1   3  509.89   19.76
   3  -1  -3   21.80    1.06
   3  -1  -3   20.23    1.10
   3  -1  -3   19.39    1.10
  -3   1   3   18.59    1.06
  -3   1   3   21.63    0.85
  -3   1   3   19.85    1.06
   2  -1  -3  215.49    8.25
   2  -1  -3  211.09    8.22
   2  -1  -3  205.46    8.24
  -2   1   3  204.95    8.22
  -2   1   3  228.72    8.23
   1  -1  -3    2.07    0.23
   1  -1  -3    2.29    0.24
   1  -1  -3    2.24    0.15
   1  -1  -3    2.51    0.26
  -1   1   3    2.39    0.22
  -1   1   3    2.30    0.22
   0  -1  -3  154.33    5.64
   0  -1  -3  141.31    5.63
   0  -1  -3  147.40    5.67
   0  -1  -3  146.29    5.61
   0   1   3  144.28    5.58
  -1  -1  -3   26.71    1.10
  -1  -1  -3   25.93    1.14
  -1  -1  -3   24.40    1.13
   1   1   3   25.46    1.13
   1   1   3   26.41    1.07
   1   1   3   26.96    1.09
  -2  -1  -3    9.05    0.57
  -2  -1  -3   10.31    0.55
  -2  -1  -3    8.67    0.54
   2   1   3    8.68    0.53
   2   1   3    9.75    0.53
   2   1   3    8.54    0.51
  -3  -1  -3   63.38    2.73
  -3  -1  -3   62.80    2.73
  -3  -1  -3   67.09    2.82
   3   1   3   66.48    2.73
   3   1   3   67.13    2.77
   3   1   3   63.62    2.70
  -4  -1  -3   -0.23    0.22
  -4  -1  -3    1.71    0.42
  -4  -1  -3    0.45    0.26
   4   1   3    0.38    0.25
   4   1   3    1.45    0.36
   4   1   3    0.13    0.22
  -5  -1  -3   51.98    2.43
  -5  -1  -3   48.96    2.48
  -5  -1  -3   51.15    2.20
   5   1   3   51.85    2.42
   5   1   3   52.18    2.48
   5   1   3   50.15    2.38
  -6  -1  -3   86.88    3.77
   6   1   3   97.28    4.09
   6   1   3   92.89    4.16
   6   1   3   92.36    4.08
  -7  -1  -3   41.62    2.41
  -7  -1  -3   41.31    1.88
   7   1   3   37.20    2.41
   7   1   3   33.58    2.62
   7   1   3   40.17    2.24
  -8  -1  -3  119.53    5.60
  -8  -1  -3  121.10    4.92
   8   1   3  119.08    5.44
   7  -2  -3   27.87    2.12
  -7   2   3   28.96    2.14
   6  -2  -3    0.01    0.51
   6  -2  -3    1.01    0.57
  -6   2   3    0.47    0.59
  -6   2   3    0.05    0.29
  -6   2   3   -1.32    0.64
   5  -2  -3    2.67    0.68
   5  -2  -3    2.99    0.62
   5  -2  -3    1.76    0.64
  -5   2   3    3.83    0.74
  -5   2   3    3.04    0.75
  -5   2   3    2.99    0.40
   4  -2  -3    2.67    0.53
   4  -2  -3    2.60    0.64
   4  -2  -3    2.07    0.44
  -4   2   3    2.43    0.55
  -4   2   3    1.84    0.53
  -4   2   3    2.19    0.31
   3  -2  -3   47.71    2.05
   3  -2  -3   40.62    1.97
   3  -2  -3   43.34    1.89
  -3   2   3   44.58    1.97
  -3   2   3   41.58    1.75
  -3   2   3   41.27    1.96
   2  -2  -3   17.52    0.89
   2  -2  -3   18.04    0.77
   2  -2  -3   17.83    0.96
   2  -2  -3   18.66    0.96
  -2   2   3   18.14    0.92
  -2   2   3   16.54    0.91
  -2   2   3   17.54    0.80
   1  -2  -3   31.50    1.42
   1  -2  -3   33.64    1.44
   1  -2  -3   31.18    1.33
   1  -2  -3   34.51    1.45
  -1   2   3   33.24    1.40
  -1   2   3   32.11    1.36
  -1   2   3   30.24    1.41
   0  -2  -3   35.47    1.51
   0  -2  -3   34.65    1.50
   0  -2  -3   37.85    1.51
   0  -2  -3   34.79    1.52
   0   2   3   33.51    1.49
   0   2   3   36.43    1.52
   0   2   3   33.86    1.51
   0   2   3   35.56    1.48
  -1  -2  -3  386.31   15.10
  -1  -2  -3  376.41   15.08
  -1  -2  -3  412.40   15.06
  -1  -2  -3  394.56   15.07
   1   2   3  390.61   15.03
   1   2   3  412.71   15.07
   1   2   3  401.26   15.09
  -2  -2  -3   16.64    0.85
  -2  -2  -3   13.66    0.84
  -2  -2  -3   15.58    0.80
   2   2   3   15.22    0.80
   2   2   3   14.03    0.80
   2   2   3   15.18    0.80
  -3  -2  -3  456.69   17.62
  -3  -2  -3  455.27   17.66
  -3  -2  -3  456.22   17.69
   3   2   3  445.42   17.63
   3   2   3  471.23   17.62
   3   2   3  479.83   17.63
  -4  -2  -3    8.23    0.70
  -4  -2  -3    8.38    0.76
  -4  -2  -3    6.09    0.70
   4   2   3    7.44    0.67
   4   2   3    8.26    0.69
   4   2   3    8.58    0.76
  -5  -2  -3  419.05   16.43
  -5  -2  -3  451.05   16.76
  -5  -2  -3  433.89   16.66
   5   2   3  422.55   16.68
   5   2   3  437.29   16.64
   5   2   3  412.18   16.63
  -6  -2  -3   28.56    1.49
  -6  -2  -3   29.47    1.80
   6   2   3   29.15    1.82
   6   2   3   26.90    1.70
   6   2   3   29.27    1.79
  -7  -2  -3  238.08    9.23
  -7  -2  -3  245.83    9.72
   7   2   3  226.32    9.55
   7   2   3  213.48    9.58
   7   2   3  244.24    9.61
  -8  -2  -3   31.31    2.35
  -8  -2  -3   28.72    1.73
   8   2   3   31.15    2.21
   7  -3  -3    9.44    1.56
  -7   3   3    6.35    1.49
   6  -3  -3   13.53    1.34
   6  -3  -3   14.70    1.15
  -6   3   3   14.04    1.39
  -6   3   3   15.14    0.94
  -6   3   3   14.68    1.48
   5  -3  -3    2.56    0.70
   5  -3  -3    2.40    0.58
   5  -3  -3    2.31    0.50
  -5   3   3    2.05    0.46
  -5   3   3    3.04    0.74
  -5   3   3    1.60    0.61
   4  -3  -3  109.05    4.51
   4  -3  -3  109.54    4.48
  -4   3   3  102.82    4.17
  -4   3   3  104.62    4.44
  -4   3   3   99.17    4.39
   3  -3  -3    3.94    0.55
   3  -3  -3    3.00    0.42
   3  -3  -3    2.83    0.48
  -3   3   3    3.31    0.34
  -3   3   3    3.13    0.49
  -3   3   3    3.48    0.49
   2  -3  -3  270.86   10.34
   2  -3  -3  285.51   10.54
   2  -3  -3  261.55   10.50
  -2   3   3  262.89   10.50
  -2   3   3  273.38   10.48
  -2   3   3  272.79   10.37
   1  -3  -3   17.42    0.93
   1  -3  -3   16.95    0.88
   1  -3  -3   16.94    0.90
   1  -3  -3   17.22    0.84
  -1   3   3   17.91    0.89
  -1   3   3   17.30    0.86
  -1   3   3   17.08    0.91
   0  -3  -3  668.14   25.39
   0  -3  -3  695.11   25.44
   0  -3  -3  644.64   25.39
   0   3   3  682.35   25.44
   0   3   3  676.77   25.39
   0   3   3  639.16   25.39
   0   3   3  690.80   25.39
  -1  -3  -3    2.58    0.36
  -1  -3  -3    2.47    0.34
  -1  -3  -3    2.59    0.29
  -1  -3  -3    1.66    0.27
   1   3   3    2.09    0.30
   1   3   3    2.22    0.34
   1   3   3    2.34    0.30
  -2  -3  -3  273.24   10.82
  -2  -3  -3  264.60   10.89
  -2  -3  -3  265.09   10.85
  -2  -3  -3  284.72   10.87
   2   3   3  290.99   10.91
   2   3   3  301.24   10.85
   2   3   3  285.97   10.83
  -3  -3  -3   11.81    0.79
  -3  -3  -3   12.57    0.86
  -3  -3  -3   11.97    0.88
  -3  -3  -3   12.16    0.82
   3   3   3   12.63    0.83
   3   3   3   13.40    0.83
   3   3   3   12.13    0.83
  -4  -3  -3    0.88    0.34
  -4  -3  -3    0.75    0.32
  -4  -3  -3    1.12    0.40
  -4  -3  -3    0.89    0.32
   4   3   3    1.01    0.35
   4   3   3    1.64    0.42
   4   3   3    1.58    0.46
  -5  -3  -3   36.40    1.84
  -5  -3  -3   34.92    1.96
  -5  -3  -3   36.22    1.96
  -5  -3  -3   36.00    1.90
   5   3   3   36.43    1.96
   5   3   3   33.86    1.89
   5   3   3   34.46    1.89
  -6  -3  -3   73.75    3.38
  -6  -3  -3   67.71    3.06
  -6  -3  -3   70.16    3.20
   6   3   3   67.41    3.42
   6   3   3   65.65    3.28
  -7  -3  -3   28.64    2.02
  -7  -3  -3   28.24    1.66
   7   3   3   30.89    2.00
  -8  -3  -3   27.52    1.77
  -8  -3  -3   25.72    2.23
   8   3   3   25.74    2.15
   7  -4  -3   20.71    2.01
  -7   4   3   21.83    2.13
   6  -4  -3   13.94    1.15
   6  -4  -3   12.69    1.46
  -6   4   3   12.94    1.47
  -6   4   3   13.13    0.99
   5  -4  -3   16.63    1.28
   5  -4  -3   15.31    1.03
   5  -4  -3    8.74    1.98
  -5   4   3   14.62    0.96
  -5   4   3   16.49    1.27
   4  -4  -3    2.36    0.62
   4  -4  -3    2.39    0.49
   4  -4  -3    3.00    0.76
  -4   4   3    1.93    0.49
  -4   4   3    2.31    0.68
  -4   4   3    2.37    0.45
   3  -4  -3    0.75    0.33
   3  -4  -3    1.06    0.41
   3  -4  -3    0.70    0.23
  -3   4   3    1.13    0.36
  -3   4   3    1.44    0.34
  -3   4   3    0.66    0.34
   2  -4  -3    0.47    0.30
   2  -4  -3    0.40    0.19
   2  -4  -3    0.14    0.22
   2  -4  -3    0.58    0.20
  -2   4   3    0.25    0.19
  -2   4   3    0.45    0.25
  -2   4   3    0.27    0.23
   1  -4  -3  122.23    5.02
   1  -4  -3  117.34    5.06
   1  -4  -3  129.04    5.12
   1  -4  -3  130.23    5.02
  -1   4   3  126.61    5.04
  -1   4   3  137.90    5.09
  -1   4   3  123.76    5.10
   0  -4  -3   14.06    0.79
   0  -4  -3   15.34    0.84
   0  -4  -3   13.81    0.82
   0  -4  -3   13.64    0.86
   0   4   3   16.01    0.84
   0   4   3   13.69    0.84
   0   4   3   13.82    0.84
   0   4   3   15.06    0.81
  -1  -4  -3  341.97   13.04
  -1  -4  -3  349.40   13.07
  -1  -4  -3  337.86   13.01
  -1  -4  -3  343.95   12.98
   1   4   3  331.04   13.05
   1   4   3  316.92   13.02
   1   4   3  351.02   12.98
   1   4   3  333.94   13.00
  -2  -4  -3   13.23    0.85
  -2  -4  -3   12.65    0.80
  -2  -4  -3   12.64    0.87
  -2  -4  -3   13.62    0.92
   2   4   3   13.37    0.83
   2   4   3   13.79    0.90
   2   4   3   14.41    0.84
  -3  -4  -3   17.85    1.21
  -3  -4  -3   26.66    1.28
  -3  -4  -3   23.63    1.34
  -3  -4  -3   25.77    1.33
   3   4   3   18.28    1.18
  -4  -4  -3    2.66    0.59
  -4  -4  -3    3.48    0.61
  -4  -4  -3    2.19    0.48
  -4  -4  -3    3.04    0.69
   4   4   3    2.66    0.58
   4   4   3    3.02    0.59
   4   4   3    2.17    0.58
  -5  -4  -3    1.39    0.45
  -5  -4  -3    0.79    0.43
  -5  -4  -3    2.20    0.53
  -5  -4  -3    0.56    0.53
   5   4   3    0.64    0.47
   5   4   3    0.47    0.45
   5   4   3    0.00    0.50
  -6  -4  -3    0.19    0.50
  -6  -4  -3    0.18    0.43
  -6  -4  -3    0.30    0.55
   6   4   3   -0.26    0.50
  -7  -4  -3   30.82    2.09
  -7  -4  -3   33.29    2.20
  -7  -4  -3   34.08    1.89
   7   4   3   28.13    2.12
  -8  -4  -3    0.96    0.76
  -8  -4  -3    2.25    1.08
   8   4   3    0.67    1.00
   6  -5  -3  176.68    6.96
   6  -5  -3  169.23    7.40
  -6   5   3  176.63    7.42
  -6   5   3  170.35    6.94
   5  -5  -3   30.01    1.88
   5  -5  -3   30.14    1.59
  -5   5   3   27.59    1.93
  -5   5   3   30.42    1.90
  -5   5   3   32.51    1.61
   4  -5  -3  295.75   11.57
   4  -5  -3  299.47   11.28
  -4   5   3  281.65   11.53
  -4   5   3  287.70   11.29
   3  -5  -3   47.51    2.36
   3  -5  -3   47.87    2.12
   3  -5  -3   47.97    2.19
   3  -5  -3   52.67    2.36
  -3   5   3   45.67    2.31
  -3   5   3   45.63    2.27
  -3   5   3   47.98    2.16
   2  -5  -3  106.85    4.19
   2  -5  -3  101.17    4.35
   2  -5  -3   99.14    4.31
   2  -5  -3  104.20    4.21
  -2   5   3  101.72    4.22
  -2   5   3  100.61    4.29
  -2   5   3  108.43    4.35
   1  -5  -3    1.38    0.33
   1  -5  -3    1.27    0.32
   1  -5  -3    1.60    0.45
   1  -5  -3    1.32    0.37
  -1   5   3    1.26    0.31
  -1   5   3    0.88    0.31
  -1   5   3    0.99    0.32
   0  -5  -3   19.12    1.09
   0  -5  -3   19.61    1.11
   0  -5  -3   21.02    1.05
   0   5   3   19.31    1.11
   0   5   3   20.34    1.13
   0   5   3   19.74    1.05
   0   5   3   21.36    1.16
  -1  -5  -3   11.62    0.82
  -1  -5  -3   10.82    0.76
  -1  -5  -3   10.36    0.70
  -1  -5  -3   10.63    0.83
   1   5   3   11.08    0.81
   1   5   3   11.09    0.78
   1   5   3   10.86    0.73
   1   5   3   10.40    0.78
  -2  -5  -3    1.61    0.39
  -2  -5  -3    1.09    0.41
  -2  -5  -3    0.77    0.29
  -2  -5  -3    0.37    0.36
   2   5   3    0.42    0.29
   2   5   3    0.23    0.24
   2   5   3   -0.04    0.22
   2   5   3    0.62    0.30
  -3  -5  -3   30.59    1.73
  -3  -5  -3   31.31    1.69
  -3  -5  -3   33.94    1.72
  -3  -5  -3   29.27    1.61
   3   5   3   30.88    1.64
   3   5   3   31.74    1.74
   3   5   3   33.73    1.72
  -4  -5  -3  123.11    4.98
  -4  -5  -3  108.55    4.90
  -4  -5  -3  120.36    5.05
  -4  -5  -3  108.69    5.00
   4   5   3  121.27    5.03
   4   5   3  122.41    5.04
   4   5   3  113.52    4.93
  -5  -5  -3    6.61    1.00
  -5  -5  -3    7.02    1.04
  -5  -5  -3    5.93    0.91
  -5  -5  -3    6.74    0.90
   5   5   3    5.40    0.87
   5   5   3    7.45    1.01
  -6  -5  -3    5.11    1.25
  -6  -5  -3    5.83    0.88
  -6  -5  -3    5.62    1.04
   6   5   3    7.23    1.36
   6   5   3    5.84    1.10
  -7  -5  -3    0.60    0.58
  -7  -5  -3   -0.05    0.79
  -7  -5  -3    0.71    0.80
   7   5   3   -0.24    0.76
  -8  -5  -3   13.03    2.01
  -8  -5  -3   15.42    1.63
   8   5   3   12.20    2.00
   6  -6  -3   11.09    1.39
   6  -6  -3   12.32    1.61
  -6   6   3   10.88    1.21
  -6   6   3    7.32    1.67
   5  -6  -3   15.32    1.11
   5  -6  -3   14.44    1.21
   5  -6  -3   13.49    1.47
  -5   6   3   15.83    1.17
  -5   6   3   11.81    1.42
   4  -6  -3    1.94    0.60
   4  -6  -3    2.59    0.66
   4  -6  -3    2.91    0.67
  -4   6   3    2.86    0.78
  -4   6   3    3.06    0.70
  -4   6   3    3.11    0.87
   3  -6  -3    0.98    0.36
   3  -6  -3    0.25    0.31
   3  -6  -3    0.65    0.39
  -3   6   3    0.54    0.35
  -3   6   3    0.45    0.40
  -3   6   3    0.18    0.45
   2  -6  -3   24.77    1.46
   2  -6  -3   23.64    1.51
   2  -6  -3   25.35    1.33
   2  -6  -3   26.70    1.40
  -2   6   3   28.34    1.52
  -2   6   3   28.16    1.51
  -2   6   3   25.54    1.40
   1  -6  -3    0.48    0.35
   1  -6  -3    0.33    0.28
   1  -6  -3    0.17    0.33
   1  -6  -3    0.62    0.27
  -1   6   3    0.41    0.31
  -1   6   3    0.16    0.28
  -1   6   3    0.58    0.31
   0  -6  -3   15.09    0.99
   0  -6  -3   13.51    0.95
   0  -6  -3   14.43    1.01
   0  -6  -3   13.77    0.87
   0   6   3   15.04    0.99
   0   6   3   15.87    1.00
   0   6   3   14.65    0.91
   0   6   3   14.47    1.00
  -1  -6  -3  108.51    4.49
  -1  -6  -3  116.18    4.62
  -1  -6  -3  111.19    4.64
  -1  -6  -3  103.46    4.56
   1   6   3  107.08    4.59
   1   6   3  110.00    4.58
   1   6   3  111.09    4.64
  -2  -6  -3   15.56    1.13
  -2  -6  -3   15.41    1.13
  -2  -6  -3   14.86    1.06
  -2  -6  -3   15.21    0.98
   2   6   3   15.86    1.09
   2   6   3   15.74    1.11
   2   6   3   14.26    1.03
   2   6   3   15.97    1.01
  -3  -6  -3  367.76   14.02
  -3  -6  -3  348.40   13.85
  -3  -6  -3  332.96   13.90
  -3  -6  -3  364.67   13.93
   3   6   3  333.44   13.97
   3   6   3  371.92   13.97
   3   6   3  371.69   13.88
  -4  -6  -3    1.23    0.63
  -4  -6  -3    1.62    0.52
  -4  -6  -3    2.00    0.59
  -4  -6  -3    1.51    0.54
   4   6   3    1.35    0.56
   4   6   3    3.15    0.77
  -5  -6  -3  255.62   10.50
  -5  -6  -3  256.81   10.42
   5   6   3  268.93   10.54
   5   6   3  253.83   10.43
  -6  -6  -3    1.65    0.59
  -6  -6  -3    1.43    0.80
  -6  -6  -3    1.43    0.72
   6   6   3    1.66    0.76
  -7  -6  -3   73.40    3.80
  -7  -6  -3   75.04    3.57
   7   6   3   73.17    3.86
   5  -7  -3    0.94    0.61
   5  -7  -3    0.66    0.82
   5  -7  -3    0.42    0.58
  -5   7   3    1.97    0.70
  -5   7   3    1.11    0.92
   4  -7  -3   83.13    4.04
   4  -7  -3   95.14    4.10
   4  -7  -3   99.66    4.37
  -4   7   3   93.80    4.14
  -4   7   3  104.29    4.43
   3  -7  -3    2.99    0.75
   3  -7  -3    2.68    0.62
   3  -7  -3    3.36    0.79
  -3   7   3    3.02    0.86
  -3   7   3    4.71    0.77
  -3   7   3    2.72    0.74
   2  -7  -3  470.25   18.29
   2  -7  -3  493.18   18.43
   2  -7  -3  457.97   18.20
  -2   7   3  462.82   18.33
  -2   7   3  479.47   18.43
  -2   7   3  487.52   18.48
   1  -7  -3   25.71    1.50
   1  -7  -3   24.01    1.61
   1  -7  -3   28.34    1.53
   1  -7  -3   26.19    1.36
  -1   7   3   26.52    1.50
  -1   7   3   24.34    1.51
   0  -7  -3  397.38   15.52
   0  -7  -3  418.90   15.68
   0  -7  -3  387.58   15.65
   0  -7  -3  394.60   15.72
   0   7   3  411.97   15.70
   0   7   3  409.42   15.53
   0   7   3  396.49   15.72
   0   7   3  412.69   15.70
  -1  -7  -3    3.92    0.61
  -1  -7  -3    4.24    0.82
  -1  -7  -3    4.95    0.77
  -1  -7  -3    3.95    0.56
   1   7   3    4.64    0.73
   1   7   3    3.58    0.63
   1   7   3    4.31    0.77
   1   7   3    4.89    0.70
  -2  -7  -3  367.91   14.45
  -2  -7  -3  350.21   14.54
  -2  -7  -3  373.86   14.56
  -2  -7  -3  399.58   14.67
   2   7   3  383.02   14.59
   2   7   3  364.35   14.56
   2   7   3  383.56   14.46
   2   7   3  354.86   14.59
  -3  -7  -3    3.63    0.70
  -3  -7  -3    5.06    0.94
  -3  -7  -3    4.01    0.78
   3   7   3    3.01    0.82
   3   7   3    5.13    0.84
   3   7   3    5.93    0.94
  -4  -7  -3  120.19    5.29
  -4  -7  -3  119.37    5.38
   4   7   3  132.19    5.48
   4   7   3  123.09    5.34
  -5  -7  -3   39.75    2.26
  -5  -7  -3   34.05    2.20
  -5  -7  -3   28.85    2.25
  -5  -7  -3   34.55    2.10
   5   7   3   34.82    2.19
   5   7   3   34.65    2.20
  -6  -7  -3    0.51    0.77
  -6  -7  -3   -0.29    0.64
   6   7   3    0.13    0.75
  -7  -7  -3   40.60    2.48
  -7  -7  -3   38.76    2.70
   7   7   3   39.36    2.78
   5  -8  -3  150.08    6.11
   5  -8  -3  139.28    6.43
  -5   8   3  139.14    6.47
  -5   8   3  151.94    6.23
   4  -8  -3   15.63    1.52
   4  -8  -3   16.80    1.28
   4  -8  -3   14.07    1.49
  -4   8   3   16.47    1.60
  -4   8   3   14.57    1.41
   3  -8  -3  124.64    5.23
   3  -8  -3  115.63    4.92
   3  -8  -3  121.83    5.08
  -3   8   3  120.38    5.12
  -3   8   3  111.02    5.21
   2  -8  -3    1.22    0.56
   2  -8  -3    0.56    0.38
   2  -8  -3   -0.20    0.70
   2  -8  -3    0.83    0.55
  -2   8   3    0.92    0.51
  -2   8   3    0.72    0.56
  -2   8   3    0.93    0.62
   1  -8  -3   68.13    3.22
   1  -8  -3   70.44    3.05
   1  -8  -3   71.62    3.25
  -1   8   3   67.42    3.26
   0  -8  -3   19.99    1.54
   0  -8  -3   20.17    1.45
   0  -8  -3   17.79    1.28
   0  -8  -3   20.58    1.19
   0   8   3   20.52    1.23
   0   8   3   15.74    1.27
   0   8   3   19.11    1.38
  -1  -8  -3   26.92    1.77
  -1  -8  -3   31.24    1.60
  -1  -8  -3   28.07    1.69
  -1  -8  -3   29.29    1.82
   1   8   3   28.55    1.60
   1   8   3   28.68    1.79
   1   8   3   28.38    1.72
  -2  -8  -3   38.15    2.05
  -2  -8  -3   34.60    1.88
   2   8   3   35.99    2.03
   2   8   3   34.37    1.93
   2   8   3   35.06    2.06
  -3  -8  -3    3.22    0.76
  -3  -8  -3    3.03    0.81
   3   8   3    1.83    0.51
   3   8   3    1.20    0.59
   3   8   3    1.62    0.63
  -4  -8  -3   32.77    2.16
  -4  -8  -3   36.24    2.05
  -4  -8  -3   32.43    2.11
  -4  -8  -3   35.46    2.29
   4   8   3   36.05    2.22
   4   8   3   34.76    2.22
  -5  -8  -3   29.42    2.10
  -5  -8  -3   29.30    2.03
   5   8   3   32.18    2.21
  -6  -8  -3   23.72    2.03
  -6  -8  -3   24.67    1.91
   6   8   3   25.04    2.12
  -7  -8  -3  112.64    5.24
   4  -9  -3   28.08    2.12
   4  -9  -3   27.28    1.76
  -4   9   3   26.66    2.07
  -4   9   3   29.57    2.28
   3  -9  -3    9.97    1.41
   3  -9  -3    8.87    1.03
   3  -9  -3   11.37    1.44
  -3   9   3   10.20    1.34
  -3   9   3   12.40    1.50
   2  -9  -3    3.79    0.79
   2  -9  -3    3.03    0.79
   2  -9  -3    2.96    0.83
  -2   9   3    4.86    1.04
  -2   9   3    4.96    1.07
   1  -9  -3   11.34    1.43
   1  -9  -3   16.27    1.11
   1  -9  -3   15.79    1.30
   1  -9  -3   14.18    1.47
  -1   9   3   12.20    1.27
  -1   9   3   16.37    1.44
   0  -9  -3   67.34    3.16
   0  -9  -3   64.46    2.93
   0  -9  -3   65.70    3.25
   0  -9  -3   60.92    3.24
   0   9   3   65.27    2.97
   0   9   3   67.10    3.23
   0   9   3   59.61    3.13
  -1  -9  -3   -0.52    0.47
  -1  -9  -3    0.52    0.73
  -1  -9  -3   -0.06    0.71
  -1  -9  -3    0.28    0.46
   1   9   3    0.26    0.57
   1   9   3    0.01    0.73
   1   9   3    0.13    0.54
   1   9   3    0.36    0.53
  -2  -9  -3  111.04    5.29
  -2  -9  -3  125.61    5.51
  -2  -9  -3  135.83    5.68
  -2  -9  -3  113.50    6.13
   2   9   3  133.60    5.42
   2   9   3  129.38    5.54
   2   9   3  132.65    5.62
  -3  -9  -3    7.86    1.09
  -3  -9  -3    6.59    1.00
  -3  -9  -3    2.18    0.95
   3   9   3    5.11    1.04
   3   9   3    4.72    1.00
   3   9   3    5.21    1.30
  -4  -9  -3  165.79    7.24
  -4  -9  -3  165.14    7.11
   4   9   3  173.76    7.34
  -5  -9  -3    0.91    0.84
  -5  -9  -3   -0.02    0.98
   5   9   3    0.07    0.92
  -6  -9  -3  165.14    7.17
  -6  -9  -3  163.80    7.03
   6   9   3  152.36    7.18
   3 -10  -3   17.30    1.84
   3 -10  -3   19.13    1.49
  -3  10   3   19.27    1.98
  -3  10   3   21.61    1.90
   2 -10  -3   15.97    1.36
   2 -10  -3   20.68    1.80
  -2  10   3   21.92    1.80
  -2  10   3   20.25    1.83
   1 -10  -3   62.05    3.14
   1 -10  -3   58.66    2.84
  -1  10   3   61.03    3.18
  -1  10   3   61.89    3.29
   0 -10  -3   16.19    1.30
   0 -10  -3   17.57    1.54
   0  10   3   15.81    1.56
   0  10   3   15.35    1.54
  -1 -10  -3   47.02    2.65
  -1 -10  -3   48.43    2.46
   1  10   3   46.25    2.67
   1  10   3   49.09    2.73
   1  10   3   46.10    2.53
  -2 -10  -3    0.33    0.69
  -2 -10  -3    1.30    0.62
   2  10   3    1.31    0.85
   2  10   3    1.30    0.77
   2  10   3    1.29    0.88
   3  10   3    2.87    1.04
   3  10   3    3.70    0.88
   3  10   3    2.04    1.02
  -4 -10  -3   10.92    1.58
  -4 -10  -3   11.11    1.65
   4  10   3    8.38    1.66
  -5 -10  -3   49.64    3.02
  -5 -10  -3   50.06    3.12
   2 -11  -3   92.63    4.65
   2 -11  -3   99.31    4.27
  -2  11   3   97.94    4.74
   1 -11  -3   17.89    1.48
   1 -11  -3   13.66    1.76
  -1  11   3   14.90    1.83
  -1  11   3   13.30    1.83
   0 -11  -3  156.55    6.32
   0 -11  -3  151.04    6.58
   0  11   3  144.04    6.71
   0  11   3  148.90    6.65
  -1 -11  -3   22.32    1.63
  -1 -11  -3   17.13    1.90
   1  11   3   19.31    1.85
   1  11   3   20.04    1.94
   1  11   3   21.00    2.01
  -2 -11  -3   31.16    2.32
  -2 -11  -3   31.83    2.12
   2  11   3   34.66    2.39
   2  11   3   31.58    2.43
  -3 -11  -3   14.48    1.91
  -3 -11  -3   17.13    1.80
   3  11   3   15.06    2.07
   3  11   3   16.46    1.84
   1  11  -4  180.45    7.76
   1  11  -4  175.22    7.71
  -1 -11   4  182.48    7.68
   0  11  -4   29.37    2.34
   0  11  -4   31.27    2.36
   0 -11   4   33.80    2.30
  -1  11  -4  186.45    7.89
  -1  11  -4  168.53    7.88
   1 -11   4  199.19    7.75
   3  10  -4    2.24    1.14
   3  10  -4    1.10    0.96
  -3 -10   4    1.24    1.15
   2  10  -4   21.50    1.95
   2  10  -4   18.74    1.85
  -2 -10   4   20.80    1.82
   1  10  -4    0.77    0.73
   1  10  -4    0.16    0.78
  -1 -10   4    1.51    0.82
   0  10  -4    0.82    0.70
   0  10  -4    0.62    0.75
   0 -10   4    1.01    0.69
   0 -10   4    0.72    0.45
  -1  10  -4    0.28    0.72
  -1  10  -4    1.00    0.69
   1 -10   4    0.27    0.64
   1 -10   4   -0.27    0.49
  -2  10  -4    1.93    0.82
  -2  10  -4    0.92    0.74
   2 -10   4    1.39    0.59
   2 -10   4    1.65    0.64
  -3  10  -4    1.47    0.86
  -3  10  -4    2.48    0.94
   3 -10   4    3.16    0.67
   3 -10   4    2.77    0.74
  -4  10  -4    3.32    1.06
   4   9  -4    2.00    0.94
  -4  -9   4    1.07    1.08
   3   9  -4    9.86    1.65
   3   9  -4    7.93    1.51
   3   9  -4    7.49    1.35
  -3  -9   4    5.93    1.48
   2   9  -4    0.57    0.70
   2   9  -4    0.11    0.61
   2   9  -4   -0.41    0.73
   2   9  -4   -0.99    0.94
  -2  -9   4    0.20    0.37
  -2  -9   4   -0.54    0.32
  -2  -9   4   -0.35    0.67
  -2  -9   4    0.41    0.69
   1   9  -4   23.08    1.62
   1   9  -4   22.68    1.94
   1   9  -4   22.74    1.39
   1   9  -4   25.29    1.71
  -1  -9   4   24.39    1.69
  -1  -9   4   22.57    1.15
  -1  -9   4   23.80    1.17
   0   9  -4   18.64    1.47
   0   9  -4   19.16    1.78
   0   9  -4   20.22    0.96
   0   9  -4   19.13    1.47
   0  -9   4   18.82    1.06
   0  -9   4   20.13    1.45
   0  -9   4   20.32    1.09
  -1   9  -4   89.09    4.36
  -1   9  -4   99.28    4.32
  -1   9  -4   92.22    4.20
   1  -9   4   93.36    3.87
   1  -9   4   98.15    3.92
   1  -9   4   97.66    4.16
  -2   9  -4   58.37    3.11
  -2   9  -4   60.38    2.93
  -2   9  -4   59.67    3.01
   2  -9   4   61.99    2.76
   2  -9   4   59.33    2.66
   2  -9   4   58.52    2.66
  -3   9  -4  282.93   11.86
  -3   9  -4  299.28   11.97
   3  -9   4  294.23   11.59
   3  -9   4  300.34   11.53
   3  -9   4  309.81   11.64
  -4   9  -4   63.47    3.24
  -4   9  -4   62.07    3.16
   4  -9   4   62.30    2.88
   4  -9   4   56.68    3.02
  -5   9  -4  162.41    6.85
   5  -9   4  149.61    6.46
   5   8  -4    0.72    1.04
  -5  -8   4    0.64    1.00
   4   8  -4  117.10    5.07
   4   8  -4  106.93    5.19
  -4  -8   4  118.20    5.13
  -4  -8   4  118.22    4.67
  -4  -8   4  117.69    5.32
   3   8  -4    6.76    1.09
   3   8  -4    6.92    1.56
   3   8  -4    7.42    1.26
   3   8  -4    5.88    1.34
  -3  -8   4    6.36    1.24
  -3  -8   4    7.42    0.69
  -3  -8   4    6.44    0.73
   2   8  -4  331.46   13.75
   2   8  -4  344.59   13.65
   2   8  -4  353.34   13.75
   2   8  -4  359.38   13.56
  -2  -8   4  344.59   13.22
  -2  -8   4  346.27   13.73
  -2  -8   4  351.17   13.23
   1   8  -4   21.60    1.41
   1   8  -4   20.86    1.26
   1   8  -4   21.87    1.61
   1   8  -4   20.73    1.43
  -1  -8   4   20.65    1.02
  -1  -8   4   21.18    1.01
  -1  -8   4   20.94    1.45
   0   8  -4  161.62    6.86
   0   8  -4  174.92    6.94
   0   8  -4  169.18    6.96
   0   8  -4  167.69    6.50
   0  -8   4  165.70    6.88
   0  -8   4  172.73    6.55
   0  -8   4  167.94    6.52
  -1   8  -4   13.69    1.19
  -1   8  -4   15.94    1.16
  -1   8  -4   17.20    1.32
   1  -8   4   14.96    0.93
   1  -8   4   16.84    1.13
   1  -8   4   16.62    0.92
  -2   8  -4   13.15    1.10
  -2   8  -4   15.05    1.30
  -2   8  -4   14.52    1.20
   2  -8   4   13.40    0.94
   2  -8   4   16.03    1.02
   2  -8   4   13.98    0.95
  -3   8  -4    3.23    0.77
  -3   8  -4    2.69    0.69
  -3   8  -4    3.09    0.81
   3  -8   4    3.18    0.58
   3  -8   4    3.34    0.64
   3  -8   4    2.41    0.51
  -4   8  -4    1.41    0.62
  -4   8  -4    1.82    0.71
   4  -8   4    1.08    0.64
   4  -8   4    1.21    0.50
   4  -8   4    1.49    0.28
  -5   8  -4    0.59    0.77
  -5   8  -4    1.87    0.82
   5  -8   4    1.93    0.71
   5  -8   4    1.24    0.85
  -6   8  -4    5.11    1.23
  -6   8  -4    4.95    1.24
   6  -8   4    6.75    1.40
   5   7  -4    0.51    0.87
  -5  -7   4    1.83    0.57
  -5  -7   4    1.86    0.75
  -5  -7   4    0.47    0.86
   4   7  -4    0.08    0.54
   4   7  -4   -1.06    0.78
   4   7  -4   -0.35    0.95
   4   7  -4    0.47    0.67
  -4  -7   4   -0.16    0.45
  -4  -7   4   -0.07    0.39
  -4  -7   4    0.07    0.67
  -4  -7   4   -0.63    0.56
   3   7  -4   35.73    2.07
   3   7  -4   37.87    2.00
   3   7  -4   35.24    2.10
   3   7  -4   35.77    2.23
  -3  -7   4   38.72    2.17
  -3  -7   4   36.24    1.66
  -3  -7   4   35.66    1.63
  -3  -7   4   37.14    1.98
   2   7  -4    3.48    0.74
   2   7  -4    2.18    0.52
   2   7  -4    3.38    0.76
   2   7  -4    3.17    0.76
  -2  -7   4    4.11    0.81
  -2  -7   4    3.05    0.40
  -2  -7   4    3.11    0.41
  -2  -7   4    3.02    0.60
   1   7  -4   51.76    2.38
   1   7  -4   53.69    2.60
   1   7  -4   52.94    2.52
   1   7  -4   54.13    2.53
  -1  -7   4   52.57    2.14
  -1  -7   4   51.47    2.54
  -1  -7   4   54.70    2.53
  -1  -7   4   55.81    2.16
   0   7  -4    6.31    0.73
   0   7  -4    6.09    0.50
   0   7  -4    5.67    0.67
   0   7  -4    6.65    0.80
   0  -7   4    5.65    0.45
   0  -7   4    5.53    0.72
   0  -7   4    6.14    0.42
   0  -7   4    5.19    0.77
  -1   7  -4   45.07    2.29
  -1   7  -4   49.04    2.24
  -1   7  -4   47.15    2.29
   1  -7   4   47.96    2.21
   1  -7   4   47.29    2.02
   1  -7   4   46.92    1.99
   1  -7   4   50.21    2.36
  -2   7  -4    1.40    0.48
  -2   7  -4    1.28    0.39
  -2   7  -4    1.53    0.48
   2  -7   4    0.85    0.33
   2  -7   4    1.42    0.33
   2  -7   4    1.42    0.34
  -3   7  -4    1.16    0.53
  -3   7  -4    1.84    0.51
  -3   7  -4    1.13    0.45
   3  -7   4    1.57    0.41
  -4   7  -4   11.87    1.08
  -4   7  -4   10.97    1.09
  -4   7  -4   11.98    1.27
   4  -7   4   10.21    1.01
   4  -7   4   11.52    0.95
  -5   7  -4   42.32    2.35
  -5   7  -4   42.81    2.36
   5  -7   4   40.43    2.25
   5  -7   4   41.59    2.14
  -6   7  -4   26.25    1.98
  -6   7  -4   25.74    1.98
   6  -7   4   25.83    1.77
   6   6  -4   98.47    4.78
  -6  -6   4  104.62    4.70
  -6  -6   4   85.70    4.51
   5   6  -4    1.23    0.76
  -5  -6   4    1.26    0.86
  -5  -6   4    0.33    0.56
  -5  -6   4    2.09    0.64
  -5  -6   4    1.42    0.51
   4   6  -4  139.32    6.13
   4   6  -4  146.12    6.19
   4   6  -4  140.94    6.12
  -4  -6   4  145.34    6.15
  -4  -6   4  144.88    5.72
  -4  -6   4  146.51    5.87
  -4  -6   4  143.67    5.73
   3   6  -4    3.21    0.68
   3   6  -4    3.29    0.70
   3   6  -4    2.62    0.66
   3   6  -4    3.57    0.97
  -3  -6   4    2.79    0.45
  -3  -6   4    1.85    0.60
  -3  -6   4    2.70    0.66
  -3  -6   4    2.95    0.47
   2   6  -4   79.05    3.55
   2   6  -4   82.22    3.45
   2   6  -4   79.76    3.45
   2   6  -4   77.19    3.51
  -2  -6   4   77.99    3.55
  -2  -6   4   78.40    3.41
  -2  -6   4   79.25    3.12
  -2  -6   4   81.56    3.13
   1   6  -4    0.69    0.32
   1   6  -4    0.21    0.29
   1   6  -4    0.88    0.40
   1   6  -4    0.52    0.32
  -1  -6   4    0.79    0.34
  -1  -6   4    1.03    0.37
   0   6  -4   83.59    3.64
   0   6  -4   82.65    3.56
   0   6  -4   89.61    3.44
   0   6  -4   91.26    3.66
   0  -6   4   82.68    3.62
   0  -6   4   84.18    3.65
  -1   6  -4    3.85    0.50
  -1   6  -4    3.26    0.56
  -1   6  -4    4.05    0.58
   1  -6   4    2.62    0.60
   1  -6   4    3.08    0.31
   1  -6   4    3.83    0.35
   1  -6   4    3.75    0.50
  -2   6  -4  113.68    4.78
  -2   6  -4  115.14    4.85
  -2   6  -4  111.16    4.74
   2  -6   4  115.52    4.60
   2  -6   4  123.35    4.60
   2  -6   4  116.64    4.65
   2  -6   4  119.09    4.87
  -3   6  -4   16.32    1.09
  -3   6  -4   14.51    1.06
  -3   6  -4   15.33    1.02
   3  -6   4   14.49    0.88
   3  -6   4   15.06    0.93
   3  -6   4   14.67    0.77
  -4   6  -4   68.94    3.06
  -4   6  -4   69.13    3.06
  -4   6  -4   66.20    3.07
   4  -6   4   65.80    2.88
   4  -6   4   62.00    2.92
  -5   6  -4    1.57    0.50
  -5   6  -4    1.10    0.53
  -5   6  -4    0.79    0.68
   5  -6   4    1.34    0.56
   5  -6   4    1.21    0.46
  -6   6  -4   -0.36    0.65
  -6   6  -4    1.53    0.71
   6  -6   4    0.13    0.57
   6  -6   4    0.75    0.34
   6  -6   4    0.55    0.89
  -7   6  -4    2.82    1.03
  -7   6  -4    1.57    0.90
   7  -6   4    2.79    0.86
   6   5  -4    1.76    0.98
  -6  -5   4    2.76    0.93
  -6  -5   4    0.74    0.68
   5   5  -4    6.99    1.13
   5   5  -4    5.69    1.44
  -5  -5   4    5.12    0.92
  -5  -5   4    6.33    0.82
  -5  -5   4    6.94    1.15
  -5  -5   4    5.20    0.79
   4   5  -4    1.49    0.57
   4   5  -4    2.29    0.74
   4   5  -4    0.78    0.62
  -4  -5   4    1.17    0.57
  -4  -5   4    2.13    0.60
  -4  -5   4    1.57    0.41
  -4  -5   4    2.16    0.54
   3   5  -4   17.53    1.26
   3   5  -4   17.93    1.07
   3   5  -4   17.92    1.26
  -3  -5   4   13.49    1.15
  -3  -5   4   17.91    0.92
  -3  -5   4   17.53    0.90
  -3  -5   4   18.36    1.05
   2   5  -4    1.16    0.43
   2   5  -4    1.59    0.36
   2   5  -4    1.86    0.45
   2   5  -4    1.76    0.51
  -2  -5   4    1.34    0.23
  -2  -5   4    1.56    0.23
  -2  -5   4    1.41    0.33
  -2  -5   4    1.86    0.44
   1   5  -4   26.63    1.37
   1   5  -4   28.36    1.46
   1   5  -4   28.86    1.39
   1   5  -4   27.31    1.38
  -1  -5   4   26.17    1.37
  -1  -5   4   30.55    1.50
   0   5  -4   19.19    0.91
   0   5  -4   16.89    0.99
   0   5  -4   18.07    1.01
   0   5  -4   17.96    0.95
   0  -5   4   16.76    1.02
   0  -5   4   18.69    1.03
  -1   5  -4   57.08    2.57
  -1   5  -4   53.83    2.49
  -1   5  -4   66.44    2.50
   1  -5   4   58.14    2.50
   1  -5   4   57.86    2.58
  -2   5  -4   29.56    1.50
  -2   5  -4   32.13    1.54
  -2   5  -4   33.98    1.61
   2  -5   4   31.51    1.42
   2  -5   4   33.82    1.65
   2  -5   4   32.21    1.38
   2  -5   4   31.03    1.37
  -3   5  -4  286.36   10.85
  -3   5  -4  287.91   10.86
  -3   5  -4  273.80   10.90
   3  -5   4  269.58   10.70
   3  -5   4  275.24   10.73
   3  -5   4  279.11   10.58
  -4   5  -4   64.86    2.77
  -4   5  -4   59.79    2.75
  -4   5  -4   59.06    2.77
   4  -5   4   57.94    2.60
   4  -5   4   59.85    2.67
  -5   5  -4  256.59   10.11
  -5   5  -4  255.55   10.11
  -5   5  -4  240.61   10.10
   5  -5   4  249.19   10.03
   5  -5   4  268.37    9.99
   5  -5   4  252.46    9.70
  -6   5  -4   15.36    1.32
  -6   5  -4   15.71    1.34
   6  -5   4   15.91    1.24
   6  -5   4   16.43    1.47
   6  -5   4   16.44    1.01
  -7   5  -4   72.87    3.54
  -7   5  -4   70.84    3.67
   7  -5   4   75.90    3.47
   7  -5   4   65.93    3.65
  -7  -4   4    4.62    1.18
   6   4  -4   77.28    3.80
  -6  -4   4   73.36    3.34
  -6  -4   4   70.88    3.42
  -6  -4   4   71.99    3.61
   5   4  -4    2.25    0.86
   5   4  -4    1.95    0.82
   5   4  -4    1.78    0.67
  -5  -4   4    3.36    0.74
  -5  -4   4    1.93    0.61
  -5  -4   4    1.94    0.42
  -5  -4   4    3.62    0.72
   4   4  -4  190.80    7.77
   4   4  -4  203.23    7.77
   4   4  -4  182.30    7.73
  -4  -4   4  188.40    7.46
  -4  -4   4  186.89    7.43
  -4  -4   4  187.97    7.39
  -4  -4   4  188.81    7.74
   3   4  -4    0.73    0.38
   3   4  -4    0.13    0.25
   3   4  -4    0.59    0.40
   3   4  -4    0.38    0.34
   3   4  -4    0.89    0.42
  -3  -4   4    0.15    0.21
  -3  -4   4    0.09    0.23
  -3  -4   4    0.55    0.31
  -3  -4   4    0.77    0.25
   2   4  -4  517.77   19.46
   2   4  -4  491.54   19.55
   2   4  -4  531.49   19.63
   2   4  -4  500.24   19.53
  -2  -4   4  503.00   19.42
  -2  -4   4  521.86   19.62
   1   4  -4   35.24    1.63
   1   4  -4   35.52    1.59
   1   4  -4   33.19    1.57
   1   4  -4   35.96    1.71
  -1  -4   4   34.60    1.58
  -1  -4   4   35.49    1.69
   0   4  -4  657.97   24.97
   0   4  -4  648.93   25.01
   0   4  -4  672.82   25.07
   0   4  -4  648.76   24.91
   0  -4   4  664.53   25.01
   0  -4   4  663.66   25.04
  -1   4  -4   19.64    1.03
  -1   4  -4   20.11    0.93
  -1   4  -4   19.80    0.79
  -1   4  -4   19.54    0.96
   1  -4   4   18.56    1.03
   1  -4   4   19.33    0.97
  -2   4  -4  255.36    9.67
  -2   4  -4  243.54    9.56
  -2   4  -4  248.42    9.57
   2  -4   4  253.76    9.43
   2  -4   4  249.19    9.48
   2  -4   4  238.92    9.41
  -3   4  -4   21.65    1.15
  -3   4  -4   20.85    1.19
  -3   4  -4   21.49    1.14
   3  -4   4   21.67    1.08
   3  -4   4   22.51    1.04
  -4   4  -4    1.91    0.52
  -4   4  -4    1.44    0.37
  -4   4  -4    2.11    0.47
   4  -4   4    2.44    0.42
   4  -4   4    2.36    0.26
   4  -4   4    2.11    0.51
  -5   4  -4    5.37    0.76
  -5   4  -4    5.15    0.77
  -5   4  -4    4.61    0.70
   5  -4   4    5.67    0.53
   5  -4   4    5.29    0.77
   5  -4   4    6.10    0.67
  -6   4  -4    4.50    0.95
  -6   4  -4    5.37    1.15
  -6   4  -4    3.58    0.69
   6  -4   4    4.90    0.81
   6  -4   4    4.43    0.73
   6  -4   4    6.45    1.05
  -7   4  -4    5.00    1.13
  -7   4  -4    6.85    1.24
   7  -4   4    5.01    1.47
   7  -4   4    5.50    1.07
   7  -4   4    5.75    1.06
  -8   4  -4   14.01    1.70
  -8   4  -4   10.76    1.82
   8  -4   4   10.71    1.65
   7   3  -4  219.41    9.62
  -7  -3   4  227.90    9.43
  -7  -3   4  231.92    9.21
   6   3  -4    0.15    0.75
  -6  -3   4   -0.05    0.67
  -6  -3   4    0.43    0.68
  -6  -3   4    0.98    0.35
  -6  -3   4    0.99    0.60
   5   3  -4  320.26   12.76
   5   3  -4  326.67   12.81
   5   3  -4  309.33   12.78
  -5  -3   4  322.11   12.25
  -5  -3   4  317.24   12.48
  -5  -3   4  326.41   12.73
  -5  -3   4  326.57   12.53
   4   3  -4    0.43    0.41
   4   3  -4    0.27    0.43
   4   3  -4    0.16    0.45
  -4  -3   4   -0.05    0.20
  -4  -3   4   -0.12    0.33
  -4  -3   4    0.01    0.36
  -4  -3   4    0.29    0.30
   3   3  -4   31.74    1.65
   3   3  -4   32.22    1.68
   3   3  -4   33.91    1.65
  -3  -3   4   30.09    1.38
  -3  -3   4   31.12    1.65
  -3  -3   4   31.14    1.45
  -3  -3   4   33.46    1.42
   2   3  -4    4.31    0.54
   2   3  -4    4.41    0.52
   2   3  -4    4.55    0.49
   2   3  -4    4.77    0.40
  -2  -3   4    4.49    0.37
  -2  -3   4    5.26    0.54
   1   3  -4    1.04    0.26
   1   3  -4    1.49    0.30
   1   3  -4    1.68    0.28
   1   3  -4    1.79    0.39
  -1  -3   4    1.72    0.27
  -1  -3   4    1.70    0.35
   0   3  -4    0.29    0.15
   0   3  -4    0.11    0.10
   0   3  -4    0.13    0.18
   0   3  -4    0.15    0.14
   0  -3   4    0.12    0.16
   0  -3   4    0.15    0.14
  -1   3  -4    6.36    0.47
  -1   3  -4    5.97    0.37
  -1   3  -4    6.50    0.33
  -1   3  -4    7.48    0.40
  -1   3  -4    5.96    0.47
   1  -3   4    6.02    0.42
  -2   3  -4   25.77    1.17
  -2   3  -4   25.83    1.15
  -2   3  -4   25.84    1.26
  -2   3  -4   25.79    1.17
  -2   3  -4   25.75    1.04
   2  -3   4   25.92    1.11
  -3   3  -4   10.81    0.76
  -3   3  -4   13.93    0.78
  -3   3  -4   13.21    0.75
   3  -3   4   11.94    0.71
   3  -3   4   11.62    0.56
   3  -3   4   12.21    0.66
  -4   3  -4   63.93    2.77
  -4   3  -4   61.01    2.76
  -4   3  -4   64.69    2.74
   4  -3   4   61.00    2.72
   4  -3   4   60.23    2.55
   4  -3   4   65.64    2.66
  -5   3  -4   90.87    3.77
  -5   3  -4   88.15    3.81
  -5   3  -4   82.90    3.72
   5  -3   4   83.62    3.55
   5  -3   4   83.40    3.74
   5  -3   4   91.04    3.67
  -6   3  -4   67.78    3.30
  -6   3  -4   70.20    3.36
  -6   3  -4   71.42    3.24
   6  -3   4   72.56    3.33
   6  -3   4   71.43    3.11
   6  -3   4   71.16    3.19
  -7   3  -4  229.07    9.31
  -7   3  -4  247.69    9.57
   7  -3   4  227.09    9.48
   7  -3   4  224.71    9.28
   7  -3   4  222.21    9.18
  -8   3  -4   69.21    3.53
  -8   3  -4   71.54    3.86
   8  -3   4   72.40    3.59
   8  -3   4   67.75    3.51
   7   2  -4    0.14    0.99
  -7  -2   4    1.42    1.17
  -7  -2   4    0.64    0.84
  -7  -2   4    0.85    0.88
   6   2  -4   46.36    2.70
  -6  -2   4   48.28    2.46
  -6  -2   4   50.96    2.60
  -6  -2   4   48.62    2.59
   5   2  -4    2.00    0.67
   5   2  -4    2.00    0.57
  -5  -2   4    2.02    0.50
  -5  -2   4    1.77    0.56
  -5  -2   4    1.47    0.29
  -5  -2   4    1.85    0.58
   4   2  -4    0.84    0.41
   4   2  -4    0.58    0.43
   4   2  -4    0.44    0.40
  -4  -2   4    1.11    0.23
  -4  -2   4    0.54    0.35
  -4  -2   4    2.00    0.47
  -4  -2   4    0.13    0.32
   3   2  -4    0.78    0.31
   3   2  -4    0.53    0.27
   3   2  -4    0.51    0.31
  -3  -2   4    0.19    0.20
  -3  -2   4    0.27    0.23
  -3  -2   4    0.59    0.29
  -3  -2   4    0.51    0.13
   2   2  -4   21.27    1.14
   2   2  -4   22.73    1.11
   2   2  -4   20.32    1.04
   2   2  -4   21.32    0.96
  -2  -2   4   20.96    0.92
  -2  -2   4   21.50    1.14
  -2  -2   4   21.58    0.88
   1   2  -4    5.40    0.35
   1   2  -4    5.37    0.46
   1   2  -4    5.88    0.40
   1   2  -4    5.06    0.34
  -1  -2   4    5.75    0.35
  -1  -2   4    4.69    0.44
   0   2  -4  482.19   17.99
   0   2  -4  462.35   17.91
   0  -2   4  475.37   17.98
  -1   2  -4   47.96    2.10
  -1   2  -4   52.51    2.10
  -1   2  -4   52.18    1.97
  -1   2  -4   50.81    1.97
  -1   2  -4   50.27    2.02
   1  -2   4   51.10    2.08
  -2   2  -4  940.39   35.52
  -3   2  -4   65.93    2.87
  -3   2  -4   66.03    2.79
  -3   2  -4   71.21    2.66
  -3   2  -4   70.30    2.91
  -3   2  -4   72.15    2.84
   3  -2   4   66.19    2.81
   3  -2   4   69.17    2.75
   3  -2   4   70.37    2.76
  -4   2  -4  450.47   17.30
  -4   2  -4  439.53   17.26
  -4   2  -4  468.91   17.34
   4  -2   4  462.06   17.16
   4  -2   4  444.36   17.27
   4  -2   4  440.38   17.19
  -5   2  -4   38.64    2.02
  -5   2  -4   44.30    2.01
  -5   2  -4   39.84    1.95
   5  -2   4   38.68    1.85
   5  -2   4   40.82    1.89
   5  -2   4   36.47    1.97
  -6   2  -4   55.72    2.95
  -6   2  -4   65.32    3.09
  -6   2  -4   67.92    3.18
   6  -2   4   67.91    2.99
   6  -2   4   71.04    2.98
   6  -2   4   65.04    3.10
  -7   2  -4   38.54    2.29
  -7   2  -4   38.77    2.11
   7  -2   4   33.95    2.03
   7  -2   4   37.64    2.11
  -8   2  -4    1.33    0.78
  -8   2  -4    0.31    0.98
   8  -2   4    1.19    0.84
   8  -2   4   -0.58    0.91
   7   1  -4    1.45    1.00
  -7  -1   4    1.15    0.85
   6   1  -4    0.53    0.68
   6   1  -4    1.99    0.76
  -6  -1   4    1.80    0.62
  -6  -1   4    1.88    0.79
  -6  -1   4    0.72    0.56
   5   1  -4   72.90    3.65
   5   1  -4   84.12    3.62
   5   1  -4   85.41    3.73
  -5  -1   4   80.58    3.52
  -5  -1   4   81.88    3.60
  -5  -1   4   81.86    3.60
   4   1  -4    0.60    0.39
   4   1  -4    0.37    0.37
   4   1  -4    0.15    0.32
  -4  -1   4    0.69    0.36
  -4  -1   4    0.32    0.29
  -4  -1   4    0.61    0.38
   3   1  -4  440.01   16.69
   3   1  -4  459.25   16.73
   3   1  -4  421.37   16.71
  -3  -1   4  435.53   16.72
  -3  -1   4  414.23   16.60
  -3  -1   4  442.40   16.57
   2   1  -4    0.20    0.17
   2   1  -4    0.56    0.24
   2   1  -4    0.10    0.17
  -2  -1   4    0.11    0.17
  -2  -1   4    0.04    0.11
  -2  -1   4    0.26    0.15
   1   1  -4  252.51   10.00
   1   1  -4  254.29    9.93
   1   1  -4  273.75    9.97
   1   1  -4  270.95   10.11
  -1  -1   4  261.79   10.12
   0   1  -4    0.29    0.10
   0   1  -4    0.12    0.11
   0  -1   4    0.38    0.15
  -1   1  -4   32.03    1.34
  -1   1  -4   31.64    1.36
  -2   1  -4    4.34    0.29
  -2   1  -4    4.68    0.36
  -2   1  -4    4.52    0.31
  -2   1  -4    4.65    0.33
   2  -1   4    5.06    0.33
  -3   1  -4   20.56    0.98
  -3   1  -4   19.09    0.97
  -3   1  -4   19.08    1.01
   3  -1   4   20.24    0.94
   3  -1   4   18.82    0.95
   3  -1   4   18.48    0.89
  -4   1  -4    3.56    0.48
  -4   1  -4    3.08    0.44
  -4   1  -4    3.61    0.46
   4  -1   4    2.99    0.48
   4  -1   4    2.63    0.39
   4  -1   4    2.82    0.37
  -5   1  -4   87.77    3.57
  -5   1  -4   80.20    3.61
   5  -1   4   80.87    3.46
   5  -1   4   80.37    3.45
   5  -1   4   78.45    3.55
  -6   1  -4   21.08    1.44
  -6   1  -4   19.39    1.47
   6  -1   4   21.40    1.31
   6  -1   4   23.78    1.54
   6  -1   4   23.00    1.38
  -7   1  -4   32.90    2.09
   7  -1   4   27.80    1.90
   7  -1   4   32.80    1.88
  -8   1  -4   18.26    1.88
  -8   1  -4   18.66    1.69
   8  -1   4   15.56    1.79
   8  -1   4   19.52    1.71
   7   0  -4    1.72    0.95
  -7   0   4   -0.70    0.83
  -7   0   4    0.70    1.07
   6   0  -4    0.83    0.70
  -6   0   4    1.89    0.66
  -6   0   4   -0.20    0.75
   5   0  -4    3.81    0.78
   5   0  -4    1.37    0.52
   5   0  -4    3.51    0.74
  -5   0   4    1.68    0.51
   4   0  -4   47.47    2.32
   4   0  -4   51.14    2.36
   4   0  -4   50.69    2.29
  -4   0   4   49.09    2.26
  -4   0   4   47.45    2.22
   3   0  -4    2.48    0.45
   3   0  -4    2.45    0.45
   3   0  -4    3.55    0.45
  -3   0   4    2.95    0.42
  -3   0   4    3.09    0.39
   2   0  -4  217.42    8.26
   2   0  -4  210.37    8.21
   2   0  -4  209.54    8.20
  -2   0   4  211.26    8.12
   1   0  -4    3.07    0.26
   1   0  -4    3.05    0.33
   1   0  -4    2.75    0.25
   1   0  -4    2.85    0.16
   0   0  -4  315.89   11.88
   0   0  -4  313.81   12.00
   0   0  -4  315.21   12.01
  -1   0  -4    6.30    0.31
  -1   0  -4    5.96    0.40
  -1   0  -4    6.44    0.30
   1   0   4    6.26    0.39
  -2   0  -4   71.97    2.87
  -2   0  -4   69.32    2.91
  -2   0  -4   72.54    2.91
   2   0   4   73.87    2.79
   2   0   4   73.22    2.90
  -3   0  -4    0.36    0.16
  -3   0  -4    0.31    0.18
  -3   0  -4    0.42    0.21
   3   0   4    0.54    0.15
   3   0   4    0.48    0.18
   3   0   4    0.09    0.16
  -4   0  -4   50.18    2.38
  -4   0  -4   52.15    2.33
  -4   0  -4   57.45    2.34
   4   0   4   49.34    2.23
   4   0   4   52.15    2.28
   4   0   4   50.02    2.32
  -5   0  -4   10.02    0.90
  -5   0  -4   11.78    0.90
  -5   0  -4   10.41    0.62
   5   0   4   11.23    0.85
   5   0   4   10.49    0.78
   5   0   4   10.68    0.91
  -6   0  -4  229.39    9.48
  -6   0  -4  222.59    9.57
  -6   0  -4  232.52    9.09
   6   0   4  238.50    9.43
   6   0   4  260.73    9.47
   6   0   4  237.35    9.53
  -7   0  -4    4.17    1.13
  -7   0  -4    4.19    1.05
  -7   0  -4    4.09    0.46
   7   0   4    3.63    0.89
  -8   0  -4   53.24    2.24
  -8   0  -4   53.59    3.16
   8   0   4   55.28    2.96
   7  -1  -4  154.76    6.88
   7  -1  -4  140.94    6.51
  -7   1   4  171.82    6.77
   6  -1  -4    9.44    1.27
  -6   1   4   11.16    1.21
   5  -1  -4  221.72    9.00
   5  -1  -4  230.45    9.01
   5  -1  -4  221.96    8.83
  -5   1   4  225.23    8.90
  -5   1   4  213.08    8.86
   4  -1  -4    2.23    0.52
   4  -1  -4    0.18    0.36
   4  -1  -4    1.19    0.37
  -4   1   4    0.57    0.35
  -4   1   4    0.62    0.34
   3  -1  -4  158.31    6.20
   3  -1  -4  152.59    6.14
  -3   1   4  153.98    6.12
  -3   1   4  154.27    6.12
   2  -1  -4   10.99    0.68
   2  -1  -4   11.86    0.68
   2  -1  -4   10.35    0.67
  -2   1   4   10.54    0.62
  -2   1   4   10.57    0.62
   1  -1  -4   39.37    1.80
   1  -1  -4   45.38    1.77
   1  -1  -4   42.58    1.65
   1  -1  -4   40.61    1.77
  -1   1   4   43.30    1.71
  -1   1   4   40.42    1.72
   0  -1  -4   18.07    0.80
   0  -1  -4   17.38    0.82
   0  -1  -4   17.40    0.87
   0   1   4   18.64    0.73
   0   1   4   17.61    0.75
  -1  -1  -4    0.67    0.15
  -1  -1  -4    0.53    0.16
   1   1   4    0.95    0.12
   1   1   4    1.08    0.21
   1   1   4    0.79    0.10
  -2  -1  -4   51.99    2.15
  -2  -1  -4   49.57    2.14
  -2  -1  -4   48.58    2.13
   2   1   4   51.04    2.13
   2   1   4   52.97    2.06
   2   1   4   50.52    2.06
  -3  -1  -4   26.99    1.30
  -3  -1  -4   24.95    1.28
  -3  -1  -4   25.79    1.34
   3   1   4   27.62    1.28
   3   1   4   26.10    1.25
   3   1   4   26.55    1.23
  -4  -1  -4    5.26    0.59
  -4  -1  -4    6.16    0.65
  -4  -1  -4    5.83    0.58
   4   1   4    6.10    0.63
   4   1   4    5.98    0.53
   4   1   4    5.73    0.58
  -5  -1  -4    2.46    0.59
  -5  -1  -4    3.07    0.60
  -5  -1  -4    3.55    0.64
   5   1   4    2.59    0.58
   5   1   4    4.72    0.57
   5   1   4    2.77    0.69
  -6  -1  -4    5.13    0.89
  -6  -1  -4    3.57    0.83
  -6  -1  -4    6.29    0.59
   6   1   4    6.25    0.87
   6   1   4    5.47    0.93
   6   1   4    5.57    0.76
  -7  -1  -4   21.85    1.20
  -7  -1  -4   21.01    1.70
   7   1   4   20.68    1.97
   7   1   4   22.39    1.56
  -8  -1  -4    1.82    1.01
  -8  -1  -4    2.89    0.71
   8   1   4    1.90    0.90
   7  -2  -4    1.64    0.89
   7  -2  -4    1.04    1.01
  -7   2   4    0.57    0.98
   6  -2  -4   11.37    1.35
  -6   2   4   10.47    1.26
  -6   2   4   11.67    1.44
   5  -2  -4    0.40    0.46
   5  -2  -4   -0.28    0.61
   5  -2  -4    0.67    0.46
  -5   2   4    0.48    0.50
  -5   2   4    0.67    0.53
   4  -2  -4    1.15    0.37
   4  -2  -4    0.75    0.38
   4  -2  -4    0.99    0.47
  -4   2   4    0.64    0.38
  -4   2   4    0.81    0.37
   3  -2  -4    0.55    0.31
   3  -2  -4    0.78    0.29
   3  -2  -4    0.57    0.26
  -3   2   4    0.71    0.28
  -3   2   4    0.37    0.26
  -3   2   4    0.57    0.15
   2  -2  -4   77.44    2.97
   2  -2  -4   80.73    3.22
   2  -2  -4   74.25    3.20
   2  -2  -4   78.37    3.17
  -2   2   4   76.60    3.17
  -2   2   4   76.41    3.15
  -2   2   4   74.42    2.99
   1  -2  -4    0.06    0.13
   1  -2  -4    0.17    0.14
   1  -2  -4    0.06    0.15
   1  -2  -4    0.26    0.12
  -1   2   4    0.14    0.14
  -1   2   4    0.01    0.12
   0  -2  -4  207.48    7.71
   0  -2  -4  200.23    7.70
   0  -2  -4  206.85    7.69
   0  -2  -4  200.67    7.73
   0   2   4  193.28    7.63
   0   2   4  188.45    7.67
  -1  -2  -4    1.78    0.26
  -1  -2  -4    2.53    0.26
  -1  -2  -4    2.07    0.33
  -1  -2  -4    1.92    0.30
   1   2   4    1.96    0.28
   1   2   4    2.00    0.22
   1   2   4    1.83    0.27
  -2  -2  -4  736.10   28.74
  -2  -2  -4  806.54   28.81
  -2  -2  -4  777.88   28.76
   2   2   4  703.09   28.69
   2   2   4  743.29   28.67
   2   2   4  788.43   28.74
  -3  -2  -4    8.93    0.68
  -3  -2  -4    7.53    0.61
  -3  -2  -4    7.55    0.66
   3   2   4    8.87    0.63
   3   2   4    9.35    0.63
   3   2   4    8.37    0.61
  -4  -2  -4  579.70   20.80
  -4  -2  -4  503.27   20.80
  -4  -2  -4  528.64   20.73
   4   2   4  527.91   20.74
   4   2   4  589.77   20.75
   4   2   4  517.55   20.68
  -5  -2  -4   28.38    1.63
  -5  -2  -4   26.89    1.55
  -5  -2  -4   28.21    1.65
   5   2   4   28.81    1.56
   5   2   4   23.79    1.57
   5   2   4   28.15    1.52
  -6  -2  -4  170.42    7.24
  -6  -2  -4  174.25    6.89
   6   2   4  170.35    7.11
   6   2   4  171.11    7.18
   6   2   4  178.79    7.14
  -7  -2  -4   15.66    1.50
  -7  -2  -4   16.36    1.10
   7   2   4   14.68    1.34
   7   2   4   13.37    1.66
   7   2   4   15.33    1.49
  -8  -2  -4    0.32    0.98
  -8  -2  -4    1.58    0.61
   8   2   4    0.67    0.80
  -7   3   4   28.41    2.33
   6  -3  -4   12.91    1.47
  -6   3   4   14.44    1.46
  -6   3   4   15.80    0.82
  -6   3   4   13.28    1.58
   5  -3  -4  220.96    9.03
   5  -3  -4  218.20    8.76
   5  -3  -4  236.01    9.05
  -5   3   4  222.18    8.95
  -5   3   4  212.33    8.50
   4  -3  -4   13.62    1.13
   4  -3  -4   12.56    1.05
   4  -3  -4   14.22    0.94
  -4   3   4   13.81    0.74
  -4   3   4   12.50    1.00
  -4   3   4   15.90    1.06
   3  -3  -4  642.00   24.09
   3  -3  -4  651.57   24.23
   3  -3  -4  632.60   24.21
  -3   3   4  619.82   23.94
  -3   3   4  623.00   24.14
  -3   3   4  631.97   24.18
   2  -3  -4    0.13    0.22
   2  -3  -4    0.34    0.26
   2  -3  -4    0.12    0.14
  -2   3   4   -0.09    0.21
  -2   3   4    0.05    0.16
  -2   3   4    0.32    0.21
   1  -3  -4  728.40   27.34
   1  -3  -4  714.93   27.45
   1  -3  -4  745.95   27.46
   1  -3  -4  727.27   27.47
  -1   3   4  684.59   27.36
  -1   3   4  707.53   27.40
  -1   3   4  759.29   27.46
   0  -3  -4   19.86    0.98
   0  -3  -4   19.41    1.00
   0  -3  -4   19.29    0.97
   0  -3  -4   17.70    0.94
   0   3   4   18.55    0.93
   0   3   4   19.25    0.98
   0   3   4   18.08    0.97
  -1  -3  -4  212.52    8.34
  -1  -3  -4  206.40    8.40
  -1  -3  -4  219.60    8.41
  -1  -3  -4  208.48    8.35
   1   3   4  226.51    8.36
   1   3   4  209.29    8.30
   1   3   4  223.92    8.40
  -2  -3  -4   38.70    1.71
  -2  -3  -4   34.40    1.75
  -2  -3  -4   37.42    1.74
  -2  -3  -4   36.00    1.68
   2   3   4   38.75    1.69
   2   3   4   35.07    1.64
   2   3   4   36.34    1.71
  -3  -3  -4   -0.05    0.24
  -3  -3  -4   -0.07    0.22
  -3  -3  -4    0.14    0.30
  -3  -3  -4    0.34    0.22
   3   3   4    0.51    0.24
   3   3   4   -0.07    0.22
   3   3   4    0.08    0.22
  -4  -3  -4   62.92    2.85
  -4  -3  -4   64.25    2.94
  -4  -3  -4   65.35    2.93
   4   3   4   61.12    2.84
   4   3   4   61.84    2.85
   4   3   4   65.87    2.87
  -5  -3  -4    2.18    0.59
  -5  -3  -4    1.24    0.44
  -5  -3  -4    2.35    0.65
   5   3   4    2.56    0.67
   5   3   4    1.63    0.53
   5   3   4    1.84    0.50
  -6  -3  -4   50.84    2.32
  -6  -3  -4   50.73    2.64
  -6  -3  -4   50.46    2.56
   6   3   4   42.20    2.47
   6   3   4   52.08    2.63
  -7  -3  -4    4.46    0.81
  -7  -3  -4    6.93    1.25
  -7  -3  -4    5.34    1.26
   7   3   4    4.35    1.15
   7   3   4    3.71    1.05
   7   3   4    2.45    0.76
  -8  -3  -4   29.88    2.35
  -8  -3  -4   25.67    1.73
   8   3   4   25.62    2.16
   6  -4  -4  169.19    7.23
  -6   4   4  164.87    6.58
  -6   4   4  170.17    7.17
   5  -4  -4    0.18    0.48
   5  -4  -4    0.73    0.59
  -5   4   4   -0.02    0.32
  -5   4   4    0.89    0.54
  -5   4   4   -0.01    0.89
   4  -4  -4   17.93    1.27
   4  -4  -4   20.04    1.43
   4  -4  -4   18.46    1.14
  -4   4   4   17.38    1.27
  -4   4   4   18.63    1.00
  -4   4   4   17.97    1.24
   3  -4  -4    8.71    0.77
   3  -4  -4    7.81    0.55
   3  -4  -4    8.28    0.69
   3  -4  -4    6.85    0.83
  -3   4   4    6.30    0.71
  -3   4   4    9.07    0.77
  -3   4   4    7.05    0.58
   2  -4  -4   12.03    0.78
   2  -4  -4   11.34    0.80
   2  -4  -4   11.09    0.85
   2  -4  -4   10.79    0.66
  -2   4   4   11.18    0.79
  -2   4   4   10.20    0.79
  -2   4   4   10.27    0.69
   1  -4  -4   16.10    0.90
   1  -4  -4   15.81    0.85
   1  -4  -4   16.22    0.98
   1  -4  -4   16.89    0.93
  -1   4   4   15.57    0.92
  -1   4   4   13.48    0.87
  -1   4   4   15.12    0.88
   0  -4  -4    0.67    0.23
   0  -4  -4    1.07    0.31
   0  -4  -4    1.16    0.30
   0  -4  -4    1.09    0.28
   0   4   4    0.32    0.21
   0   4   4    0.89    0.28
   0   4   4    0.78    0.23
   0   4   4    0.81    0.25
  -1  -4  -4   24.34    1.23
  -1  -4  -4   21.10    1.19
  -1  -4  -4   21.26    1.13
  -1  -4  -4   20.09    1.12
   1   4   4   21.67    1.13
   1   4   4   23.33    1.13
   1   4   4   21.09    1.17
  -2  -4  -4    1.31    0.34
  -2  -4  -4    0.90    0.35
   2   4   4    0.54    0.26
   2   4   4    0.50    0.29
   2   4   4    0.93    0.28
  -3  -4  -4   15.98    1.01
  -3  -4  -4   15.62    1.11
  -3  -4  -4   17.77    1.09
  -3  -4  -4   16.05    1.05
   3   4   4   16.82    1.03
   3   4   4   16.56    1.03
   3   4   4   15.02    1.06
  -4  -4  -4   84.40    3.82
  -4  -4  -4   85.46    3.84
  -4  -4  -4   88.87    3.76
  -4  -4  -4   88.15    3.76
   4   4   4   91.24    3.76
   4   4   4   83.54    3.75
   4   4   4   80.47    3.75
  -5  -4  -4   35.25    2.01
  -5  -4  -4   33.44    1.90
  -5  -4  -4   34.61    1.94
   5   4   4   34.48    1.95
   5   4   4   37.90    1.98
   5   4   4   37.06    2.01
  -6  -4  -4  368.89   14.34
  -6  -4  -4  369.12   14.42
   6   4   4  348.21   14.32
  -7  -4  -4   27.33    1.79
  -7  -4  -4   29.21    2.08
  -7  -4  -4   33.60    2.20
   7   4   4   35.76    2.15
  -8  -4  -4  302.12   12.76
  -8  -4  -4  319.38   12.32
   8   4   4  308.18   12.70
   6  -5  -4    7.20    1.45
  -6   5   4   10.94    1.58
   5  -5  -4   13.26    1.15
   5  -5  -4   11.37    1.34
  -5   5   4   16.01    1.38
  -5   5   4   13.32    0.99
  -5   5   4   11.38    1.41
   4  -5  -4    1.47    0.52
   4  -5  -4    1.54    0.49
   4  -5  -4    1.14    0.42
   4  -5  -4    1.39    0.71
  -4   5   4    0.52    0.48
  -4   5   4    0.61    0.38
   3  -5  -4   17.07    1.27
   3  -5  -4   14.49    1.02
   3  -5  -4   17.42    0.95
   3  -5  -4   13.82    1.11
  -3   5   4   17.00    1.17
  -3   5   4   15.18    1.12
  -3   5   4   15.96    0.98
   2  -5  -4    4.34    0.54
   2  -5  -4    4.04    0.57
   2  -5  -4    3.09    0.63
   2  -5  -4    4.38    0.50
  -2   5   4    3.91    0.59
  -2   5   4    4.40    0.61
  -2   5   4    4.56    0.54
   1  -5  -4  156.91    6.31
   1  -5  -4  157.90    6.35
   1  -5  -4  157.09    6.21
   1  -5  -4  155.73    6.24
  -1   5   4  157.57    6.27
  -1   5   4  164.99    6.34
  -1   5   4  146.03    6.25
   0  -5  -4    1.36    0.37
   0  -5  -4    0.98    0.28
   0  -5  -4    1.72    0.38
   0  -5  -4    1.26    0.36
   0   5   4    0.82    0.31
   0   5   4    0.78    0.31
   0   5   4    1.69    0.37
   0   5   4    1.51    0.35
  -1  -5  -4  461.03   17.15
  -1  -5  -4  440.21   17.09
  -1  -5  -4  425.41   17.19
  -1  -5  -4  473.48   17.19
   1   5   4  426.22   17.16
   1   5   4  466.29   17.12
   1   5   4  428.92   17.15
  -2  -5  -4    2.09    0.45
  -2  -5  -4    2.10    0.47
  -2  -5  -4    2.05    0.44
  -2  -5  -4    2.23    0.59
   2   5   4    2.39    0.49
   2   5   4    1.89    0.45
   2   5   4    1.76    0.39
  -3  -5  -4  419.60   16.47
  -3  -5  -4  395.01   16.37
  -3  -5  -4  417.55   16.33
  -3  -5  -4  464.64   16.44
   3   5   4  436.04   16.34
   3   5   4  417.09   16.34
   3   5   4  409.27   16.42
  -4  -5  -4    5.69    0.72
  -4  -5  -4    4.60    0.89
  -4  -5  -4    3.41    0.73
  -4  -5  -4    4.83    0.81
   4   5   4    5.67    0.74
   4   5   4    4.55    0.76
   4   5   4    5.97    0.82
  -5  -5  -4   72.28    3.48
  -5  -5  -4   74.72    3.59
  -5  -5  -4   78.68    3.54
   5   5   4   76.63    3.57
   5   5   4   75.51    3.54
  -6  -5  -4   18.71    1.56
  -6  -5  -4   16.03    1.46
  -6  -5  -4   18.27    1.63
   6   5   4   19.57    1.69
   6   5   4   19.26    1.51
  -7  -5  -4    3.28    0.95
  -7  -5  -4    2.43    0.72
   7   5   4    1.93    0.86
  -8  -5  -4   29.96    2.45
  -8  -5  -4   28.49    2.01
   8   5   4   27.45    2.44
   6  -6  -4   27.21    2.02
  -6   6   4   27.82    2.35
   5  -6  -4    2.95    0.69
   5  -6  -4    4.93    1.18
   5  -6  -4    3.03    0.71
  -5   6   4    4.65    1.28
  -5   6   4    5.78    0.95
   4  -6  -4  112.48    4.46
   4  -6  -4  106.14    4.72
   4  -6  -4  111.99    4.57
  -4   6   4   94.91    4.65
  -4   6   4  103.33    4.69
  -4   6   4  105.20    4.43
   3  -6  -4    7.37    0.81
   3  -6  -4    7.00    0.89
   3  -6  -4    7.99    0.75
  -3   6   4    8.30    0.96
  -3   6   4    7.37    0.80
   2  -6  -4   43.65    2.20
   2  -6  -4   45.19    2.07
   2  -6  -4   43.85    2.41
   2  -6  -4   44.11    2.10
  -2   6   4   44.50    2.23
  -2   6   4   44.80    2.20
  -2   6   4   44.43    2.12
   1  -6  -4    0.69    0.42
   1  -6  -4    0.79    0.33
   1  -6  -4    0.37    0.30
   1  -6  -4    0.08    0.34
  -1   6   4    0.83    0.36
  -1   6   4    0.45    0.35
  -1   6   4    0.79    0.37
   0  -6  -4    0.68    0.37
   0  -6  -4   -0.17    0.35
   0  -6  -4    0.03    0.24
   0  -6  -4    1.75    0.46
   0   6   4    0.22    0.28
   0   6   4    0.51    0.34
   0   6   4    0.16    0.28
   0   6   4    0.69    0.36
  -1  -6  -4    8.41    0.86
  -1  -6  -4   10.70    0.92
  -1  -6  -4    9.09    0.78
  -1  -6  -4    9.98    0.75
   1   6   4    9.42    0.82
   1   6   4    8.94    0.82
   1   6   4   10.71    0.88
   1   6   4    9.69    0.79
  -2  -6  -4    1.05    0.33
  -2  -6  -4    1.92    0.50
  -2  -6  -4    1.03    0.34
  -2  -6  -4    1.09    0.45
   2   6   4    0.91    0.38
   2   6   4    1.02    0.37
   2   6   4    0.93    0.42
  -3  -6  -4   24.29    1.46
  -3  -6  -4   26.57    1.59
  -3  -6  -4   26.99    1.67
  -3  -6  -4   27.77    1.55
   3   6   4   23.45    1.47
   3   6   4   25.84    1.58
   3   6   4   24.45    1.51
  -4  -6  -4   78.83    3.76
  -4  -6  -4   75.38    3.46
  -4  -6  -4   70.19    3.51
   4   6   4   75.93    3.58
   4   6   4   76.56    3.54
   4   6   4   80.42    3.53
  -5  -6  -4   16.95    1.38
  -5  -6  -4   17.44    1.46
   5   6   4   19.66    1.45
   5   6   4   17.31    1.64
  -6  -6  -4   59.34    3.10
  -6  -6  -4   54.22    3.12
   6   6   4   63.69    3.19
  -7  -6  -4    9.79    1.35
  -7  -6  -4   12.00    1.71
   7   6   4    7.45    1.62
   5  -7  -4   56.54    3.15
   5  -7  -4   53.83    2.82
  -5   7   4   53.94    3.08
  -5   7   4   56.32    2.76
   4  -7  -4   18.73    1.57
   4  -7  -4   16.06    1.37
   4  -7  -4   20.18    1.40
   4  -7  -4   18.78    1.39
  -4   7   4   17.23    1.57
  -4   7   4   20.75    1.41
   3  -7  -4  172.56    6.83
   3  -7  -4  140.45    6.53
   3  -7  -4  165.50    6.55
  -3   7   4  168.88    6.64
  -3   7   4  163.29    6.80
  -3   7   4  160.42    6.76
   2  -7  -4   17.17    1.24
   2  -7  -4   17.04    1.20
   2  -7  -4   17.23    1.13
  -2   7   4   17.22    1.21
  -2   7   4   16.51    1.30
   1  -7  -4  354.61   14.18
   1  -7  -4  378.10   14.28
   1  -7  -4  384.37   14.38
  -1   7   4  358.15   14.32
  -1   7   4  366.76   14.32
  -1   7   4  360.56   14.38
   0  -7  -4    0.52    0.37
   0  -7  -4    0.42    0.34
   0  -7  -4    0.54    0.45
   0   7   4    0.04    0.36
   0   7   4    0.74    0.42
   0   7   4    0.52    0.37
   0   7   4    0.81    0.45
  -1  -7  -4  127.74    5.14
  -1  -7  -4  119.27    5.13
  -1  -7  -4  120.78    5.00
   1   7   4  123.79    5.03
   1   7   4  116.32    5.11
   1   7   4  117.90    5.15
   1   7   4  120.74    5.10
  -2  -7  -4    3.89    0.66
  -2  -7  -4    3.94    0.70
  -2  -7  -4    3.47    0.84
   2   7   4    3.77    0.76
   2   7   4    4.07    0.72
   2   7   4    3.22    0.72
   2   7   4    3.74    0.75
  -3  -7  -4    9.07    0.96
  -3  -7  -4    8.23    0.90
   3   7   4    9.96    1.04
   3   7   4    6.42    0.98
   3   7   4    7.48    0.96
  -4  -7  -4    7.12    1.01
  -4  -7  -4    7.92    0.99
   4   7   4    8.63    1.12
   4   7   4    7.74    1.16
  -5  -7  -4  101.39    4.80
  -5  -7  -4  102.81    4.78
  -5  -7  -4   97.99    4.86
  -5  -7  -4  108.13    4.76
   5   7   4  104.21    4.85
   5   7   4  117.24    4.89
   5   7   4  102.51    4.77
  -6  -7  -4   12.01    1.60
  -6  -7  -4   11.17    1.49
   6   7   4   14.29    1.59
  -7  -7  -4   27.89    2.30
  -7  -7  -4   28.65    2.07
   7   7   4   23.17    2.29
   4  -8  -4   56.55    2.84
   4  -8  -4   56.40    3.05
   4  -8  -4   58.04    2.80
  -4   8   4   52.85    2.81
  -4   8   4   52.02    3.04
   3  -8  -4    2.66    0.73
   3  -8  -4    2.94    0.79
   3  -8  -4    2.28    0.60
  -3   8   4    2.65    0.82
  -3   8   4    3.16    0.73
   2  -8  -4    4.72    0.79
   2  -8  -4    5.58    1.04
   2  -8  -4    5.81    0.96
  -2   8   4    5.53    0.94
  -2   8   4    6.04    0.95
  -2   8   4    4.45    0.92
   1  -8  -4    9.79    1.12
   1  -8  -4    8.13    0.97
   1  -8  -4    8.96    0.86
  -1   8   4    9.69    1.09
  -1   8   4    7.32    0.97
   0  -8  -4    5.40    0.83
   0  -8  -4    4.11    0.71
   0  -8  -4    7.37    1.06
   0   8   4    7.70    0.91
   0   8   4    7.25    0.91
   0   8   4    7.29    0.93
  -1  -8  -4   38.79    2.23
  -1  -8  -4   36.45    2.10
  -1  -8  -4   38.60    2.00
   1   8   4   39.09    2.05
   1   8   4   45.35    2.26
   1   8   4   40.54    2.18
  -2  -8  -4    0.49    0.43
  -2  -8  -4    0.19    0.64
  -2  -8  -4    0.50    0.48
   2   8   4   -0.17    0.50
   2   8   4   -0.01    0.49
   2   8   4    0.79    0.57
  -3  -8  -4    8.01    1.03
  -3  -8  -4    9.35    1.06
   3   8   4    9.41    1.22
   3   8   4    9.05    1.18
  -4  -8  -4   25.58    2.14
  -4  -8  -4   32.49    1.96
  -4  -8  -4   34.73    2.12
   4   8   4   33.96    2.12
   4   8   4   30.07    2.10
   4   8   4   32.08    2.20
  -5  -8  -4    0.95    0.85
  -5  -8  -4    1.18    0.78
   5   8   4    1.18    0.87
  -6  -8  -4   51.39    3.14
  -6  -8  -4   55.53    3.08
   6   8   4   51.05    3.10
   4  -9  -4    3.90    0.90
   4  -9  -4    1.12    1.03
  -4   9   4    4.04    1.07
  -4   9   4    2.86    1.12
   3  -9  -4   15.27    1.68
   3  -9  -4   22.40    1.50
   3  -9  -4   16.35    1.66
  -3   9   4   16.95    1.66
  -3   9   4   21.79    1.79
   2  -9  -4    3.49    0.89
   2  -9  -4    2.41    0.74
   2  -9  -4    1.28    0.58
  -2   9   4    1.49    0.77
  -2   9   4    3.31    0.78
   1  -9  -4   60.71    2.81
   1  -9  -4   57.22    3.05
   1  -9  -4   58.90    3.02
  -1   9   4   61.71    3.14
  -1   9   4   61.82    3.05
   0  -9  -4    5.64    1.37
   0  -9  -4    3.69    0.82
   0  -9  -4    6.70    0.97
   0   9   4    4.65    1.00
   0   9   4    4.21    0.99
   0   9   4    5.59    1.09
  -1  -9  -4  312.08   13.36
  -1  -9  -4  356.73   13.36
  -1  -9  -4  324.99   13.31
  -1  -9  -4  346.54   13.15
   1   9   4  341.18   13.34
   1   9   4  342.01   13.40
   1   9   4  306.76   13.29
   1   9   4  345.57   13.17
  -2  -9  -4    2.42    0.70
  -2  -9  -4    2.38    0.64
  -2  -9  -4    0.36    0.75
  -2  -9  -4    1.14    0.85
   2   9   4    2.10    0.86
   2   9   4    2.07    0.71
   2   9   4    2.77    0.77
   2   9   4    2.10    0.79
  -3  -9  -4  414.08   16.53
  -3  -9  -4  432.56   16.40
   3   9   4  417.77   16.60
   3   9   4  406.44   16.41
  -4  -9  -4    5.58    1.32
  -4  -9  -4    5.08    0.93
   4   9   4    7.15    1.42
  -5  -9  -4  156.63    6.89
  -5  -9  -4  167.53    7.05
   5   9   4  148.84    6.98
  -6  -9  -4   14.28    1.96
  -6  -9  -4   11.81    1.97
   6   9   4   14.04    1.95
   3 -10  -4   22.54    1.73
  -3  10   4   19.71    2.15
  -3  10   4   24.37    2.10
   2 -10  -4  240.41    9.96
   2 -10  -4  237.26    9.65
  -2  10   4  233.37    9.91
  -2  10   4  253.72   10.11
   1 -10  -4   -0.32    0.58
   1 -10  -4    0.01    0.69
  -1  10   4    0.20    0.80
  -1  10   4    0.76    0.77
   0 -10  -4   87.39    4.00
   0 -10  -4   81.41    3.71
   0  10   4   79.51    3.96
   0  10   4   78.96    4.01
  -1 -10  -4    6.92    1.10
  -1 -10  -4    6.11    1.19
   1  10   4    9.20    1.36
   1  10   4    6.44    1.34
   1  10   4    9.15    1.43
  -2 -10  -4    9.56    1.36
  -2 -10  -4    8.84    1.22
   2  10   4   11.13    1.52
   2  10   4   10.52    1.45
   2  10   4   10.92    1.61
  -3 -10  -4   58.07    3.06
  -3 -10  -4   53.52    2.88
   3  10   4   50.41    3.11
  -4 -10  -4    5.59    1.47
  -4 -10  -4    2.74    1.00
   4  10   4    5.45    1.56
  -5 -10  -4   47.61    3.13
  -5 -10  -4   48.88    3.03
   5  10   4   44.86    3.19
   1 -11  -4    1.66    0.79
   1 -11  -4    1.65    1.03
  -1  11   4    2.24    1.11
  -1  11   4    2.58    1.05
   0 -11  -4   17.04    1.60
   0 -11  -4   17.88    1.83
   0  11   4   20.30    1.98
   0  11   4   16.41    2.03
  -1 -11  -4    1.08    0.82
   1  11   4    0.26    1.01
   1  11   4    0.08    0.93
  -2 -11  -4    1.59    0.93
  -2 -11  -4    1.70    0.96
   2  11   4    1.54    1.11
   2  11   4   -0.27    0.96
  -3 -11  -4   14.74    1.87
  -3 -11  -4   15.98    1.82
   3  11   4   11.08    1.93
   2  10  -5    4.68    1.20
   2  10  -5    2.16    1.05
  -2 -10   5    3.06    1.07
   1  10  -5   34.69    2.36
   1  10  -5   36.69    2.38
  -1 -10   5   37.44    2.43
   0  10  -5    2.72    0.88
   0  10  -5    2.61    0.89
   0 -10   5    2.20    0.87
  -1  10  -5   17.30    1.55
  -1  10  -5   15.04    1.64
   1 -10   5   14.60    1.49
  -2  10  -5    2.26    0.83
  -2  10  -5    0.31    0.81
   2 -10   5    0.46    0.65
  -3  10  -5   -0.40    0.94
  -3  10  -5    1.69    0.91
   3   9  -5    0.09    0.91
   3   9  -5    2.64    0.88
  -3  -9   5   -0.59    0.90
   2   9  -5  132.73    5.75
   2   9  -5  118.50    5.88
   2   9  -5  139.21    5.63
   2   9  -5  138.90    5.86
  -2  -9   5  132.88    5.87
   1   9  -5   13.58    1.12
   1   9  -5   15.05    1.76
   1   9  -5   13.83    1.39
   1   9  -5   13.67    1.36
  -1  -9   5   11.94    1.39
   0   9  -5  233.55   10.57
   0   9  -5  273.81   10.60
   0   9  -5  275.66   10.56
   0  -9   5  268.35   10.54
  -1   9  -5   34.12    1.97
  -1   9  -5   33.65    2.29
  -1   9  -5   35.49    2.09
   1  -9   5   34.24    1.95
  -2   9  -5  209.95    8.60
  -2   9  -5  193.14    8.66
  -2   9  -5  221.00    8.76
   2  -9   5  223.18    8.45
  -3   9  -5   34.19    2.16
  -3   9  -5   30.90    1.99
   3  -9   5   33.83    1.67
   3  -9   5   31.06    1.52
  -4   9  -5   26.67    1.95
  -4   9  -5   26.78    2.06
   4   8  -5   11.52    1.41
   4   8  -5   11.90    1.61
  -4  -8   5   10.06    1.50
  -4  -8   5   12.57    1.71
   3   8  -5  148.67    6.46
   3   8  -5  156.65    6.32
   3   8  -5  149.34    6.36
   3   8  -5  138.07    6.51
  -3  -8   5  154.82    6.51
   2   8  -5   10.38    1.23
   2   8  -5   11.36    1.17
   2   8  -5   11.44    1.26
   2   8  -5    8.70    1.48
  -2  -8   5   11.23    1.30
   1   8  -5   41.15    2.18
   1   8  -5   41.21    1.99
   1   8  -5   42.18    2.18
   1   8  -5   35.99    2.28
  -1  -8   5   42.49    2.27
   0   8  -5   11.85    1.27
   0   8  -5   10.62    0.69
   0   8  -5   10.82    1.04
   0   8  -5   11.78    1.03
   0  -8   5   10.11    1.07
   0  -8   5   10.33    1.30
  -1   8  -5    1.04    0.50
  -1   8  -5    0.70    0.50
  -1   8  -5   -0.31    0.62
   1  -8   5   -0.66    0.56
   1  -8   5    0.34    0.45
  -2   8  -5    1.93    0.53
  -2   8  -5    2.28    0.57
  -2   8  -5    2.52    0.72
   2  -8   5    1.30    0.62
   2  -8   5    1.59    0.46
  -3   8  -5   14.83    1.19
  -3   8  -5   11.95    1.37
  -3   8  -5   13.37    1.26
   3  -8   5   12.68    0.82
   3  -8   5   12.26    0.84
   3  -8   5   13.09    0.87
  -4   8  -5    3.98    1.04
  -4   8  -5    1.16    0.92
  -4   8  -5    4.55    0.88
   4  -8   5    2.83    0.41
   4  -8   5    2.80    0.69
   4  -8   5    2.08    0.61
  -5   8  -5   13.36    1.58
  -5   8  -5   15.89    1.56
   5  -8   5   13.27    1.18
   5   7  -5   -0.19    0.94
  -5  -7   5    1.12    1.01
   4   7  -5   -0.25    0.87
   4   7  -5   -0.06    0.70
   4   7  -5    0.54    1.06
  -4  -7   5    0.46    0.63
  -4  -7   5    2.18    0.84
   3   7  -5    3.37    0.96
   3   7  -5    2.31    0.77
   3   7  -5    2.88    0.68
   3   7  -5    3.08    0.79
  -3  -7   5    2.67    0.79
  -3  -7   5    1.48    0.59
   2   7  -5    2.62    0.62
   2   7  -5    2.84    0.79
   2   7  -5    2.77    0.59
   2   7  -5    3.44    0.80
  -2  -7   5    3.16    0.81
  -2  -7   5    3.72    0.78
   1   7  -5    1.12    0.42
   1   7  -5    0.81    0.43
   1   7  -5    1.30    0.45
   1   7  -5    0.89    0.54
  -1  -7   5    0.19    0.43
  -1  -7   5    1.16    0.49
   0   7  -5   15.71    1.20
   0   7  -5   18.18    1.17
   0   7  -5   15.46    1.08
   0   7  -5   17.81    0.92
   0  -7   5   16.41    1.16
   0  -7   5   16.77    1.24
  -1   7  -5   13.22    0.93
  -1   7  -5   13.87    1.04
  -1   7  -5   12.21    1.02
   1  -7   5    9.62    1.05
   1  -7   5   12.80    0.94
  -2   7  -5  287.42   11.43
  -2   7  -5  297.60   11.32
  -2   7  -5  284.38   11.34
   2  -7   5  287.73   11.20
  -3   7  -5   64.28    2.85
  -3   7  -5   58.42    2.77
  -3   7  -5   59.40    2.88
   3  -7   5   58.77    2.46
   3  -7   5   59.75    2.46
   3  -7   5   58.03    2.50
  -4   7  -5  315.91   12.70
  -4   7  -5  319.29   12.78
  -4   7  -5  329.60   12.74
   4  -7   5  323.39   12.42
   4  -7   5  324.74   12.46
  -5   7  -5   89.71    4.09
  -5   7  -5   87.09    4.03
   5  -7   5   90.22    3.75
   5  -7   5   83.92    3.83
  -6   7  -5  162.35    7.10
  -6   7  -5  165.08    7.14
   6  -7   5  170.93    6.81
   5   6  -5   21.61    1.88
  -5  -6   5   22.06    1.87
   4   6  -5   -0.12    0.79
   4   6  -5    1.31    0.88
   4   6  -5    0.26    0.68
  -4  -6   5    1.42    0.51
  -4  -6   5    0.26    0.68
   3   6  -5  313.44   11.76
   3   6  -5  289.36   11.66
   3   6  -5  293.41   11.54
   3   6  -5  301.61   11.74
  -3  -6   5  283.73   11.47
  -3  -6   5  289.02   11.76
   2   6  -5   28.13    1.58
   2   6  -5   27.50    1.49
   2   6  -5   28.05    1.56
   2   6  -5   26.64    1.65
  -2  -6   5   26.67    1.63
  -2  -6   5   25.18    1.45
   1   6  -5  472.83   18.68
   1   6  -5  502.07   18.60
   1   6  -5  472.58   18.65
   1   6  -5  494.48   18.66
  -1  -6   5  474.26   18.74
  -1  -6   5  498.86   18.67
   0   6  -5   33.23    1.53
   0   6  -5   34.80    1.73
   0   6  -5   34.76    1.70
   0   6  -5   33.45    1.62
   0  -6   5   33.18    1.73
   0  -6   5   34.52    1.73
  -1   6  -5  321.17   12.80
  -1   6  -5  329.18   12.85
  -1   6  -5  333.38   12.93
   1  -6   5  341.18   12.85
   1  -6   5  337.13   12.94
  -2   6  -5   44.20    2.02
  -2   6  -5   42.06    2.07
  -2   6  -5   43.69    1.98
   2  -6   5   40.03    1.88
   2  -6   5   41.27    2.12
  -3   6  -5   55.64    2.55
  -3   6  -5   53.70    2.62
  -3   6  -5   57.17    2.58
   3  -6   5   55.97    2.27
   3  -6   5   55.70    2.30
   3  -6   5   55.90    2.29
  -4   6  -5   26.04    1.60
  -4   6  -5   27.87    1.60
  -4   6  -5   25.23    1.51
   4  -6   5   27.12    1.39
   4  -6   5   26.07    1.31
  -5   6  -5    1.05    0.58
  -5   6  -5    0.34    0.53
  -5   6  -5    0.82    0.72
   5  -6   5    1.19    0.46
   5  -6   5    1.14    0.58
  -6   6  -5    9.93    1.31
  -6   6  -5    8.29    1.23
   6  -6   5   11.39    1.11
   6  -6   5   10.18    1.41
  -7   6  -5   80.16    4.00
  -7   6  -5   76.21    3.90
   7  -6   5   78.36    3.66
   6   5  -5   76.86    4.03
  -6  -5   5   76.25    3.93
   5   5  -5    0.18    1.00
   5   5  -5   -0.58    0.70
  -5  -5   5   -0.06    0.38
  -5  -5   5    0.16    0.45
  -5  -5   5    0.31    0.74
  -5  -5   5   -0.09    0.43
   4   5  -5   59.52    2.99
   4   5  -5   57.82    2.97
   4   5  -5   53.86    2.86
  -4  -5   5   58.48    2.54
  -4  -5   5   60.64    2.95
   3   5  -5    0.42    0.34
   3   5  -5    0.31    0.43
   3   5  -5    0.69    0.54
   3   5  -5    0.75    0.52
  -3  -5   5    0.22    0.45
  -3  -5   5    0.24    0.31
   2   5  -5    4.90    0.66
   2   5  -5    3.38    0.55
   2   5  -5    4.53    0.73
   2   5  -5    3.80    0.67
  -2  -5   5    4.95    0.73
  -2  -5   5    2.74    0.52
   1   5  -5    0.32    0.32
   1   5  -5    0.63    0.36
   1   5  -5    0.48    0.27
   1   5  -5    0.21    0.23
  -1  -5   5    0.18    0.31
  -1  -5   5    0.01    0.25
   0   5  -5  105.30    4.28
   0   5  -5  105.88    4.15
   0   5  -5  100.69    4.17
   0   5  -5  106.19    4.23
   0  -5   5  100.61    4.29
   0  -5   5  105.53    4.28
  -1   5  -5   -0.17    0.22
  -1   5  -5    0.19    0.24
  -1   5  -5    0.15    0.17
   1  -5   5    0.40    0.24
   1  -5   5    0.10    0.26
  -2   5  -5  132.47    5.27
  -2   5  -5  134.62    5.40
  -2   5  -5  128.63    5.27
   2  -5   5  133.43    5.22
  -3   5  -5    5.95    0.59
  -3   5  -5    5.47    0.64
  -3   5  -5    6.34    0.68
   3  -5   5    5.38    0.41
   3  -5   5    5.91    0.41
   3  -5   5    4.95    0.38
  -4   5  -5    4.34    0.61
  -4   5  -5    2.65    0.63
  -4   5  -5    1.75    0.44
   4  -5   5    2.27    0.53
   4  -5   5    2.46    0.45
  -5   5  -5    9.90    0.96
  -5   5  -5   10.56    1.01
  -5   5  -5   11.81    1.11
   5  -5   5   10.41    0.82
   5  -5   5    7.21    0.92
  -6   5  -5   88.37    4.13
  -6   5  -5   88.12    4.10
   6  -5   5   89.38    3.90
   6  -5   5   91.17    3.63
   6  -5   5   95.25    4.09
  -7   5  -5   31.05    2.22
  -7   5  -5   31.07    2.11
   7  -5   5   30.96    1.92
   6   4  -5    0.99    0.96
  -6  -4   5    2.04    0.64
  -6  -4   5   -0.78    0.85
   5   4  -5  185.73    8.35
   5   4  -5  215.77    8.44
  -5  -4   5  199.88    7.87
  -5  -4   5  198.77    7.78
  -5  -4   5  211.59    8.40
  -5  -4   5  200.78    7.90
   4   4  -5    1.31    0.72
   4   4  -5    1.16    0.69
   4   4  -5    0.84    0.61
   4   4  -5    0.52    0.51
  -4  -4   5    0.78    0.52
  -4  -4   5    0.61    0.27
  -4  -4   5    0.75    0.27
  -4  -4   5    0.66    0.27
   3   4  -5  236.22    9.17
   3   4  -5  240.88    9.37
   3   4  -5  241.94    9.41
  -3  -4   5  229.04    9.44
  -3  -4   5  233.73    9.11
   2   4  -5    1.44    0.39
   2   4  -5    1.84    0.48
   2   4  -5    1.73    0.34
   2   4  -5    1.67    0.40
  -2  -4   5    1.90    0.47
  -2  -4   5    1.32    0.28
   1   4  -5    9.96    0.69
   1   4  -5   10.22    0.65
   1   4  -5    9.84    0.65
   1   4  -5    8.33    0.78
  -1  -4   5    9.53    0.64
   0   4  -5   -0.13    0.27
   0   4  -5    0.28    0.17
   0   4  -5    0.12    0.19
   0   4  -5    0.19    0.21
   0  -4   5    0.16    0.22
   0  -4   5    0.02    0.21
  -1   4  -5   66.37    2.81
  -1   4  -5   65.46    2.59
  -1   4  -5   67.03    2.68
  -1   4  -5   65.22    2.65
  -1   4  -5   64.65    2.79
   1  -4   5   66.53    2.75
  -2   4  -5    3.20    0.45
  -2   4  -5    3.05    0.37
  -2   4  -5    3.38    0.39
   2  -4   5    3.69    0.35
  -3   4  -5  203.87    8.14
  -3   4  -5  209.85    8.05
  -3   4  -5  204.48    8.03
   3  -4   5  205.59    7.81
   3  -4   5  204.86    7.82
  -4   4  -5    2.06    0.44
  -4   4  -5    1.80    0.48
  -4   4  -5    2.03    0.53
   4  -4   5    2.24    0.23
   4  -4   5    2.06    0.39
   4  -4   5    1.93    0.46
  -5   4  -5  208.22    7.98
  -5   4  -5  196.38    7.99
  -5   4  -5  179.59    7.94
   5  -4   5  205.01    7.90
   5  -4   5  201.37    7.64
   5  -4   5  197.65    7.79
  -6   4  -5    8.43    1.22
  -6   4  -5   10.95    1.08
  -6   4  -5   11.81    1.14
   6  -4   5   10.52    0.95
   6  -4   5    8.15    1.08
   6  -4   5   10.20    0.82
  -7   4  -5   20.42    1.67
  -7   4  -5   22.69    1.84
   7  -4   5   20.59    1.51
   7  -4   5   21.97    1.47
  -8   4  -5    4.05    1.12
  -8   4  -5    3.79    1.28
   8  -4   5    5.14    1.44
   6   3  -5   -0.06    0.84
  -6  -3   5    1.28    0.85
  -6  -3   5    1.73    0.63
   5   3  -5    4.45    1.02
   5   3  -5    2.37    0.79
   5   3  -5    5.25    1.21
  -5  -3   5    4.38    0.98
  -5  -3   5    5.39    0.72
  -5  -3   5    5.86    0.86
   4   3  -5   13.27    1.14
   4   3  -5   14.56    1.21
  -4  -3   5   15.26    1.17
  -4  -3   5   14.93    0.71
  -4  -3   5   15.50    0.88
  -4  -3   5   13.64    0.82
   3   3  -5    0.61    0.36
   3   3  -5    0.33    0.35
   3   3  -5    0.92    0.45
  -3  -3   5    0.63    0.38
  -3  -3   5    0.21    0.18
   2   3  -5   52.94    2.21
   2   3  -5   55.24    2.46
   2   3  -5   56.62    2.32
   2   3  -5   51.10    2.34
  -2  -3   5   50.29    2.42
  -2  -3   5   52.56    2.18
   1   3  -5    3.61    0.38
   1   3  -5    3.15    0.34
   1   3  -5    3.42    0.37
   1   3  -5    3.41    0.52
  -1  -3   5    3.44    0.36
  -1  -3   5    2.91    0.45
   0   3  -5    2.03    0.30
   0   3  -5    1.88    0.19
   0   3  -5    1.48    0.36
   0   3  -5    2.06    0.25
   0  -3   5    1.89    0.36
  -1   3  -5    1.06    0.20
  -1   3  -5    1.26    0.20
  -1   3  -5    0.61    0.22
  -1   3  -5    1.04    0.28
  -1   3  -5    1.14    0.17
   1  -3   5    1.01    0.25
  -2   3  -5   63.99    2.73
  -2   3  -5   63.32    2.53
  -2   3  -5   63.37    2.58
  -2   3  -5   63.20    2.59
  -2   3  -5   66.52    2.64
  -3   3  -5   18.18    0.87
  -3   3  -5   18.12    0.98
  -3   3  -5   19.47    0.88
  -3   3  -5   17.86    1.05
  -3   3  -5   20.07    0.99
   3  -3   5   19.04    0.82
  -4   3  -5  438.94   16.48
  -4   3  -5  441.87   16.53
  -4   3  -5  420.86   16.54
   4  -3   5  428.14   16.40
   4  -3   5  417.79   16.33
   4  -3   5  429.22   16.28
  -5   3  -5    6.34    0.74
  -5   3  -5    7.21    0.74
  -5   3  -5    5.57    0.77
   5  -3   5    6.04    0.77
   5  -3   5    5.45    0.54
   5  -3   5    4.93    0.58
  -6   3  -5  181.44    7.33
  -6   3  -5  172.49    7.35
  -6   3  -5  174.62    7.40
   6  -3   5  174.78    7.30
   6  -3   5  186.72    7.12
   6  -3   5  183.17    7.19
  -7   3  -5    7.27    1.19
  -7   3  -5    8.26    1.28
   7  -3   5    9.14    1.06
   7  -3   5    9.06    1.08
  -8   3  -5   26.23    2.08
  -8   3  -5   27.08    2.31
   8  -3   5   29.79    2.02
   6   2  -5   -1.07    0.74
  -6  -2   5    0.43    0.61
  -6  -2   5   -0.67    0.70
  -6  -2   5    1.00    0.76
   5   2  -5   17.67    1.37
   5   2  -5   16.66    1.50
   5   2  -5   14.05    1.42
  -5  -2   5   15.90    1.33
  -5  -2   5   15.85    1.09
  -5  -2   5   18.67    1.23
   4   2  -5    0.74    0.48
   4   2  -5    1.02    0.50
   4   2  -5    0.88    0.43
  -4  -2   5    1.19    0.36
  -4  -2   5    1.25    0.33
  -4  -2   5    1.31    0.49
   3   2  -5  532.64   19.71
   3   2  -5  534.96   19.75
   3   2  -5  497.27   19.62
  -3  -2   5  501.40   19.38
  -3  -2   5  516.77   19.74
  -3  -2   5  498.35   19.36
   2   2  -5   18.33    1.07
   2   2  -5   18.36    0.83
   2   2  -5   15.73    0.96
   2   2  -5   19.75    0.97
  -2  -2   5   18.27    1.06
   1   2  -5  720.04   27.48
   1   2  -5  740.42   27.47
   1   2  -5  681.49   27.51
   1   2  -5  768.14   27.68
  -1  -2   5  734.36   27.67
   0   2  -5   11.85    0.71
   0   2  -5   10.82    0.61
   0  -2   5   11.47    0.69
  -1   2  -5  625.96   24.04
  -1   2  -5  641.80   24.10
  -1   2  -5  642.13   24.10
  -2   2  -5   64.27    2.64
  -2   2  -5   61.00    2.51
  -2   2  -5   62.78    2.49
  -2   2  -5   62.19    2.53
  -2   2  -5   62.84    2.51
   2  -2   5   62.15    2.48
  -3   2  -5   60.62    2.66
  -3   2  -5   62.27    2.61
  -3   2  -5   62.97    2.73
  -3   2  -5   67.01    2.53
  -3   2  -5   61.44    2.62
   3  -2   5   63.63    2.47
   3  -2   5   66.16    2.47
   3  -2   5   64.82    2.56
  -4   2  -5   41.95    1.83
  -4   2  -5   37.01    1.84
  -4   2  -5   36.68    1.76
   4  -2   5   40.37    1.70
   4  -2   5   39.39    1.76
   4  -2   5   37.59    1.69
  -5   2  -5    5.53    0.71
  -5   2  -5    5.99    0.74
   5  -2   5    6.25    0.59
   5  -2   5    6.53    0.60
   5  -2   5    5.57    0.72
  -6   2  -5   32.22    1.92
  -6   2  -5   34.86    1.97
  -6   2  -5   33.19    1.85
   6  -2   5   34.81    1.91
   6  -2   5   32.16    1.72
   6  -2   5   34.10    1.74
  -7   2  -5   47.11    2.51
  -7   2  -5   46.98    2.66
   7  -2   5   45.77    2.39
   7  -2   5   48.43    2.42
  -8   2  -5    8.99    1.42
  -8   2  -5   10.44    1.64
   8  -2   5    6.73    1.56
   8  -2   5   11.41    1.42
   7   1  -5    2.73    1.26
   6   1  -5  402.05   15.61
  -6  -1   5  387.40   15.25
  -6  -1   5  388.06   15.31
   5   1  -5    3.80    0.85
   5   1  -5    4.08    0.90
  -5  -1   5    4.05    0.84
  -5  -1   5    4.36    0.74
  -5  -1   5    2.29    0.64
   4   1  -5  292.62   11.54
   4   1  -5  284.99   11.53
   4   1  -5  309.84   11.60
  -4  -1   5  295.95   11.33
  -4  -1   5  289.95   11.55
  -4  -1   5  290.27   11.37
   3   1  -5    0.38    0.28
   3   1  -5    0.22    0.30
   3   1  -5    0.12    0.31
  -3  -1   5    0.28    0.23
  -3  -1   5    0.30    0.27
  -3  -1   5    0.24    0.18
   2   1  -5  145.32    5.79
   2   1  -5  148.82    5.68
   2   1  -5  140.74    5.69
  -2  -1   5  142.11    5.78
   1   1  -5    3.61    0.25
   1   1  -5    3.83    0.31
   1   1  -5    3.84    0.43
   1   1  -5    3.74    0.29
  -1  -1   5    3.39    0.40
   0   1  -5    1.23    0.19
   0   1  -5    0.78    0.20
   0   1  -5    1.02    0.24
  -1   1  -5   51.74    2.13
  -1   1  -5   50.17    2.10
  -2   1  -5   52.09    2.17
  -2   1  -5   51.76    2.16
  -2   1  -5   51.87    2.14
  -2   1  -5   54.89    2.10
   2  -1   5   51.88    2.15
  -3   1  -5   25.37    1.25
  -3   1  -5   26.79    1.23
  -3   1  -5   28.26    1.31
  -3   1  -5   26.38    1.14
   3  -1   5   25.54    1.12
   3  -1   5   27.19    1.11
   3  -1   5   26.11    1.21
  -4   1  -5    3.66    0.50
  -4   1  -5    4.43    0.54
  -4   1  -5    3.62    0.48
   4  -1   5    3.57    0.39
   4  -1   5    3.36    0.42
   4  -1   5    3.44    0.47
  -5   1  -5   44.23    1.78
  -5   1  -5   45.55    2.16
  -5   1  -5   43.57    2.21
   5  -1   5   44.85    2.06
   5  -1   5   44.09    2.13
   5  -1   5   45.72    2.04
  -6   1  -5  132.01    6.35
  -6   1  -5  151.20    6.33
   6  -1   5  160.08    6.34
   6  -1   5  165.21    6.24
   6  -1   5  153.42    6.21
  -7   1  -5   40.86    2.49
   7  -1   5   44.77    2.28
   7  -1   5   39.77    2.20
  -8   1  -5  214.49    9.07
   8  -1   5  220.86    8.79
   8  -1   5  201.80    8.73
   7   0  -5    1.71    1.14
  -7   0   5    5.41    1.51
   6   0  -5    0.79    0.76
   6   0  -5   -0.43    0.71
  -6   0   5    0.75    0.81
  -6   0   5    0.06    0.62
   5   0  -5    9.22    1.24
   5   0  -5    7.62    0.99
  -5   0   5    9.99    1.04
  -5   0   5    7.33    0.88
   4   0  -5    5.59    0.80
   4   0  -5    5.90    0.70
   4   0  -5    3.33    0.70
  -4   0   5    4.27    0.67
  -4   0   5    4.48    0.60
   3   0  -5   31.70    1.58
   3   0  -5   31.70    1.55
   3   0  -5   26.27    1.51
  -3   0   5   33.39    1.42
  -3   0   5   30.83    1.44
   2   0  -5    1.33    0.31
   2   0  -5    1.34    0.32
   2   0  -5    1.94    0.35
  -2   0   5    2.09    0.26
  -2   0   5    1.82    0.23
   1   0  -5   16.09    0.69
   1   0  -5   15.76    0.79
   1   0  -5   16.42    0.91
   1   0  -5   18.70    0.81
   0   0  -5   31.15    1.43
   0   0  -5   31.60    1.42
   0   0  -5   31.67    1.28
  -1   0  -5  573.79   21.43
  -1   0  -5  557.15   21.41
  -2   0  -5   22.54    1.05
  -2   0  -5   22.79    1.09
  -2   0  -5   23.13    1.02
   2   0   5   22.67    1.07
  -3   0  -5  586.86   23.05
  -3   0  -5  604.13   23.02
  -3   0  -5  635.29   23.13
   3   0   5  608.81   23.02
   3   0   5  621.24   22.91
   3   0   5  586.14   22.92
  -4   0  -5   50.03    2.19
  -4   0  -5   47.92    2.26
  -4   0  -5   45.34    2.18
   4   0   5   46.83    2.07
   4   0   5   50.27    2.16
   4   0   5   49.98    2.16
  -5   0  -5  382.35   14.87
  -5   0  -5  383.56   14.85
  -5   0  -5  367.34   14.94
   5   0   5  385.26   14.84
   5   0   5  394.05   14.75
   5   0   5  385.89   14.80
  -6   0  -5   72.18    2.94
  -6   0  -5   65.37    3.41
  -6   0  -5   73.49    3.37
   6   0   5   81.43    3.40
   6   0   5   71.82    3.26
   6   0   5   71.76    3.22
  -7   0  -5  151.77    6.42
  -7   0  -5  145.64    6.50
  -7   0  -5  154.63    5.80
   7   0   5  145.62    6.24
  -8   0  -5   52.42    3.05
   8   0   5   46.02    2.68
   6  -1  -5   12.37    1.49
   6  -1  -5   12.98    1.52
  -6   1   5   15.97    1.42
   5  -1  -5   -0.90    0.65
   5  -1  -5    1.01    0.51
   5  -1  -5    0.71    0.81
  -5   1   5    0.15    0.48
  -5   1   5    0.14    0.53
   4  -1  -5  155.92    6.53
   4  -1  -5  162.23    6.53
   4  -1  -5  164.24    6.49
  -4   1   5  157.24    6.39
   3  -1  -5    1.47    0.43
   3  -1  -5    1.29    0.36
   3  -1  -5    1.86    0.51
  -3   1   5    1.18    0.30
  -3   1   5    1.03    0.31
   2  -1  -5  357.54   13.52
   2  -1  -5  356.88   13.56
   2  -1  -5  352.50   13.52
  -2   1   5  360.83   13.42
  -2   1   5  333.59   13.40
   1  -1  -5    0.07    0.14
   1  -1  -5    0.11    0.10
   1  -1  -5   -0.09    0.18
   1  -1  -5    0.92    0.26
  -1   1   5    0.09    0.10
  -1   1   5    0.04    0.11
   0  -1  -5  459.95   17.83
   0  -1  -5  468.82   17.71
   0  -1  -5  475.90   17.74
  -1  -1  -5   22.75    1.07
  -1  -1  -5   22.32    1.00
  -1  -1  -5   22.97    1.11
   1   1   5   23.49    1.10
  -2  -1  -5  205.85    7.98
  -2  -1  -5  208.87    7.93
  -2  -1  -5  207.31    7.96
   2   1   5  212.53    7.80
   2   1   5  202.41    7.96
   2   1   5  194.95    7.79
  -3  -1  -5   39.93    1.82
  -3  -1  -5   36.32    1.74
  -3  -1  -5   37.90    1.77
   3   1   5   39.71    1.75
   3   1   5   39.50    1.67
   3   1   5   38.24    1.65
  -4  -1  -5    0.54    0.30
  -4  -1  -5    0.53    0.31
  -4  -1  -5    0.86    0.32
   4   1   5    0.62    0.28
   4   1   5    0.41    0.26
  -5  -1  -5   45.06    2.17
  -5  -1  -5   40.09    2.21
  -5  -1  -5   47.39    2.20
   5   1   5   43.10    2.12
   5   1   5   45.08    2.06
   5   1   5   41.88    2.14
  -6  -1  -5  151.98    6.42
  -6  -1  -5  148.62    6.09
  -6  -1  -5  155.49    6.44
  -6  -1  -5  144.34    6.52
   6   1   5  157.36    6.33
   6   1   5  165.60    6.47
   6   1   5  157.19    6.39
  -7  -1  -5   24.33    1.81
  -7  -1  -5   16.18    1.62
  -7  -1  -5   21.98    1.19
   7   1   5   22.78    1.50
  -8  -1  -5   13.21    0.99
  -8  -1  -5   13.73    1.78
   8   1   5   14.61    1.58
   6  -2  -5    0.21    0.73
   6  -2  -5    0.72    0.81
  -6   2   5    0.39    0.89
  -6   2   5    0.59    0.74
   5  -2  -5   16.23    1.35
   5  -2  -5   14.31    1.48
  -5   2   5   15.45    1.31
  -5   2   5   16.69    1.28
   4  -2  -5    0.01    0.39
   4  -2  -5    0.60    0.38
   4  -2  -5    0.48    0.48
  -4   2   5    0.40    0.40
  -4   2   5    0.30    0.37
   3  -2  -5   20.73    1.28
   3  -2  -5   21.58    1.27
   3  -2  -5   24.85    1.28
  -3   2   5   23.77    1.23
  -3   2   5   23.41    1.23
   2  -2  -5    1.54    0.38
   2  -2  -5    1.79    0.42
   2  -2  -5    1.38    0.33
   2  -2  -5    1.73    0.15
  -2   2   5    1.75    0.35
  -2   2   5    1.76    0.36
   1  -2  -5  273.04   10.09
   1  -2  -5  259.44   10.01
   1  -2  -5  259.74    9.88
   1  -2  -5  250.24   10.01
  -1   2   5  255.91    9.92
  -1   2   5  259.81    9.97
   0  -2  -5   -0.14    0.12
   0  -2  -5    0.14    0.15
   0  -2  -5    0.01    0.16
   0  -2  -5   -0.15    0.14
   0   2   5    0.03    0.15
   0   2   5    0.02    0.11
  -1  -2  -5  314.96   11.30
  -1  -2  -5  290.58   11.35
  -1  -2  -5  297.33   11.36
   1   2   5  287.43   11.20
   1   2   5  281.54   11.24
   1   2   5  299.35   11.36
  -2  -2  -5    1.42    0.40
  -2  -2  -5    1.62    0.30
  -2  -2  -5    1.81    0.32
   2   2   5    1.39    0.28
   2   2   5    1.56    0.24
   2   2   5    1.34    0.25
  -3  -2  -5    5.54    0.56
  -3  -2  -5    5.58    0.54
  -3  -2  -5    7.18    0.65
   3   2   5    6.22    0.50
   3   2   5    6.43    0.57
   3   2   5    6.10    0.50
  -4  -2  -5    6.39    0.73
  -4  -2  -5    6.91    0.67
  -4  -2  -5    5.97    0.70
   4   2   5    6.43    0.59
   4   2   5    7.02    0.65
   4   2   5    6.55    0.66
  -5  -2  -5   91.47    4.17
  -5  -2  -5   93.89    4.09
  -5  -2  -5   91.05    4.11
   5   2   5   97.06    4.09
   5   2   5  100.71    4.09
   5   2   5   90.68    3.99
  -6  -2  -5    1.39    0.55
  -6  -2  -5    0.96    0.67
  -6  -2  -5    1.43    0.59
   6   2   5    1.39    0.55
   6   2   5    1.57    0.65
   6   2   5    1.11    0.49
  -7  -2  -5   78.03    3.82
  -7  -2  -5   76.49    3.29
   7   2   5   76.53    3.59
   7   2   5   71.59    3.62
  -8  -2  -5    8.67    1.03
  -8  -2  -5   11.76    1.73
   8   2   5    9.82    1.46
   6  -3  -5  223.07    9.34
   6  -3  -5  221.17    9.03
  -6   3   5  207.73    9.14
  -6   3   5  244.53    9.24
   5  -3  -5    4.37    0.97
  -5   3   5    7.07    1.00
   4  -3  -5  231.67    9.84
   4  -3  -5  255.99    9.74
   4  -3  -5  254.17    9.90
  -4   3   5  246.32    9.77
  -4   3   5  247.25    9.79
   3  -3  -5    5.85    0.72
   3  -3  -5    5.23    0.67
   3  -3  -5    5.96    0.62
  -3   3   5    5.52    0.40
  -3   3   5    5.59    0.64
  -3   3   5    5.39    0.66
   2  -3  -5    6.47    0.65
   2  -3  -5    6.53    0.41
   2  -3  -5    5.90    0.60
   2  -3  -5    6.20    0.61
   2  -3  -5    7.52    0.64
  -2   3   5    6.55    0.58
  -2   3   5    6.28    0.59
   1  -3  -5    0.71    0.26
   1  -3  -5    0.87    0.28
   1  -3  -5    1.43    0.34
   1  -3  -5    0.99    0.22
  -1   3   5    0.75    0.24
  -1   3   5    0.95    0.27
   0  -3  -5    9.25    0.64
   0  -3  -5   11.92    0.71
   0  -3  -5   11.09    0.71
   0  -3  -5   11.02    0.72
   0   3   5   11.13    0.69
   0   3   5   10.74    0.62
  -1  -3  -5    7.93    0.65
  -1  -3  -5    8.83    0.61
  -1  -3  -5    8.87    0.59
  -1  -3  -5    8.71    0.67
   1   3   5    8.47    0.54
   1   3   5    8.43    0.61
   1   3   5    8.92    0.63
  -2  -3  -5  119.17    4.91
  -2  -3  -5  122.75    4.99
  -2  -3  -5  121.30    4.96
  -2  -3  -5  120.55    4.91
   2   3   5  116.13    4.82
   2   3   5  130.10    4.92
  -3  -3  -5    3.62    0.48
  -3  -3  -5    3.67    0.51
  -3  -3  -5    3.63    0.61
   3   3   5    3.41    0.47
   3   3   5    3.81    0.51
   3   3   5    3.67    0.45
  -4  -3  -5  128.50    5.46
  -4  -3  -5  138.77    5.48
  -4  -3  -5  129.37    5.38
   4   3   5  127.31    5.34
   4   3   5  127.25    5.33
  -5  -3  -5    2.73    0.67
  -5  -3  -5    3.16    0.81
  -5  -3  -5    2.55    0.63
   5   3   5    3.01    0.64
   5   3   5    2.06    0.51
   5   3   5    2.08    0.53
  -6  -3  -5    5.47    0.94
  -6  -3  -5    5.15    1.11
  -6  -3  -5    4.86    0.98
   6   3   5    4.55    0.85
   6   3   5    5.85    1.12
  -7  -3  -5    0.98    0.71
  -7  -3  -5    0.94    0.50
   7   3   5   -0.03    0.67
   7   3   5    0.24    0.63
   7   3   5   -0.20    0.88
  -8  -3  -5   69.28    3.75
  -8  -3  -5   68.38    3.18
   8   3   5   66.49    3.56
   6  -4  -5    3.14    0.90
   6  -4  -5    6.97    1.46
  -6   4   5    3.51    1.00
   5  -4  -5    4.29    1.07
  -5   4   5    1.65    0.34
  -5   4   5    1.42    0.68
  -5   4   5    2.08    0.78
   4  -4  -5    3.02    0.81
   4  -4  -5    3.23    0.75
   4  -4  -5    4.08    1.08
  -4   4   5    2.90    0.78
  -4   4   5    3.61    0.86
  -4   4   5    3.33    0.48
   3  -4  -5   28.81    1.55
   3  -4  -5   31.72    1.54
   3  -4  -5   27.50    1.25
   3  -4  -5   28.30    1.65
   3  -4  -5   25.99    1.56
  -3   4   5   28.24    1.54
  -3   4   5   26.69    1.31
  -3   4   5   26.76    1.52
   2  -4  -5    6.75    0.51
   2  -4  -5    6.50    0.73
   2  -4  -5    7.66    0.69
   2  -4  -5    6.61    0.69
  -2   4   5    8.16    0.71
  -2   4   5    7.92    0.59
  -2   4   5    7.66    0.71
   1  -4  -5    0.87    0.33
   1  -4  -5    0.07    0.24
   1  -4  -5    0.85    0.31
   1  -4  -5    0.30    0.21
  -1   4   5    0.11    0.24
  -1   4   5    0.22    0.24
  -1   4   5    0.05    0.21
   0  -4  -5   19.20    1.06
   0  -4  -5   17.57    1.02
   0  -4  -5   19.12    1.05
   0  -4  -5   18.00    1.10
   0   4   5   19.09    1.08
   0   4   5   19.35    1.00
  -1  -4  -5  127.26    5.38
  -1  -4  -5  135.37    5.45
  -1  -4  -5  139.13    5.49
  -1  -4  -5  134.22    5.40
   1   4   5  141.47    5.35
   1   4   5  135.72    5.40
   1   4   5  126.39    5.42
  -2  -4  -5   26.53    1.35
  -2  -4  -5   27.42    1.47
  -2  -4  -5   26.61    1.37
   2   4   5   24.00    1.28
   2   4   5   26.24    1.35
   2   4   5   24.00    1.37
  -3  -4  -5  755.72   29.83
  -3  -4  -5  803.75   29.90
  -3  -4  -5  828.15   29.99
  -3  -4  -5  783.83   29.89
   3   4   5  735.39   29.77
   3   4   5  788.09   29.82
   3   4   5  790.53   29.86
  -4  -4  -5   17.42    1.17
  -4  -4  -5   18.12    1.21
  -4  -4  -5   17.86    1.29
  -4  -4  -5   17.52    1.21
   4   4   5   15.71    1.14
   4   4   5   17.46    1.19
   4   4   5   18.53    1.20
  -5  -4  -5  366.85   13.93
  -5  -4  -5  352.79   14.00
  -5  -4  -5  338.98   13.99
  -5  -4  -5  363.14   13.90
   5   4   5  347.77   13.89
   5   4   5  349.11   13.88
   5   4   5  357.02   13.89
  -6  -4  -5    4.73    1.01
  -6  -4  -5    5.30    1.02
   6   4   5    4.09    1.06
   6   4   5    5.56    0.96
  -7  -4  -5   61.35    3.25
  -7  -4  -5   58.00    2.83
   7   4   5   58.68    3.09
  -8  -4  -5    8.31    1.29
  -8  -4  -5    7.14    1.72
   8   4   5   12.05    1.67
   6  -5  -5    6.00    1.15
  -6   5   5    7.78    1.73
   5  -5  -5    0.92    0.66
   5  -5  -5   -1.39    0.69
  -5   5   5    1.10    0.44
  -5   5   5    1.00    0.75
  -5   5   5   -0.33    0.77
   4  -5  -5  260.25   10.36
   4  -5  -5  267.39   10.50
   4  -5  -5  253.13   10.23
  -4   5   5  254.42   10.09
  -4   5   5  265.21   10.42
   3  -5  -5    0.16    0.37
   3  -5  -5    0.22    0.27
   3  -5  -5    0.20    0.42
   3  -5  -5    0.55    0.44
   3  -5  -5    0.72    0.53
  -3   5   5    0.07    0.48
  -3   5   5   -0.10    0.30
  -3   5   5    0.61    0.46
   2  -5  -5  594.89   23.00
   2  -5  -5  580.26   23.06
   2  -5  -5  597.73   22.83
   2  -5  -5  612.25   23.10
  -2   5   5  615.56   23.00
  -2   5   5  628.84   23.08
  -2   5   5  577.50   22.89
   1  -5  -5    3.95    0.55
   1  -5  -5    3.96    0.54
   1  -5  -5    2.89    0.61
   1  -5  -5    3.48    0.52
  -1   5   5    3.06    0.53
  -1   5   5    2.84    0.52
  -1   5   5    2.48    0.54
   0  -5  -5  582.12   21.93
   0  -5  -5  586.77   21.93
   0  -5  -5  577.84   22.03
   0  -5  -5  553.87   21.94
   0   5   5  571.19   21.91
   0   5   5  586.09   22.00
   0   5   5  560.27   21.94
  -1  -5  -5    0.40    0.27
  -1  -5  -5    0.51    0.37
  -1  -5  -5   -0.04    0.25
  -1  -5  -5    0.28    0.37
   1   5   5   -0.19    0.29
   1   5   5    0.02    0.25
   1   5   5    0.16    0.25
  -2  -5  -5  139.55    5.91
  -2  -5  -5  139.07    5.78
  -2  -5  -5  138.17    5.81
  -2  -5  -5  147.52    5.88
   2   5   5  147.07    5.77
   2   5   5  139.65    5.85
   2   5   5  144.96    5.78
  -3  -5  -5   29.27    1.60
  -3  -5  -5   27.03    1.53
  -3  -5  -5   28.98    1.72
  -3  -5  -5   26.28    1.64
   3   5   5   27.31    1.53
   3   5   5   29.61    1.63
   3   5   5   28.67    1.55
  -4  -5  -5   56.19    2.78
  -4  -5  -5   62.75    2.92
  -4  -5  -5   53.45    2.69
   4   5   5   59.12    2.77
   4   5   5   55.96    2.96
   4   5   5   54.13    2.69
  -5  -5  -5   52.01    2.65
   5   5   5   52.62    2.69
   5   5   5   53.09    2.65
  -6  -5  -5   33.74    2.26
  -6  -5  -5   39.13    2.26
  -6  -5  -5   38.51    2.34
   6   5   5   39.40    2.25
   6   5   5   36.19    2.33
  -7  -5  -5   47.14    2.90
  -7  -5  -5   48.93    2.79
  -7  -5  -5   47.73    2.52
   7   5   5   50.85    2.83
  -8  -5  -5   28.11    2.54
  -8  -5  -5   25.77    1.96
   8   5   5   29.47    2.33
   5  -6  -5   89.03    4.40
   5  -6  -5   86.88    4.08
   5  -6  -5   92.72    4.25
  -5   6   5   95.33    4.39
  -5   6   5   95.47    3.93
   4  -6  -5    8.32    1.06
   4  -6  -5    6.05    1.09
  -4   6   5    7.45    0.94
  -4   6   5    7.26    1.32
  -4   6   5    6.75    1.13
   3  -6  -5  106.69    4.34
   3  -6  -5   92.19    4.39
   3  -6  -5   98.22    4.10
   3  -6  -5   97.21    4.50
  -3   6   5  105.64    4.44
  -3   6   5   99.01    4.21
   2  -6  -5    4.03    0.94
   2  -6  -5    4.35    0.64
   2  -6  -5    5.28    0.75
   2  -6  -5    4.26    0.66
  -2   6   5    4.50    0.77
  -2   6   5    3.24    0.68
  -2   6   5    4.31    0.77
   1  -6  -5    6.35    0.73
   1  -6  -5    5.41    0.86
   1  -6  -5    6.01    0.67
   1  -6  -5    6.80    0.74
  -1   6   5    5.57    0.73
  -1   6   5    6.90    0.76
  -1   6   5    5.83    0.72
   0  -6  -5   46.69    2.16
   0  -6  -5   50.45    2.25
   0  -6  -5   44.65    2.28
   0  -6  -5   44.42    2.20
   0   6   5   43.95    2.17
   0   6   5   45.59    2.21
   0   6   5   44.89    2.25
  -1  -6  -5   23.65    1.46
  -1  -6  -5   21.82    1.29
  -1  -6  -5   23.08    1.35
  -1  -6  -5   21.63    1.38
   1   6   5   22.62    1.32
   1   6   5   24.35    1.36
   1   6   5   22.61    1.36
   1   6   5   23.42    1.40
  -2  -6  -5   50.44    2.39
  -2  -6  -5   52.46    2.59
  -2  -6  -5   52.07    2.52
  -2  -6  -5   50.71    2.45
   2   6   5   51.78    2.42
   2   6   5   50.60    2.41
   2   6   5   48.80    2.48
  -3  -6  -5    2.86    0.68
  -3  -6  -5    2.27    0.63
  -3  -6  -5    2.26    0.61
  -3  -6  -5    0.98    0.39
   3   6   5    1.89    0.50
   3   6   5    2.03    0.58
   3   6   5    2.04    0.56
  -4  -6  -5   50.76    2.70
  -4  -6  -5   53.25    2.66
   4   6   5   58.79    2.77
   4   6   5   53.90    2.70
  -5  -6  -5  101.29    4.56
  -5  -6  -5   99.00    4.43
   5   6   5   94.31    4.45
  -6  -6  -5   23.81    1.95
  -6  -6  -5   27.35    1.95
   6   6   5   30.76    1.94
  -7  -6  -5  251.53    9.96
  -7  -6  -5  228.41    9.78
  -7  -6  -5  232.02    9.56
   7   6   5  227.96    9.83
   5  -7  -5    9.07    1.49
  -5   7   5    8.31    1.70
   4  -7  -5   32.75    1.99
   4  -7  -5   36.44    2.24
   4  -7  -5   32.66    2.04
  -4   7   5   33.18    1.90
  -4   7   5   31.42    2.20
   3  -7  -5    7.64    0.96
   3  -7  -5    6.14    0.93
   3  -7  -5    6.63    1.05
  -3   7   5    5.52    1.22
  -3   7   5    6.77    1.13
  -3   7   5    6.91    0.98
   2  -7  -5    8.40    0.94
   2  -7  -5    9.24    1.26
   2  -7  -5    9.84    1.03
   2  -7  -5    8.11    0.90
  -2   7   5   10.38    1.06
  -2   7   5    8.57    0.95
   1  -7  -5   15.07    1.07
   1  -7  -5   15.50    1.21
   1  -7  -5   14.39    1.40
   1  -7  -5   15.21    1.16
  -1   7   5   14.40    1.12
  -1   7   5   13.45    1.16
  -1   7   5   15.83    1.21
   0  -7  -5  263.36   10.75
   0  -7  -5  260.35   10.86
   0  -7  -5  276.64   10.74
   0  -7  -5  270.36   10.66
   0   7   5  272.40   10.75
   0   7   5  272.39   10.72
   0   7   5  281.90   10.83
  -1  -7  -5   -0.11    0.72
  -1  -7  -5    0.24    0.34
  -1  -7  -5    0.38    0.37
  -1  -7  -5    0.43    0.54
   1   7   5    0.10    0.46
   1   7   5    0.24    0.38
   1   7   5    0.24    0.43
   1   7   5   -0.44    0.40
  -2  -7  -5  384.55   15.24
  -2  -7  -5  420.88   15.38
  -2  -7  -5  394.33   15.38
   2   7   5  384.22   15.38
   2   7   5  398.75   15.26
   2   7   5  368.92   15.26
  -3  -7  -5   -0.05    0.46
  -3  -7  -5   -0.01    0.46
  -3  -7  -5   -0.22    0.65
   3   7   5    0.35    0.53
   3   7   5    0.85    0.53
   3   7   5    0.01    0.52
  -4  -7  -5  212.21    8.62
  -4  -7  -5  215.33    8.73
   4   7   5  205.02    8.61
  -5  -7  -5    4.00    1.15
  -5  -7  -5    4.61    1.07
   5   7   5    5.25    1.07
   5   7   5    4.97    1.06
  -6  -7  -5  121.75    5.58
  -6  -7  -5  117.04    5.62
   6   7   5  129.94    5.62
  -7  -7  -5   30.59    2.58
  -7  -7  -5   33.16    2.26
  -7  -7  -5   30.87    2.43
   7   7   5   33.03    2.50
   4  -8  -5    3.89    0.92
   4  -8  -5    6.97    1.46
   4  -8  -5    3.80    1.06
  -4   8   5    5.21    1.22
  -4   8   5    5.29    1.27
   3  -8  -5   87.08    4.28
   3  -8  -5   88.98    4.06
   3  -8  -5   91.82    4.09
  -3   8   5   92.81    4.15
  -3   8   5   97.89    4.35
   2  -8  -5   15.17    1.24
   2  -8  -5   16.87    1.42
   2  -8  -5   15.52    1.41
  -2   8   5   16.49    1.39
  -2   8   5   16.77    1.53
  -2   8   5   17.69    1.48
   1  -8  -5   51.14    2.46
   1  -8  -5   42.18    3.08
   1  -8  -5   49.71    2.59
   1  -8  -5   50.56    2.57
  -1   8   5   52.58    2.67
  -1   8   5   51.81    2.57
  -1   8   5   51.67    2.67
   0  -8  -5    1.82    0.69
   0  -8  -5    2.80    0.69
   0  -8  -5    2.07    0.58
   0   8   5    2.39    0.65
   0   8   5    1.91    0.62
  -1  -8  -5   22.34    1.52
  -1  -8  -5   22.54    1.75
  -1  -8  -5   23.55    1.46
   1   8   5   24.86    1.60
   1   8   5   24.28    1.63
   1   8   5   23.26    1.53
  -2  -8  -5    5.52    1.25
  -2  -8  -5    3.12    0.77
  -2  -8  -5    4.09    0.84
   2   8   5    4.30    0.98
   2   8   5    4.35    0.88
  -3  -8  -5   29.61    1.80
  -3  -8  -5   26.71    2.02
  -3  -8  -5   31.16    1.90
   3   8   5   27.79    1.97
   3   8   5   32.06    2.02
   3   8   5   29.34    1.94
  -4  -8  -5   21.44    1.60
  -4  -8  -5   23.17    1.71
   4   8   5   16.11    1.68
   4   8   5   18.86    1.72
   4   8   5   22.33    1.77
  -5  -8  -5   85.05    4.31
  -5  -8  -5   86.23    4.17
   5   8   5   89.44    4.24
  -6  -8  -5   23.30    2.08
  -6  -8  -5   19.54    2.12
   6   8   5   21.57    2.08
   3  -9  -5    6.10    1.46
   3  -9  -5    4.47    0.92
   3  -9  -5    8.08    1.54
  -3   9   5    8.11    1.50
  -3   9   5    5.33    1.39
   2  -9  -5  158.50    6.56
   2  -9  -5  175.32    6.89
   2  -9  -5  149.76    6.65
  -2   9   5  160.85    6.73
  -2   9   5  145.80    6.80
   1  -9  -5    5.07    1.08
   1  -9  -5    4.56    0.92
   1  -9  -5    4.81    1.02
  -1   9   5    4.75    0.87
  -1   9   5    4.40    0.96
   0  -9  -5  169.74    6.85
   0  -9  -5  162.12    7.04
   0  -9  -5  167.36    7.01
   0   9   5  164.88    7.00
   0   9   5  165.75    7.08
  -1  -9  -5    9.29    1.48
  -1  -9  -5   11.59    1.22
  -1  -9  -5   11.68    1.08
   1   9   5    9.43    1.32
   1   9   5   11.80    1.28
   1   9   5   10.47    1.26
   1   9   5    7.91    1.25
  -2  -9  -5   30.40    1.80
  -2  -9  -5   25.54    1.87
   2   9   5   26.12    1.92
   2   9   5   28.31    2.03
  -3  -9  -5    4.11    1.03
  -3  -9  -5    3.18    0.83
   3   9   5    1.28    0.84
   3   9   5    2.35    0.85
  -4  -9  -5   24.70    1.99
  -4  -9  -5   27.42    1.93
   4   9   5   26.32    2.15
  -5  -9  -5    2.49    1.10
  -5  -9  -5    3.37    0.98
   5   9   5    4.32    1.14
  -6  -9  -5   34.48    2.93
  -6  -9  -5   44.94    2.91
   6   9   5   42.39    2.90
   2 -10  -5   -0.61    0.72
   2 -10  -5    0.56    0.95
  -2  10   5    0.41    0.88
  -2  10   5    0.64    1.03
   1 -10  -5    1.76    0.71
   1 -10  -5    3.91    1.00
  -1  10   5    1.81    1.00
  -1  10   5    3.39    1.00
   0 -10  -5   21.77    1.80
   0 -10  -5   22.33    1.65
   0  10   5   22.45    2.02
   0  10   5   24.49    1.90
  -1 -10  -5    3.56    0.82
  -1 -10  -5    2.39    0.85
   1  10   5    1.09    0.84
   1  10   5    5.57    1.30
   1  10   5    5.79    1.42
  -2 -10  -5   25.48    2.00
  -2 -10  -5   24.32    1.82
   2  10   5   25.45    2.07
   2  10   5   22.30    1.89
  -3 -10  -5   18.08    1.80
  -3 -10  -5   19.42    1.73
   3  10   5   18.46    2.02
  -4 -10  -5   16.81    1.85
  -4 -10  -5   14.13    1.77
   4  10   5   15.61    2.02
  -5 -10  -5    3.19    1.20
  -5 -10  -5    0.21    1.24
   5  10   5    2.35    1.24
   0 -11  -5   53.58    2.76
   0 -11  -5   44.41    2.89
   0  11   5   49.32    3.04
   0  11   5   47.15    3.08
  -1 -11  -5   -1.42    0.90
  -1 -11  -5    0.20    0.84
   1  11   5    0.42    0.94
   1  11   5    0.01    1.07
  -2 -11  -5  236.37    9.34
  -2 -11  -5  202.19    9.42
   2  11   5  235.51    9.64
  -3 -11  -5   -0.23    1.01
  -3 -11  -5    1.58    0.99
   3  11   5    1.69    1.16
   1  10  -6   15.97    1.77
   1  10  -6   14.64    1.79
  -1 -10   6   14.94    1.89
   0  10  -6   56.14    3.17
   0  10  -6   59.77    3.21
   0 -10   6   63.29    3.21
  -1  10  -6    6.86    1.51
  -1  10  -6    8.71    1.45
   1 -10   6    7.50    1.39
  -2  10  -6    0.76    0.86
  -2  10  -6    0.64    0.94
   2 -10   6    2.29    0.79
   2   9  -6    2.73    0.93
   2   9  -6    1.38    0.80
  -2  -9   6    4.95    1.08
   1   9  -6   33.36    2.10
   1   9  -6   33.33    2.09
   1   9  -6   31.89    2.42
  -1  -9   6   34.39    2.22
   0   9  -6    2.68    0.82
   0   9  -6    1.52    0.71
   0   9  -6    1.53    1.06
   0  -9   6    2.41    0.79
  -1   9  -6    2.63    1.02
  -1   9  -6    3.49    0.96
  -1   9  -6    3.66    0.81
   1  -9   6    3.82    0.78
  -2   9  -6    5.25    1.17
  -2   9  -6    2.51    0.72
  -2   9  -6    2.97    1.02
   2  -9   6    4.12    0.93
  -3   9  -6   -0.36    0.81
  -3   9  -6    0.58    0.68
   3  -9   6    0.83    0.52
  -4   9  -6   26.87    2.20
  -4   9  -6   29.77    2.08
   3   8  -6    1.29    0.97
   3   8  -6   -1.63    0.71
   3   8  -6    0.15    0.81
   3   8  -6    0.00    1.15
  -3  -8   6   -0.02    0.88
  -3  -8   6   -0.32    0.74
   2   8  -6    1.15    0.71
   2   8  -6   -0.44    0.55
   2   8  -6   -0.56    0.95
   2   8  -6   -0.65    0.71
  -2  -8   6    0.69    0.76
  -2  -8   6    1.45    0.79
   1   8  -6    4.26    0.92
   1   8  -6    3.19    0.89
   1   8  -6    2.37    0.68
   1   8  -6    3.63    0.92
  -1  -8   6    2.42    0.74
  -1  -8   6    3.31    0.77
   0   8  -6   52.84    2.80
   0   8  -6   55.89    2.32
   0   8  -6   55.69    2.68
   0   8  -6   56.83    2.75
   0  -8   6   58.58    2.77
   0  -8   6   54.82    2.82
  -1   8  -6    7.28    1.01
  -1   8  -6    7.98    0.95
  -1   8  -6    7.38    1.18
   1  -8   6    8.05    0.97
   1  -8   6    6.18    1.23
  -2   8  -6   84.98    3.85
  -2   8  -6   86.25    3.92
  -2   8  -6   85.12    3.75
   2  -8   6   84.28    3.66
  -3   8  -6    4.68    1.21
  -3   8  -6    7.99    1.09
  -3   8  -6    3.42    0.86
   3  -8   6    4.48    0.67
  -4   8  -6    5.35    1.21
  -4   8  -6    5.56    1.43
  -4   8  -6    7.25    1.18
  -5   8  -6    0.72    0.86
  -5   8  -6    0.19    0.88
   4   7  -6    1.18    0.85
  -4  -7   6    1.29    0.90
   3   7  -6    0.85    0.84
   3   7  -6   -0.74    0.57
   3   7  -6    2.41    1.05
  -3  -7   6    0.16    0.58
  -3  -7   6   -0.07    0.76
   2   7  -6    2.57    0.87
   2   7  -6    3.09    0.65
   2   7  -6    2.95    0.70
   2   7  -6    5.19    1.02
  -2  -7   6    4.11    0.86
  -2  -7   6    3.74    0.93
   1   7  -6   30.78    1.70
   1   7  -6   29.71    1.70
   1   7  -6   30.10    1.64
   1   7  -6   29.73    1.82
  -1  -7   6   31.77    1.83
  -1  -7   6   31.42    1.76
   0   7  -6   16.75    1.23
   0   7  -6   18.35    1.14
   0   7  -6   16.80    0.97
   0   7  -6   16.63    1.19
   0  -7   6   13.70    1.17
  -1   7  -6   75.53    3.36
  -1   7  -6   74.97    3.29
  -1   7  -6   78.93    3.45
   1  -7   6   76.31    3.34
  -2   7  -6   31.99    1.75
  -2   7  -6   31.49    1.65
  -2   7  -6   31.85    1.82
   2  -7   6   30.58    1.58
  -3   7  -6  120.82    5.27
  -3   7  -6  119.00    5.13
  -3   7  -6  128.38    5.21
   3  -7   6  124.93    4.92
  -4   7  -6   25.97    1.69
  -4   7  -6   26.12    1.62
  -4   7  -6   24.32    1.76
  -5   7  -6  103.66    4.45
  -5   7  -6   93.93    4.46
   5  -7   6   95.41    3.92
  -6   7  -6    2.96    0.92
  -6   7  -6    4.78    1.03
   5   6  -6    1.94    1.00
  -5  -6   6    0.63    1.01
   4   6  -6  239.63    9.55
   4   6  -6  231.67    9.56
  -4  -6   6  235.26    9.62
  -4  -6   6  226.38    9.13
   3   6  -6    2.34    0.71
   3   6  -6    4.11    1.19
   3   6  -6    2.23    0.80
   3   6  -6    2.94    0.76
  -3  -6   6    5.72    1.09
  -3  -6   6    3.14    0.74
   2   6  -6  267.40   10.45
   2   6  -6  274.51   10.56
   2   6  -6  255.82   10.51
   2   6  -6  267.22   10.51
  -2  -6   6  272.04   10.65
  -2  -6   6  259.31   10.39
   1   6  -6   15.06    1.15
   1   6  -6   15.82    1.05
   1   6  -6   16.62    1.11
   1   6  -6   16.82    1.07
  -1  -6   6   15.59    1.19
  -1  -6   6   15.05    1.09
   0   6  -6  266.79   10.27
   0   6  -6  264.20   10.34
   0   6  -6  269.61   10.46
   0   6  -6  264.79   10.39
   0  -6   6  269.14   10.46
   0  -6   6  263.80   10.48
  -1   6  -6    9.38    0.82
  -1   6  -6   10.70    0.86
  -1   6  -6    8.89    0.70
   1  -6   6    8.82    0.78
   1  -6   6    9.81    0.94
  -2   6  -6    5.96    0.63
  -2   6  -6    4.77    0.71
  -2   6  -6    4.95    0.68
   2  -6   6    5.84    0.60
  -3   6  -6   10.12    0.92
  -3   6  -6   10.54    0.96
  -3   6  -6   11.08    0.87
   3  -6   6   10.90    0.69
  -4   6  -6    8.81    1.04
  -4   6  -6   11.41    1.07
  -4   6  -6   11.00    0.96
  -5   6  -6    4.82    0.92
  -5   6  -6    3.92    0.99
  -5   6  -6    4.77    1.15
   5  -6   6    5.46    0.61
   5  -6   6    6.08    0.75
  -6   6  -6    0.79    0.72
  -6   6  -6    1.07    0.74
   6  -6   6    2.19    1.19
   6  -6   6    0.53    0.53
  -7   6  -6    7.04    1.53
  -7   6  -6    6.18    1.59
   5   5  -6   87.58    4.22
  -5  -5   6   86.57    4.24
   4   5  -6    1.37    0.94
   4   5  -6    1.43    0.69
   4   5  -6    0.71    0.85
  -4  -5   6    1.91    0.71
  -4  -5   6    1.55    0.42
   3   5  -6    9.73    1.02
   3   5  -6   10.39    1.15
   3   5  -6    8.81    1.18
   3   5  -6   10.58    0.84
  -3  -5   6   12.22    1.17
  -3  -5   6    9.91    0.81
   2   5  -6   12.46    0.88
   2   5  -6   11.78    0.98
   2   5  -6   11.02    1.22
   2   5  -6   13.27    1.05
  -2  -5   6   13.06    1.08
  -2  -5   6   11.36    0.86
   1   5  -6    4.95    0.84
   1   5  -6    4.79    0.58
   1   5  -6    6.08    0.62
   1   5  -6    5.64    0.71
  -1  -5   6    4.98    0.60
  -1  -5   6    4.71    0.72
   0   5  -6   15.46    0.88
   0   5  -6   16.33    0.96
   0   5  -6   16.02    1.14
   0   5  -6   16.57    1.00
   0  -5   6   16.23    1.03
   0  -5   6   17.32    1.06
  -1   5  -6   14.52    0.87
  -1   5  -6   14.60    0.81
  -1   5  -6   15.66    0.76
  -1   5  -6   15.66    0.98
  -1   5  -6   14.99    0.71
   1  -5   6   14.80    0.94
  -2   5  -6   43.91    2.14
  -2   5  -6   46.78    2.00
  -2   5  -6   44.97    2.01
   2  -5   6   45.17    1.99
  -3   5  -6   29.91    1.64
  -3   5  -6   30.46    1.54
  -3   5  -6   30.86    1.52
  -4   5  -6   54.07    2.48
  -4   5  -6   55.15    2.57
  -4   5  -6   50.40    2.45
  -5   5  -6   94.64    4.40
  -5   5  -6   96.93    4.36
  -5   5  -6  110.27    4.43
   5  -5   6  100.24    4.11
   5  -5   6  101.28    4.05
  -6   5  -6   73.94    3.47
  -6   5  -6   72.03    3.45
  -6   5  -6   60.00    3.52
   6  -5   6   74.29    3.27
   6  -5   6   74.45    3.12
   6  -5   6   72.98    2.84
  -7   5  -6  171.50    7.30
  -7   5  -6  171.39    7.36
   7  -5   6  170.20    6.96
   6   4  -6    7.25    1.78
  -6  -4   6    9.88    1.90
   5   4  -6    0.74    1.01
   5   4  -6    0.37    0.73
  -5  -4   6    0.80    0.76
   4   4  -6    4.38    1.15
   4   4  -6    4.10    0.95
  -4  -4   6    3.10    0.46
  -4  -4   6    4.23    0.97
   3   4  -6    1.89    0.47
   3   4  -6    2.25    0.54
   3   4  -6    2.81    0.78
  -3  -4   6    3.12    0.76
  -3  -4   6    1.69    0.40
   2   4  -6   73.20    3.05
   2   4  -6   68.46    2.93
   2   4  -6   69.21    3.20
  -2  -4   6   68.09    2.89
  -2  -4   6   71.43    3.19
   1   4  -6    3.37    0.59
   1   4  -6    2.97    0.48
   1   4  -6    2.52    0.41
   1   4  -6    2.59    0.44
  -1  -4   6    2.53    0.45
  -1  -4   6    2.68    0.55
   0   4  -6  359.67   13.60
   0   4  -6  352.11   13.50
   0   4  -6  345.23   13.35
   0   4  -6  347.01   13.39
   0  -4   6  352.49   13.57
  -1   4  -6   41.82    1.77
  -1   4  -6   43.94    1.79
  -1   4  -6   44.71    2.00
  -1   4  -6   42.36    1.96
  -1   4  -6   43.21    1.81
   1  -4   6   42.13    1.93
  -2   4  -6  577.44   21.54
  -2   4  -6  577.64   21.55
  -2   4  -6  585.88   21.64
  -2   4  -6  543.34   21.42
  -2   4  -6  566.83   21.72
   2  -4   6  560.14   21.57
  -3   4  -6   54.61    2.38
  -3   4  -6   55.72    2.38
  -3   4  -6   54.64    2.52
  -4   4  -6  238.52    9.08
  -4   4  -6  246.73    9.12
  -4   4  -6  206.99    9.13
  -5   4  -6   52.01    2.45
  -5   4  -6   49.94    2.44
  -5   4  -6   49.35    2.46
   5  -4   6   49.28    2.15
   5  -4   6   51.17    2.24
   5  -4   6   48.49    2.05
  -6   4  -6    3.62    0.75
  -6   4  -6    2.60    0.71
  -6   4  -6    4.79    1.17
   6  -4   6    4.34    0.76
   6  -4   6    4.41    0.68
   6  -4   6    3.45    0.59
  -7   4  -6   32.91    2.16
  -7   4  -6   33.57    2.18
   7  -4   6   29.57    1.74
   7  -4   6   35.18    1.92
   7  -4   6   36.95    2.22
   6   3  -6    3.83    1.10
  -6  -3   6    1.49    0.98
   5   3  -6  101.53    4.64
   5   3  -6   98.51    4.56
  -5  -3   6   98.89    4.56
   4   3  -6   -0.38    0.57
   4   3  -6    0.22    0.50
   4   3  -6    0.00    0.67
  -4  -3   6    1.38    0.60
   3   3  -6  213.19    8.10
   3   3  -6  195.10    8.11
  -3  -3   6  201.89    8.22
   2   3  -6   -0.04    0.39
   2   3  -6    0.51    0.28
   2   3  -6    0.25    0.29
   2   3  -6    0.49    0.21
  -2  -3   6    0.37    0.38
   1   3  -6   65.71    2.73
   1   3  -6   66.08    2.72
   1   3  -6   68.26    2.93
   1   3  -6   65.86    2.69
  -1  -3   6   65.80    2.91
   0   3  -6   15.72    0.86
   0   3  -6   15.33    0.96
   0   3  -6   15.56    0.73
   0   3  -6   16.21    0.71
   0  -3   6   17.93    0.97
  -1   3  -6    0.24    0.11
  -1   3  -6    0.53    0.23
  -1   3  -6    0.54    0.17
  -1   3  -6    0.65    0.23
  -1   3  -6    0.77    0.19
   1  -3   6    0.60    0.23
  -2   3  -6   16.91    0.80
  -2   3  -6   17.22    0.91
  -2   3  -6   16.43    0.96
  -2   3  -6   16.51    0.80
  -2   3  -6   16.24    0.80
  -3   3  -6    2.39    0.38
  -3   3  -6    2.87    0.39
  -3   3  -6    1.87    0.46
  -3   3  -6    2.32    0.37
  -3   3  -6    1.75    0.34
  -4   3  -6   13.78    0.99
  -4   3  -6   13.60    0.93
   4  -3   6   15.12    0.74
   4  -3   6   15.03    0.66
  -5   3  -6   17.24    1.22
  -5   3  -6   20.42    1.24
  -5   3  -6   18.06    1.24
   5  -3   6   18.26    1.08
   5  -3   6   17.54    0.98
   5  -3   6   18.65    0.97
  -6   3  -6   22.38    1.59
  -6   3  -6   23.14    1.54
  -6   3  -6   22.27    1.56
   6  -3   6   23.75    1.30
   6  -3   6   25.31    1.51
   6  -3   6   23.68    1.33
  -7   3  -6    4.54    0.97
  -7   3  -6    2.89    0.78
   7  -3   6    2.11    0.84
   7  -3   6    1.51    0.60
   7  -3   6    2.69    0.64
  -8   3  -6   28.71    2.38
  -8   3  -6   27.08    2.15
   8  -3   6   28.74    1.97
   8  -3   6   25.69    2.38
   6   2  -6   11.91    1.67
   5   2  -6    3.53    0.97
   5   2  -6    3.39    0.82
  -5  -2   6    3.64    0.60
  -5  -2   6    4.15    1.09
  -5  -2   6    4.54    0.71
   4   2  -6   52.03    2.53
   4   2  -6   48.69    2.59
   4   2  -6   52.77    2.55
  -4  -2   6   51.28    2.57
   3   2  -6    3.53    0.65
   3   2  -6    4.05    0.76
   3   2  -6    4.63    0.63
  -3  -2   6    3.55    0.68
   2   2  -6   65.56    2.79
   2   2  -6   68.92    2.84
   2   2  -6   67.75    2.65
   2   2  -6   64.54    2.96
  -2  -2   6   67.72    2.98
   1   2  -6    1.11    0.33
   1   2  -6    1.53    0.27
   1   2  -6    1.48    0.26
   1   2  -6    1.42    0.29
  -1  -2   6    1.88    0.43
   0   2  -6   39.66    1.81
   0   2  -6   42.82    1.78
   0   2  -6   41.95    1.91
   0  -2   6   42.31    1.89
  -1   2  -6    0.01    0.15
  -1   2  -6    0.10    0.15
  -1   2  -6    0.13    0.17
  -2   2  -6   18.65    0.91
  -2   2  -6   18.34    0.82
  -2   2  -6   18.25    0.85
  -2   2  -6   17.44    0.92
  -2   2  -6   18.65    0.99
  -3   2  -6    2.04    0.30
  -3   2  -6    1.85    0.43
  -3   2  -6    2.05    0.35
  -3   2  -6    1.55    0.36
  -3   2  -6    1.89    0.33
   3  -2   6    2.21    0.29
  -4   2  -6  173.88    6.81
  -4   2  -6  181.68    6.88
  -4   2  -6  161.93    6.76
  -4   2  -6  171.07    6.58
   4  -2   6  171.83    6.57
   4  -2   6  171.87    6.59
   4  -2   6  170.70    6.68
  -5   2  -6   28.40    1.53
  -5   2  -6   25.84    1.54
   5  -2   6   27.85    1.35
   5  -2   6   26.31    1.39
   5  -2   6   26.42    1.30
  -6   2  -6  134.34    5.75
  -6   2  -6  136.93    5.76
  -6   2  -6  129.72    5.80
   6  -2   6  146.41    5.56
   6  -2   6  132.17    5.62
   6  -2   6  139.00    5.55
  -7   2  -6   13.54    1.48
  -7   2  -6   13.92    1.40
   7  -2   6   16.83    1.31
   7  -2   6   15.48    1.51
   7  -2   6   15.18    1.22
  -8   2  -6   45.80    2.91
  -8   2  -6   51.16    2.78
   8  -2   6   43.73    2.79
   8  -2   6   39.45    2.83
   8  -2   6   49.38    2.55
   6   1  -6    3.98    1.06
  -6  -1   6    2.15    0.68
   5   1  -6  105.58    4.85
   5   1  -6  107.74    4.84
  -5  -1   6  110.93    4.46
  -5  -1   6  113.32    4.52
   4   1  -6    4.64    0.87
   4   1  -6    4.96    0.80
  -4  -1   6    5.81    0.56
  -4  -1   6    5.10    0.51
   3   1  -6    4.99    0.62
   3   1  -6    5.00    0.75
   3   1  -6    4.71    0.66
   2   1  -6    4.92    0.49
   2   1  -6    5.35    0.50
   2   1  -6    5.06    0.63
   1   1  -6   50.44    2.04
   1   1  -6   54.32    2.09
   1   1  -6   48.77    2.27
   1   1  -6   50.69    2.10
   0   1  -6    9.65    0.53
   0   1  -6    9.64    0.62
   0   1  -6    9.33    0.66
  -1   1  -6   61.99    2.56
  -1   1  -6   59.64    2.53
  -2   1  -6   20.26    1.02
  -2   1  -6   20.06    0.95
  -2   1  -6   20.14    1.00
  -2   1  -6   21.60    0.90
   2  -1   6   20.03    0.98
  -3   1  -6   15.11    0.78
  -3   1  -6   16.21    0.83
  -3   1  -6   14.83    0.88
  -3   1  -6   14.89    0.85
   3  -1   6   15.27    0.82
  -4   1  -6    2.41    0.49
  -4   1  -6    3.37    0.52
  -4   1  -6    3.33    0.48
  -4   1  -6    2.58    0.31
   4  -1   6    2.80    0.30
   4  -1   6    2.98    0.42
   4  -1   6    3.19    0.35
  -5   1  -6    6.95    0.77
  -5   1  -6    8.12    0.84
  -5   1  -6    6.76    0.43
  -5   1  -6    7.30    0.77
   5  -1   6    7.16    0.59
   5  -1   6    6.85    0.70
   5  -1   6    8.84    0.72
  -6   1  -6    5.71    0.90
  -6   1  -6    7.08    1.01
   6  -1   6    6.31    0.84
   6  -1   6    7.45    0.96
   6  -1   6    7.43    0.75
  -7   1  -6   44.27    2.50
   7  -1   6   40.66    2.35
   7  -1   6   40.19    2.13
   7  -1   6   41.48    2.28
  -8   1  -6    1.42    1.00
   8  -1   6    1.66    0.78
   8  -1   6    0.03    1.08
   8  -1   6    0.97    0.96
   6   0  -6   11.68    1.60
  -6   0   6   12.78    1.26
   5   0  -6    2.08    0.70
   5   0  -6    1.37    0.86
   5   0  -6    1.87    0.71
  -5   0   6    2.19    0.65
  -5   0   6    2.22    0.53
   4   0  -6    2.30    0.62
   4   0  -6    2.85    0.60
  -4   0   6    2.95    0.54
   3   0  -6    2.43    0.53
   3   0  -6    2.08    0.49
   3   0  -6    2.29    0.56
  -3   0   6    2.27    0.34
  -3   0   6    2.58    0.37
   2   0  -6   70.52    2.79
   2   0  -6   60.60    2.75
   2   0  -6   66.60    2.88
   1   0  -6    0.00    0.14
   1   0  -6    0.31    0.10
   1   0  -6    0.13    0.19
   1   0  -6    0.24    0.17
   0   0  -6  205.90    8.11
   0   0  -6  206.23    7.90
   0   0  -6  210.69    8.11
   0   0  -6  208.79    7.92
  -1   0  -6   12.29    0.56
  -1   0  -6   12.12    0.60
  -1   0  -6   12.48    0.73
  -1   0  -6   12.12    0.72
  -2   0  -6  477.66   18.13
  -2   0  -6  458.56   18.01
  -2   0  -6  472.53   18.04
   2   0   6  495.01   18.12
  -3   0  -6   11.17    0.66
  -3   0  -6    9.28    0.70
  -3   0  -6    9.68    0.68
   3   0   6    9.29    0.64
  -4   0  -6  415.55   15.95
  -4   0  -6  413.66   16.03
  -4   0  -6  397.96   15.90
   4   0   6  407.58   15.74
   4   0   6  424.07   15.78
   4   0   6  427.78   15.89
  -5   0  -6   27.87    1.71
  -5   0  -6   34.25    1.71
  -5   0  -6   31.16    1.66
   5   0   6   31.50    1.60
   5   0   6   32.22    1.50
   5   0   6   29.08    1.57
  -6   0  -6   43.84    2.34
  -6   0  -6   47.88    2.33
   6   0   6   43.12    2.20
   6   0   6   44.96    2.13
   6   0   6   41.96    2.24
  -7   0  -6    6.95    0.55
  -7   0  -6    8.37    1.27
   7   0   6    7.46    0.94
   7   0   6    7.64    1.31
  -8   0  -6   24.54    2.10
   8   0   6   20.01    1.69
   8   0   6   19.31    2.08
   6  -1  -6   13.07    1.69
  -6   1   6   16.87    1.45
   5  -1  -6  231.48    9.57
   5  -1  -6  220.71    9.45
   5  -1  -6  242.33    9.62
  -5   1   6  239.98    9.34
  -5   1   6  244.53    9.39
   4  -1  -6    3.74    0.76
   4  -1  -6    5.60    0.87
  -4   1   6    4.25    0.66
   3  -1  -6  492.87   18.41
   3  -1  -6  467.44   18.38
   3  -1  -6  476.96   18.38
  -3   1   6  476.29   18.20
   2  -1  -6    3.61    0.46
   2  -1  -6    4.27    0.52
   2  -1  -6    4.52    0.55
  -2   1   6    3.74    0.36
   1  -1  -6  682.60   26.42
   1  -1  -6  685.49   26.30
   1  -1  -6  701.65   26.54
   1  -1  -6  740.58   26.45
   1  -1  -6  681.23   26.55
   0  -1  -6   41.52    1.79
   0  -1  -6   44.83    1.93
   0  -1  -6   41.69    1.77
   0  -1  -6   42.45    1.92
  -1  -1  -6   38.40    1.62
  -1  -1  -6   38.72    1.76
  -1  -1  -6   39.06    1.69
  -2  -1  -6   41.49    1.87
  -2  -1  -6   40.70    1.84
  -2  -1  -6   40.29    1.79
   2   1   6   43.38    1.87
  -3  -1  -6    5.27    0.54
  -3  -1  -6    5.06    0.54
  -3  -1  -6    5.21    0.51
   3   1   6    4.89    0.35
   3   1   6    4.96    0.51
   3   1   6    5.18    0.36
  -4  -1  -6   90.18    3.75
  -4  -1  -6   87.29    3.76
  -4  -1  -6   86.61    3.84
   4   1   6   89.30    3.72
   4   1   6   85.32    3.57
   4   1   6   92.40    3.62
  -5  -1  -6    4.89    0.74
  -5  -1  -6    6.67    0.85
  -5  -1  -6    6.62    0.80
   5   1   6    5.51    0.69
   5   1   6    5.64    0.70
   5   1   6    5.53    0.58
  -6  -1  -6   63.40    3.15
  -6  -1  -6   62.19    3.04
  -6  -1  -6   64.27    3.06
   6   1   6   65.33    3.03
   6   1   6   64.85    2.88
   6   1   6   60.38    2.96
  -7  -1  -6    0.66    0.37
  -7  -1  -6    0.15    0.66
  -7  -1  -6   -0.05    0.72
   7   1   6    1.14    0.59
   7   1   6    1.06    0.89
   7   1   6   -0.15    0.74
  -8  -1  -6   37.26    1.80
  -8  -1  -6   36.60    2.67
   8   1   6   38.42    2.32
   6  -2  -6   58.76    3.29
  -6   2   6   62.32    3.06
   5  -2  -6    1.31    0.71
   5  -2  -6    2.02    0.69
  -5   2   6    2.56    0.74
  -5   2   6    1.16    0.59
   4  -2  -6    3.84    0.98
   4  -2  -6    4.50    0.83
  -4   2   6    5.52    0.73
  -4   2   6    3.59    0.74
   3  -2  -6   13.24    0.96
   3  -2  -6   11.03    0.90
   3  -2  -6   12.66    0.98
  -3   2   6   11.08    0.81
  -3   2   6   11.84    0.82
   2  -2  -6    0.32    0.30
   2  -2  -6    0.80    0.30
   2  -2  -6    0.77    0.31
  -2   2   6    0.36    0.25
  -2   2   6    0.40    0.22
   1  -2  -6   69.71    2.85
   1  -2  -6   67.75    2.89
   1  -2  -6   67.63    2.82
   1  -2  -6   66.99    2.91
   1  -2  -6   65.86    2.67
  -1   2   6   66.77    2.68
  -1   2   6   66.12    2.72
   0  -2  -6   42.47    1.93
   0  -2  -6   41.30    1.85
   0  -2  -6   42.88    1.85
   0  -2  -6   41.10    1.82
   0   2   6   44.04    1.68
   0   2   6   40.72    1.70
  -1  -2  -6   33.70    1.61
  -1  -2  -6   34.79    1.60
  -1  -2  -6   32.64    1.51
   1   2   6   34.69    1.61
   1   2   6   35.25    1.39
   1   2   6   34.07    1.37
  -2  -2  -6   19.37    1.06
  -2  -2  -6   18.63    1.00
  -2  -2  -6   17.75    1.08
   2   2   6   19.53    0.89
   2   2   6   20.33    0.87
   2   2   6   19.32    1.06
  -3  -2  -6   44.01    2.05
  -3  -2  -6   44.53    2.09
  -3  -2  -6   41.91    2.03
   3   2   6   43.93    1.88
   3   2   6   44.71    1.90
   3   2   6   44.48    2.03
  -4  -2  -6  159.41    6.55
  -4  -2  -6  151.16    6.61
  -4  -2  -6  167.34    6.60
   4   2   6  165.84    6.41
   4   2   6  168.01    6.53
   4   2   6  159.58    6.41
  -5  -2  -6   31.84    1.81
  -5  -2  -6   30.89    1.75
  -5  -2  -6   32.21    1.87
   5   2   6   33.94    1.66
   5   2   6   29.24    1.70
   5   2   6   33.59    1.71
  -6  -2  -6  343.42   13.72
  -6  -2  -6  357.68   13.63
  -6  -2  -6  351.75   13.64
   6   2   6  311.86   13.47
   6   2   6  336.82   13.43
   6   2   6  361.58   13.53
  -7  -2  -6   41.51    2.05
  -7  -2  -6   43.78    2.59
   7   2   6   39.25    2.45
   7   2   6   44.19    2.32
  -8  -2  -6  178.17    7.84
  -8  -2  -6  180.08    7.11
   8   2   6  172.78    7.48
   6  -3  -6   13.84    1.74
  -6   3   6   13.48    1.61
   5  -3  -6    1.01    0.73
   5  -3  -6    1.09    0.69
  -5   3   6    0.55    0.72
  -5   3   6   -0.15    0.59
   4  -3  -6    0.37    0.63
   4  -3  -6    1.29    0.54
  -4   3   6    1.30    0.49
  -4   3   6    1.01    0.51
   3  -3  -6   21.82    1.41
   3  -3  -6   29.06    1.56
   3  -3  -6   23.25    1.41
  -3   3   6   25.75    1.36
  -3   3   6   23.28    1.35
   2  -3  -6    2.65    0.56
   2  -3  -6    3.20    0.61
   2  -3  -6    3.07    0.28
   2  -3  -6    2.72    0.58
   2  -3  -6    3.23    0.51
  -2   3   6    2.61    0.49
  -2   3   6    2.33    0.46
   1  -3  -6  236.17    9.29
   1  -3  -6  241.97    9.34
   1  -3  -6  236.81    9.27
   1  -3  -6  240.47    9.12
  -1   3   6  235.90    9.21
  -1   3   6  233.32    9.15
   0  -3  -6    1.45    0.34
   0  -3  -6    1.11    0.31
   0  -3  -6    0.82    0.24
   0  -3  -6    1.16    0.32
   0   3   6    1.02    0.28
   0   3   6    1.10    0.29
  -1  -3  -6  517.83   19.54
  -1  -3  -6  528.64   19.55
  -1  -3  -6  503.06   19.54
  -1  -3  -6  487.82   19.46
   1   3   6  499.43   19.43
   1   3   6  528.25   19.54
   1   3   6  511.78   19.36
  -2  -3  -6    5.85    0.57
  -2  -3  -6    5.11    0.65
  -2  -3  -6    6.47    0.54
  -2  -3  -6    4.57    0.61
   2   3   6    5.27    0.50
   2   3   6    6.70    0.60
   2   3   6    4.98    0.45
  -3  -3  -6  303.65   11.08
  -3  -3  -6  274.99   11.10
  -3  -3  -6  286.74   11.04
   3   3   6  272.20   10.88
   3   3   6  287.04   11.01
   3   3   6  269.08   10.91
  -4  -3  -6   22.43    1.47
  -4  -3  -6   23.74    1.37
  -4  -3  -6   22.72    1.43
   4   3   6   24.38    1.38
   4   3   6   23.37    1.28
   4   3   6   22.59    1.27
  -5  -3  -6    9.25    1.08
  -5  -3  -6    8.64    1.01
  -5  -3  -6    8.00    0.92
   5   3   6    8.17    0.94
   5   3   6    7.99    0.88
   5   3   6    7.17    0.80
  -6  -3  -6   45.14    2.58
  -6  -3  -6   43.24    2.49
  -6  -3  -6   46.67    2.46
   6   3   6   44.17    2.32
   6   3   6   47.67    2.44
  -7  -3  -6    0.33    0.69
  -7  -3  -6    0.71    0.80
   7   3   6    0.05    0.63
   7   3   6    1.15    0.87
  -8  -3  -6   55.93    3.34
  -8  -3  -6   56.13    2.74
   8   3   6   55.57    3.11
   5  -4  -6    8.58    1.36
   5  -4  -6    5.55    1.28
  -5   4   6    5.86    1.19
  -5   4   6    6.26    1.50
   4  -4  -6  120.96    5.91
   4  -4  -6  140.44    5.90
   4  -4  -6  144.93    5.96
  -4   4   6  144.34    5.84
  -4   4   6  146.02    5.82
   3  -4  -6    4.86    0.90
   3  -4  -6    3.77    0.82
   3  -4  -6    5.29    0.79
   3  -4  -6    4.64    0.76
  -3   4   6    4.81    0.75
  -3   4   6    4.45    0.77
   2  -4  -6    9.61    0.84
   2  -4  -6   10.49    0.93
   2  -4  -6   11.17    0.64
   2  -4  -6    9.58    0.87
  -2   4   6    8.08    0.80
  -2   4   6   10.35    0.81
   1  -4  -6    1.07    0.30
   1  -4  -6    0.77    0.38
   1  -4  -6    0.78    0.31
   1  -4  -6    1.29    0.35
  -1   4   6    0.85    0.30
  -1   4   6    1.00    0.34
   0  -4  -6   34.58    1.72
   0  -4  -6   32.75    1.68
   0  -4  -6   33.56    1.74
   0  -4  -6   35.75    1.70
   0   4   6   37.14    1.63
   0   4   6   36.62    1.71
  -1  -4  -6   34.04    1.71
  -1  -4  -6   32.81    1.62
  -1  -4  -6   32.59    1.63
   1   4   6   33.35    1.66
   1   4   6   34.39    1.55
   1   4   6   31.76    1.62
  -2  -4  -6    6.20    0.62
  -2  -4  -6    7.84    0.67
  -2  -4  -6    5.79    0.69
  -2  -4  -6    5.38    0.73
   2   4   6    5.30    0.64
   2   4   6    5.80    0.63
   2   4   6    6.66    0.56
  -3  -4  -6   59.02    2.72
  -3  -4  -6   59.98    2.86
  -3  -4  -6   62.58    2.77
  -3  -4  -6   56.87    2.77
   3   4   6   58.64    2.71
   3   4   6   61.28    2.70
   3   4   6   60.45    2.63
  -4  -4  -6   26.79    1.58
  -4  -4  -6   31.02    1.70
  -4  -4  -6   27.20    1.69
  -4  -4  -6   28.52    1.64
   4   4   6   26.12    1.52
   4   4   6   27.76    1.59
   4   4   6   27.82    1.52
  -5  -4  -6   20.02    1.59
  -5  -4  -6   22.27    1.46
  -5  -4  -6   16.03    1.44
   5   4   6   21.54    1.51
   5   4   6   23.81    1.45
   5   4   6   22.29    1.41
  -6  -4  -6   -0.08    0.82
  -6  -4  -6    0.17    0.61
  -6  -4  -6   -0.04    0.60
  -6  -4  -6    0.14    0.67
   6   4   6    0.42    0.56
   6   4   6   -0.13    0.66
   6   4   6    0.65    0.67
  -7  -4  -6   14.57    1.69
  -7  -4  -6   14.20    1.61
   7   4   6   14.04    1.78
   7   4   6   16.45    1.52
  -8  -4  -6   25.00    2.30
  -8  -4  -6   23.93    1.79
   8   4   6   27.67    2.20
   5  -5  -6   85.99    4.17
   5  -5  -6   83.16    4.04
  -5   5   6   87.15    4.06
   4  -5  -6   41.19    2.23
   4  -5  -6   37.00    2.16
   4  -5  -6   38.03    2.28
  -4   5   6   42.98    2.26
   3  -5  -6  124.08    5.38
   3  -5  -6  130.87    5.36
   3  -5  -6  124.88    4.97
   3  -5  -6  114.56    5.39
  -3   5   6  131.56    5.35
  -3   5   6  133.45    5.31
  -3   5   6  122.37    5.04
   2  -5  -6   16.55    1.10
   2  -5  -6   12.97    1.17
   2  -5  -6   12.97    0.84
   2  -5  -6   10.59    1.01
  -2   5   6   14.30    1.04
  -2   5   6   13.86    0.90
  -2   5   6   13.53    1.03
   1  -5  -6  187.88    7.60
   1  -5  -6  196.68    7.64
   1  -5  -6  194.19    7.67
   1  -5  -6  186.77    7.46
  -1   5   6  184.42    7.59
  -1   5   6  187.85    7.51
   0  -5  -6    1.31    0.43
   0  -5  -6    1.38    0.39
   0  -5  -6    0.92    0.40
   0  -5  -6    1.86    0.43
   0   5   6    1.09    0.41
   0   5   6    1.41    0.38
  -1  -5  -6   45.14    2.17
  -1  -5  -6   41.80    2.17
  -1  -5  -6   45.50    2.11
  -1  -5  -6   45.73    2.11
   1   5   6   40.72    2.01
   1   5   6   44.49    2.11
   1   5   6   44.68    2.15
  -2  -5  -6   21.19    1.37
  -2  -5  -6   21.57    1.26
  -2  -5  -6   20.85    1.37
  -2  -5  -6   19.84    1.21
   2   5   6   20.52    1.26
   2   5   6   19.53    1.17
   2   5   6   20.28    1.29
  -3  -5  -6   71.62    3.34
  -3  -5  -6   71.49    3.39
  -3  -5  -6   75.29    3.53
  -3  -5  -6   81.15    3.53
   3   5   6   74.36    3.37
   3   5   6   76.69    3.30
   3   5   6   79.97    3.43
  -4  -5  -6   13.01    1.13
  -4  -5  -6   16.83    1.44
  -4  -5  -6   16.59    1.25
   4   5   6   14.59    1.16
   4   5   6   16.61    1.18
  -5  -5  -6   96.44    4.29
  -5  -5  -6   98.46    4.44
  -5  -5  -6   91.39    4.38
   5   5   6   98.76    4.26
   5   5   6   91.46    4.23
  -6  -5  -6    3.73    0.94
  -6  -5  -6    3.19    0.80
   6   5   6    3.46    0.78
   6   5   6    2.31    1.03
  -7  -5  -6   40.64    2.63
  -7  -5  -6   40.29    2.60
   7   5   6   41.47    2.55
  -8  -5  -6   -0.46    1.05
  -8  -5  -6    0.35    0.83
   8   5   6    0.82    1.07
   5  -6  -6    7.44    1.44
   5  -6  -6    3.28    1.11
  -5   6   6    5.74    1.17
   4  -6  -6   15.06    1.42
   4  -6  -6   15.57    1.56
   4  -6  -6   13.33    1.39
  -4   6   6   12.90    1.46
  -4   6   6   14.56    1.62
  -4   6   6   16.55    1.11
   3  -6  -6   16.60    1.08
   3  -6  -6   17.16    1.33
   3  -6  -6   23.40    2.25
   3  -6  -6   16.86    1.38
  -3   6   6   16.92    1.36
  -3   6   6   14.74    1.13
   2  -6  -6    7.07    0.89
   2  -6  -6    6.47    0.76
   2  -6  -6    6.77    0.84
   2  -6  -6    5.40    1.09
  -2   6   6    7.54    0.82
  -2   6   6    5.84    0.91
  -2   6   6    7.68    0.93
   1  -6  -6   35.57    1.95
   1  -6  -6   37.79    2.11
   1  -6  -6   38.37    1.94
   1  -6  -6   41.67    2.06
  -1   6   6   38.92    2.04
  -1   6   6   42.65    2.00
  -1   6   6   38.26    1.96
   0  -6  -6   29.29    1.78
   0  -6  -6   31.36    1.72
   0  -6  -6   31.70    1.72
   0  -6  -6   31.13    1.66
   0   6   6   33.74    1.68
   0   6   6   32.32    1.76
  -1  -6  -6   22.75    1.36
  -1  -6  -6   23.84    1.49
  -1  -6  -6   22.89    1.51
  -1  -6  -6   21.74    1.37
   1   6   6   25.27    1.39
   1   6   6   22.78    1.42
   1   6   6   25.18    1.48
  -2  -6  -6   17.93    1.25
  -2  -6  -6   19.93    1.41
  -2  -6  -6   19.97    1.49
  -2  -6  -6   22.38    1.32
   2   6   6   19.33    1.30
   2   6   6   21.03    1.28
   2   6   6   17.82    1.32
  -3  -6  -6    2.39    0.67
  -3  -6  -6    2.24    0.71
  -3  -6  -6    1.06    0.40
  -3  -6  -6    2.94    0.73
   3   6   6    1.84    0.53
   3   6   6    2.77    0.68
   3   6   6    3.33    0.80
  -4  -6  -6   22.06    1.80
  -4  -6  -6   20.58    1.51
  -4  -6  -6   21.19    1.47
   4   6   6   20.09    1.47
   4   6   6   21.87    1.51
  -5  -6  -6    1.71    0.73
  -5  -6  -6    1.01    0.59
  -5  -6  -6    1.27    0.93
   5   6   6    1.61    0.62
  -6  -6  -6  108.41    4.98
  -6  -6  -6  112.79    5.13
   6   6   6  105.34    4.93
  -7  -6  -6    1.28    0.99
  -7  -6  -6    0.37    0.90
   7   6   6   -0.03    0.87
   4  -7  -6    3.55    0.99
   4  -7  -6    2.01    0.83
  -4   7   6    2.22    0.67
  -4   7   6    2.16    0.95
   3  -7  -6   79.86    3.58
   3  -7  -6   77.46    3.34
   3  -7  -6   77.92    3.71
  -3   7   6   69.64    3.62
  -3   7   6   74.30    3.62
  -3   7   6   75.79    3.41
   2  -7  -6    6.95    1.08
   2  -7  -6    8.94    1.00
   2  -7  -6    8.64    0.99
  -2   7   6    7.37    0.97
  -2   7   6    9.63    1.08
   1  -7  -6  120.94    5.13
   1  -7  -6  121.83    5.04
   1  -7  -6  123.29    5.03
   1  -7  -6  109.04    5.19
  -1   7   6  112.88    5.02
  -1   7   6  126.26    5.18
   0  -7  -6   11.69    1.06
   0  -7  -6   11.08    1.16
   0  -7  -6   10.70    0.97
   0  -7  -6   10.68    1.21
   0   7   6   10.49    1.04
   0   7   6   11.67    1.12
   0   7   6   11.24    1.03
  -1  -7  -6  319.98   12.64
  -1  -7  -6  320.35   12.50
  -1  -7  -6  327.45   12.53
  -1  -7  -6  304.84   12.41
   1   7   6  312.45   12.53
   1   7   6  310.82   12.42
   1   7   6  319.31   12.43
  -2  -7  -6    1.17    0.47
  -2  -7  -6    0.53    0.68
  -2  -7  -6    0.80    0.62
  -2  -7  -6    0.53    0.47
   2   7   6    0.67    0.55
   2   7   6   -0.06    0.53
   2   7   6    1.38    0.59
  -3  -7  -6  330.63   12.93
  -3  -7  -6  293.23   12.94
  -3  -7  -6  348.84   12.96
  -3  -7  -6  329.07   12.82
   3   7   6  357.94   12.99
   3   7   6  316.93   12.80
   3   7   6  293.23   12.76
  -4  -7  -6   26.56    1.78
  -4  -7  -6   25.58    1.74
  -4  -7  -6   21.71    1.97
  -4  -7  -6   26.95    2.00
   4   7   6   30.08    1.85
  -5  -7  -6   86.79    4.10
  -5  -7  -6   80.61    3.93
   5   7   6   75.16    3.97
   5   7   6   87.26    4.01
  -6  -7  -6   48.22    2.83
  -6  -7  -6   39.57    2.62
   6   7   6   39.57    2.60
  -7  -7  -6    0.62    1.16
  -7  -7  -6    1.17    1.18
   7   7   6    1.44    1.09
   3  -8  -6    6.77    1.17
   3  -8  -6    4.44    1.28
   3  -8  -6    3.89    0.91
  -3   8   6    2.06    0.78
  -3   8   6    3.83    1.01
   2  -8  -6  212.85    8.92
   2  -8  -6  217.65    8.75
   2  -8  -6  214.84    8.69
  -2   8   6  212.12    8.75
  -2   8   6  221.84    8.95
   1  -8  -6    6.48    1.04
   1  -8  -6    8.73    1.25
   1  -8  -6    6.27    0.96
  -1   8   6    7.30    1.24
  -1   8   6    7.07    1.09
  -1   8   6    6.59    1.13
   0  -8  -6   34.47    1.86
   0  -8  -6   30.08    1.94
   0  -8  -6   31.81    2.05
   0   8   6   34.23    2.02
   0   8   6   33.24    1.97
  -1  -8  -6   40.83    2.22
  -1  -8  -6   40.00    2.39
  -1  -8  -6   39.65    2.13
  -1  -8  -6   38.03    2.44
   1   8   6   38.26    2.20
   1   8   6   43.70    2.33
  -2  -8  -6    8.61    0.97
  -2  -8  -6    7.92    0.99
  -2  -8  -6    4.78    1.31
  -2  -8  -6    5.26    1.36
   2   8   6    5.79    1.22
   2   8   6    6.71    1.11
  -3  -8  -6   86.62    3.93
  -3  -8  -6   87.32    4.04
   3   8   6   79.50    3.96
   3   8   6   86.13    4.08
  -4  -8  -6   -0.35    0.67
  -4  -8  -6   -0.11    0.65
   4   8   6   -0.08    0.73
  -5  -8  -6   70.59    3.54
  -5  -8  -6   63.34    3.36
   5   8   6   59.39    3.38
  -6  -8  -6    4.78    1.21
  -6  -8  -6    2.18    1.18
   6   8   6    6.14    1.61
   3  -9  -6    9.95    1.58
  -3   9   6    7.11    1.68
  -3   9   6    9.86    1.63
   2  -9  -6   40.95    2.60
   2  -9  -6   39.85    2.56
   2  -9  -6   44.45    2.44
  -2   9   6   44.20    2.71
  -2   9   6   43.12    2.52
   1  -9  -6    2.40    0.76
   1  -9  -6    4.08    1.17
   1  -9  -6    3.80    1.05
  -1   9   6    4.06    0.90
  -1   9   6    4.66    1.30
   0  -9  -6   12.24    1.35
   0  -9  -6    9.65    1.16
   0  -9  -6   13.31    1.73
   0   9   6   10.84    1.38
   0   9   6   10.59    1.34
  -1  -9  -6    7.92    1.19
  -1  -9  -6    9.17    1.14
   1   9   6    9.44    1.38
   1   9   6   10.93    1.35
  -2  -9  -6    1.89    0.69
  -2  -9  -6    2.26    0.73
   2   9   6    2.32    0.85
  -3  -9  -6   85.52    4.20
  -3  -9  -6   89.52    4.32
   3   9   6   96.76    4.45
  -4  -9  -6   -0.25    0.73
  -4  -9  -6   -0.45    0.76
   4   9   6    0.79    0.93
  -5  -9  -6  225.88    9.44
  -5  -9  -6  211.02    9.23
   5   9   6  222.45    9.34
   1 -10  -6   16.58    1.61
   1 -10  -6   18.77    1.90
  -1  10   6   19.37    1.94
  -1  10   6   16.53    2.03
   0 -10  -6  172.95    7.26
   0 -10  -6  171.68    7.45
   0  10   6  168.98    7.53
   0  10   6  180.08    7.48
  -1 -10  -6    3.51    0.99
  -1 -10  -6    5.26    1.21
   1  10   6    3.01    1.05
   1  10   6    2.15    0.97
  -2 -10  -6   85.72    4.11
  -2 -10  -6   88.42    4.29
   2  10   6   85.70    4.35
  -3 -10  -6    1.73    0.93
  -3 -10  -6    1.76    0.96
   3  10   6    3.56    1.14
  -4 -10  -6    9.10    1.85
  -4 -10  -6   14.75    1.78
   4  10   6   14.77    2.04
   1   9  -7    4.80    1.06
   1   9  -7    4.22    0.95
  -1  -9   7    4.26    1.10
   0   9  -7   43.63    2.46
   0   9  -7   41.43    2.78
   0   9  -7   43.95    2.53
   0  -9   7   46.54    2.59
  -1   9  -7   31.30    1.98
  -1   9  -7   32.24    2.14
  -1   9  -7   34.01    2.40
   1  -9   7   34.14    2.03
  -2   9  -7  264.01   10.78
  -2   9  -7  278.90   10.64
  -2   9  -7  250.65   10.68
   2  -9   7  266.81   10.49
  -3   9  -7   64.26    3.04
  -3   9  -7   57.19    3.17
   3  -9   7   54.71    2.70
   3   8  -7  252.82    9.61
  -3  -8   7  220.96    9.85
   2   8  -7   25.61    2.33
   2   8  -7   28.49    1.86
   2   8  -7   30.12    2.06
  -2  -8   7   29.99    2.12
  -2  -8   7   25.91    1.89
   1   8  -7  273.15   10.98
   1   8  -7  293.92   11.02
   1   8  -7  269.35   11.02
   1   8  -7  280.88   11.13
  -1  -8   7  274.89   11.10
  -1  -8   7  260.29   10.97
   0   8  -7   36.76    2.08
   0   8  -7   35.42    1.57
   0   8  -7   36.03    2.25
   0   8  -7   37.10    2.03
   0   8  -7   36.43    1.73
   0  -8   7   37.96    2.13
  -1   8  -7  124.56    5.35
  -1   8  -7  122.68    5.24
  -1   8  -7  127.14    5.42
   1  -8   7  128.42    5.31
  -2   8  -7   31.27    1.94
  -2   8  -7   29.17    1.95
  -2   8  -7   29.40    1.73
   2  -8   7   30.84    1.70
  -3   8  -7   15.02    1.62
  -3   8  -7   16.31    1.54
  -3   8  -7   17.53    1.33
   3  -8   7   17.01    1.10
  -4   8  -7   14.02    2.13
  -4   8  -7   15.13    1.42
  -4   8  -7   14.15    1.61
  -5   8  -7   27.65    2.06
   4   7  -7   14.98    1.81
   3   7  -7   -1.05    1.07
   3   7  -7    1.85    0.70
   3   7  -7   -0.33    0.75
   3   7  -7   -0.36    1.00
  -3  -7   7    0.99    0.88
  -3  -7   7    0.54    0.63
   2   7  -7    3.25    0.70
   2   7  -7    2.72    0.81
   2   7  -7    3.80    0.99
   2   7  -7    4.57    1.20
  -2  -7   7    3.45    0.89
  -2  -7   7    2.60    0.67
   1   7  -7   -0.48    0.50
   1   7  -7    1.64    0.53
   1   7  -7    1.03    0.55
   1   7  -7    0.94    0.68
  -1  -7   7   -0.38    0.56
  -1  -7   7    1.10    0.67
   0   7  -7   61.87    2.79
   0   7  -7   58.17    2.54
   0   7  -7   62.97    2.65
   0   7  -7   59.30    2.84
   0   7  -7   64.40    2.92
   0  -7   7   63.55    2.94
  -1   7  -7    0.38    0.52
  -1   7  -7   -0.07    0.46
  -1   7  -7    0.02    0.41
   1  -7   7   -0.16    0.44
  -2   7  -7   61.69    2.74
  -2   7  -7   58.82    2.82
  -2   7  -7   63.13    2.96
   2  -7   7   60.15    2.72
  -3   7  -7    4.29    1.00
  -3   7  -7    5.52    1.00
  -3   7  -7    4.46    0.83
   3  -7   7    6.22    0.64
  -4   7  -7   18.68    1.40
  -4   7  -7   17.65    1.59
  -4   7  -7   19.18    1.53
  -5   7  -7   22.57    1.67
  -5   7  -7   23.53    1.80
  -6   7  -7   97.73    4.58
   4   6  -7    0.27    1.16
   4   6  -7    0.99    0.83
  -4  -6   7    1.18    0.92
   3   6  -7   48.10    2.58
   3   6  -7   47.69    2.76
   3   6  -7   56.01    2.81
   3   6  -7   50.95    2.40
  -3  -6   7   49.46    2.35
  -3  -6   7   47.60    2.75
   2   6  -7    0.46    0.44
   2   6  -7    0.26    0.60
   2   6  -7    0.76    0.57
   2   6  -7    0.72    0.70
  -2  -6   7    0.86    0.62
  -2  -6   7    0.46    0.45
   1   6  -7   38.90    1.94
   1   6  -7   38.89    1.95
   1   6  -7   38.11    2.00
   1   6  -7   39.37    1.95
  -1  -6   7   38.93    2.11
  -1  -6   7   39.67    2.00
   0   6  -7    2.65    0.54
   0   6  -7    2.18    0.45
   0   6  -7    2.26    0.55
   0   6  -7    2.72    0.66
   0  -6   7    1.35    0.50
  -1   6  -7   89.01    3.67
  -1   6  -7   87.75    3.85
  -1   6  -7   91.43    3.51
  -1   6  -7   88.76    3.47
  -1   6  -7   87.13    3.72
   1  -6   7   90.03    3.81
  -2   6  -7   10.02    0.87
  -2   6  -7   10.12    0.78
  -2   6  -7    9.79    0.95
   2  -6   7    9.70    0.81
  -3   6  -7  164.53    6.46
  -3   6  -7  154.41    6.45
  -3   6  -7  162.66    6.63
  -4   6  -7   15.78    1.25
  -4   6  -7   18.56    1.20
  -4   6  -7   13.11    1.25
  -5   6  -7   60.83    2.98
  -5   6  -7   57.47    2.83
  -5   6  -7   56.16    2.91
  -6   6  -7   12.81    1.47
  -6   6  -7   12.86    1.55
   5   5  -7    1.14    1.00
  -5  -5   7    2.70    1.16
   4   5  -7   38.80    2.54
   4   5  -7   43.31    2.37
  -4  -5   7   38.55    2.45
   3   5  -7    1.11    0.69
   3   5  -7    1.37    0.59
   3   5  -7    0.15    0.38
   3   5  -7    1.57    0.78
  -3  -5   7    0.74    0.62
   2   5  -7   23.34    1.69
   2   5  -7   23.99    1.31
   2   5  -7   23.51    1.46
  -2  -5   7   24.11    1.57
   1   5  -7    0.95    0.54
   1   5  -7   -0.11    0.30
   1   5  -7    0.19    0.39
   1   5  -7    0.29    0.35
  -1  -5   7    1.03    0.47
   0   5  -7    7.53    0.68
   0   5  -7    6.01    0.92
   0   5  -7    7.82    0.61
   0   5  -7    9.05    0.77
   0  -5   7    7.14    0.78
  -1   5  -7    1.70    0.42
  -1   5  -7    1.13    0.34
  -1   5  -7    1.24    0.32
  -1   5  -7    1.47    0.35
  -1   5  -7    2.21    0.54
   1  -5   7    1.87    0.42
  -2   5  -7  128.28    5.10
  -2   5  -7  129.48    5.30
  -2   5  -7  127.00    5.07
   2  -5   7  127.43    5.14
  -3   5  -7   15.60    0.96
  -3   5  -7   16.04    1.01
  -3   5  -7   15.19    1.14
  -4   5  -7  282.27   10.61
  -4   5  -7  262.97   10.59
  -4   5  -7  265.56   10.73
  -5   5  -7   13.09    1.17
  -5   5  -7   14.42    1.29
  -5   5  -7   13.98    1.25
  -6   5  -7  134.28    5.78
  -6   5  -7  132.63    5.72
   6  -5   7  130.49    5.18
  -7   5  -7    8.53    1.60
  -7   5  -7    7.46    1.54
   5   4  -7   50.46    2.85
  -5  -4   7   47.77    2.92
   4   4  -7    4.82    1.08
   4   4  -7    4.99    1.38
  -4  -4   7    4.60    0.96
   3   4  -7  335.23   12.73
   3   4  -7  308.52   12.66
  -3  -4   7  328.30   12.87
   2   4  -7   29.25    1.55
   2   4  -7   28.32    1.42
   2   4  -7   30.49    1.82
   2   4  -7   30.79    1.58
  -2  -4   7   30.35    1.74
   1   4  -7  641.60   25.13
   1   4  -7  675.49   25.38
   1   4  -7  657.29   25.15
   1   4  -7  666.78   25.14
  -1  -4   7  671.41   25.37
   0   4  -7   44.77    1.89
   0   4  -7   47.17    2.22
   0   4  -7   45.47    1.95
   0   4  -7   45.87    2.06
   0   4  -7   44.82    2.01
   0  -4   7   46.54    2.17
  -1   4  -7  200.07    7.61
  -1   4  -7  201.03    7.86
  -1   4  -7  195.88    7.66
  -1   4  -7  196.15    7.82
  -1   4  -7  192.98    7.58
   1  -4   7  204.15    7.83
  -2   4  -7   47.65    2.14
  -2   4  -7   46.94    2.17
  -2   4  -7   47.56    1.97
  -2   4  -7   45.24    1.93
  -2   4  -7   46.83    1.98
  -3   4  -7   12.55    0.84
  -3   4  -7   11.68    0.95
  -3   4  -7   12.47    0.79
  -3   4  -7   12.99    0.65
  -3   4  -7   12.73    0.81
  -4   4  -7   18.47    1.24
  -4   4  -7   16.35    1.08
  -4   4  -7   17.70    1.09
  -5   4  -7   15.39    1.27
  -5   4  -7   18.07    1.24
  -5   4  -7   16.74    1.27
   5  -4   7   17.60    0.84
  -6   4  -7    9.34    1.34
  -6   4  -7    7.66    1.17
  -6   4  -7    7.82    1.11
   6  -4   7    7.18    0.81
   6  -4   7    7.44    0.68
   6  -4   7    6.75    0.64
  -7   4  -7   65.92    3.50
  -7   4  -7   70.46    3.53
   7  -4   7   70.81    3.06
   5   3  -7    1.46    0.82
  -5  -3   7   -0.03    0.90
   4   3  -7  123.32    5.18
   4   3  -7  116.25    5.15
  -4  -3   7  119.20    5.27
   3   3  -7    5.16    0.80
   3   3  -7    3.09    0.81
  -3  -3   7    5.58    0.90
   2   3  -7   43.20    1.86
   2   3  -7   45.10    2.03
   2   3  -7   43.31    1.99
  -2  -3   7   42.94    2.20
   1   3  -7    4.56    0.44
   1   3  -7    3.62    0.67
   1   3  -7    4.57    0.45
  -1  -3   7    3.59    0.63
   0   3  -7    2.87    0.40
   0   3  -7    2.42    0.26
   0   3  -7    2.60    0.41
   0   3  -7    2.97    0.56
   0  -3   7    3.45    0.53
  -1   3  -7   15.97    1.00
  -1   3  -7   17.34    0.95
  -1   3  -7   15.93    0.87
  -2   3  -7   56.81    2.42
  -2   3  -7   56.91    2.35
  -2   3  -7   57.26    2.52
  -2   3  -7   60.44    2.59
  -2   3  -7   60.98    2.36
  -3   3  -7   11.06    0.70
  -3   3  -7   11.56    0.71
  -3   3  -7   10.93    0.73
  -3   3  -7   12.31    0.72
  -3   3  -7   11.44    0.86
  -4   3  -7    2.80    0.54
  -4   3  -7    3.22    0.63
  -4   3  -7    2.72    0.42
  -4   3  -7    2.03    0.52
  -4   3  -7    2.88    0.48
   4  -3   7    2.74    0.36
  -5   3  -7   51.02    2.49
  -5   3  -7   54.87    2.50
  -5   3  -7   50.13    2.52
   5  -3   7   51.62    2.21
  -6   3  -7  126.62    5.52
  -6   3  -7  130.16    5.53
  -6   3  -7  129.84    5.51
   6  -3   7  129.16    5.19
   6  -3   7  128.66    5.17
   6  -3   7  128.22    5.12
  -7   3  -7   56.57    3.01
  -7   3  -7   55.09    2.97
   7  -3   7   55.35    2.76
   7  -3   7   57.06    2.60
   7  -3   7   56.36    2.62
  -8   3  -7  240.55    9.81
  -8   3  -7  230.91    9.92
   8  -3   7  234.19    9.42
   5   2  -7    1.17    1.38
   5   2  -7    6.06    1.22
   4   2  -7    0.10    0.54
   4   2  -7    0.77    0.67
   3   2  -7   21.03    1.28
   3   2  -7   19.81    1.26
  -3  -2   7   20.95    1.41
   2   2  -7    3.88    0.32
   2   2  -7    4.08    0.53
   2   2  -7    3.67    0.54
  -2  -2   7    3.82    0.66
   1   2  -7   86.82    3.48
   1   2  -7   91.98    3.49
   1   2  -7   85.97    3.75
   1   2  -7   86.58    3.51
   0   2  -7   62.57    2.57
   0   2  -7   62.12    2.65
   0   2  -7   61.43    2.72
  -1   2  -7  529.92   20.54
  -1   2  -7  537.76   20.55
  -1   2  -7  553.49   20.61
  -2   2  -7   84.75    3.43
  -2   2  -7   82.68    3.47
  -2   2  -7   85.45    3.25
  -2   2  -7   81.58    3.29
  -2   2  -7   82.32    3.39
  -3   2  -7  584.90   21.85
  -3   2  -7  574.37   21.65
  -3   2  -7  575.18   21.67
  -3   2  -7  562.05   21.70
  -3   2  -7  560.27   21.69
   3  -2   7  570.15   21.63
  -4   2  -7   92.83    3.95
  -4   2  -7   93.23    3.80
  -4   2  -7  100.27    3.98
  -4   2  -7   94.05    4.01
  -4   2  -7   97.76    4.10
   4  -2   7   98.54    3.87
  -5   2  -7  247.48    9.97
  -5   2  -7  254.13    9.94
  -5   2  -7  253.00   10.08
  -5   2  -7  252.37    9.62
  -5   2  -7  250.42   10.05
   5  -2   7  256.71    9.67
   5  -2   7  255.76    9.82
   5  -2   7  256.34    9.65
  -6   2  -7   67.67    3.16
  -6   2  -7   63.27    3.15
  -6   2  -7   62.67    3.12
   6  -2   7   64.71    2.87
   6  -2   7   67.73    2.89
   6  -2   7   65.10    2.78
  -7   2  -7   40.02    2.32
  -7   2  -7   39.28    2.43
   7  -2   7   38.85    2.00
   7  -2   7   39.27    2.11
   7  -2   7   39.35    2.20
  -8   2  -7   36.62    2.53
  -8   2  -7   38.06    2.69
   8  -2   7   40.16    2.21
   5   1  -7    1.26    1.26
   4   1  -7  280.40   11.27
   4   1  -7  289.31   11.30
   3   1  -7    1.01    0.47
   3   1  -7    1.57    0.43
   2   1  -7  306.22   11.82
   2   1  -7  307.90   11.84
   1   1  -7   11.84    0.87
   1   1  -7    9.87    0.61
   1   1  -7   10.54    0.55
   1   1  -7   11.01    0.62
   0   1  -7  172.43    6.61
   0   1  -7  168.68    6.58
   0   1  -7  172.32    6.31
   0   1  -7  144.98    6.30
   0   1  -7  172.26    6.43
  -1   1  -7    5.81    0.55
  -1   1  -7    7.16    0.52
  -1   1  -7    6.49    0.53
  -2   1  -7   62.01    2.67
  -2   1  -7   63.42    2.55
  -2   1  -7   62.93    2.68
  -2   1  -7   65.36    2.52
  -3   1  -7   38.08    1.74
  -3   1  -7   35.02    1.73
  -3   1  -7   37.95    1.66
  -3   1  -7   38.46    1.68
   3  -1   7   38.94    1.70
  -4   1  -7   41.30    2.02
  -4   1  -7   39.34    1.79
  -4   1  -7   42.56    1.98
  -4   1  -7   43.43    1.96
   4  -1   7   43.76    1.91
  -5   1  -7   34.10    1.72
  -5   1  -7   30.71    1.76
  -5   1  -7   31.61    1.38
  -5   1  -7   31.85    1.69
   5  -1   7   31.52    1.58
   5  -1   7   32.45    1.46
   5  -1   7   31.04    1.41
  -6   1  -7   68.30    3.19
  -6   1  -7   65.94    3.21
  -6   1  -7   71.74    3.33
   6  -1   7   67.67    3.04
   6  -1   7   68.71    2.95
   6  -1   7   71.07    3.09
  -7   1  -7   28.75    2.07
   7  -1   7   29.02    1.68
   7  -1   7   31.86    1.88
   7  -1   7   31.76    1.91
  -8   1  -7    6.37    1.36
   8  -1   7    8.19    1.26
   8  -1   7   10.35    1.62
   6   0  -7    1.33    1.02
   5   0  -7    3.89    0.89
  -5   0   7    3.41    0.68
   4   0  -7   -0.06    0.61
   4   0  -7   -0.92    0.58
   4   0  -7    0.33    0.46
   3   0  -7   33.09    1.70
   3   0  -7   32.28    1.72
   2   0  -7    0.38    0.38
   2   0  -7    0.64    0.27
   2   0  -7    0.16    0.29
   1   0  -7  282.89   10.68
   1   0  -7  282.23   10.88
   1   0  -7  268.73   10.67
   1   0  -7  282.19   10.59
   1   0  -7  285.22   10.88
   1   0  -7  271.52   10.55
   0   0  -7    0.53    0.18
   0   0  -7    0.41    0.26
   0   0  -7    0.58    0.16
   0   0  -7    0.68    0.26
  -1   0  -7  217.75    8.55
  -1   0  -7  216.25    8.32
  -1   0  -7  215.70    8.37
  -1   0  -7  225.77    8.55
  -2   0  -7    7.39    0.58
  -2   0  -7    7.01    0.48
  -2   0  -7    7.69    0.50
  -2   0  -7    7.19    0.58
   2   0   7    7.89    0.59
  -3   0  -7   22.39    1.18
  -3   0  -7   23.75    1.25
  -3   0  -7   25.15    1.27
   3   0   7   24.96    1.24
  -4   0  -7   21.42    1.20
  -4   0  -7   20.56    1.27
  -4   0  -7   21.39    1.24
   4   0   7   21.50    1.17
  -5   0  -7  231.79    9.12
  -5   0  -7  240.30    9.03
  -5   0  -7  215.66    8.99
   5   0   7  217.18    8.73
   5   0   7  227.14    8.78
   5   0   7  224.87    8.90
  -6   0  -7   14.75    1.33
  -6   0  -7   13.57    1.23
  -6   0  -7   13.42    1.21
   6   0   7   13.84    1.08
   6   0   7   13.32    0.96
   6   0   7   15.52    1.19
  -7   0  -7  177.03    6.80
  -7   0  -7  188.51    7.59
   7   0   7  170.29    7.10
   7   0   7  167.43    7.22
  -8   0  -7   21.52    2.18
   8   0   7   15.81    1.99
   8   0   7   20.82    1.65
   5  -1  -7    0.08    0.67
  -5   1   7    1.00    0.68
  -5   1   7   -0.41    0.50
   4  -1  -7  130.49    5.26
   4  -1  -7  118.83    5.24
   4  -1  -7  116.99    5.22
  -4   1   7  121.09    4.89
  -4   1   7  125.49    4.93
   3  -1  -7    1.91    0.47
   3  -1  -7    1.60    0.50
  -3   1   7    1.67    0.35
  -3   1   7    1.61    0.35
   2  -1  -7   19.08    1.10
   2  -1  -7   17.00    1.15
   2  -1  -7   19.05    1.07
   1  -1  -7    0.31    0.24
   1  -1  -7   -0.04    0.28
   1  -1  -7    0.30    0.29
   1  -1  -7    0.29    0.16
   1  -1  -7    0.16    0.21
   0  -1  -7  120.04    4.76
   0  -1  -7  119.08    4.77
   0  -1  -7  118.67    4.59
   0  -1  -7  109.02    4.59
  -1  -1  -7    2.49    0.39
  -1  -1  -7    2.30    0.42
  -1  -1  -7    2.42    0.30
  -2  -1  -7  218.02    8.75
  -2  -1  -7  233.90    8.90
  -2  -1  -7  229.24    8.83
  -3  -1  -7    0.55    0.30
  -3  -1  -7    0.57    0.31
   3   1   7    0.07    0.27
  -4  -1  -7   57.48    2.59
  -4  -1  -7   47.62    2.53
  -4  -1  -7   57.97    2.66
   4   1   7   56.77    2.30
   4   1   7   60.64    2.55
   4   1   7   57.77    2.31
  -5  -1  -7   -0.25    0.39
  -5  -1  -7    0.33    0.43
  -5  -1  -7    0.31    0.45
   5   1   7    0.26    0.27
   5   1   7    0.12    0.32
   5   1   7    0.09    0.37
  -6  -1  -7    1.93    0.62
  -6  -1  -7    1.04    0.65
  -6  -1  -7    0.88    0.59
   6   1   7   -1.12    0.48
   6   1   7    0.59    0.52
   6   1   7    0.43    0.40
  -7  -1  -7    4.20    0.87
  -7  -1  -7    3.34    0.94
  -7  -1  -7    3.58    0.68
   7   1   7    4.04    0.87
   7   1   7    4.58    0.90
   7   1   7    3.20    0.86
  -8  -1  -7  133.83    6.13
   8   1   7  138.89    5.69
   8   1   7  120.20    5.83
   5  -2  -7    4.21    1.15
  -5   2   7    3.26    0.94
   4  -2  -7    4.81    1.17
   4  -2  -7    3.85    0.81
   4  -2  -7    3.77    0.88
  -4   2   7    3.11    0.72
  -4   2   7    3.16    0.77
   3  -2  -7    1.32    0.52
   3  -2  -7    2.10    0.54
  -3   2   7    2.43    0.53
  -3   2   7    2.44    0.51
   2  -2  -7    7.08    0.70
   2  -2  -7    6.50    0.73
   2  -2  -7    8.03    0.81
   2  -2  -7    8.06    0.81
  -2   2   7    8.83    0.56
  -2   2   7    8.25    0.53
   1  -2  -7   -0.55    0.27
   1  -2  -7    0.39    0.29
   1  -2  -7    0.45    0.36
   1  -2  -7    0.13    0.18
   1  -2  -7    0.34    0.26
   0  -2  -7    7.69    0.68
   0  -2  -7    8.20    0.59
   0  -2  -7    8.13    0.63
   0  -2  -7    9.39    0.65
  -1  -2  -7  272.65   10.44
  -1  -2  -7  268.68   10.46
  -1  -2  -7  267.34   10.33
  -1  -2  -7  264.54   10.39
  -2  -2  -7   14.42    0.83
  -2  -2  -7   13.73    0.92
  -2  -2  -7   13.51    0.90
   2   2   7   12.94    0.89
  -3  -2  -7  530.17   20.23
  -3  -2  -7  511.44   20.23
  -3  -2  -7  557.93   20.29
   3   2   7  528.34   19.96
   3   2   7  505.45   19.95
   3   2   7  535.15   20.21
  -4  -2  -7   30.63    1.70
  -4  -2  -7   32.32    1.65
  -4  -2  -7   31.16    1.72
   4   2   7   29.05    1.42
   4   2   7   31.20    1.61
   4   2   7   30.12    1.43
  -5  -2  -7  332.69   13.36
  -5  -2  -7  327.76   13.43
  -5  -2  -7  343.11   13.34
   5   2   7  352.01   13.28
   5   2   7  327.45   13.10
   5   2   7  353.37   13.15
  -6  -2  -7    6.91    1.04
  -6  -2  -7   10.82    1.18
  -6  -2  -7    7.53    1.23
   6   2   7    7.54    1.03
   6   2   7    9.43    0.89
  -7  -2  -7   15.43    1.50
  -7  -2  -7   13.61    1.58
   7   2   7   15.71    1.32
   7   2   7   14.66    1.57
  -8  -2  -7   13.69    1.94
  -8  -2  -7   11.35    1.14
   8   2   7    9.81    1.50
   5  -3  -7   -0.72    0.79
  -5   3   7   -0.06    0.68
  -5   3   7    0.18    0.98
   4  -3  -7  265.09   10.65
   4  -3  -7  247.62   10.53
   4  -3  -7  256.75   10.65
  -4   3   7  277.20   10.41
  -4   3   7  276.61   10.44
   3  -3  -7    0.64    0.48
   3  -3  -7    0.89    0.48
   3  -3  -7    1.26    0.56
  -3   3   7    1.21    0.43
  -3   3   7    0.86    0.42
   2  -3  -7  650.05   25.10
   2  -3  -7  680.83   25.52
   2  -3  -7  710.54   25.52
   2  -3  -7  692.71   25.51
   2  -3  -7  663.85   25.56
  -2   3   7  639.02   25.28
  -2   3   7  632.93   25.32
   1  -3  -7    3.12    0.50
   1  -3  -7    3.34    0.41
   1  -3  -7    3.60    0.60
   1  -3  -7    3.61    0.59
  -1   3   7    3.79    0.41
  -1   3   7    3.28    0.47
   0  -3  -7  243.70    9.38
   0  -3  -7  248.28    9.34
   0  -3  -7  239.39    9.32
   0  -3  -7  235.97    9.43
   0   3   7  232.74    9.20
   0   3   7  236.58    9.14
  -1  -3  -7    7.33    0.72
  -1  -3  -7    6.78    0.68
  -1  -3  -7    7.00    0.67
  -1  -3  -7    6.96    0.58
   1   3   7    6.78    0.50
   1   3   7    7.64    0.46
   1   3   7    8.14    0.72
  -2  -3  -7   76.79    3.23
  -2  -3  -7   73.63    3.20
  -2  -3  -7   66.95    3.07
  -2  -3  -7   73.75    3.16
   2   3   7   71.17    3.14
   2   3   7   75.02    2.92
   2   3   7   69.10    2.93
  -3  -3  -7   56.62    2.65
  -3  -3  -7   56.10    2.56
  -3  -3  -7   53.92    2.54
   3   3   7   54.71    2.37
   3   3   7   54.89    2.34
   3   3   7   57.17    2.55
  -4  -3  -7    1.65    0.44
  -4  -3  -7    0.88    0.43
  -4  -3  -7    2.55    0.62
   4   3   7    0.55    0.33
   4   3   7    1.69    0.38
   4   3   7    0.78    0.39
  -5  -3  -7   48.14    2.43
  -5  -3  -7   41.47    2.32
  -5  -3  -7   35.97    2.17
   5   3   7   41.81    2.09
   5   3   7   43.67    2.09
   5   3   7   47.08    2.28
  -6  -3  -7   45.32    2.50
  -6  -3  -7   45.76    2.68
  -6  -3  -7   50.20    2.66
   6   3   7   47.98    2.44
   6   3   7   43.93    2.51
   6   3   7   46.73    2.37
  -7  -3  -7   36.54    2.50
  -7  -3  -7   35.94    2.34
   7   3   7   36.41    2.10
  -8  -3  -7   24.75    2.31
  -8  -3  -7   24.04    1.64
   8   3   7   22.11    1.97
   5  -4  -7   42.16    2.63
   5  -4  -7   41.78    2.64
  -5   4   7   45.83    2.51
   4  -4  -7    0.31    0.63
   4  -4  -7    0.33    0.62
  -4   4   7   -0.01    0.57
  -4   4   7    0.91    0.65
   3  -4  -7   26.21    1.68
   3  -4  -7   25.66    1.66
   3  -4  -7   28.30    1.80
   3  -4  -7   26.34    1.69
  -3   4   7   27.49    1.54
  -3   4   7   28.48    1.58
   2  -4  -7   15.92    1.25
   2  -4  -7   18.43    1.21
   2  -4  -7   18.41    0.89
   2  -4  -7   16.86    1.23
  -2   4   7   18.02    1.15
  -2   4   7   17.79    1.09
   1  -4  -7   -0.20    0.25
   1  -4  -7   -0.25    0.30
   1  -4  -7    0.47    0.33
   1  -4  -7    0.67    0.43
  -1   4   7    0.28    0.29
  -1   4   7    0.05    0.33
   0  -4  -7   45.52    2.14
   0  -4  -7   43.05    2.07
   0  -4  -7   44.46    2.05
   0  -4  -7   43.14    2.11
   0   4   7   42.72    1.92
   0   4   7   44.11    2.03
  -1  -4  -7    3.30    0.55
  -1  -4  -7    2.98    0.51
  -1  -4  -7    4.81    0.70
  -1  -4  -7    4.66    0.70
   1   4   7    4.51    0.58
   1   4   7    4.41    0.47
   1   4   7    5.51    0.66
  -2  -4  -7   59.23    2.67
  -2  -4  -7   56.32    2.58
  -2  -4  -7   53.74    2.54
  -2  -4  -7   56.40    2.67
   2   4   7   57.52    2.60
   2   4   7   55.56    2.48
   2   4   7   55.10    2.40
  -3  -4  -7    8.46    1.03
  -3  -4  -7    7.67    0.80
  -3  -4  -7    9.83    0.95
  -3  -4  -7    9.37    0.83
   3   4   7    9.56    0.71
   3   4   7    7.23    0.82
   3   4   7    8.67    0.75
  -4  -4  -7   52.39    2.57
  -4  -4  -7   49.84    2.41
  -4  -4  -7   47.09    2.43
  -4  -4  -7   49.04    2.47
   4   4   7   44.58    2.26
   4   4   7   45.66    2.23
   4   4   7   49.75    2.40
  -5  -4  -7  179.24    7.68
  -5  -4  -7  187.25    7.59
  -5  -4  -7  172.62    7.64
   5   4   7  181.60    7.42
   5   4   7  194.91    7.45
  -6  -4  -7   44.13    2.84
  -6  -4  -7   53.27    2.81
  -6  -4  -7   48.36    2.64
   6   4   7   50.99    2.60
   6   4   7   45.83    2.68
  -7  -4  -7  250.08    9.86
  -7  -4  -7  237.73    9.93
   7   4   7  234.91    9.65
   7   4   7  222.98    9.69
  -8  -4  -7   27.30    2.50
  -8  -4  -7   28.07    1.92
   8   4   7   29.52    2.26
   5  -5  -7    1.84    0.95
   5  -5  -7    1.87    1.12
  -5   5   7    1.59    1.01
   4  -5  -7   22.59    1.81
   4  -5  -7   23.33    1.79
  -4   5   7   22.40    1.66
   3  -5  -7    2.71    0.75
   3  -5  -7    2.16    0.68
   3  -5  -7    3.34    0.52
   3  -5  -7    3.29    0.83
   3  -5  -7    1.63    0.85
  -3   5   7    3.41    0.74
  -3   5   7    4.15    0.89
   2  -5  -7   44.64    2.01
   2  -5  -7   45.80    2.33
   2  -5  -7   43.05    2.39
   2  -5  -7   46.89    2.34
  -2   5   7   44.60    2.26
  -2   5   7   49.70    2.24
   1  -5  -7    6.93    0.71
   1  -5  -7    6.94    0.83
   1  -5  -7    6.26    0.92
   1  -5  -7    6.24    0.78
  -1   5   7    6.83    0.75
  -1   5   7    6.30    0.80
   0  -5  -7  390.54   15.76
   0  -5  -7  427.91   15.79
   0  -5  -7  407.25   15.83
   0  -5  -7  389.03   15.68
   0   5   7  414.00   15.63
   0   5   7  412.85   15.75
  -1  -5  -7   15.71    1.20
  -1  -5  -7   16.29    1.10
  -1  -5  -7   18.76    1.24
  -1  -5  -7   15.50    1.08
   1   5   7   17.56    1.02
   1   5   7   15.76    1.13
   1   5   7   15.42    1.10
  -2  -5  -7  537.27   20.36
  -2  -5  -7  540.12   20.47
  -2  -5  -7  557.47   20.46
  -2  -5  -7  491.66   20.32
   2   5   7  516.68   20.31
  -3  -5  -7    7.97    0.84
  -3  -5  -7    8.10    0.89
  -3  -5  -7    9.53    1.09
  -3  -5  -7    9.77    1.16
   3   5   7    8.53    0.79
   3   5   7    7.20    0.83
  -4  -5  -7  259.92    9.80
  -4  -5  -7  238.61    9.84
  -4  -5  -7  210.10    9.65
  -4  -5  -7  240.78    9.69
   4   5   7  248.25    9.56
   4   5   7  247.41    9.62
  -5  -5  -7   34.45    2.25
  -5  -5  -7   34.70    2.04
  -5  -5  -7   34.51    2.12
   5   5   7   34.95    1.98
   5   5   7   32.24    1.93
  -6  -5  -7   56.88    3.16
  -6  -5  -7   54.49    3.00
   6   5   7   57.41    2.89
  -7  -5  -7   48.10    2.97
  -7  -5  -7   46.30    2.90
   7   5   7   45.70    2.72
  -8  -5  -7    3.98    0.99
   4  -6  -7    1.18    0.87
   4  -6  -7    1.10    0.90
  -4   6   7    0.74    0.82
  -4   6   7    1.44    0.99
   3  -6  -7  111.03    4.78
   3  -6  -7  103.79    4.32
   3  -6  -7  103.14    4.80
  -3   6   7  109.37    4.73
   2  -6  -7   -0.40    0.75
   2  -6  -7    1.06    0.54
   2  -6  -7    1.57    0.60
   2  -6  -7    0.98    0.44
  -2   6   7    0.49    0.59
  -2   6   7    0.39    0.56
   1  -6  -7   74.17    3.32
   1  -6  -7   71.49    3.44
   1  -6  -7   70.05    3.17
   1  -6  -7   73.15    3.33
  -1   6   7   69.72    3.21
  -1   6   7   75.85    3.35
   0  -6  -7    1.64    0.55
   0  -6  -7    1.33    0.43
   0  -6  -7    1.66    0.59
   0  -6  -7    0.85    0.41
   0   6   7    1.65    0.52
   0   6   7    1.76    0.48
  -1  -6  -7    8.59    1.11
  -1  -6  -7    9.80    0.92
  -1  -6  -7    7.39    0.86
  -1  -6  -7   10.32    1.08
   1   6   7    9.94    0.88
   1   6   7   11.65    1.00
   1   6   7    8.67    0.97
  -2  -6  -7   17.11    1.42
  -2  -6  -7   16.81    1.21
  -2  -6  -7   16.74    1.18
  -2  -6  -7   15.78    1.38
   2   6   7   16.05    1.26
   2   6   7   15.23    1.23
   2   6   7   15.46    1.11
  -3  -6  -7   91.34    3.95
  -3  -6  -7   87.07    3.98
  -3  -6  -7   84.26    4.10
  -3  -6  -7   88.27    4.07
   3   6   7   88.04    3.83
  -4  -6  -7   18.32    1.39
  -4  -6  -7   16.61    1.41
  -4  -6  -7   17.23    1.71
  -4  -6  -7   20.10    1.75
   4   6   7   17.64    1.34
   4   6   7   18.52    1.39
  -5  -6  -7   68.71    3.44
  -5  -6  -7   71.79    3.55
   5   6   7   69.88    3.38
  -6  -6  -7   29.57    2.24
  -6  -6  -7   30.08    2.13
   6   6   7   31.89    2.06
   6   6   7   26.97    2.17
  -7  -6  -7    6.07    1.36
  -7  -6  -7    8.07    1.78
   7   6   7    5.53    1.59
   4  -7  -7   21.40    1.93
  -4   7   7   19.95    2.00
   3  -7  -7    6.24    1.21
   3  -7  -7    3.11    0.92
  -3   7   7    5.31    1.31
  -3   7   7    1.73    0.99
   2  -7  -7  162.16    6.52
   2  -7  -7  149.45    6.36
   2  -7  -7  145.42    6.14
  -2   7   7  147.63    6.39
   1  -7  -7    2.11    0.57
   1  -7  -7    1.10    0.82
   1  -7  -7    1.59    0.63
   1  -7  -7    1.25    0.65
  -1   7   7   -0.05    0.59
  -1   7   7    2.10    0.73
   0  -7  -7  129.91    5.63
   0  -7  -7  120.53    5.71
   0  -7  -7  135.01    5.60
   0  -7  -7  135.58    5.62
   0   7   7  132.27    5.64
   0   7   7  141.56    5.58
  -1  -7  -7    3.17    0.76
  -1  -7  -7    2.94    0.74
  -1  -7  -7    2.71    0.76
  -1  -7  -7    3.30    0.88
   1   7   7    3.05    0.70
   1   7   7    3.59    0.91
   1   7   7    1.63    0.57
  -2  -7  -7    3.70    0.81
  -2  -7  -7    3.97    0.82
  -2  -7  -7    3.04    0.90
  -2  -7  -7    4.65    1.19
   2   7   7    3.23    0.86
   2   7   7    4.19    0.87
   2   7   7    5.14    0.99
  -3  -7  -7    1.08    0.88
  -3  -7  -7    1.24    0.57
  -3  -7  -7    1.40    0.85
  -3  -7  -7    1.53    0.64
   3   7   7    4.24    0.97
   3   7   7    1.27    0.64
   3   7   7    1.31    0.79
  -4  -7  -7   68.64    3.37
  -4  -7  -7   66.95    3.29
   4   7   7   62.55    3.22
  -5  -7  -7    0.15    0.68
  -5  -7  -7    0.83    0.77
   5   7   7    0.36    0.84
   5   7   7    0.06    0.70
  -6  -7  -7  127.78    5.60
  -6  -7  -7  112.19    5.35
   6   7   7  110.05    5.28
   7   7   7   -0.04    1.07
   3  -8  -7    4.71    1.13
   3  -8  -7    4.64    1.03
  -3   8   7    3.15    0.86
  -3   8   7    6.56    1.65
   2  -8  -7   -0.40    0.65
   2  -8  -7    0.56    0.79
   2  -8  -7    1.11    0.79
  -2   8   7    0.11    0.65
  -2   8   7    0.38    0.77
   1  -8  -7    7.33    1.34
   1  -8  -7    7.72    1.13
   1  -8  -7    6.49    1.12
  -1   8   7    4.63    1.23
  -1   8   7    5.71    1.25
   0  -8  -7   18.23    1.70
   0  -8  -7   21.94    1.60
   0  -8  -7   20.76    1.50
   0   8   7   19.97    1.62
   0   8   7   21.39    1.63
  -1  -8  -7   21.52    1.91
  -1  -8  -7   24.11    1.58
  -1  -8  -7   26.22    1.69
   1   8   7   23.51    1.74
   1   8   7   17.36    1.65
  -2  -8  -7   18.98    1.58
  -2  -8  -7   21.86    1.54
  -2  -8  -7   20.06    1.92
   2   8   7   21.53    1.70
   2   8   7   24.53    1.91
  -3  -8  -7   15.10    1.39
  -3  -8  -7   13.85    1.46
   3   8   7   15.31    1.55
   3   8   7   13.45    1.57
  -4  -8  -7    8.96    1.35
  -4  -8  -7    9.98    1.41
   4   8   7    8.33    1.40
  -5  -8  -7    9.12    1.55
  -5  -8  -7   10.24    1.70
   5   8   7   10.22    1.59
  -6  -8  -7    2.29    1.12
  -6  -8  -7    1.43    1.16
   6   8   7    3.90    1.12
   2  -9  -7    2.27    1.00
   2  -9  -7    5.73    1.45
  -2   9   7    3.64    0.96
  -2   9   7    4.59    1.18
   1  -9  -7    3.39    1.09
   1  -9  -7    5.31    1.11
   1  -9  -7    4.73    1.23
  -1   9   7    5.07    1.15
   0  -9  -7  173.86    7.17
   0  -9  -7  165.87    7.27
   0   9   7  172.39    7.32
  -1  -9  -7    4.37    1.12
  -1  -9  -7    2.08    0.75
   1   9   7    2.27    0.94
  -2  -9  -7  235.01    9.39
  -2  -9  -7  214.37    9.43
   2   9   7  236.81    9.54
  -3  -9  -7    1.50    0.74
  -3  -9  -7   -0.07    0.83
   3   9   7    0.64    0.92
  -4  -9  -7  190.25    8.10
  -4  -9  -7  183.86    7.96
  -5  -9  -7   -0.28    1.16
  -5  -9  -7   -1.06    0.99
   5   9   7   -1.07    0.97
   0 -10  -7    1.59    0.88
   0 -10  -7    0.76    0.93
   0  10   7    2.39    1.09
  -1 -10  -7   47.72    2.89
  -1 -10  -7   47.28    2.72
   1  10   7   47.00    3.01
  -2 -10  -7   23.42    2.00
  -2 -10  -7   24.52    2.10
   2  10   7   24.19    2.25
  -3 -10  -7   -0.89    0.90
  -3 -10  -7   -1.21    0.89
   3  10   7    0.42    1.08
  -4 -10  -7   51.19    3.13
   0   9  -8    9.83    1.55
   0   9  -8    8.47    1.48
   0  -9   8   12.74    1.68
  -1   9  -8   71.60    3.64
  -1   9  -8   74.41    3.51
   1  -9   8   73.88    3.54
  -2   9  -8   15.57    1.78
  -2   9  -8   14.34    1.54
   2  -9   8   15.96    1.46
   2   8  -8  140.91    5.97
   2   8  -8  139.74    5.87
  -2  -8   8  128.35    6.10
   1   8  -8   11.03    1.44
   1   8  -8   11.23    1.35
  -1  -8   8   12.11    1.60
   0   8  -8   43.27    2.34
   0   8  -8   44.28    2.43
   0  -8   8   43.95    2.48
  -1   8  -8   10.63    1.46
  -1   8  -8   10.09    1.32
  -1   8  -8   11.02    1.14
   1  -8   8   10.27    1.23
  -2   8  -8    6.28    1.23
  -2   8  -8    7.29    1.04
  -2   8  -8    6.71    1.40
   2  -8   8    4.79    0.99
  -3   8  -8    2.48    0.73
  -3   8  -8    4.90    1.42
  -3   8  -8    2.96    0.93
  -4   8  -8   28.10    2.23
  -4   8  -8   29.68    1.96
   3   7  -8    2.69    0.94
  -3  -7   8    2.14    1.10
   2   7  -8    7.23    1.29
   2   7  -8    7.31    1.14
   2   7  -8    8.21    1.54
  -2  -7   8    6.38    1.40
   1   7  -8    0.36    0.77
   1   7  -8    0.55    0.62
   1   7  -8    0.32    0.56
   1   7  -8    0.18    0.67
  -1  -7   8   -0.11    0.68
   0   7  -8   16.47    1.31
   0   7  -8   16.22    1.36
   0   7  -8   18.31    1.17
   0   7  -8   15.97    0.99
   0   7  -8   18.54    1.26
   0  -7   8   16.85    1.38
  -1   7  -8   19.20    1.45
  -1   7  -8   22.19    1.31
  -1   7  -8   20.98    1.45
   1  -7   8   23.33    1.47
  -2   7  -8   34.07    1.88
  -2   7  -8   33.48    1.76
  -2   7  -8   33.59    2.00
   2  -7   8   34.81    1.81
  -3   7  -8   45.92    2.46
  -3   7  -8   42.71    2.32
  -3   7  -8   46.10    2.24
  -4   7  -8   51.60    2.65
  -4   7  -8   54.94    2.89
  -4   7  -8   56.43    2.84
  -5   7  -8   78.50    3.66
  -5   7  -8   73.81    3.79
   3   6  -8    4.92    1.34
   3   6  -8    4.28    0.92
   3   6  -8    2.46    0.85
  -3  -6   8    2.69    0.96
   2   6  -8   94.79    4.12
   2   6  -8   91.17    3.91
   2   6  -8   87.80    4.13
  -2  -6   8   89.25    4.22
   1   6  -8    9.55    1.13
   1   6  -8   10.47    0.99
   1   6  -8    9.58    1.13
   1   6  -8   11.21    0.99
  -1  -6   8    8.86    1.15
   0   6  -8  198.12    8.02
   0   6  -8  213.96    8.25
   0   6  -8  207.91    8.09
   0   6  -8  203.88    8.09
   0   6  -8  204.94    8.11
   0  -6   8  206.53    8.31
  -1   6  -8   45.40    2.30
  -1   6  -8   49.05    2.17
  -1   6  -8   47.53    2.01
  -1   6  -8   47.19    2.09
  -1   6  -8   45.48    1.95
   1  -6   8   43.70    2.26
  -2   6  -8  287.29   10.83
  -2   6  -8  269.27   10.78
  -2   6  -8  282.14   11.05
   2  -6   8  277.00   10.88
  -3   6  -8   57.78    2.57
  -3   6  -8   59.18    2.80
  -3   6  -8   53.68    2.59
  -4   6  -8   93.78    4.11
  -4   6  -8   87.26    3.92
  -4   6  -8   87.87    3.87
  -5   6  -8   35.33    2.21
  -5   6  -8   33.75    1.99
  -5   6  -8   35.18    2.20
  -6   6  -8    6.26    1.36
  -6   6  -8    7.40    1.57
   4   5  -8    2.30    0.92
  -4  -5   8    2.93    1.10
   3   5  -8  105.52    4.63
   3   5  -8  111.54    4.72
   3   5  -8  104.66    4.31
  -3  -5   8  101.05    4.84
   2   5  -8    3.51    0.79
   2   5  -8    3.52    0.70
   2   5  -8    3.84    0.97
  -2  -5   8    5.18    1.07
   1   5  -8    2.70    0.57
   1   5  -8    0.97    0.70
   1   5  -8    4.00    0.67
   1   5  -8    3.95    0.65
  -1  -5   8    2.51    0.68
   0   5  -8    8.15    1.09
   0   5  -8    8.39    0.69
   0   5  -8    8.15    0.75
   0   5  -8    8.25    0.81
   0   5  -8    7.82    0.65
   0  -5   8    8.03    0.91
  -1   5  -8   10.07    0.65
  -1   5  -8   10.24    0.73
  -1   5  -8    9.33    1.06
  -1   5  -8    9.89    0.68
  -1   5  -8   10.80    0.88
   1  -5   8   10.21    0.90
  -2   5  -8   12.19    0.69
  -2   5  -8   12.25    1.02
  -2   5  -8   13.39    0.79
  -2   5  -8   14.53    1.13
  -2   5  -8   12.98    0.84
  -3   5  -8    3.84    0.57
  -3   5  -8    4.43    0.68
  -3   5  -8    3.80    0.75
  -4   5  -8   22.48    1.36
  -4   5  -8   25.10    1.57
  -4   5  -8   23.97    1.44
  -5   5  -8    1.73    0.74
  -5   5  -8    4.08    0.84
  -5   5  -8    3.20    0.70
  -6   5  -8   31.13    2.04
  -6   5  -8   35.75    2.23
  -7   5  -8    4.23    1.12
   4   4  -8   59.81    3.12
   4   4  -8   62.55    3.29
  -4  -4   8   62.68    3.32
   3   4  -8    1.38    0.59
   3   4  -8    0.81    0.70
  -3  -4   8    1.27    0.74
   2   4  -8    8.42    1.21
   2   4  -8   11.75    1.02
   2   4  -8   10.91    0.78
   2   4  -8   11.23    0.93
  -2  -4   8   11.82    1.18
   1   4  -8    6.30    0.68
   1   4  -8    4.93    0.62
   1   4  -8    5.12    0.60
   1   4  -8    4.57    0.99
  -1  -4   8    3.98    0.81
   0   4  -8    5.04    0.88
   0   4  -8    3.99    0.51
   0   4  -8    5.12    0.45
   0   4  -8    4.65    0.57
   0   4  -8    5.18    0.61
   0  -4   8    4.90    0.72
  -1   4  -8    1.48    0.27
  -1   4  -8    1.40    0.34
  -1   4  -8    1.51    0.49
  -1   4  -8    1.67    0.41
  -1   4  -8    1.27    0.33
  -2   4  -8   57.18    2.25
  -2   4  -8   53.72    2.28
  -2   4  -8   52.88    2.48
  -2   4  -8   53.80    2.51
  -2   4  -8   53.87    2.25
  -3   4  -8   13.58    0.81
  -3   4  -8   11.82    0.73
  -3   4  -8   13.17    0.94
  -3   4  -8   12.78    1.01
  -3   4  -8   11.78    0.81
  -4   4  -8  135.57    5.78
  -4   4  -8  143.04    5.62
  -4   4  -8  136.46    5.59
  -5   4  -8   26.88    1.72
  -5   4  -8   26.20    1.56
  -5   4  -8   24.09    1.60
  -6   4  -8  141.37    6.12
  -6   4  -8  145.28    6.19
  -6   4  -8  145.26    6.22
   6  -4   8  146.03    5.64
  -7   4  -8   23.84    1.96
  -7   4  -8   19.76    1.95
   5   3  -8   25.06    2.02
   4   3  -8    2.94    1.02
   4   3  -8    3.90    1.11
   3   3  -8    8.50    1.07
   3   3  -8    7.00    0.94
  -3  -3   8    9.72    1.16
   2   3  -8    1.18    0.29
   2   3  -8    1.27    0.45
   2   3  -8    1.29    0.59
   2   3  -8    2.47    0.59
  -2  -3   8    0.73    0.50
   1   3  -8  113.87    4.62
   1   3  -8  116.51    4.59
   1   3  -8  117.19    4.62
   1   3  -8  116.32    4.94
  -1  -3   8  117.00    4.91
   0   3  -8    3.77    0.33
   0   3  -8    3.77    0.71
   0   3  -8    3.47    0.53
   0   3  -8    3.49    0.48
  -1   3  -8   46.99    2.18
  -1   3  -8   47.69    2.06
  -1   3  -8   43.92    2.08
  -2   3  -8    6.27    0.56
  -2   3  -8    6.10    0.43
  -2   3  -8    6.27    0.66
  -2   3  -8    6.12    0.67
  -2   3  -8    6.34    0.42
  -3   3  -8   33.22    1.64
  -3   3  -8   34.72    1.57
  -3   3  -8   35.11    1.56
  -3   3  -8   35.65    1.77
  -3   3  -8   33.77    1.59
  -4   3  -8    1.83    0.37
  -4   3  -8    1.03    0.46
  -4   3  -8    1.66    0.40
  -4   3  -8    1.92    0.54
  -4   3  -8    1.81    0.45
  -5   3  -8   55.05    2.63
  -5   3  -8   54.25    2.70
  -5   3  -8   52.77    2.45
  -5   3  -8   58.05    2.65
   5  -3   8   56.29    2.36
  -6   3  -8    0.32    0.57
  -6   3  -8    0.77    0.61
  -6   3  -8    1.08    0.78
   6  -3   8    1.12    0.46
  -7   3  -8   47.64    2.79
  -7   3  -8   49.70    2.79
   5   2  -8    8.19    1.43
   4   2  -8   17.98    1.48
   4   2  -8   18.97    1.68
   3   2  -8    4.61    0.88
   3   2  -8    3.91    0.77
   2   2  -8  110.90    4.67
   2   2  -8  119.37    4.68
   1   2  -8    2.20    0.52
   1   2  -8    2.68    0.36
   1   2  -8    2.90    0.40
   1   2  -8    3.19    0.41
   0   2  -8  218.34    8.62
   0   2  -8  227.63    8.76
   0   2  -8  223.06    8.83
  -1   2  -8    1.89    0.41
  -1   2  -8    3.34    0.57
  -1   2  -8    2.22    0.43
  -2   2  -8  169.03    6.90
  -2   2  -8  187.35    7.13
  -2   2  -8  177.49    7.07
  -2   2  -8  181.16    7.14
  -2   2  -8  185.49    6.87
  -3   2  -8    9.33    0.63
  -3   2  -8    9.26    0.66
  -3   2  -8    9.60    0.71
  -3   2  -8    8.97    0.78
  -3   2  -8    8.74    0.70
  -4   2  -8  141.54    5.51
  -4   2  -8  137.77    5.40
  -4   2  -8  145.59    5.58
  -4   2  -8  134.40    5.52
  -4   2  -8  121.26    5.62
   4  -2   8  140.18    5.43
  -5   2  -8   19.38    1.34
  -5   2  -8   20.11    1.28
  -5   2  -8   20.43    1.35
  -5   2  -8   20.56    1.02
  -5   2  -8   22.67    1.44
   5  -2   8   21.37    1.16
  -6   2  -8    1.52    0.70
  -6   2  -8    2.33    0.69
  -6   2  -8    1.15    0.65
   6  -2   8    0.57    0.47
  -7   2  -8    4.41    1.06
  -7   2  -8    6.26    1.29
   7  -2   8    4.77    1.03
   7  -2   8    5.18    0.75
   7  -2   8    3.24    0.91
  -8   2  -8   42.82    2.96
   5   1  -8  142.44    6.22
   4   1  -8    3.14    0.89
   4   1  -8    3.88    0.81
   3   1  -8  305.29   11.59
   3   1  -8  287.09   11.58
   2   1  -8    9.62    0.79
   2   1  -8    9.36    0.75
   1   1  -8  151.03    5.74
   1   1  -8  148.62    5.66
   1   1  -8  148.93    5.98
   1   1  -8  142.31    5.74
   1   1  -8  144.22    6.01
   0   1  -8   63.46    2.58
   0   1  -8   63.08    2.47
   0   1  -8   61.42    2.75
   0   1  -8   64.81    2.82
   0   1  -8   60.72    2.46
  -1   1  -8    7.46    0.59
  -1   1  -8    9.03    0.72
  -1   1  -8    7.93    0.66
  -2   1  -8   58.56    2.42
  -2   1  -8   61.29    2.40
  -2   1  -8   60.38    2.61
  -2   1  -8   59.38    2.60
  -3   1  -8   30.63    1.47
  -3   1  -8   28.70    1.47
  -3   1  -8   31.55    1.41
  -3   1  -8   30.62    1.52
   3  -1   8   30.36    1.46
  -4   1  -8   80.81    3.64
  -4   1  -8   83.20    3.63
  -4   1  -8   90.13    3.49
  -4   1  -8   86.30    3.58
  -5   1  -8    0.82    0.48
  -5   1  -8    0.04    0.42
  -5   1  -8    0.28    0.45
  -5   1  -8    0.40    0.27
   5  -1   8    0.19    0.35
  -6   1  -8   32.80    2.04
  -6   1  -8   35.78    1.54
  -6   1  -8   35.64    2.11
  -6   1  -8   36.22    2.03
   6  -1   8   35.01    1.86
   6  -1   8   36.78    1.63
   6  -1   8   36.94    1.59
  -7   1  -8   14.12    1.51
   7  -1   8   11.03    1.17
   7  -1   8   13.57    1.01
  -8   1  -8   25.52    2.33
   8  -1   8   22.30    2.23
   8  -1   8   27.93    1.71
   5   0  -8    5.95    1.40
   4   0  -8   12.58    1.47
   4   0  -8   11.17    1.17
   3   0  -8   22.70    1.41
   3   0  -8   21.49    1.34
   3   0  -8   21.11    1.58
   2   0  -8    1.25    0.40
   2   0  -8    0.60    0.34
   1   0  -8   60.29    2.73
   1   0  -8   60.31    2.36
   1   0  -8   59.56    2.41
   1   0  -8   61.27    2.52
   1   0  -8   58.38    2.51
   0   0  -8   79.45    3.14
   0   0  -8   79.84    3.15
   0   0  -8   75.46    3.35
   0   0  -8   76.40    3.11
   0   0  -8   80.67    3.40
  -1   0  -8   30.44    1.33
  -1   0  -8   29.32    1.27
  -1   0  -8   29.38    1.50
  -1   0  -8   30.04    1.51
  -2   0  -8  159.17    6.34
  -2   0  -8  166.00    6.49
  -2   0  -8  166.70    6.46
  -2   0  -8  158.27    6.30
  -3   0  -8   33.88    1.63
  -3   0  -8   33.57    1.68
  -3   0  -8   36.78    1.67
  -3   0  -8   35.58    1.74
   3   0   8   36.11    1.70
  -4   0  -8  219.13    8.34
  -4   0  -8  204.57    8.37
  -4   0  -8  209.89    8.43
   4   0   8  210.50    8.31
  -5   0  -8   33.44    1.82
  -5   0  -8   34.08    1.84
  -5   0  -8   32.81    1.91
   5   0   8   34.19    1.75
  -6   0  -8  216.57    8.76
  -6   0  -8  215.54    8.85
  -6   0  -8  208.44    8.74
   6   0   8  223.07    8.62
   6   0   8  217.20    8.40
   6   0   8  210.47    8.35
  -7   0  -8   59.98    3.07
  -7   0  -8   60.40    3.24
   7   0   8   57.49    2.81
   7   0   8   58.67    2.68
  -8   0  -8   53.57    3.38
   8   0   8   60.14    2.85
   5  -1  -8   18.38    1.75
   4  -1  -8    0.75    0.59
   4  -1  -8   -1.07    0.73
   3  -1  -8  104.27    4.78
   3  -1  -8  117.43    4.72
   3  -1  -8  110.39    4.70
   2  -1  -8    1.55    0.49
   2  -1  -8    1.41    0.42
   2  -1  -8    1.40    0.45
   1  -1  -8  255.80   10.05
   1  -1  -8  268.18   10.06
   1  -1  -8  260.57    9.87
   1  -1  -8  259.17    9.83
   1  -1  -8  253.91   10.24
   0  -1  -8    0.56    0.32
   0  -1  -8    1.38    0.43
   0  -1  -8    1.07    0.32
   0  -1  -8    0.72    0.28
   0  -1  -8    1.19    0.33
  -1  -1  -8  354.78   14.09
  -1  -1  -8  369.90   14.15
  -1  -1  -8  380.21   14.29
  -1  -1  -8  375.23   14.31
  -2  -1  -8   43.22    1.99
  -2  -1  -8   46.41    2.14
  -2  -1  -8   48.00    2.10
   2   1   8   46.93    2.13
  -3  -1  -8   85.85    3.71
  -3  -1  -8   91.57    3.76
  -3  -1  -8   85.98    3.76
   3   1   8   90.89    3.74
  -4  -1  -8   58.36    2.71
  -4  -1  -8   57.58    2.70
  -4  -1  -8   59.36    2.76
   4   1   8   58.70    2.65
  -5  -1  -8    4.58    0.79
  -5  -1  -8    3.01    0.68
   5   1   8    3.38    0.45
   5   1   8    2.95    0.43
   5   1   8    5.01    0.78
  -6  -1  -8   71.82    3.52
  -6  -1  -8   72.12    3.42
   6   1   8   69.73    3.09
   6   1   8   71.74    3.05
  -7  -1  -8    5.02    1.39
  -7  -1  -8    6.06    1.33
   7   1   8    5.34    0.91
   7   1   8    5.00    1.16
   7   1   8    5.67    1.39
  -8  -1  -8   47.04    3.19
   8   1   8   51.46    2.64
   5  -2  -8    4.84    1.08
   4  -2  -8   70.28    3.79
   4  -2  -8   92.15    3.81
  -4   2   8   81.70    3.27
  -4   2   8   75.12    3.29
   3  -2  -8    2.13    0.66
   3  -2  -8    3.24    0.93
   3  -2  -8    2.07    0.61
   3  -2  -8    2.88    0.72
   2  -2  -8    0.34    0.44
   2  -2  -8    0.62    0.39
   2  -2  -8    0.26    0.42
   1  -2  -8    4.48    0.41
   1  -2  -8    3.82    0.53
   1  -2  -8    3.89    0.62
   1  -2  -8    3.63    0.67
   0  -2  -8   36.38    1.84
   0  -2  -8   35.64    1.71
   0  -2  -8   34.47    1.81
   0  -2  -8   35.84    1.72
   0  -2  -8   38.48    1.70
  -1  -2  -8   50.74    2.36
  -1  -2  -8   50.60    2.34
  -1  -2  -8   52.73    2.27
  -1  -2  -8   49.26    2.20
  -2  -2  -8   32.73    1.66
  -2  -2  -8   33.37    1.68
  -2  -2  -8   29.74    1.53
   2   2   8   33.86    1.67
  -3  -2  -8   29.63    1.64
  -3  -2  -8   28.18    1.56
  -3  -2  -8   29.30    1.53
   3   2   8   29.83    1.58
  -4  -2  -8    0.53    0.40
  -4  -2  -8    1.47    0.56
  -4  -2  -8    0.52    0.43
   4   2   8    0.41    0.20
   4   2   8    0.40    0.21
   4   2   8   -0.07    0.35
  -5  -2  -8   22.65    1.61
  -5  -2  -8   23.64    1.50
  -5  -2  -8   20.23    1.56
   5   2   8   22.72    1.47
   5   2   8   21.23    1.19
   5   2   8   23.99    1.19
  -6  -2  -8    6.42    1.08
  -6  -2  -8    5.99    1.14
  -6  -2  -8    4.73    1.30
   6   2   8    5.57    0.88
   6   2   8    5.98    0.78
  -7  -2  -8   23.22    1.89
  -7  -2  -8   20.47    1.96
   7   2   8   21.82    1.68
   7   2   8   21.90    1.49
  -8  -2  -8  114.21    5.45
   8   2   8  101.86    5.08
   8   2   8  113.80    4.90
   5  -3  -8   73.49    3.82
   4  -3  -8   26.19    1.86
   4  -3  -8   23.77    1.80
  -4   3   8   23.93    1.46
   3  -3  -8   57.03    2.86
   3  -3  -8   58.77    2.80
   3  -3  -8   56.44    2.85
  -3   3   8   57.05    2.47
  -3   3   8   55.54    2.48
   2  -3  -8    4.18    0.87
   2  -3  -8    3.90    0.85
   2  -3  -8    4.66    0.82
   2  -3  -8    4.33    0.74
  -2   3   8    4.64    0.53
  -2   3   8    4.68    0.49
   1  -3  -8   59.38    2.76
   1  -3  -8   60.22    2.68
   1  -3  -8   57.54    2.62
   1  -3  -8   55.73    2.41
   0  -3  -8    4.40    0.69
   0  -3  -8    5.58    0.66
   0  -3  -8    5.66    0.61
   0  -3  -8    5.68    0.68
  -1  -3  -8    5.66    0.69
  -1  -3  -8    5.59    0.70
  -1  -3  -8    4.97    0.57
  -1  -3  -8    6.48    0.76
  -2  -3  -8   10.55    0.80
  -2  -3  -8   11.28    0.90
  -2  -3  -8    9.01    0.92
  -2  -3  -8   11.61    1.01
   2   3   8   11.76    0.93
   2   3   8   11.24    0.53
   2   3   8   11.56    0.55
  -3  -3  -8   85.53    3.77
  -3  -3  -8   84.82    3.85
  -3  -3  -8   86.41    3.80
   3   3   8   91.93    3.81
   3   3   8   85.82    3.47
   3   3   8   88.29    3.46
  -4  -3  -8    3.47    0.75
  -4  -3  -8    3.34    0.73
  -4  -3  -8    3.24    0.71
   4   3   8    3.42    0.51
   4   3   8    3.11    0.74
   4   3   8    3.48    0.51
  -5  -3  -8  148.49    6.05
  -5  -3  -8  129.20    5.96
  -5  -3  -8  144.17    5.93
   5   3   8  132.35    5.60
   5   3   8  141.56    5.62
  -6  -3  -8    0.36    0.70
  -6  -3  -8    1.00    0.67
  -6  -3  -8    2.67    0.94
   6   3   8    0.09    0.56
   6   3   8    0.39    0.49
   6   3   8    1.60    0.72
  -7  -3  -8    6.42    1.54
  -7  -3  -8    5.17    1.18
   7   3   8    6.33    1.09
  -8  -3  -8    3.84    1.30
  -8  -3  -8    3.43    1.21
   8   3   8    2.60    0.99
   4  -4  -8    1.47    0.83
   4  -4  -8    1.48    0.85
  -4   4   8    0.52    0.64
   3  -4  -8   29.38    1.92
   3  -4  -8   28.75    1.85
   3  -4  -8   27.57    1.97
  -3   4   8   28.22    1.62
  -3   4   8   30.92    1.61
   2  -4  -8   23.28    1.62
   2  -4  -8   24.10    1.12
   2  -4  -8   26.71    1.64
   2  -4  -8   25.76    1.56
  -2   4   8   24.70    1.31
  -2   4   8   25.28    1.39
   1  -4  -8   24.32    1.45
   1  -4  -8   25.31    1.54
   1  -4  -8   26.87    1.56
   1  -4  -8   25.89    1.27
  -1   4   8   24.27    1.32
  -1   4   8   23.49    1.22
   0  -4  -8    9.55    0.91
   0  -4  -8    9.37    0.92
   0  -4  -8   10.90    0.85
   0  -4  -8   10.89    0.88
   0   4   8    9.66    0.74
   0   4   8   10.03    0.65
  -1  -4  -8   17.51    1.14
  -1  -4  -8   15.92    1.16
  -1  -4  -8   16.48    1.20
  -1  -4  -8   16.23    1.07
   1   4   8   15.79    0.94
   1   4   8   16.74    0.87
  -2  -4  -8   29.82    1.72
  -2  -4  -8   29.00    1.70
  -2  -4  -8   28.62    1.61
  -2  -4  -8   29.36    1.56
   2   4   8   27.73    1.39
   2   4   8   28.07    1.62
   2   4   8   28.87    1.34
  -3  -4  -8    0.52    0.57
  -3  -4  -8    2.09    0.59
  -3  -4  -8    0.34    0.38
  -3  -4  -8    1.09    0.43
   3   4   8    0.47    0.49
   3   4   8    1.22    0.31
   3   4   8    0.58    0.32
  -4  -4  -8   47.24    2.54
  -4  -4  -8   48.16    2.60
  -4  -4  -8   50.01    2.47
  -4  -4  -8   46.39    2.47
   4   4   8   50.95    2.24
   4   4   8   47.75    2.24
  -5  -4  -8    3.63    1.01
  -5  -4  -8    2.37    0.87
  -5  -4  -8    2.04    0.83
  -5  -4  -8    1.69    0.61
   5   4   8    3.03    0.76
   5   4   8    2.25    0.57
   5   4   8    3.34    0.75
  -6  -4  -8  111.42    5.13
  -6  -4  -8  103.39    4.93
   6   4   8  113.81    4.77
   6   4   8  110.43    4.77
  -7  -4  -8    0.55    0.88
  -7  -4  -8   -1.06    0.94
   7   4   8    1.00    0.93
   7   4   8    0.32    0.72
  -8  -4  -8   61.07    3.73
   8   4   8   67.27    3.49
   4  -5  -8    1.84    0.99
   4  -5  -8    4.79    1.32
  -4   5   8    1.77    0.81
   3  -5  -8  142.78    6.04
   3  -5  -8  134.26    6.01
  -3   5   8  141.43    5.75
  -3   5   8  138.99    5.82
   2  -5  -8    3.08    0.67
   2  -5  -8    3.75    0.57
   2  -5  -8    1.27    0.67
   2  -5  -8    0.97    0.79
   2  -5  -8    2.64    0.70
  -2   5   8    2.44    0.56
  -2   5   8    2.25    0.62
   1  -5  -8  257.36    9.85
   1  -5  -8  260.77   10.16
   1  -5  -8  258.03   10.10
   1  -5  -8  248.56   10.12
  -1   5   8  240.57    9.94
   0  -5  -8    3.55    0.77
   0  -5  -8    4.17    0.74
   0  -5  -8    3.38    0.71
   0  -5  -8    3.41    0.70
   0   5   8    3.08    0.68
   0   5   8    2.59    0.59
  -1  -5  -8  273.95   10.66
  -1  -5  -8  268.58   10.69
  -1  -5  -8  276.62   10.70
  -1  -5  -8  271.24   10.74
   1   5   8  259.62   10.55
   1   5   8  268.67   10.45
  -2  -5  -8    8.76    1.10
  -2  -5  -8    5.80    0.81
  -2  -5  -8    7.18    0.85
  -2  -5  -8    7.19    1.07
   2   5   8    7.42    0.70
   2   5   8    7.39    0.79
  -3  -5  -8  174.80    7.25
  -3  -5  -8  177.31    7.12
  -3  -5  -8  180.36    7.23
  -3  -5  -8  170.60    7.09
   3   5   8  166.07    6.93
   3   5   8  164.86    6.85
  -4  -5  -8   24.78    1.66
  -4  -5  -8   25.52    1.98
  -4  -5  -8   27.23    1.91
  -4  -5  -8   27.12    1.72
   4   5   8   25.92    1.53
   4   5   8   28.22    1.58
  -5  -5  -8    1.68    1.05
  -5  -5  -8    0.72    0.62
  -5  -5  -8    0.69    0.67
   5   5   8    2.02    0.66
   5   5   8    0.01    0.70
   5   5   8    3.36    0.71
  -6  -5  -8   63.42    3.36
  -6  -5  -8   60.35    3.18
   6   5   8   55.70    2.95
  -7  -5  -8   13.00    1.85
  -7  -5  -8   13.36    1.80
   7   5   8   12.66    1.61
   3  -6  -8    1.00    0.77
   3  -6  -8   -1.38    0.72
  -3   6   8   -1.37    0.69
  -3   6   8    0.01    0.81
   2  -6  -8   65.66    3.30
   2  -6  -8   68.59    3.34
   2  -6  -8   67.05    2.93
  -2   6   8   65.15    3.21
  -2   6   8   72.05    3.17
   1  -6  -8   19.08    1.38
   1  -6  -8   22.13    1.78
   1  -6  -8   22.72    1.52
   1  -6  -8   20.52    1.49
  -1   6   8   23.99    1.44
  -1   6   8   20.73    1.46
   0  -6  -8    6.64    0.94
   0  -6  -8    7.05    0.91
   0  -6  -8    7.27    1.18
   0  -6  -8    7.16    1.02
   0   6   8    5.82    0.95
   0   6   8    8.28    0.85
  -1  -6  -8   63.46    3.17
  -1  -6  -8   70.76    3.36
  -1  -6  -8   70.96    3.21
  -1  -6  -8   73.35    3.31
   1   6   8   69.96    3.19
   1   6   8   64.49    3.02
  -2  -6  -8   10.49    1.01
  -2  -6  -8    8.11    1.28
  -2  -6  -8    9.28    1.26
  -2  -6  -8    8.89    0.96
   2   6   8    9.09    1.03
   2   6   8    7.45    0.87
  -3  -6  -8  107.79    4.93
  -3  -6  -8  106.58    4.89
  -3  -6  -8  103.03    4.74
  -3  -6  -8  106.04    4.72
   3   6   8  112.57    4.67
   3   6   8  110.94    4.58
  -4  -6  -8    9.99    1.66
  -4  -6  -8    9.51    1.16
  -4  -6  -8    7.28    1.28
  -4  -6  -8    8.91    1.06
   4   6   8    8.77    1.09
   4   6   8    6.81    1.02
  -5  -6  -8   69.75    3.45
  -5  -6  -8   64.93    3.48
   5   6   8   70.54    3.33
  -6  -6  -8   20.05    1.85
  -6  -6  -8   18.97    1.98
   6   6   8   18.87    1.68
   6   6   8   16.48    1.80
  -7  -6  -8   13.22    2.07
  -7  -6  -8   17.75    2.21
   7   6   8   21.54    2.05
   3  -7  -8    5.02    1.13
   3  -7  -8    7.50    1.48
  -3   7   8    4.24    1.05
   2  -7  -8   39.56    2.35
   2  -7  -8   37.34    2.35
   2  -7  -8   40.40    2.29
  -2   7   8   39.40    2.34
   1  -7  -8   10.95    1.37
   1  -7  -8   13.49    1.31
   1  -7  -8   11.47    1.32
  -1   7   8   15.10    1.38
   0  -7  -8   13.66    1.33
   0  -7  -8   14.36    1.49
   0  -7  -8   15.30    1.35
   0   7   8   16.42    1.41
   0   7   8   17.91    1.32
  -1  -7  -8   64.20    3.50
  -1  -7  -8   72.93    3.36
  -1  -7  -8   70.35    3.45
  -1  -7  -8   70.10    3.32
   1   7   8   73.34    3.22
   1   7   8   68.44    3.32
  -2  -7  -8    1.27    0.62
  -2  -7  -8    1.37    0.67
  -2  -7  -8   -0.15    0.78
  -2  -7  -8    1.72    0.91
   2   7   8    0.24    0.56
   2   7   8    1.64    0.69
  -3  -7  -8  204.38    8.50
  -3  -7  -8  227.42    8.64
  -3  -7  -8  196.56    8.62
   3   7   8  198.29    8.35
  -4  -7  -8    5.41    1.13
  -4  -7  -8    6.56    1.22
   4   7   8    5.89    1.13
  -5  -7  -8  244.18   10.34
  -5  -7  -8  249.89   10.26
   5   7   8  232.86   10.08
   5   7   8  267.05   10.19
  -6  -7  -8   13.43    1.91
  -6  -7  -8   16.48    1.89
   6   7   8   17.36    1.79
   2  -8  -8   98.35    4.72
   2  -8  -8   96.30    4.60
  -2   8   8  102.13    4.69
   1  -8  -8    9.52    1.43
   1  -8  -8   13.37    1.52
   1  -8  -8   12.75    1.63
  -1   8   8   14.16    1.57
  -1   8   8   12.08    1.62
   0  -8  -8  150.69    6.36
   0  -8  -8  153.16    6.44
   0  -8  -8  141.26    6.34
   0   8   8  148.90    6.27
   0   8   8  149.54    6.40
  -1  -8  -8    1.31    0.96
  -1  -8  -8   -0.35    0.65
  -1  -8  -8   -0.82    0.61
   1   8   8    0.42    0.68
  -2  -8  -8   31.15    2.00
  -2  -8  -8   31.70    2.07
   2   8   8   30.25    2.13
   2   8   8   31.92    2.17
  -3  -8  -8   22.98    1.82
  -3  -8  -8   22.19    1.74
   3   8   8   26.11    1.93
   3   8   8   20.47    1.82
  -4  -8  -8    1.00    0.78
  -4  -8  -8    0.40    0.79
   4   8   8    1.05    0.82
   4   8   8    0.39    0.82
  -5  -8  -8   60.87    3.52
  -5  -8  -8   65.65    3.63
   5   8   8   68.78    3.52
   1  -9  -8   21.54    1.93
   1  -9  -8   21.85    1.99
  -1   9   8   23.79    2.16
   0  -9  -8   56.75    3.13
   0  -9  -8   63.68    3.28
   0   9   8   59.47    3.31
  -1  -9  -8   31.35    2.11
  -1  -9  -8   32.32    2.20
   1   9   8   30.70    2.26
  -2  -9  -8   26.59    1.96
  -2  -9  -8   27.47    2.06
   2   9   8   25.94    2.17
  -3  -9  -8   10.13    1.52
  -3  -9  -8    8.37    1.64
   3   9   8   12.96    1.81
  -4  -9  -8    1.29    1.06
  -4  -9  -8    0.69    0.92
   4   9   8    2.21    1.08
  -2 -10  -8   25.00    2.15
   2  10   8   30.40    2.53
   0   8  -9   12.59    1.50
   0  -8   9   11.00    1.59
  -1   8  -9  137.28    5.95
  -1   8  -9  136.75    5.93
   1  -8   9  136.58    5.85
  -2   8  -9   23.69    1.62
  -2   8  -9   22.41    1.90
   2  -8   9   21.96    1.62
  -3   8  -9   60.83    2.91
  -3   8  -9   56.02    3.17
  -2  -7   9   24.95    2.23
   1   7  -9    1.04    0.66
   1   7  -9   -0.26    0.54
   1   7  -9   -0.39    0.68
  -1  -7   9    0.32    0.84
   0   7  -9    0.80    0.64
   0   7  -9    0.34    0.46
   0   7  -9   -0.10    0.60
   0  -7   9    0.69    0.75
  -1   7  -9    4.12    0.81
  -1   7  -9    4.18    0.86
   1  -7   9    5.34    0.88
  -2   7  -9   50.65    2.39
  -2   7  -9   51.29    2.69
  -3   7  -9   13.80    1.19
  -3   7  -9   13.18    1.45
  -4   7  -9  193.82    7.85
  -4   7  -9  192.70    8.11
   2   6  -9   29.24    1.84
   2   6  -9   32.22    1.76
   2   6  -9   29.19    2.24
  -2  -6   9   30.07    2.17
   1   6  -9  345.56   13.51
   1   6  -9  352.57   13.45
   1   6  -9  337.75   13.42
   1   6  -9  349.36   13.46
  -1  -6   9  342.07   13.71
   0   6  -9   26.87    1.57
   0   6  -9   28.07    1.62
   0   6  -9   27.47    1.48
   0   6  -9   29.34    1.52
   0   6  -9   28.27    1.67
   0  -6   9   28.35    1.83
  -1   6  -9   63.92    2.69
  -1   6  -9   61.16    2.62
  -1   6  -9   61.01    2.73
  -1   6  -9   63.01    2.94
  -1   6  -9   60.47    2.67
   1  -6   9   66.14    2.96
  -2   6  -9   12.26    1.15
  -2   6  -9   11.66    0.98
  -2   6  -9   11.03    0.88
  -3   6  -9    1.88    0.63
  -3   6  -9    0.83    0.65
  -3   6  -9    1.95    0.53
  -4   6  -9    3.37    0.86
  -4   6  -9    1.59    0.70
  -4   6  -9    3.47    0.81
  -5   6  -9   43.04    2.56
  -5   6  -9   44.55    2.36
  -5   6  -9   43.14    2.58
   3   5  -9    0.63    0.80
  -3  -5   9    0.30    0.96
   2   5  -9    0.29    0.57
   2   5  -9    0.48    0.46
   2   5  -9    0.32    0.75
  -2  -5   9    0.18    0.72
   1   5  -9    7.96    1.01
   1   5  -9    7.57    0.85
   1   5  -9    8.66    0.95
  -1  -5   9    8.34    1.18
   0   5  -9    3.34    0.84
   0   5  -9    3.75    0.69
   0   5  -9    3.29    0.71
   0   5  -9    3.40    0.59
   0   5  -9    2.73    0.66
   0  -5   9    3.30    0.85
  -1   5  -9   11.66    1.31
  -1   5  -9   13.16    0.76
  -1   5  -9   11.31    1.04
  -1   5  -9   12.10    0.80
  -1   5  -9   12.94    0.87
  -2   5  -9   17.93    1.25
  -2   5  -9   17.73    0.94
  -2   5  -9   17.46    0.94
  -2   5  -9   17.32    0.99
  -2   5  -9   15.03    1.36
  -3   5  -9   23.32    1.55
  -3   5  -9   24.04    1.27
  -3   5  -9   24.63    1.53
  -3   5  -9   23.24    1.32
  -4   5  -9    1.30    0.62
  -4   5  -9    1.69    0.59
  -5   5  -9   41.38    2.38
  -5   5  -9   41.23    2.33
  -5   5  -9   39.01    2.15
  -6   5  -9  105.59    4.98
  -6   5  -9  110.95    4.86
   3   4  -9    0.22    1.04
   3   4  -9    1.21    0.72
   2   4  -9    8.70    0.74
   2   4  -9    8.98    1.07
   2   4  -9    8.72    0.95
  -2  -4   9    8.17    1.20
   1   4  -9   91.28    3.79
   1   4  -9   95.93    3.83
   1   4  -9   90.22    3.97
   1   4  -9   91.76    3.81
   0   4  -9   52.92    2.70
   0   4  -9   54.01    2.22
   0   4  -9   51.47    2.24
   0   4  -9   55.26    2.45
   0   4  -9   52.83    2.40
  -1   4  -9  439.86   16.80
  -1   4  -9  444.20   16.89
  -1   4  -9  435.21   16.56
  -1   4  -9  434.97   16.99
  -2   4  -9   72.62    2.94
  -2   4  -9   75.27    3.08
  -2   4  -9   74.89    2.96
  -2   4  -9   73.14    3.28
  -2   4  -9   71.67    3.26
  -3   4  -9  348.71   13.38
  -3   4  -9  352.81   13.38
  -3   4  -9  350.94   13.54
  -3   4  -9  351.11   13.67
  -3   4  -9  343.79   13.37
  -4   4  -9   80.45    3.47
  -4   4  -9   82.73    3.49
  -4   4  -9   86.50    3.52
  -4   4  -9   78.09    3.33
  -4   4  -9   81.43    3.71
  -5   4  -9   62.43    2.89
  -5   4  -9   63.05    3.08
  -5   4  -9   59.25    2.94
  -6   4  -9   51.37    2.79
  -6   4  -9   49.61    2.81
  -6   4  -9   49.73    2.67
  -7   4  -9   10.67    1.67
   4   3  -9  261.89   10.55
   3   3  -9    7.03    1.04
   3   3  -9    5.48    1.24
   2   3  -9  176.46    7.04
   2   3  -9  178.73    7.03
   2   3  -9  174.63    6.78
   1   3  -9   11.54    0.99
   1   3  -9   11.67    0.77
   1   3  -9   11.33    0.77
   1   3  -9   12.02    0.79
   1   3  -9   10.55    1.24
   0   3  -9   48.33    2.28
   0   3  -9   49.16    2.18
   0   3  -9   48.93    2.45
  -1   3  -9   16.59    1.20
  -1   3  -9   17.75    1.05
  -1   3  -9   15.54    1.03
  -2   3  -9    0.83    0.38
  -2   3  -9    0.99    0.21
  -2   3  -9    0.53    0.41
  -2   3  -9    0.75    0.20
  -2   3  -9    1.27    0.35
  -3   3  -9   33.16    1.53
  -3   3  -9   33.71    1.53
  -3   3  -9   33.01    1.77
  -3   3  -9   33.75    1.62
  -3   3  -9   32.96    1.69
  -4   3  -9   37.98    1.91
  -4   3  -9   41.90    1.91
  -4   3  -9   40.01    1.93
  -4   3  -9   40.28    1.91
  -4   3  -9   41.21    2.12
  -5   3  -9   29.66    1.72
  -5   3  -9   27.01    1.63
  -5   3  -9   28.56    1.57
  -5   3  -9   28.07    1.40
  -5   3  -9   28.63    1.81
  -6   3  -9   31.86    2.07
  -6   3  -9   33.20    2.18
  -6   3  -9   33.65    2.01
  -7   3  -9   30.06    2.19
  -7   3  -9   31.47    2.22
   4   2  -9    2.93    1.12
   4   2  -9    2.75    0.87
   3   2  -9   17.86    1.45
   3   2  -9   20.45    1.37
   2   2  -9    3.12    0.64
   2   2  -9    3.56    0.74
   1   2  -9  115.56    4.50
   1   2  -9  115.44    4.81
   1   2  -9  111.43    4.51
   1   2  -9  114.35    4.53
   0   2  -9    0.02    0.26
   0   2  -9    0.19    0.43
   0   2  -9   -0.04    0.33
   0   2  -9    0.40    0.18
  -1   2  -9   67.75    3.08
  -1   2  -9   68.69    3.01
  -1   2  -9   71.43    2.97
  -2   2  -9    9.80    0.76
  -2   2  -9    8.55    0.54
  -2   2  -9    8.97    0.50
  -2   2  -9    8.68    0.82
  -2   2  -9    7.42    0.74
  -3   2  -9   48.81    2.24
  -3   2  -9   49.14    2.14
  -3   2  -9   48.74    2.24
  -3   2  -9   49.26    2.11
  -3   2  -9   49.75    2.33
  -4   2  -9   23.32    1.32
  -4   2  -9   25.32    1.39
  -4   2  -9   22.00    1.26
  -4   2  -9   23.64    1.34
  -4   2  -9   23.96    1.47
  -5   2  -9  178.76    6.92
  -5   2  -9  184.92    7.33
  -5   2  -9  174.46    7.20
  -5   2  -9  174.94    7.15
  -5   2  -9  169.83    7.14
   5  -2   9  179.39    7.01
  -6   2  -9   35.06    2.13
  -6   2  -9   37.55    2.13
  -6   2  -9   37.53    2.03
  -6   2  -9   31.46    2.11
   6  -2   9   33.33    1.80
  -7   2  -9  147.86    6.55
  -7   2  -9  154.33    6.64
   4   1  -9   27.34    1.81
   4   1  -9   23.91    2.08
   3   1  -9   -0.18    0.64
   3   1  -9    1.01    0.51
   2   1  -9   20.48    1.23
   2   1  -9   23.46    1.31
   1   1  -9    1.42    0.33
   1   1  -9    0.94    0.29
   1   1  -9    1.03    0.23
   1   1  -9    1.45    0.61
   1   1  -9    0.24    0.42
   0   1  -9  183.84    7.06
   0   1  -9  182.66    7.29
   0   1  -9  183.93    6.96
   0   1  -9  179.34    7.33
   0   1  -9  177.92    6.96
  -1   1  -9    1.45    0.30
  -1   1  -9    1.87    0.41
  -1   1  -9    0.91    0.35
  -1   1  -9    1.14    0.23
  -1   1  -9    1.59    0.47
  -2   1  -9   88.80    3.56
  -2   1  -9   89.37    3.79
  -2   1  -9   90.09    3.55
  -2   1  -9   88.27    3.77
  -2   1  -9   92.22    3.78
  -3   1  -9    1.57    0.45
  -3   1  -9    2.27    0.45
  -3   1  -9    1.60    0.40
  -3   1  -9    2.46    0.53
  -4   1  -9   87.52    3.59
  -4   1  -9   82.21    3.70
  -4   1  -9   89.34    3.74
  -4   1  -9   84.25    3.63
   4  -1   9   88.20    3.63
  -5   1  -9    3.83    0.60
  -5   1  -9    2.73    0.66
  -5   1  -9    3.60    0.84
  -5   1  -9    4.07    0.88
   5  -1   9    3.06    0.72
  -6   1  -9   19.48    1.06
  -6   1  -9   21.22    1.55
  -6   1  -9   18.16    1.58
  -6   1  -9   20.29    1.67
   6  -1   9   18.48    1.35
  -7   1  -9    2.50    0.96
   4   0  -9    1.77    1.05
   4   0  -9    4.17    1.08
   3   0  -9    0.48    0.53
   3   0  -9    1.21    0.70
   2   0  -9    1.80    0.60
   2   0  -9    3.33    0.62
   2   0  -9    0.38    0.88
   2   0  -9    3.38    0.72
   1   0  -9   15.48    0.72
   1   0  -9   16.98    0.95
   1   0  -9   16.17    0.79
   1   0  -9   14.38    1.15
   1   0  -9   14.97    0.91
   0   0  -9    3.56    0.42
   0   0  -9    3.13    0.41
   0   0  -9    3.40    0.66
   0   0  -9    4.34    0.75
   0   0  -9    3.68    0.45
  -1   0  -9  140.81    5.52
  -1   0  -9  141.59    5.81
  -1   0  -9  145.80    5.82
  -1   0  -9  141.36    5.55
  -2   0  -9   17.71    1.10
  -2   0  -9   16.86    1.09
  -2   0  -9   17.41    0.91
  -2   0  -9   17.12    0.99
  -3   0  -9  357.86   13.84
  -3   0  -9  355.96   13.91
  -3   0  -9  359.65   13.82
   3   0   9  360.61   13.85
  -4   0  -9   15.78    1.21
  -4   0  -9   20.40    1.29
  -4   0  -9   20.06    1.32
  -4   0  -9   23.07    1.21
   4   0   9   21.42    1.26
  -5   0  -9  121.93    4.95
  -5   0  -9  127.09    5.20
  -5   0  -9  120.03    5.21
  -5   0  -9  120.64    5.27
   5   0   9  124.90    5.11
  -6   0  -9    4.46    0.95
  -6   0  -9    5.66    0.72
  -6   0  -9    5.36    1.15
  -6   0  -9    4.67    1.09
  -7   0  -9    5.06    1.45
  -7   0  -9    3.80    0.98
   7   0   9    2.27    0.64
   7   0   9    1.74    0.84
  -8   0  -9    7.25    1.95
   4  -1  -9  270.29   10.89
   3  -1  -9   11.72    1.32
   3  -1  -9   10.85    1.10
   3  -1  -9   13.28    1.30
   2  -1  -9  410.51   15.67
   2  -1  -9  397.79   15.85
   2  -1  -9  408.29   15.66
   1  -1  -9   13.76    0.68
   1  -1  -9   13.17    0.63
   1  -1  -9   14.09    1.10
   1  -1  -9   13.64    0.95
   1  -1  -9   14.47    0.92
   0  -1  -9  129.82    5.30
   0  -1  -9  128.72    5.04
   0  -1  -9  120.73    5.08
   0  -1  -9  125.57    5.28
   0  -1  -9  128.88    5.06
  -1  -1  -9   19.95    1.01
  -1  -1  -9   19.64    1.07
  -1  -1  -9   18.74    1.23
  -1  -1  -9   20.15    1.24
  -2  -1  -9    6.51    0.71
  -2  -1  -9    8.18    0.76
  -2  -1  -9    6.75    0.58
  -2  -1  -9    7.36    0.76
  -3  -1  -9   37.09    1.89
  -3  -1  -9   38.48    1.84
  -3  -1  -9   36.32    1.90
   3   1   9   37.90    1.88
  -4  -1  -9   24.69    1.44
  -4  -1  -9   22.75    1.47
  -4  -1  -9   22.25    1.44
   4   1   9   21.46    1.38
  -5  -1  -9   24.34    1.66
  -5  -1  -9   25.95    1.70
  -5  -1  -9   24.56    1.61
   5   1   9   23.38    1.52
  -6  -1  -9   63.76    3.14
  -6  -1  -9   59.08    3.22
  -6  -1  -9   65.11    3.27
   6   1   9   62.52    2.58
   6   1   9   62.55    2.59
  -7  -1  -9   23.23    2.03
  -7  -1  -9   26.20    2.08
   7   1   9   18.82    1.94
   7   1   9   25.75    1.39
  -8  -1  -9   15.05    2.19
   4  -2  -9    0.93    0.83
   4  -2  -9    3.18    0.93
   3  -2  -9   -0.63    0.57
   3  -2  -9    1.35    0.68
   3  -2  -9   -0.08    0.72
   2  -2  -9   21.46    1.34
   2  -2  -9   19.61    1.39
   2  -2  -9   18.73    1.44
   1  -2  -9    1.89    0.50
   1  -2  -9    1.98    0.57
   1  -2  -9    1.65    0.51
   1  -2  -9    2.79    0.37
   0  -2  -9   29.46    1.47
   0  -2  -9   28.86    1.52
   0  -2  -9   30.01    1.66
   0  -2  -9   28.91    1.51
  -1  -2  -9   13.78    1.03
  -1  -2  -9   12.85    0.93
  -1  -2  -9   13.79    1.06
  -1  -2  -9   13.03    1.04
  -1  -2  -9   12.27    0.83
  -2  -2  -9   67.13    3.15
  -2  -2  -9   71.24    3.02
  -2  -2  -9   73.25    3.13
  -3  -2  -9   40.16    2.01
  -3  -2  -9   38.19    1.93
  -3  -2  -9   37.89    2.03
   3   2   9   38.91    1.98
  -4  -2  -9   61.89    2.93
  -4  -2  -9   57.96    2.83
  -4  -2  -9   62.87    2.88
   4   2   9   57.33    2.80
  -5  -2  -9  257.90   10.32
  -5  -2  -9  259.55   10.27
  -5  -2  -9  254.48   10.33
   5   2   9  255.02    9.74
   5   2   9  249.41    9.73
  -6  -2  -9   71.38    3.66
  -6  -2  -9   70.74    3.47
  -6  -2  -9   69.77    3.57
   6   2   9   71.80    3.04
   6   2   9   70.36    3.00
   6   2   9   70.85    3.42
  -7  -2  -9  192.47    8.21
  -7  -2  -9  201.32    8.40
   7   2   9  198.04    7.74
   7   2   9  184.24    7.77
  -8  -2  -9   29.33    2.70
  -8  -2  -9   25.29    2.35
   8   2   9   26.29    1.91
   4  -3  -9    2.75    0.98
   4  -3  -9    3.26    1.05
   3  -3  -9    0.82    0.62
   3  -3  -9   -0.77    0.73
   3  -3  -9    1.18    0.83
   2  -3  -9   52.90    2.71
   2  -3  -9   52.56    2.64
   2  -3  -9   52.58    2.59
   1  -3  -9   10.85    1.05
   1  -3  -9    9.10    0.88
   1  -3  -9    9.48    1.05
   1  -3  -9    9.21    0.66
   0  -3  -9  434.45   16.85
   0  -3  -9  426.22   16.82
   0  -3  -9  439.13   16.99
   0  -3  -9  448.64   16.79
  -1  -3  -9   21.14    1.40
  -1  -3  -9   24.20    1.43
  -1  -3  -9   22.67    1.27
  -1  -3  -9   21.79    1.35
  -2  -3  -9  469.07   17.40
  -2  -3  -9  424.70   17.29
  -2  -3  -9  445.29   17.23
  -2  -3  -9  454.14   17.38
   2   3   9  446.55   17.33
  -3  -3  -9   21.98    1.55
  -3  -3  -9   22.67    1.54
  -3  -3  -9   22.07    1.42
  -3  -3  -9   21.83    1.36
  -4  -3  -9  176.19    7.13
  -4  -3  -9  172.17    7.12
  -4  -3  -9  165.60    7.17
   4   3   9  172.72    6.64
   4   3   9  175.86    6.64
  -5  -3  -9   57.01    2.83
  -5  -3  -9   52.89    2.97
  -5  -3  -9   62.22    2.99
   5   3   9   53.86    2.40
   5   3   9   54.95    2.80
   5   3   9   53.32    2.39
  -6  -3  -9   23.59    2.09
  -6  -3  -9   28.58    2.05
  -6  -3  -9   25.88    1.90
   6   3   9   26.52    1.55
   6   3   9   26.00    1.49
  -7  -3  -9   49.28    3.20
  -7  -3  -9   62.06    3.23
   7   3   9   56.38    2.82
   7   3   9   56.60    2.73
   4  -4  -9    0.89    0.95
   4  -4  -9    0.24    1.10
   3  -4  -9  113.91    4.74
   3  -4  -9  107.19    4.79
  -3   4   9   91.29    4.29
   2  -4  -9   -0.42    0.72
   2  -4  -9    0.32    0.55
   2  -4  -9   -0.05    0.61
  -2   4   9   -0.06    0.34
  -2   4   9    0.22    0.33
   1  -4  -9   57.67    2.83
   1  -4  -9   57.07    2.83
   1  -4  -9   54.75    2.44
   1  -4  -9   59.69    2.74
   0  -4  -9   22.58    1.33
   0  -4  -9   20.62    1.43
   0  -4  -9   20.27    1.42
   0  -4  -9   21.73    1.32
  -1  -4  -9    0.29    0.51
  -1  -4  -9   -0.24    0.42
  -1  -4  -9   -0.11    0.50
  -1  -4  -9    0.64    0.39
  -2  -4  -9   25.89    1.61
  -2  -4  -9   27.47    1.54
  -2  -4  -9   26.12    1.70
  -2  -4  -9   28.01    1.76
   2   4   9   27.59    1.17
   2   4   9   26.77    1.19
  -3  -4  -9   77.44    3.64
  -3  -4  -9   88.64    3.86
  -3  -4  -9   83.64    3.81
  -3  -4  -9   81.90    3.72
   3   4   9   79.87    3.28
   3   4   9   80.36    3.31
  -4  -4  -9   41.43    2.40
  -4  -4  -9   43.14    2.24
  -4  -4  -9   39.79    2.47
  -4  -4  -9   34.92    2.18
   4   4   9   42.09    2.30
   4   4   9   41.52    1.89
   4   4   9   43.26    1.88
  -5  -4  -9   68.49    3.45
  -5  -4  -9   74.31    3.57
  -5  -4  -9   73.71    3.66
   5   4   9   71.72    3.12
   5   4   9   68.96    3.12
  -6  -4  -9   36.57    2.48
  -6  -4  -9   39.24    2.37
   6   4   9   34.91    1.96
   6   4   9   37.94    2.04
  -7  -4  -9    2.24    1.16
  -7  -4  -9    2.61    1.09
   7   4   9    2.64    0.81
   3  -5  -9    7.42    1.42
   3  -5  -9    3.62    1.01
  -3   5   9    3.32    0.81
   2  -5  -9  102.74    4.69
   2  -5  -9  101.61    4.62
  -2   5   9  104.37    4.35
  -2   5   9  104.87    4.28
   1  -5  -9    5.14    0.99
   1  -5  -9    4.60    0.92
   1  -5  -9    5.94    1.32
   1  -5  -9    4.60    0.80
  -1   5   9    4.20    0.70
  -1   5   9    4.28    0.77
   0  -5  -9   44.99    2.41
   0  -5  -9   48.20    2.29
   0  -5  -9   42.01    2.42
   0  -5  -9   47.23    2.35
   0   5   9   46.33    2.14
   0   5   9   47.26    2.04
  -1  -5  -9    1.06    0.62
  -1  -5  -9    1.05    0.51
  -1  -5  -9    1.28    0.49
  -1  -5  -9    0.95    0.66
   1   5   9    0.94    0.35
   1   5   9    1.58    0.41
  -2  -5  -9   20.69    1.65
  -2  -5  -9   22.52    1.44
  -2  -5  -9   21.98    1.45
  -2  -5  -9   19.69    1.64
   2   5   9   22.42    1.17
   2   5   9   22.12    1.24
  -3  -5  -9    0.93    0.50
  -3  -5  -9    1.21    0.56
  -3  -5  -9    0.01    0.73
  -3  -5  -9    1.57    0.77
   3   5   9    1.20    0.43
   3   5   9    0.74    0.42
   3   5   9    1.04    0.62
  -4  -5  -9   84.17    3.99
  -4  -5  -9   89.29    4.18
  -4  -5  -9   84.08    4.19
  -4  -5  -9   93.65    4.08
   4   5   9   83.69    3.73
   4   5   9   87.30    3.70
  -5  -5  -9    1.36    0.75
  -5  -5  -9    1.82    0.75
  -5  -5  -9    0.20    1.36
   5   5   9    0.72    0.58
   5   5   9    0.46    0.62
  -6  -5  -9  108.61    5.25
  -6  -5  -9  114.15    5.19
   6   5   9  112.70    4.86
  -7  -5  -9    1.32    1.15
  -7  -5  -9    2.63    1.13
   7   5   9    3.41    1.78
   7   5   9    2.33    0.92
   3  -6  -9    2.54    1.00
   3  -6  -9   -0.46    0.94
   2  -6  -9    3.45    0.90
   2  -6  -9    5.98    1.29
  -2   6   9    7.66    1.15
   1  -6  -9   39.90    2.19
   1  -6  -9   36.73    1.97
   1  -6  -9   33.93    2.16
  -1   6   9   36.46    1.92
  -1   6   9   35.34    2.01
   0  -6  -9   17.78    1.42
   0  -6  -9   17.76    1.75
   0  -6  -9   20.95    1.52
   0  -6  -9   20.68    1.54
   0   6   9   18.98    1.36
   0   6   9   20.12    1.29
  -1  -6  -9   14.52    1.32
  -1  -6  -9   18.35    1.67
  -1  -6  -9   17.21    1.60
  -1  -6  -9   17.30    1.33
   1   6   9   15.27    1.11
   1   6   9   17.00    1.27
  -2  -6  -9    7.07    0.98
  -2  -6  -9    7.64    1.43
  -2  -6  -9    7.67    1.44
  -2  -6  -9    7.08    1.06
   2   6   9    8.11    0.87
   2   6   9    7.98    0.97
  -3  -6  -9   23.30    1.65
  -3  -6  -9   22.18    1.97
  -3  -6  -9   24.61    2.02
  -3  -6  -9   22.72    1.62
   3   6   9   24.85    1.54
   3   6   9   23.25    1.43
  -4  -6  -9   -0.20    0.64
  -4  -6  -9    0.48    0.66
   4   6   9   -0.13    0.60
   4   6   9    0.69    0.57
  -5  -6  -9   54.01    2.93
  -5  -6  -9   54.11    2.88
   5   6   9   42.56    2.53
  -6  -6  -9    0.40    1.07
  -6  -6  -9   -1.18    0.90
   6   6   9    0.80    0.83
   6   6   9    0.53    0.94
   2  -7  -9   22.96    1.92
   2  -7  -9   21.03    1.92
  -2   7   9   23.09    1.83
   1  -7  -9    1.40    0.77
   1  -7  -9    1.30    0.89
   1  -7  -9    2.36    0.81
  -1   7   9    0.50    0.76
  -1   7   9    1.75    0.82
   0  -7  -9  192.84    7.88
   0  -7  -9  189.35    7.76
   0  -7  -9  188.17    7.85
   0   7   9  185.38    7.58
   0   7   9  185.26    7.72
  -1  -7  -9    2.61    0.97
  -1  -7  -9    4.32    1.03
  -1  -7  -9    1.64    0.72
   1   7   9    2.54    0.80
   1   7   9    2.89    0.70
  -2  -7  -9  282.23   11.25
  -2  -7  -9  282.40   11.23
  -2  -7  -9  270.83   11.31
   2   7   9  277.77   10.96
  -3  -7  -9    2.40    0.79
  -3  -7  -9    2.48    0.82
   3   7   9    1.39    0.73
   3   7   9    2.53    0.72
  -4  -7  -9   83.15    4.09
  -4  -7  -9   85.95    4.17
   4   7   9   87.59    3.98
  -5  -7  -9    6.89    1.64
  -5  -7  -9    7.78    1.53
   5   7   9    6.94    1.33
   5   7   9   10.20    1.64
  -6  -7  -9    5.62    1.40
  -6  -7  -9    2.06    1.11
   6   7   9    3.97    1.11
   1  -8  -9  108.21    5.07
   1  -8  -9  109.24    5.17
  -1   8   9  114.24    5.06
   0  -8  -9   14.21    1.58
   0  -8  -9   13.22    1.88
   0  -8  -9   13.81    1.55
   0   8   9   14.29    1.63
   0   8   9   11.92    2.24
  -1  -8  -9   25.44    1.90
  -1  -8  -9   26.96    1.97
   1   8   9   25.20    1.97
  -2  -8  -9   57.09    3.08
  -2  -8  -9   53.75    3.00
   2   8   9   55.92    3.02
  -3  -8  -9    0.76    0.79
  -3  -8  -9    2.51    0.98
   3   8   9   -0.14    0.81
   3   8   9    0.26    0.89
  -4  -8  -9   58.98    3.33
  -4  -8  -9   62.80    3.42
   4   8   9   63.90    3.32
   4   8   9   62.32    3.30
  -5  -8  -9   24.48    2.32
  -5  -8  -9   31.57    2.58
   5   8   9   33.18    2.29
  -1  -9  -9   14.42    1.74
  -1  -9  -9   10.77    1.78
   1   9   9   16.14    1.89
  -2  -9  -9   23.42    2.00
  -2  -9  -9   18.89    1.96
   2   9   9   23.08    2.13
  -3  -9  -9   14.61    1.99
  -3  -9  -9   13.37    1.82
   0   7 -10    5.26    1.27
   0  -7  10    6.99    1.46
  -1   7 -10   43.26    2.47
  -2   7 -10   11.88    1.49
  -3   7 -10    1.46    0.90
   1   6 -10    4.22    0.76
   1   6 -10    3.38    0.78
  -1  -6  10    3.97    1.05
   0   6 -10   25.61    1.67
   0   6 -10   24.79    1.52
  -1   6 -10    7.92    0.82
  -1   6 -10    7.27    1.15
  -1   6 -10    8.39    1.04
  -2   6 -10   94.14    4.26
  -2   6 -10   95.26    3.90
  -3   6 -10   12.63    1.48
  -3   6 -10   15.36    1.13
  -4   6 -10  125.46    5.23
  -4   6 -10  125.07    5.54
   1   5 -10   75.89    3.40
   1   5 -10   72.21    3.32
   1   5 -10   76.47    3.28
   0   5 -10    0.76    0.43
   0   5 -10    0.02    0.48
   0   5 -10   -0.32    0.51
  -1   5 -10    2.52    0.59
  -1   5 -10    1.75    0.61
  -1   5 -10    2.93    0.52
  -1   5 -10    3.82    0.95
  -1   5 -10    2.78    0.73
  -2   5 -10    0.35    0.33
  -2   5 -10   -0.06    0.50
  -2   5 -10   -0.09    0.74
  -2   5 -10   -0.89    0.36
  -2   5 -10    0.90    0.39
  -3   5 -10   32.65    1.98
  -3   5 -10   31.91    2.07
  -3   5 -10   32.79    1.69
  -3   5 -10   34.01    1.63
  -3   5 -10   35.08    1.50
  -4   5 -10    0.40    0.68
  -4   5 -10    0.50    0.52
  -4   5 -10    0.23    0.71
  -5   5 -10   61.45    3.23
  -5   5 -10   62.34    2.98
   2   4 -10  172.14    6.93
   1   4 -10    4.60    1.23
   1   4 -10    6.11    0.75
   1   4 -10    6.29    0.76
   1   4 -10    4.95    0.95
   0   4 -10   81.65    3.61
   0   4 -10   89.11    3.57
   0   4 -10   78.16    3.33
  -1   4 -10    6.36    0.84
  -1   4 -10    6.43    0.81
  -1   4 -10    4.71    1.21
  -2   4 -10   78.33    3.41
  -2   4 -10   73.84    3.01
  -2   4 -10   74.34    3.47
  -2   4 -10   73.87    3.22
  -2   4 -10   77.30    3.01
  -3   4 -10    9.23    0.79
  -3   4 -10    9.02    1.06
  -3   4 -10    9.08    0.82
  -3   4 -10    9.76    0.73
  -3   4 -10    8.84    1.14
  -4   4 -10    1.11    0.65
  -4   4 -10    2.06    0.69
  -4   4 -10    3.09    0.86
  -4   4 -10    2.13    0.49
  -4   4 -10    1.68    0.52
  -5   4 -10    4.54    1.16
  -5   4 -10    4.70    1.00
  -5   4 -10    5.09    1.25
  -6   4 -10   26.12    2.53
  -6   4 -10   20.11    1.77
  -6   4 -10   24.45    2.02
   3   3 -10   72.72    3.38
   2   3 -10   13.29    1.35
   2   3 -10   13.35    1.10
   1   3 -10   15.50    0.93
   1   3 -10   15.83    1.23
   1   3 -10   15.67    0.95
   1   3 -10   15.45    1.01
   0   3 -10   25.87    1.83
   0   3 -10   28.10    1.21
   0   3 -10   27.99    1.44
   0   3 -10   27.09    1.60
  -1   3 -10   10.21    1.20
  -1   3 -10   11.34    0.95
  -1   3 -10   11.98    0.91
  -2   3 -10   33.05    1.73
  -2   3 -10   29.86    1.62
  -2   3 -10   32.44    1.81
  -3   3 -10   18.67    1.34
  -3   3 -10   18.84    1.03
  -3   3 -10   19.07    1.31
  -3   3 -10   20.22    1.06
  -3   3 -10   20.03    1.21
  -4   3 -10   32.75    1.63
  -4   3 -10   26.66    1.64
  -4   3 -10   34.26    1.91
  -4   3 -10   32.86    1.72
  -4   3 -10   34.02    1.73
  -5   3 -10    6.02    0.96
  -5   3 -10    5.04    0.93
  -5   3 -10    5.91    1.15
  -5   3 -10    5.48    0.88
  -5   3 -10    5.54    1.10
  -6   3 -10   27.05    1.98
  -6   3 -10   26.05    2.06
  -6   3 -10   27.11    1.85
   3   2 -10   13.97    1.32
   2   2 -10    0.10    0.46
   2   2 -10    0.39    0.61
   2   2 -10    0.22    0.54
   1   2 -10   27.37    1.28
   1   2 -10   26.51    1.34
   1   2 -10   28.10    1.39
   1   2 -10   29.35    1.69
   0   2 -10   91.82    3.69
   0   2 -10   84.74    4.02
   0   2 -10   88.15    3.51
   0   2 -10   93.15    3.52
   0   2 -10   90.34    3.92
  -1   2 -10   43.25    1.96
  -1   2 -10   37.92    2.02
  -1   2 -10   41.80    2.17
  -2   2 -10  183.43    7.36
  -2   2 -10  195.89    7.34
  -2   2 -10  190.06    7.65
  -2   2 -10  197.15    7.66
  -2   2 -10  193.05    7.71
  -3   2 -10   51.94    2.30
  -3   2 -10   53.21    2.48
  -3   2 -10   51.90    2.27
  -3   2 -10   54.66    2.48
  -3   2 -10   54.67    2.55
  -4   2 -10  229.34    9.09
  -4   2 -10  228.85    9.21
  -4   2 -10  222.90    9.00
  -4   2 -10  231.57    9.03
  -4   2 -10  234.18    9.00
  -5   2 -10   55.54    2.65
  -5   2 -10   53.49    2.65
  -5   2 -10   55.61    2.80
  -5   2 -10   53.67    2.64
  -5   2 -10   55.94    2.46
   5  -2  10   53.03    2.48
  -6   2 -10  118.22    5.24
  -6   2 -10  119.46    5.22
  -6   2 -10  121.26    5.14
  -6   2 -10  115.99    5.28
   6  -2  10  118.86    4.93
  -7   2 -10   53.16    2.96
  -7   2 -10   46.57    2.90
   3   1 -10  116.65    5.27
   3   1 -10  118.29    5.13
   3   1 -10  128.15    5.41
   2   1 -10    5.26    0.92
   2   1 -10    5.30    0.79
   2   1 -10    3.78    0.80
   1   1 -10  256.86    9.80
   1   1 -10  265.71   10.30
   1   1 -10  256.07    9.85
   1   1 -10  255.03    9.95
   1   1 -10  255.51    9.95
   0   1 -10   13.25    0.74
   0   1 -10   12.35    0.79
   0   1 -10   12.28    0.70
   0   1 -10   10.76    1.05
   0   1 -10   10.73    1.23
  -1   1 -10  189.87    7.53
  -1   1 -10  182.37    7.14
  -1   1 -10  185.07    7.56
  -1   1 -10  183.37    7.15
  -1   1 -10  193.66    7.37
  -2   1 -10   48.39    2.14
  -2   1 -10   51.25    2.11
  -2   1 -10   46.74    2.35
  -2   1 -10   51.57    2.43
  -2   1 -10   52.71    2.35
  -3   1 -10    1.21    0.46
  -3   1 -10    1.13    0.39
  -3   1 -10    0.82    0.45
  -3   1 -10    1.28    0.44
  -3   1 -10    1.30    0.41
  -4   1 -10   40.83    2.00
  -4   1 -10   41.08    2.10
  -4   1 -10   39.53    2.03
  -4   1 -10   41.94    2.02
  -5   1 -10   26.50    1.66
  -5   1 -10   24.86    1.61
  -5   1 -10   25.17    1.40
  -5   1 -10   22.62    1.62
   5  -1  10   26.46    1.53
  -6   1 -10   59.19    3.11
  -6   1 -10   60.11    2.89
  -6   1 -10   56.10    3.03
  -6   1 -10   63.04    3.01
   6  -1  10   58.40    2.83
  -7   1 -10   33.37    2.28
  -7   1 -10   29.84    2.33
   3   0 -10    1.82    0.86
   3   0 -10    2.56    0.89
   3   0 -10    0.97    0.67
   2   0 -10    5.67    0.99
   2   0 -10    5.36    0.83
   2   0 -10    6.43    1.10
   1   0 -10    7.82    0.74
   1   0 -10    8.38    0.81
   1   0 -10    7.19    0.96
   0   0 -10   53.54    2.21
   0   0 -10   50.94    2.21
   0   0 -10   52.37    2.54
   0   0 -10   51.26    2.59
   0   0 -10   51.10    2.23
  -1   0 -10   30.68    1.82
  -1   0 -10   32.37    1.78
  -1   0 -10   33.35    1.51
  -1   0 -10   33.63    1.46
  -1   0 -10   32.54    1.59
  -2   0 -10    3.33    0.62
  -2   0 -10    5.11    0.80
  -2   0 -10    4.28    0.51
  -2   0 -10    4.67    0.75
  -3   0 -10   33.27    1.69
  -3   0 -10   30.85    1.71
  -3   0 -10   29.67    1.58
  -3   0 -10   29.92    1.64
  -4   0 -10    2.77    0.61
  -4   0 -10    3.32    0.88
  -4   0 -10    3.10    0.64
  -4   0 -10    1.61    0.50
   4   0  10    1.45    0.53
  -5   0 -10   30.64    1.88
  -5   0 -10   32.46    1.90
  -5   0 -10   30.32    1.62
   5   0  10   27.65    1.72
  -6   0 -10   59.56    3.25
  -6   0 -10   61.68    3.19
  -6   0 -10   61.73    2.73
  -6   0 -10   63.77    3.15
  -7   0 -10   29.63    2.33
  -7   0 -10   29.60    2.28
   7   0  10   28.30    2.03
   3  -1 -10   15.83    1.58
   3  -1 -10   13.04    1.65
   3  -1 -10   13.81    1.35
   2  -1 -10    3.30    0.83
   2  -1 -10    3.98    0.87
   2  -1 -10    4.39    1.02
   1  -1 -10    3.21    0.75
   1  -1 -10    4.70    0.89
   1  -1 -10    3.65    0.65
   0  -1 -10    0.67    0.32
   0  -1 -10    0.47    0.44
   0  -1 -10    0.53    0.27
   0  -1 -10    0.77    0.49
   0  -1 -10    0.80    0.61
   0  -1 -10    0.91    0.39
  -1  -1 -10   70.50    2.92
  -1  -1 -10   69.47    3.15
  -1  -1 -10   68.50    3.16
  -1  -1 -10   66.05    2.86
  -2  -1 -10    1.93    0.50
  -2  -1 -10    0.91    0.46
  -2  -1 -10    2.21    0.60
  -2  -1 -10    1.43    0.50
  -3  -1 -10  170.25    6.83
  -3  -1 -10  165.99    6.69
  -3  -1 -10  165.54    6.74
  -3  -1 -10  163.79    6.74
  -4  -1 -10    1.19    0.57
  -4  -1 -10    1.47    0.57
  -4  -1 -10    1.44    0.67
   4   1  10    1.14    0.55
  -5  -1 -10   36.72    2.22
  -5  -1 -10   37.11    2.27
  -5  -1 -10   39.31    2.18
  -6  -1 -10    6.46    1.24
  -6  -1 -10    3.72    1.08
  -6  -1 -10    2.91    0.92
   6   1  10    2.75    0.84
  -7  -1 -10    7.65    1.59
  -7  -1 -10    9.27    1.67
   3  -2 -10   24.32    1.75
   3  -2 -10   20.36    1.89
   3  -2 -10   24.26    2.01
   2  -2 -10   34.43    2.08
   2  -2 -10   34.06    2.01
   2  -2 -10   28.17    1.78
   1  -2 -10   17.34    1.17
   1  -2 -10   18.96    1.43
   1  -2 -10   17.52    0.79
   1  -2 -10   16.91    1.27
   0  -2 -10   10.43    0.92
   0  -2 -10   10.00    0.94
   0  -2 -10   11.23    0.86
   0  -2 -10   13.62    1.14
   0  -2 -10    8.16    1.20
  -1  -2 -10   15.58    1.22
  -1  -2 -10   13.71    1.04
  -1  -2 -10   16.61    1.21
  -1  -2 -10   15.93    0.98
  -1  -2 -10   14.42    1.29
  -2  -2 -10   64.48    2.92
  -2  -2 -10   70.70    3.15
  -3  -2 -10    0.19    0.60
  -3  -2 -10    0.56    0.44
  -3  -2 -10    0.16    0.42
  -4  -2 -10  104.69    4.49
  -4  -2 -10   99.46    4.49
  -4  -2 -10  102.81    4.57
  -5  -2 -10    4.40    1.05
  -5  -2 -10    3.77    1.00
   5   2  10    5.21    1.15
  -6  -2 -10   35.81    2.52
  -6  -2 -10   33.95    2.25
  -6  -2 -10   36.43    2.36
  -7  -2 -10   -0.89    0.94
  -7  -2 -10    0.85    1.12
   3  -3 -10  201.26    8.45
   3  -3 -10  199.84    8.29
   2  -3 -10    1.99    0.68
   2  -3 -10    1.09    0.78
   2  -3 -10    0.48    0.80
   1  -3 -10  197.69    7.88
   1  -3 -10  198.13    8.07
   1  -3 -10  191.23    7.89
   1  -3 -10  193.80    7.50
   0  -3 -10    0.61    0.52
   0  -3 -10    0.40    0.47
   0  -3 -10    0.44    0.42
   0  -3 -10   -0.15    0.61
   0  -3 -10    0.03    0.50
  -1  -3 -10  199.87    8.23
  -1  -3 -10  204.37    8.12
  -1  -3 -10  200.26    8.18
  -1  -3 -10  206.38    8.07
  -2  -3 -10   13.78    1.16
  -2  -3 -10   12.65    1.18
  -2  -3 -10   15.35    1.34
  -2  -3 -10   12.35    1.00
  -3  -3 -10   15.06    1.18
  -3  -3 -10   12.27    1.35
  -3  -3 -10   12.72    1.42
   3   3  10   13.30    1.25
  -4  -3 -10   32.67    2.10
  -4  -3 -10   34.15    1.97
  -4  -3 -10   31.50    1.92
   4   3  10   31.98    1.97
  -5  -3 -10   26.87    2.19
  -5  -3 -10   32.95    2.08
  -5  -3 -10   28.47    1.93
  -6  -3 -10   34.42    2.44
  -6  -3 -10   34.33    2.32
   6   3  10   35.26    1.63
  -7  -3 -10   54.50    3.24
  -7  -3 -10   54.75    3.38
   3  -4 -10    3.74    1.07
   3  -4 -10    5.17    1.37
   2  -4 -10   15.89    1.49
   2  -4 -10   15.78    1.58
   1  -4 -10   37.76    2.23
   1  -4 -10   38.90    2.07
   1  -4 -10   36.48    1.70
   1  -4 -10   32.87    2.16
   0  -4 -10   12.99    1.31
   0  -4 -10   10.70    1.23
   0  -4 -10   12.11    1.09
   0  -4 -10   13.56    1.12
  -1  -4 -10   66.96    3.24
  -1  -4 -10   71.93    3.26
  -1  -4 -10   68.68    3.15
  -1  -4 -10   69.32    3.28
  -2  -4 -10    5.20    1.10
  -2  -4 -10    5.23    1.23
  -2  -4 -10    5.27    0.81
  -2  -4 -10    4.23    0.91
  -3  -4 -10   75.58    3.66
  -3  -4 -10   75.45    3.54
  -3  -4 -10   77.93    3.49
  -3  -4 -10   75.88    3.69
   3   4  10   71.27    3.50
  -4  -4 -10   23.61    1.68
  -4  -4 -10   22.93    1.67
  -4  -4 -10   20.98    1.95
  -4  -4 -10   24.83    2.05
   4   4  10   24.41    1.06
  -5  -4 -10   56.16    2.95
  -5  -4 -10   53.45    2.88
  -5  -4 -10   49.17    3.12
   5   4  10   52.38    2.29
   5   4  10   52.91    2.30
  -6  -4 -10   49.94    3.00
  -6  -4 -10   50.58    2.93
   6   4  10   48.71    2.31
  -7  -4 -10    9.92    1.90
  -7  -4 -10   15.51    2.14
   2  -5 -10   30.67    2.19
   2  -5 -10   30.53    2.08
   1  -5 -10   52.41    2.89
   1  -5 -10   56.58    2.83
   0  -5 -10   12.48    1.53
   0  -5 -10   13.88    1.32
   0  -5 -10   12.99    1.20
   0  -5 -10   12.49    1.24
  -1  -5 -10  118.49    5.15
  -1  -5 -10  117.92    5.18
  -1  -5 -10  117.02    5.19
  -1  -5 -10  120.28    5.09
  -2  -5 -10    2.76    0.71
  -2  -5 -10    1.81    0.87
  -2  -5 -10    1.90    0.67
  -2  -5 -10    1.99    0.89
   2   5  10    1.84    0.42
   2   5  10    1.84    0.42
  -3  -5 -10  224.45    8.95
  -3  -5 -10  216.84    8.99
  -3  -5 -10  224.07    9.14
  -3  -5 -10  223.79    9.10
   3   5  10  214.99    8.44
   3   5  10  212.03    8.46
  -4  -5 -10   30.74    1.97
  -4  -5 -10   29.40    2.38
  -4  -5 -10   28.04    1.94
   4   5  10   29.59    1.50
   4   5  10   27.42    1.48
  -5  -5 -10  178.42    7.84
  -5  -5 -10  182.22    7.90
   5   5  10  191.01    7.40
   5   5  10  187.84    7.38
  -6  -5 -10   37.34    2.73
  -6  -5 -10   41.98    2.68
   6   5  10   40.70    2.17
   2  -6 -10  130.08    5.85
   1  -6 -10    1.48    0.82
   1  -6 -10    0.77    0.78
   0  -6 -10   81.30    3.73
   0  -6 -10   81.09    3.82
   0  -6 -10   79.67    3.85
  -1  -6 -10    5.64    1.10
  -1  -6 -10    6.38    1.08
  -1  -6 -10    3.41    1.03
  -1  -6 -10    5.77    1.17
   1   6  10    5.56    0.81
   1   6  10    5.61    0.79
  -2  -6 -10    0.09    0.97
  -2  -6 -10    0.34    0.97
  -2  -6 -10    1.55    0.67
  -2  -6 -10    0.95    0.68
   2   6  10    1.91    0.52
   2   6  10    1.35    0.50
  -3  -6 -10   32.11    2.07
  -3  -6 -10   32.22    2.08
   3   6  10   32.46    1.69
   3   6  10   31.82    1.72
  -4  -6 -10    6.20    1.35
  -4  -6 -10    7.11    1.31
   4   6  10    7.14    1.03
   4   6  10    4.96    0.99
  -5  -6 -10   73.89    3.80
  -5  -6 -10   69.66    3.72
   5   6  10   72.32    3.36
  -6  -6 -10    6.12    1.40
  -6  -6 -10    7.15    1.96
   6   6  10    6.58    1.38
   1  -7 -10   42.59    2.55
   1  -7 -10   37.17    2.56
   0  -7 -10   34.13    2.24
   0  -7 -10   35.58    2.32
   0  -7 -10   31.81    2.83
   0   7  10   34.98    2.08
  -1  -7 -10    2.77    1.17
  -1  -7 -10    5.21    1.17
  -1  -7 -10    2.96    0.87
  -2  -7 -10   34.26    2.23
  -2  -7 -10   33.46    2.19
   2   7  10   36.09    1.99
   2   7  10   33.80    1.89
  -3  -7 -10    0.96    0.85
  -3  -7 -10    1.19    0.77
   3   7  10    1.16    0.68
   3   7  10    0.85    0.68
  -4  -7 -10    2.93    0.93
  -4  -7 -10    2.76    1.00
   4   7  10    2.72    1.12
   4   7  10    1.83    0.77
  -5  -7 -10   25.26    2.23
  -5  -7 -10   22.04    2.21
   5   7  10   23.30    1.85
  -1  -8 -10   10.45    1.69
  -1  -8 -10   13.59    1.69
   1   8  10   14.59    1.72
  -2  -8 -10   85.82    4.14
  -2  -8 -10   78.87    4.10
   2   8  10   83.92    3.98
  -3  -8 -10   10.33    1.67
  -3  -8 -10   11.47    1.80
   3   8  10   12.99    1.60
  -4  -8 -10   14.06    1.99
   4   8  10   15.04    1.69
  -1   6 -11  243.76    9.82
  -2   6 -11   65.01    3.26
  -3   6 -11  127.28    5.62
   1   5 -11   15.71    1.52
   0   5 -11   18.78    1.52
   0   5 -11   21.13    1.47
  -1   5 -11   22.18    1.56
  -1   5 -11   21.70    1.43
  -2   5 -11    4.91    1.13
  -2   5 -11    6.59    1.60
  -3   5 -11   20.22    1.64
  -3   5 -11   17.98    1.99
  -4   5 -11   29.68    2.12
   1   4 -11   45.51    2.47
   0   4 -11    2.20    0.68
   0   4 -11    1.84    0.57
  -1   4 -11    3.62    0.69
  -1   4 -11    4.18    0.91
  -2   4 -11   12.65    1.58
  -2   4 -11   15.15    1.25
  -2   4 -11   13.79    1.14
  -3   4 -11   37.57    2.10
  -3   4 -11   31.64    2.16
  -3   4 -11   37.02    1.64
  -3   4 -11   33.56    1.79
  -4   4 -11   33.72    1.74
  -4   4 -11   32.93    2.11
  -5   4 -11  163.16    6.59
  -5   4 -11  157.36    6.88
   2   3 -11   58.95    3.07
   1   3 -11   -0.46    0.62
   0   3 -11   91.82    4.08
   0   3 -11   92.95    3.87
  -1   3 -11    1.18    0.56
  -1   3 -11    1.94    0.51
  -2   3 -11   83.03    3.51
  -2   3 -11   74.69    3.61
  -2   3 -11   75.96    3.43
  -3   3 -11    5.04    0.98
  -3   3 -11    4.31    0.58
  -3   3 -11    3.59    0.85
  -3   3 -11    3.98    0.82
  -3   3 -11    3.47    0.68
  -4   3 -11   14.56    1.43
  -4   3 -11   15.06    1.09
  -4   3 -11   17.26    1.30
  -4   3 -11   14.26    1.32
  -4   3 -11   16.25    1.41
  -5   3 -11    5.94    1.27
  -5   3 -11    6.27    1.09
  -5   3 -11    4.19    1.06
  -6   3 -11   18.96    1.74
  -6   3 -11   24.54    2.00
   2   2 -11    1.58    0.82
   1   2 -11   27.57    1.83
   1   2 -11   27.66    1.40
   0   2 -11    1.34    0.58
   0   2 -11    1.13    0.30
   0   2 -11    0.97    0.39
   0   2 -11    1.22    0.34
  -1   2 -11  155.34    5.93
  -1   2 -11  129.08    6.12
  -1   2 -11  153.15    6.08
  -2   2 -11    7.63    0.94
  -2   2 -11    8.13    1.17
  -2   2 -11    7.73    0.93
  -3   2 -11  169.15    6.74
  -3   2 -11  173.24    7.03
  -3   2 -11  171.11    7.00
  -3   2 -11  176.12    6.99
  -3   2 -11  169.57    6.73
  -4   2 -11    4.79    0.78
  -4   2 -11    2.08    0.65
  -4   2 -11    5.15    0.98
  -4   2 -11    2.74    0.64
  -4   2 -11    3.23    0.69
  -5   2 -11   24.77    1.82
  -5   2 -11   23.81    1.68
  -5   2 -11   25.31    1.61
  -5   2 -11   20.91    1.73
  -5   2 -11   22.48    1.73
  -6   2 -11    0.53    0.80
  -6   2 -11    2.62    0.86
  -6   2 -11    1.22    0.86
   2   1 -11  169.17    6.73
   2   1 -11  163.54    7.06
   1   1 -11   13.37    1.16
   1   1 -11   14.82    0.99
   1   1 -11   14.27    1.36
   0   1 -11   39.24    1.79
   0   1 -11   38.15    1.73
   0   1 -11   39.47    1.74
   0   1 -11   40.38    2.16
  -1   1 -11   21.57    1.72
  -1   1 -11   25.52    1.18
  -1   1 -11   24.44    1.15
  -1   1 -11   26.23    1.61
  -1   1 -11   26.41    1.40
  -2   1 -11   13.96    1.18
  -2   1 -11   15.26    0.95
  -2   1 -11   13.23    1.35
  -2   1 -11   14.74    0.88
  -2   1 -11   16.52    1.12
  -3   1 -11   39.57    1.98
  -3   1 -11   36.20    1.81
  -3   1 -11   36.42    1.97
  -3   1 -11   34.39    2.01
  -3   1 -11   36.13    1.85
  -4   1 -11   27.46    1.77
  -4   1 -11   26.45    1.61
  -4   1 -11   29.30    1.72
  -4   1 -11   28.01    1.70
  -5   1 -11   17.59    1.62
  -5   1 -11   18.37    1.54
  -5   1 -11   18.84    1.36
  -5   1 -11   19.87    1.48
   5  -1  11   14.50    1.37
  -6   1 -11   48.58    2.70
  -6   1 -11   49.22    2.72
  -6   1 -11   45.94    2.85
   2   0 -11   22.59    1.83
   2   0 -11   23.83    1.54
   1   0 -11    9.47    1.01
   1   0 -11   10.37    1.31
   1   0 -11    8.86    0.91
   0   0 -11   31.04    1.90
   0   0 -11   33.30    1.56
   0   0 -11   31.75    1.51
   0   0 -11   32.48    1.73
   0   0 -11   32.80    1.60
  -1   0 -11    2.98    0.77
  -1   0 -11    5.52    0.90
  -1   0 -11    2.54    0.50
  -1   0 -11    2.37    0.60
  -2   0 -11   26.90    1.72
  -2   0 -11   27.24    1.64
  -2   0 -11   26.90    1.42
  -2   0 -11   25.80    1.34
  -3   0 -11   54.92    2.62
  -3   0 -11   53.29    2.63
  -3   0 -11   53.67    2.45
  -3   0 -11   51.13    2.51
  -4   0 -11   43.66    2.33
  -4   0 -11   42.95    2.24
  -4   0 -11   43.63    2.33
  -4   0 -11   43.83    2.27
  -5   0 -11  208.42    8.44
  -5   0 -11  205.21    8.44
  -5   0 -11  202.91    8.20
  -5   0 -11  205.89    8.42
  -6   0 -11   41.73    2.81
  -6   0 -11   45.78    2.67
  -6   0 -11   50.03    2.70
   6   0  11   45.51    2.53
   2  -1 -11  102.17    4.72
   2  -1 -11   99.69    4.41
   2  -1 -11  104.01    5.38
   1  -1 -11    4.69    0.86
   1  -1 -11    4.93    0.98
   1  -1 -11    5.65    1.21
   0  -1 -11  298.69   11.53
   0  -1 -11  302.79   11.65
   0  -1 -11  307.02   11.67
   0  -1 -11  298.95   11.65
   0  -1 -11  295.82   11.98
  -1  -1 -11   19.42    1.22
  -1  -1 -11   21.04    1.46
  -1  -1 -11   18.92    1.12
  -2  -1 -11  194.23    8.32
  -2  -1 -11  208.12    8.15
  -2  -1 -11  210.84    8.12
  -2  -1 -11  212.04    8.39
  -3  -1 -11   34.21    1.89
  -3  -1 -11   30.63    1.89
  -3  -1 -11   32.35    1.75
  -3  -1 -11   33.31    1.90
  -4  -1 -11   64.20    3.12
  -4  -1 -11   67.08    3.09
  -4  -1 -11   62.46    3.01
  -4  -1 -11   59.67    2.97
   4   1  11   60.63    3.00
  -5  -1 -11   87.16    3.82
  -5  -1 -11   85.53    4.12
  -5  -1 -11   86.50    4.05
  -5  -1 -11   87.46    4.02
   5   1  11   82.69    3.91
  -6  -1 -11    4.21    1.02
  -6  -1 -11    4.27    0.98
  -6  -1 -11    3.53    1.04
  -6  -1 -11    7.14    1.91
  -7  -1 -11   65.18    3.62
  -7  -1 -11   59.73    3.45
   2  -2 -11    7.34    1.54
   2  -2 -11   10.07    1.50
   2  -2 -11    7.66    1.21
   1  -2 -11   20.12    1.65
   1  -2 -11   18.46    1.33
   1  -2 -11   17.64    1.52
   0  -2 -11   56.77    2.59
   0  -2 -11   56.81    2.90
   0  -2 -11   59.82    2.65
   0  -2 -11   55.64    2.68
  -1  -2 -11    1.26    0.62
  -1  -2 -11    1.38    0.66
  -1  -2 -11    0.37    0.53
  -1  -2 -11    1.06    0.44
  -2  -2 -11   51.48    2.59
  -2  -2 -11   48.58    2.49
  -2  -2 -11   45.74    2.54
  -2  -2 -11   47.25    2.35
  -2  -2 -11   46.60    2.26
  -3  -2 -11   43.12    2.26
  -3  -2 -11   39.37    2.09
  -3  -2 -11   39.05    2.22
  -3  -2 -11   40.85    2.26
  -4  -2 -11   41.92    2.31
  -4  -2 -11   38.25    2.38
  -4  -2 -11   40.95    2.26
   4   2  11   41.25    2.29
  -5  -2 -11   43.09    2.57
  -5  -2 -11   41.49    2.46
  -5  -2 -11   46.45    2.79
  -6  -2 -11   26.98    2.10
  -6  -2 -11   26.18    2.16
   2  -3 -11   70.86    3.45
   2  -3 -11   71.44    3.69
   1  -3 -11    0.03    0.60
   1  -3 -11    0.41    0.83
   1  -3 -11    0.61    0.73
   0  -3 -11    1.54    0.56
   0  -3 -11    1.65    0.72
   0  -3 -11    1.66    0.75
   0  -3 -11    1.71    0.64
  -1  -3 -11    0.99    0.67
  -1  -3 -11   -0.81    0.61
  -1  -3 -11    0.57    0.49
  -1  -3 -11    0.93    0.73
  -2  -3 -11   54.47    2.72
  -2  -3 -11   53.82    2.83
  -2  -3 -11   52.86    2.53
  -2  -3 -11   49.29    2.64
  -3  -3 -11    2.47    0.74
  -3  -3 -11    2.35    0.70
  -3  -3 -11    2.54    0.88
  -3  -3 -11    1.43    0.86
  -4  -3 -11  143.66    6.10
  -4  -3 -11  141.81    6.21
  -4  -3 -11  139.14    6.04
  -5  -3 -11    1.98    1.16
  -5  -3 -11    0.85    0.74
  -5  -3 -11    1.23    0.83
  -6  -3 -11   60.94    3.38
  -6  -3 -11   61.86    3.49
   2  -4 -11    1.20    1.32
   1  -4 -11   29.13    2.04
   1  -4 -11   30.72    1.90
   1  -4 -11   24.83    2.09
   0  -4 -11    8.77    1.47
   0  -4 -11   11.08    1.15
   0  -4 -11   10.30    1.38
   0  -4 -11   13.26    1.18
  -1  -4 -11   38.35    2.30
  -1  -4 -11   40.88    2.30
  -1  -4 -11   37.45    2.28
  -1  -4 -11   38.35    2.10
  -2  -4 -11    0.97    0.66
  -2  -4 -11    1.91    0.90
  -2  -4 -11    1.11    0.81
  -2  -4 -11    2.21    0.64
  -3  -4 -11    1.44    1.03
  -3  -4 -11    3.24    0.76
  -3  -4 -11    2.61    0.79
  -3  -4 -11    3.04    1.04
  -4  -4 -11    2.54    0.76
  -4  -4 -11    4.40    1.16
  -4  -4 -11    3.85    1.21
  -5  -4 -11   29.91    2.23
  -5  -4 -11   32.16    2.20
  -6  -4 -11    1.54    1.01
  -6  -4 -11    1.30    1.13
   1  -5 -11    0.68    0.96
   1  -5 -11   -0.26    0.80
   0  -5 -11  175.50    7.33
   0  -5 -11  176.67    7.48
  -1  -5 -11    3.81    1.06
  -1  -5 -11    4.62    0.89
  -1  -5 -11    4.70    1.09
  -1  -5 -11    2.79    0.84
  -2  -5 -11  236.95    9.66
  -2  -5 -11  248.78    9.66
  -2  -5 -11  210.64    9.55
  -2  -5 -11  242.23    9.53
  -3  -5 -11    8.68    1.77
  -3  -5 -11   10.52    1.43
  -3  -5 -11   10.56    1.32
  -4  -5 -11   45.45    2.65
  -4  -5 -11   43.51    2.64
  -5  -5 -11    9.49    1.59
  -5  -5 -11   12.23    1.76
  -6  -5 -11   -0.58    1.18
  -6  -5 -11    3.34    1.23
   0  -6 -11   24.03    1.95
   0  -6 -11   26.78    2.09
  -1  -6 -11    1.69    0.79
  -1  -6 -11    1.50    1.07
  -1  -6 -11    0.57    0.82
  -2  -6 -11   76.72    4.21
  -2  -6 -11   80.87    4.05
  -2  -6 -11   91.95    4.04
  -3  -6 -11    0.85    0.85
  -3  -6 -11    3.31    0.92
  -4  -6 -11   58.26    3.23
  -4  -6 -11   57.08    3.18
  -5  -6 -11   28.74    2.38
  -5  -6 -11   33.33    2.47
  -1  -7 -11    6.56    1.49
  -1  -7 -11    5.76    1.43
  -2  -7 -11   33.98    2.38
  -2  -7 -11   34.20    2.40
  -3  -7 -11   11.87    1.68
  -3  -7 -11   10.84    1.74
  -4  -7 -11  147.41    6.63
   0   4 -12   98.42    4.45
  -1   4 -12   42.52    2.26
  -1   4 -12   40.65    2.28
  -2   4 -12  153.81    6.26
  -2   4 -12  144.55    6.18
  -3   4 -12   46.29    2.61
  -4   4 -12  124.83    5.53
   0   3 -12   23.16    1.75
  -1   3 -12   30.52    1.86
  -1   3 -12   26.87    1.68
  -2   3 -12   20.21    1.59
  -2   3 -12   27.61    1.67
  -3   3 -12    6.59    1.49
  -3   3 -12    6.98    1.14
  -3   3 -12    7.47    1.24
  -4   3 -12   31.63    2.14
  -4   3 -12   29.62    2.10
  -5   3 -12   71.21    3.63
   1   2 -12    6.29    1.14
   0   2 -12   20.72    1.69
  -1   2 -12   30.10    1.64
  -1   2 -12   27.38    1.83
  -2   2 -12    4.60    1.00
  -2   2 -12    5.37    1.09
  -3   2 -12   28.66    2.05
  -3   2 -12   33.29    1.93
  -3   2 -12   34.24    1.96
  -4   2 -12   34.10    1.97
  -4   2 -12   35.89    2.17
  -4   2 -12   36.23    2.16
  -4   2 -12   35.22    2.08
  -5   2 -12   32.42    2.10
  -5   2 -12   31.61    2.16
  -5   2 -12   30.42    1.97
   1   1 -12   34.83    2.32
   0   1 -12    3.16    0.89
  -1   1 -12   94.24    4.03
  -1   1 -12   93.49    4.21
  -1   1 -12   92.15    3.93
  -2   1 -12    5.79    1.07
  -2   1 -12    3.58    0.68
  -2   1 -12    5.07    0.93
  -3   1 -12  120.39    5.39
  -3   1 -12  129.82    5.39
  -3   1 -12  129.78    5.33
  -3   1 -12  122.78    5.12
  -4   1 -12   10.61    1.29
  -4   1 -12    9.90    1.15
  -4   1 -12   11.59    1.48
  -4   1 -12    9.09    1.29
  -5   1 -12    1.75    0.91
  -5   1 -12    2.44    0.89
  -5   1 -12    1.80    0.82
   1   0 -12    6.83    1.44
   0   0 -12   16.73    1.56
   0   0 -12   14.38    1.05
   0   0 -12   16.63    1.13
  -1   0 -12   11.70    0.97
  -1   0 -12   11.66    1.33
  -1   0 -12   11.11    0.86
  -2   0 -12  124.21    4.97
  -2   0 -12  128.72    4.88
  -2   0 -12  101.16    4.95
  -2   0 -12  126.65    5.24
  -3   0 -12    1.28    0.68
  -3   0 -12    0.29    0.54
  -3   0 -12   -0.23    0.73
  -3   0 -12    0.91    0.66
  -4   0 -12   51.47    2.58
  -4   0 -12   46.41    2.95
  -4   0 -12   47.81    2.63
  -4   0 -12   52.36    2.67
  -5   0 -12    0.75    0.80
  -5   0 -12    0.23    0.83
  -5   0 -12    1.57    0.83
  -6   0 -12   12.87    1.84
  -6   0 -12   12.33    1.77
   1  -1 -12  120.45    5.48
   1  -1 -12  123.16    5.12
   0  -1 -12    4.07    0.93
   0  -1 -12    5.61    0.89
  -1  -1 -12   54.37    2.69
  -1  -1 -12   51.72    2.34
  -1  -1 -12   47.97    2.43
  -1  -1 -12   52.19    2.35
  -1  -1 -12   46.54    2.67
  -2  -1 -12   12.42    1.36
  -2  -1 -12   13.12    1.05
  -2  -1 -12   12.69    1.18
  -3  -1 -12    0.59    0.65
  -3  -1 -12    1.58    0.80
  -3  -1 -12    1.07    0.60
  -4  -1 -12   15.07    1.55
  -4  -1 -12   15.94    1.45
  -4  -1 -12   15.45    1.74
  -4  -1 -12   14.41    1.51
  -5  -1 -12   79.73    3.84
  -5  -1 -12   79.45    3.86
  -5  -1 -12   74.84    3.66
  -5  -1 -12   78.11    4.05
  -6  -1 -12    6.85    1.78
  -6  -1 -12    7.12    1.34
   1  -2 -12   24.81    2.04
   1  -2 -12   23.57    1.68
   0  -2 -12   33.08    1.88
   0  -2 -12   35.45    2.25
  -1  -2 -12   36.67    2.05
  -1  -2 -12   37.12    2.21
  -1  -2 -12   35.80    1.93
  -1  -2 -12   36.83    2.25
  -2  -2 -12    2.39    0.76
  -2  -2 -12    3.83    0.87
  -2  -2 -12    3.45    1.04
  -2  -2 -12    2.44    0.79
  -3  -2 -12   58.44    2.85
  -3  -2 -12   59.00    3.03
  -3  -2 -12   58.11    3.00
  -4  -2 -12   30.85    2.44
  -4  -2 -12   35.46    2.12
  -4  -2 -12   33.74    2.19
  -5  -2 -12   50.53    2.82
  -5  -2 -12   49.23    2.87
  -5  -2 -12   44.77    3.10
  -6  -2 -12   78.69    4.16
  -6  -2 -12   79.94    4.10
   1  -3 -12  111.02    4.69
   1  -3 -12   96.86    4.88
   0  -3 -12   15.26    2.20
   0  -3 -12   16.86    1.70
   0  -3 -12   15.11    1.38
  -1  -3 -12  144.67    5.83
  -1  -3 -12  134.93    6.04
  -1  -3 -12  138.28    5.89
  -1  -3 -12  138.43    6.13
  -2  -3 -12   16.67    1.56
  -2  -3 -12   15.13    1.31
  -2  -3 -12   12.36    1.57
  -2  -3 -12   15.58    1.86
  -3  -3 -12  133.15    5.71
  -3  -3 -12  117.65    5.53
  -3  -3 -12  129.66    5.86
  -3  -3 -12  142.87    5.79
  -4  -3 -12   28.31    2.07
  -4  -3 -12   28.76    2.46
  -4  -3 -12   27.82    2.00
  -5  -3 -12   83.20    4.18
  -5  -3 -12   88.52    4.27
   0  -4 -12   32.19    2.02
   0  -4 -12   30.17    2.26
   0  -4 -12   30.49    2.36
  -1  -4 -12    5.52    1.15
  -1  -4 -12    8.68    1.67
  -1  -4 -12    6.72    1.40
  -2  -4 -12    9.89    1.23
  -2  -4 -12    9.94    1.97
  -2  -4 -12    8.97    1.68
  -2  -4 -12    9.04    1.43
  -3  -4 -12   34.16    2.14
  -3  -4 -12   34.95    2.30
  -3  -4 -12   31.56    2.41
  -4  -4 -12   53.39    2.88
  -4  -4 -12   50.05    2.79
  -4  -4 -12   36.16    3.58
  -5  -4 -12   49.69    3.06
  -5  -4 -12   50.17    2.96
   0  -5 -12   33.66    2.24
  -1  -5 -12    0.23    0.80
  -1  -5 -12    2.26    1.00
  -2  -5 -12   37.83    2.28
  -2  -5 -12   33.80    2.36
  -2  -5 -12   36.20    2.77
  -3  -5 -12   25.79    2.09
  -3  -5 -12   24.06    1.96
  -4  -5 -12    5.23    1.17
  -4  -5 -12    6.59    1.62
  -2  -6 -12   85.88    4.19
  -3  -6 -12    3.58    1.10
  -2   2 -13   11.25    1.32
  -2   2 -13   10.37    1.49
  -3   2 -13   45.63    2.54
  -3   2 -13   43.29    2.50
  -1   1 -13   28.20    2.06
  -2   1 -13   73.23    3.64
  -2   1 -13   75.83    3.46
  -3   1 -13   39.44    2.25
  -3   1 -13   37.51    2.32
  -4   1 -13    4.27    0.93
  -4   1 -13    3.55    1.01
  -1   0 -13    2.74    0.94
  -2   0 -13   50.83    2.84
  -2   0 -13   51.34    2.55
  -3   0 -13   42.58    2.29
  -3   0 -13   38.43    2.44
  -4   0 -13   27.15    2.09
  -4   0 -13   29.94    2.09
  -1  -1 -13    0.15    0.90
  -2  -1 -13  133.10    5.46
  -2  -1 -13  125.76    5.71
  -3  -1 -13    4.91    1.01
  -4  -1 -13  110.29    5.21
  -4  -1 -13  118.13    5.22
  -1  -2 -13    7.61    1.54
  -2  -2 -13    6.28    1.43
  -2  -2 -13    4.25    1.12
  -3  -2 -13    2.73    0.95
  -3  -2 -13    2.31    0.87
  -4  -2 -13   15.93    1.72
  -4  -2 -13   15.45    1.79
  -1  -3 -13    0.13    0.76
  -1  -3 -13    0.86    0.99
  -2  -3 -13   97.36    4.38
  -2  -3 -13   98.27    4.66
  -3  -3 -13   14.18    1.61
  -3  -3 -13   13.77    1.73
  -4  -3 -13    2.28    1.05
  -4  -3 -13    5.85    1.57
   0   0   0    0.00    0.00
;
_shelx_hkl_checksum              40373
loop_
_space_group_symop_operation_xyz
'x, y, z'
'-x, -y, -z'
loop_
_atom_site_label
_atom_site_type_symbol
_atom_site_fract_x
_atom_site_fract_y
_atom_site_fract_z
_atom_site_U_iso_or_equiv
_atom_site_adp_type
_atom_site_occupancy
_atom_site_site_symmetry_order
_atom_site_calc_flag
Ba1 Ba 0.23060(4) 0.33073(3) 0.55602(3) 0.00879(9) Uani 1 1 d
Ba2 Ba 0.75491(4) 0.82697(3) 1.07556(3) 0.00663(8) Uani 1 1 d
Pr1 Pr 0.81448(3) 0.10886(2) 0.39470(2) 0.00403(8) Uani 1 1 d
Pr2 Pr 0.30991(4) 0.62219(2) 0.89810(2) 0.00470(8) Uani 1 1 d
Si1 Si 0.60516(18) -0.05981(13) 0.68737(12) 0.0040(2) Uani 1 1 d
Si2 Si 0.80098(18) 0.12217(13) 0.84505(12) 0.0039(2) Uani 1 1 d
Si3 Si 0.67880(19) 0.38591(13) 0.67647(12) 0.0047(2) Uani 1 1 d
Si4 Si 0.88985(18) 0.56690(13) 0.82303(12) 0.0040(2) Uani 1 1 d
O1 O 1.0269(5) 0.7142(3) 0.7971(3) 0.0075(6) Uani 1 1 d
O2 O 0.4706(5) -0.2074(3) 0.7077(3) 0.0082(6) Uani 1 1 d
O3 O 0.6645(5) 0.5952(3) 0.9360(3) 0.0073(6) Uani 1 1 d
O4 O 0.8282(5) -0.0867(3) 0.5743(3) 0.0054(6) Uani 1 1 d
O5 O 0.6516(5) -0.0157(3) 0.8339(3) 0.0053(6) Uani 1 1 d
O6 O 0.8453(5) 0.5158(3) 0.6797(3) 0.0066(6) Uani 1 1 d
O7 O 0.4712(5) 0.0758(3) 0.6341(3) 0.0103(7) Uani 1 1 d
O8 O 1.0182(5) 0.4291(3) 0.8781(3) 0.0108(7) Uani 1 1 d
O9 O 1.0274(5) 0.1054(3) 0.7403(3) 0.0081(6) Uani 1 1 d
O10 O 0.4495(5) 0.4605(3) 0.7012(3) 0.0119(7) Uani 1 1 d
O11 O 0.7830(5) 0.3160(3) 0.5313(3) 0.0141(7) Uani 1 1 d
O12 O 0.8048(5) 0.1285(3) 1.0016(3) 0.0072(6) Uani 1 1 d
O13 O 0.6678(4) 0.2737(3) 0.8127(3) 0.0064(6) Uani 1 1 d
loop_
_atom_site_aniso_label
_atom_site_aniso_U_11
_atom_site_aniso_U_22
_atom_site_aniso_U_33
_atom_site_aniso_U_23
_atom_site_aniso_U_13
_atom_site_aniso_U_12
Ba1 0.01098(15) 0.00706(14) 0.00949(15) 0.00039(10) -0.00467(11) -0.00148(10)
Ba2 0.00573(14) 0.00606(14) 0.00867(14) -0.00097(10) -0.00284(11) -0.00025(10)
Pr1 0.00378(13) 0.00355(13) 0.00507(13) -0.00033(9) -0.00177(10) -0.00003(9)
Pr2 0.00444(13) 0.00414(13) 0.00543(13) 0.00080(9) -0.00157(10) 0.00033(9)
Si1 0.0038(6) 0.0045(5) 0.0037(5) -0.0007(4) -0.0008(5) -0.0015(4)
Si2 0.0036(6) 0.0036(5) 0.0041(5) -0.0003(4) -0.0003(5) -0.0011(4)
Si3 0.0060(6) 0.0036(5) 0.0046(6) -0.0009(4) -0.0015(5) -0.0011(4)
Si4 0.0035(6) 0.0044(5) 0.0044(6) -0.0006(4) -0.0013(5) -0.0014(4)
O1 0.0083(16) 0.0073(15) 0.0081(15) 0.0013(12) -0.0039(13) -0.0035(12)
O2 0.0088(16) 0.0076(15) 0.0087(15) 0.0010(12) -0.0026(13) -0.0049(12)
O3 0.0058(15) 0.0090(15) 0.0066(15) -0.0002(12) -0.0007(12) -0.0018(12)
O4 0.0039(15) 0.0076(15) 0.0046(14) -0.0016(11) -0.0008(12) -0.0003(11)
O5 0.0046(15) 0.0063(14) 0.0055(15) -0.0010(11) -0.0014(12) -0.0036(11)
O6 0.0068(15) 0.0095(15) 0.0045(14) -0.0006(11) -0.0025(12) -0.0041(12)
O7 0.0098(16) 0.0077(15) 0.0149(17) -0.0012(12) -0.0065(13) 0.0027(12)
O8 0.0119(16) 0.0090(15) 0.0138(16) -0.0009(12) -0.0079(14) 0.0019(12)
O9 0.0085(15) 0.0074(15) 0.0081(15) -0.0033(11) -0.0010(13) -0.0001(12)
O10 0.0112(17) 0.0083(15) 0.0187(17) -0.0053(12) -0.0077(14) 0.0020(12)
O11 0.0197(18) 0.0103(16) 0.0100(16) -0.0062(12) 0.0013(14) -0.0025(13)
O12 0.0092(16) 0.0076(15) 0.0049(14) -0.0002(11) -0.0021(12) -0.0014(12)
O13 0.0047(14) 0.0056(14) 0.0071(15) 0.0015(11) 0.0006(12) 0.0008(11)
loop_
_atom_type_symbol
_atom_type_description
_atom_type_scat_dispersion_real
_atom_type_scat_dispersion_imag
_atom_type_scat_source
O O 0.0106 0.0060 'International Tables Vol C Tables 4.2.6.8 and 6.1.1.4'
Si Si 0.0817 0.0704 'International Tables Vol C Tables 4.2.6.8 and 6.1.1.4'
Ba Ba -0.3244 2.2819 'International Tables Vol C Tables 4.2.6.8 and 6.1.1.4'
Pr Pr -0.2180 2.8214 'International Tables Vol C Tables 4.2.6.8 and 6.1.1.4'
loop_
_geom_angle_atom_site_label_1
_geom_angle_atom_site_label_2
_geom_angle_atom_site_label_3
_geom_angle
_geom_angle_site_symmetry_1
_geom_angle_site_symmetry_3
O10 Ba1 O4 148.68(9) . 2_656
O10 Ba1 O9 103.11(9) . 1_455
O4 Ba1 O9 67.42(9) 2_656 1_455
O10 Ba1 O6 119.87(9) . 2_666
O4 Ba1 O6 82.18(8) 2_656 2_666
O9 Ba1 O6 133.70(9) 1_455 2_666
O10 Ba1 O7 78.08(9) . .
O4 Ba1 O7 71.38(9) 2_656 .
O9 Ba1 O7 60.00(9) 1_455 .
O6 Ba1 O7 141.22(9) 2_666 .
O10 Ba1 O6 92.53(9) . 1_455
O4 Ba1 O6 114.96(8) 2_656 1_455
O9 Ba1 O6 83.95(8) 1_455 1_455
O6 Ba1 O6 78.12(9) 2_666 1_455
O7 Ba1 O6 138.66(8) . 1_455
O10 Ba1 O2 109.79(9) . 2_656
O4 Ba1 O2 54.15(8) 2_656 2_656
O9 Ba1 O2 112.97(8) 1_455 2_656
O6 Ba1 O2 69.58(8) 2_666 2_656
O7 Ba1 O2 71.96(8) . 2_656
O6 Ba1 O2 146.82(8) 1_455 2_656
O10 Ba1 O11 141.44(9) . 1_455
O4 Ba1 O11 66.06(8) 2_656 1_455
O9 Ba1 O11 71.14(9) 1_455 1_455
O6 Ba1 O11 64.73(9) 2_666 1_455
O7 Ba1 O11 124.21(9) . 1_455
O6 Ba1 O11 49.40(8) 1_455 1_455
O2 Ba1 O11 107.27(8) 2_656 1_455
O10 Ba1 O11 74.41(9) . 2_666
O4 Ba1 O11 130.97(8) 2_656 2_666
O9 Ba1 O11 144.83(8) 1_455 2_666
O6 Ba1 O11 48.79(8) 2_666 2_666
O7 Ba1 O11 146.83(9) . 2_666
O6 Ba1 O11 61.43(8) 1_455 2_666
O2 Ba1 O11 100.35(8) 2_656 2_666
O11 Ba1 O11 88.96(8) 1_455 2_666
O10 Ba1 O8 57.69(9) . 1_455
O4 Ba1 O8 130.18(8) 2_656 1_455
O9 Ba1 O8 64.20(8) 1_455 1_455
O6 Ba1 O8 124.89(8) 2_666 1_455
O7 Ba1 O8 93.89(8) . 1_455
O6 Ba1 O8 49.34(8) 1_455 1_455
O2 Ba1 O8 163.56(8) 2_656 1_455
O11 Ba1 O8 87.46(8) 1_455 1_455
O11 Ba1 O8 86.87(8) 2_666 1_455
O10 Ba1 Si3 90.06(7) . 2_666
O4 Ba1 Si3 107.21(6) 2_656 2_666
O9 Ba1 Si3 161.74(7) 1_455 2_666
O6 Ba1 Si3 30.20(6) 2_666 2_666
O7 Ba1 Si3 136.45(7) . 2_666
O6 Ba1 Si3 82.88(6) 1_455 2_666
O2 Ba1 Si3 73.19(6) 2_656 2_666
O11 Ba1 Si3 90.66(6) 1_455 2_666
O11 Ba1 Si3 27.98(6) 2_666 2_666
O8 Ba1 Si3 114.85(6) 1_455 2_666
O10 Ba1 Si1 129.36(7) . 2_656
O4 Ba1 Si1 27.03(6) 2_656 2_656
O9 Ba1 Si1 87.51(6) 1_455 2_656
O6 Ba1 Si1 78.64(6) 2_666 2_656
O7 Ba1 Si1 64.83(7) . 2_656
O6 Ba1 Si1 138.07(6) 1_455 2_656
O2 Ba1 Si1 27.80(6) 2_656 2_656
O11 Ba1 Si1 89.04(6) 1_455 2_656
O11 Ba1 Si1 121.79(6) 2_666 2_656
O8 Ba1 Si1 151.06(6) 1_455 2_656
Si3 Ba1 Si1 93.90(3) 2_666 2_656
O8 Ba2 O3 70.79(9) 2_767 .
O8 Ba2 O12 140.68(9) 2_767 1_565
O3 Ba2 O12 130.98(8) . 1_565
O8 Ba2 O9 72.64(9) 2_767 2_767
O3 Ba2 O9 143.27(8) . 2_767
O12 Ba2 O9 81.54(9) 1_565 2_767
O8 Ba2 O12 68.00(9) 2_767 2_767
O3 Ba2 O12 111.32(9) . 2_767
O12 Ba2 O12 73.05(9) 1_565 2_767
O9 Ba2 O12 56.00(8) 2_767 2_767
O8 Ba2 O13 100.30(9) 2_767 2_667
O3 Ba2 O13 66.12(8) . 2_667
O12 Ba2 O13 118.10(8) 1_565 2_667
O9 Ba2 O13 118.22(8) 2_767 2_667
O12 Ba2 O13 167.73(8) 2_767 2_667
O8 Ba2 O5 136.42(9) 2_767 1_565
O3 Ba2 O5 76.84(8) . 1_565
O12 Ba2 O5 54.76(8) 1_565 1_565
O9 Ba2 O5 135.54(8) 2_767 1_565
O12 Ba2 O5 98.91(8) 2_767 1_565
O13 Ba2 O5 92.21(8) 2_667 1_565
O8 Ba2 O5 147.10(9) 2_767 2_667
O3 Ba2 O5 105.06(8) . 2_667
O12 Ba2 O5 67.24(8) 1_565 2_667
O9 Ba2 O5 103.67(8) 2_767 2_667
O12 Ba2 O5 137.90(8) 2_767 2_667
O13 Ba2 O5 51.57(8) 2_667 2_667
O5 Ba2 O5 69.18(9) 1_565 2_667
O8 Ba2 O7 103.22(8) 2_767 2_667
O3 Ba2 O7 128.18(9) . 2_667
O12 Ba2 O7 87.02(8) 1_565 2_667
O9 Ba2 O7 58.39(9) 2_767 2_667
O12 Ba2 O7 113.24(8) 2_767 2_667
O13 Ba2 O7 64.64(8) 2_667 2_667
O5 Ba2 O7 119.75(8) 1_565 2_667
O5 Ba2 O7 52.52(8) 2_667 2_667
O8 Ba2 O1 70.92(9) 2_767 .
O3 Ba2 O1 54.31(8) . .
O12 Ba2 O1 95.23(8) 1_565 .
O9 Ba2 O1 115.34(8) 2_767 .
O12 Ba2 O1 61.40(8) 2_767 .
O13 Ba2 O1 119.51(8) 2_667 .
O5 Ba2 O1 66.62(8) 1_565 .
O5 Ba2 O1 134.40(8) 2_667 .
O7 Ba2 O1 173.01(8) 2_667 .
O8 Ba2 Si2 63.77(7) 2_767 2_767
O3 Ba2 Si2 128.32(7) . 2_767
O12 Ba2 Si2 79.45(6) 1_565 2_767
O9 Ba2 Si2 28.07(6) 2_767 2_767
O12 Ba2 Si2 28.41(6) 2_767 2_767
O13 Ba2 Si2 143.57(6) 2_667 2_767
O5 Ba2 Si2 122.36(6) 1_565 2_767
O5 Ba2 Si2 126.42(6) 2_667 2_767
O7 Ba2 Si2 86.37(6) 2_667 2_767
O1 Ba2 Si2 87.53(6) . 2_767
O8 Ba2 Si2 138.85(7) 2_767 1_565
O3 Ba2 Si2 103.36(6) . 1_565
O12 Ba2 Si2 27.84(6) 1_565 1_565
O9 Ba2 Si2 106.20(6) 2_767 1_565
O12 Ba2 Si2 77.55(6) 2_767 1_565
O13 Ba2 Si2 114.67(6) 2_667 1_565
O5 Ba2 Si2 29.44(6) 1_565 1_565
O5 Ba2 Si2 74.01(6) 2_667 1_565
O7 Ba2 Si2 110.77(6) 2_667 1_565
O1 Ba2 Si2 73.22(6) . 1_565
Si2 Ba2 Si2 95.42(3) 2_767 1_565
O11 Pr1 O9 159.60(11) . 2_756
O11 Pr1 O4 97.25(10) . .
O9 Pr1 O4 77.69(10) 2_756 .
O11 Pr1 O1 84.26(10) . 2_766
O9 Pr1 O1 91.71(10) 2_756 2_766
O4 Pr1 O1 153.58(10) . 2_766
O11 Pr1 O4 82.23(11) . 2_756
O9 Pr1 O4 77.45(10) 2_756 2_756
O4 Pr1 O4 70.48(11) . 2_756
O1 Pr1 O4 83.69(10) 2_766 2_756
O11 Pr1 O2 93.57(11) . 2_656
O9 Pr1 O2 104.42(10) 2_756 2_656
O4 Pr1 O2 132.70(10) . 2_656
O1 Pr1 O2 73.18(10) 2_766 2_656
O4 Pr1 O2 156.81(10) 2_756 2_656
O11 Pr1 O7 131.43(11) . 2_656
O9 Pr1 O7 67.56(10) 2_756 2_656
O4 Pr1 O7 79.15(9) . 2_656
O1 Pr1 O7 119.36(10) 2_766 2_656
O4 Pr1 O7 137.64(9) 2_756 2_656
O2 Pr1 O7 59.85(9) 2_656 2_656
O11 Pr1 O7 70.51(10) . .
O9 Pr1 O7 120.97(9) 2_756 .
O4 Pr1 O7 59.38(9) . .
O1 Pr1 O7 143.13(9) 2_766 .
O4 Pr1 O7 117.56(9) 2_756 .
O2 Pr1 O7 81.79(9) 2_656 .
O7 Pr1 O7 66.23(11) 2_656 .
O11 Pr1 Si1 112.57(9) . 2_656
O9 Pr1 Si1 87.78(8) 2_756 2_656
O4 Pr1 Si1 105.52(7) . 2_656
O1 Pr1 Si1 98.07(7) 2_766 2_656
O4 Pr1 Si1 165.18(7) 2_756 2_656
O2 Pr1 Si1 29.78(7) 2_656 2_656
O7 Pr1 Si1 30.27(7) 2_656 2_656
O7 Pr1 Si1 69.22(7) . 2_656
O11 Pr1 Si1 82.92(8) . .
O9 Pr1 Si1 100.00(7) 2_756 .
O4 Pr1 Si1 29.29(7) . .
O1 Pr1 Si1 167.15(7) 2_766 .
O4 Pr1 Si1 93.64(7) 2_756 .
O2 Pr1 Si1 108.53(7) 2_656 .
O7 Pr1 Si1 70.64(7) 2_656 .
O7 Pr1 Si1 30.09(6) . .
Si1 Pr1 Si1 87.73(3) 2_656 .
O11 Pr1 Pr2 89.24(8) . 2_666
O9 Pr1 Pr2 99.55(7) 2_756 2_666
O4 Pr1 Pr2 167.94(7) . 2_666
O1 Pr1 Pr2 37.01(7) 2_766 2_666
O4 Pr1 Pr2 120.70(7) 2_756 2_666
O2 Pr1 Pr2 36.18(7) 2_656 2_666
O7 Pr1 Pr2 88.93(6) 2_656 2_666
O7 Pr1 Pr2 114.07(6) . 2_666
Si1 Pr1 Pr2 62.50(2) 2_656 2_666
Si1 Pr1 Pr2 143.42(2) . 2_666
O11 Pr1 Ba1 138.53(8) . 2_656
O9 Pr1 Ba1 44.57(7) 2_756 2_656
O4 Pr1 Ba1 42.83(7) . 2_656
O1 Pr1 Ba1 135.78(7) 2_766 2_656
O4 Pr1 Ba1 90.91(7) 2_756 2_656
O2 Pr1 Ba1 106.73(7) 2_656 2_656
O7 Pr1 Ba1 47.29(6) 2_656 2_656
O7 Pr1 Ba1 76.98(6) . 2_656
Si1 Pr1 Ba1 77.52(2) 2_656 2_656
Si1 Pr1 Ba1 56.63(2) . 2_656
Pr2 Pr1 Ba1 128.055(8) 2_666 2_656
O2 Pr2 O10 75.44(10) 1_565 .
O2 Pr2 O1 74.52(11) 1_565 1_455
O10 Pr2 O1 89.07(10) . 1_455
O2 Pr2 O12 77.99(10) 1_565 2_667
O10 Pr2 O12 152.08(10) . 2_667
O1 Pr2 O12 75.67(10) 1_455 2_667
O2 Pr2 O3 84.89(10) 1_565 .
O10 Pr2 O3 87.04(10) . .
O1 Pr2 O3 159.37(10) 1_455 .
O12 Pr2 O3 99.03(10) 2_667 .
O2 Pr2 O3 150.85(10) 1_565 2_667
O10 Pr2 O3 90.68(10) . 2_667
O1 Pr2 O3 131.69(10) 1_455 2_667
O12 Pr2 O3 116.97(9) 2_667 2_667
O3 Pr2 O3 68.65(11) . 2_667
O2 Pr2 O8 147.19(10) 1_565 2_667
O10 Pr2 O8 127.15(10) . 2_667
O1 Pr2 O8 81.79(10) 1_455 2_667
O12 Pr2 O8 74.33(9) 2_667 2_667
O3 Pr2 O8 116.41(9) . 2_667
O3 Pr2 O8 60.67(9) 2_667 2_667
O2 Pr2 O8 121.37(10) 1_565 1_455
O10 Pr2 O8 68.85(10) . 1_455
O1 Pr2 O8 60.35(9) 1_455 1_455
O12 Pr2 O8 119.93(9) 2_667 1_455
O3 Pr2 O8 135.57(9) . 1_455
O3 Pr2 O8 74.72(9) 2_667 1_455
O8 Pr2 O8 61.44(11) 2_667 1_455
O2 Pr2 Si4 99.88(8) 1_565 1_455
O10 Pr2 Si4 80.03(8) . 1_455
O1 Pr2 Si4 30.03(7) 1_455 1_455
O12 Pr2 Si4 96.37(7) 2_667 1_455
O3 Pr2 Si4 164.53(7) . 1_455
O3 Pr2 Si4 102.81(7) 2_667 1_455
O8 Pr2 Si4 66.52(7) 2_667 1_455
O8 Pr2 Si4 30.54(6) 1_455 1_455
O2 Pr2 Si4 171.69(8) 1_565 2_667
O10 Pr2 Si4 112.03(8) . 2_667
O1 Pr2 Si4 108.48(7) 1_455 2_667
O12 Pr2 Si4 95.10(7) 2_667 2_667
O3 Pr2 Si4 91.73(7) . 2_667
O3 Pr2 Si4 30.30(7) 2_667 2_667
O8 Pr2 Si4 30.44(7) 2_667 2_667
O8 Pr2 Si4 66.03(7) 1_455 2_667
Si4 Pr2 Si4 85.35(3) 1_455 2_667
O2 Pr2 Si2 97.33(7) 1_565 2_667
O10 Pr2 Si2 169.82(8) . 2_667
O1 Pr2 Si2 95.96(7) 1_455 2_667
O12 Pr2 Si2 25.01(7) 2_667 2_667
O3 Pr2 Si2 85.15(7) . 2_667
O3 Pr2 Si2 92.55(7) 2_667 2_667
O8 Pr2 Si2 62.56(7) 2_667 2_667
O8 Pr2 Si2 121.33(7) 1_455 2_667
Si4 Pr2 Si2 108.60(3) 1_455 2_667
Si4 Pr2 Si2 74.79(3) 2_667 2_667
O2 Pr2 Pr1 37.59(7) 1_565 2_666
O10 Pr2 Pr1 80.92(7) . 2_666
O1 Pr2 Pr1 36.94(7) 1_455 2_666
O12 Pr2 Pr1 72.80(6) 2_667 2_666
O3 Pr2 Pr1 122.45(7) . 2_666
O3 Pr2 Pr1 165.31(7) 2_667 2_666
O8 Pr2 Pr1 115.46(6) 2_667 2_666
O8 Pr2 Pr1 90.96(6) 1_455 2_666
Si4 Pr2 Pr1 64.01(2) 1_455 2_666
Si4 Pr2 Pr1 144.72(2) 2_667 2_666
Si2 Pr2 Pr1 97.80(2) 2_667 2_666
O4 Si1 O2 110.26(16) . .
O4 Si1 O7 109.95(17) . .
O2 Si1 O7 106.85(17) . .
O4 Si1 O5 107.69(16) . .
O2 Si1 O5 112.13(16) . .
O7 Si1 O5 109.97(16) . .
O4 Si1 Pr1 119.11(12) . 2_656
O2 Si1 Pr1 50.33(11) . 2_656
O7 Si1 Pr1 57.00(12) . 2_656
O5 Si1 Pr1 133.14(12) . 2_656
O4 Si1 Pr1 48.19(10) . .
O2 Si1 Pr1 124.81(12) . .
O7 Si1 Pr1 61.77(12) . .
O5 Si1 Pr1 122.62(11) . .
Pr1 Si1 Pr1 92.27(3) 2_656 .
O4 Si1 Ba1 49.99(11) . 2_656
O2 Si1 Ba1 62.17(11) . 2_656
O7 Si1 Ba1 111.05(12) . 2_656
O5 Si1 Ba1 138.25(11) . 2_656
Pr1 Si1 Ba1 77.89(3) 2_656 2_656
Pr1 Si1 Ba1 72.38(2) . 2_656
O4 Si1 Ba2 150.43(12) . 2_667
O2 Si1 Ba2 99.31(12) . 2_667
O7 Si1 Ba2 59.11(12) . 2_667
O5 Si1 Ba2 58.95(11) . 2_667
Pr1 Si1 Ba2 79.76(3) 2_656 2_667
Pr1 Si1 Ba2 113.54(3) . 2_667
Ba1 Si1 Ba2 157.12(4) 2_656 2_667
O9 Si2 O12 113.03(17) . .
O9 Si2 O13 113.07(16) . .
O12 Si2 O13 106.35(16) . .
O9 Si2 O5 111.89(16) . .
O12 Si2 O5 108.61(16) . .
O13 Si2 O5 103.28(15) . .
O9 Si2 Ba2 55.62(11) . 2_767
O12 Si2 Ba2 58.80(11) . 2_767
O13 Si2 Ba2 116.75(12) . 2_767
O5 Si2 Ba2 139.88(11) . 2_767
O9 Si2 Ba2 106.85(11) . 1_545
O12 Si2 Ba2 54.14(11) . 1_545
O13 Si2 Ba2 140.05(11) . 1_545
O5 Si2 Ba2 61.49(10) . 1_545
Ba2 Si2 Ba2 84.58(3) 2_767 1_545
O9 Si2 Pr2 121.00(12) . 2_667
O12 Si2 Pr2 41.28(10) . 2_667
O13 Si2 Pr2 66.14(11) . 2_667
O5 Si2 Pr2 126.03(11) . 2_667
Ba2 Si2 Pr2 72.16(2) 2_767 2_667
Ba2 Si2 Pr2 92.31(3) 1_545 2_667
O9 Si2 Ba2 152.61(12) . 2_667
O12 Si2 Ba2 94.25(12) . 2_667
O13 Si2 Ba2 53.28(11) . 2_667
O5 Si2 Ba2 58.04(10) . 2_667
Ba2 Si2 Ba2 149.44(4) 2_767 2_667
Ba2 Si2 Ba2 90.70(3) 1_545 2_667
Pr2 Si2 Ba2 77.90(2) 2_667 2_667
O11 Si3 O10 116.96(18) . .
O11 Si3 O13 116.30(16) . .
O10 Si3 O13 105.04(16) . .
O11 Si3 O6 102.11(17) . .
O10 Si3 O6 109.95(16) . .
O13 Si3 O6 105.91(15) . .
O11 Si3 Ba1 73.04(12) . 2_666
O10 Si3 Ba1 79.55(12) . 2_666
O13 Si3 Ba1 164.30(12) . 2_666
O6 Si3 Ba1 58.72(10) . 2_666
O11 Si3 Ba1 60.04(13) . 1_655
O10 Si3 Ba1 161.15(13) . 1_655
O13 Si3 Ba1 91.93(11) . 1_655
O6 Si3 Ba1 56.23(11) . 1_655
Ba1 Si3 Ba1 81.94(3) 2_666 1_655
O11 Si3 Ba1 77.77(13) . .
O10 Si3 Ba1 43.92(11) . .
O13 Si3 Ba1 108.49(11) . .
O6 Si3 Ba1 141.40(11) . .
Ba1 Si3 Ba1 85.37(3) 2_666 .
Ba1 Si3 Ba1 137.80(4) 1_655 .
O11 Si3 Ba2 116.84(13) . 2_667
O10 Si3 Ba2 63.97(12) . 2_667
O13 Si3 Ba2 46.44(11) . 2_667
O6 Si3 Ba2 139.07(11) . 2_667
Ba1 Si3 Ba2 142.91(4) 2_666 2_667
Ba1 Si3 Ba2 134.82(3) 1_655 2_667
Ba1 Si3 Ba2 64.16(2) . 2_667
O8 Si4 O1 108.72(17) . .
O8 Si4 O3 109.25(17) . .
O1 Si4 O3 111.43(16) . .
O8 Si4 O6 107.57(16) . .
O1 Si4 O6 112.08(16) . .
O3 Si4 O6 107.69(16) . .
O8 Si4 Pr2 59.51(12) . 1_655
O1 Si4 Pr2 49.73(11) . 1_655
O3 Si4 Pr2 120.15(12) . 1_655
O6 Si4 Pr2 132.13(12) . 1_655
O8 Si4 Pr2 58.04(12) . 2_667
O1 Si4 Pr2 130.00(12) . 2_667
O3 Si4 Pr2 51.37(11) . 2_667
O6 Si4 Pr2 117.88(12) . 2_667
Pr2 Si4 Pr2 94.65(3) 1_655 2_667
O8 Si4 Ba2 107.17(12) . .
O1 Si4 Ba2 63.11(11) . .
O3 Si4 Ba2 52.13(11) . .
O6 Si4 Ba2 144.31(12) . .
Pr2 Si4 Ba2 74.27(3) 1_655 .
Pr2 Si4 Ba2 75.09(3) 2_667 .
O8 Si4 Ba1 64.27(12) . 1_655
O1 Si4 Ba1 99.40(12) . 1_655
O3 Si4 Ba1 148.55(12) . 1_655
O6 Si4 Ba1 52.20(11) . 1_655
Pr2 Si4 Ba1 84.40(3) 1_655 1_655
Pr2 Si4 Ba1 112.03(3) 2_667 1_655
Ba2 Si4 Ba1 158.14(4) . 1_655
Si4 O1 Pr1 138.47(17) . 2_766
Si4 O1 Pr2 100.24(14) . 1_655
Pr1 O1 Pr2 106.05(11) 2_766 1_655
Si4 O1 Ba2 88.92(13) . .
Pr1 O1 Ba2 121.12(11) 2_766 .
Pr2 O1 Ba2 91.94(9) 1_655 .
Si1 O2 Pr2 136.22(17) . 1_545
Si1 O2 Pr1 99.88(14) . 2_656
Pr2 O2 Pr1 106.23(11) 1_545 2_656
Si1 O2 Ba1 90.02(13) . 2_656
Pr2 O2 Ba1 119.97(11) 1_545 2_656
Pr1 O2 Ba1 97.33(9) 2_656 2_656
Si4 O3 Pr2 128.52(16) . .
Si4 O3 Pr2 98.33(14) . 2_667
Pr2 O3 Pr2 111.35(11) . 2_667
Si4 O3 Ba2 100.21(14) . .
Pr2 O3 Ba2 114.06(11) . .
Pr2 O3 Ba2 99.98(10) 2_667 .
Si1 O4 Pr1 102.51(14) . .
Si1 O4 Pr1 129.49(16) . 2_756
Pr1 O4 Pr1 109.52(11) . 2_756
Si1 O4 Ba1 102.98(14) . 2_656
Pr1 O4 Ba1 99.26(10) . 2_656
Pr1 O4 Ba1 108.97(10) 2_756 2_656
Si2 O5 Si1 123.98(18) . .
Si2 O5 Ba2 89.07(12) . 1_545
Si1 O5 Ba2 138.24(15) . 1_545
Si2 O5 Ba2 94.31(12) . 2_667
Si1 O5 Ba2 92.93(12) . 2_667
Ba2 O5 Ba2 110.82(9) 1_545 2_667
Si4 O6 Si3 123.57(18) . .
Si4 O6 Ba1 135.17(15) . 2_666
Si3 O6 Ba1 91.08(12) . 2_666
Si4 O6 Ba1 101.64(13) . 1_655
Si3 O6 Ba1 95.92(13) . 1_655
Ba1 O6 Ba1 101.88(9) 2_666 1_655
Si1 O7 Pr1 92.73(14) . 2_656
Si1 O7 Pr1 88.13(13) . .
Pr1 O7 Pr1 113.77(11) 2_656 .
Si1 O7 Ba1 175.86(18) . .
Pr1 O7 Ba1 89.83(9) 2_656 .
Pr1 O7 Ba1 93.82(9) . .
Si1 O7 Ba2 93.83(13) . 2_667
Pr1 O7 Ba2 97.93(10) 2_656 2_667
Pr1 O7 Ba2 148.13(12) . 2_667
Ba1 O7 Ba2 82.58(8) . 2_667
Si4 O8 Pr2 91.52(14) . 2_667
Si4 O8 Pr2 89.95(14) . 1_655
Pr2 O8 Pr2 118.56(11) 2_667 1_655
Si4 O8 Ba2 169.25(18) . 2_767
Pr2 O8 Ba2 94.46(9) 2_667 2_767
Pr2 O8 Ba2 95.00(10) 1_655 2_767
Si4 O8 Ba1 89.66(13) . 1_655
Pr2 O8 Ba1 142.32(12) 2_667 1_655
Pr2 O8 Ba1 99.10(10) 1_655 1_655
Ba2 O8 Ba1 80.16(8) 2_767 1_655
Si2 O9 Pr1 127.99(16) . 2_756
Si2 O9 Ba2 96.31(13) . 2_767
Pr1 O9 Ba2 112.47(11) 2_756 2_767
Si2 O9 Ba1 125.70(15) . 1_655
Pr1 O9 Ba1 97.95(10) 2_756 1_655
Ba2 O9 Ba1 89.49(9) 2_767 1_655
Si3 O10 Pr2 118.75(16) . .
Si3 O10 Ba1 111.98(15) . .
Pr2 O10 Ba1 127.21(12) . .
Si3 O11 Pr1 146.71(19) . .
Si3 O11 Ba1 93.51(15) . 1_655
Pr1 O11 Ba1 102.09(11) . 1_655
Si3 O11 Ba1 78.98(12) . 2_666
Pr1 O11 Ba1 129.19(12) . 2_666
Ba1 O11 Ba1 91.04(8) 1_655 2_666
Si2 O12 Pr2 113.71(14) . 2_667
Si2 O12 Ba2 98.02(13) . 1_545
Pr2 O12 Ba2 139.35(12) 2_667 1_545
Si2 O12 Ba2 92.79(13) . 2_767
Pr2 O12 Ba2 96.60(9) 2_667 2_767
Ba2 O12 Ba2 106.94(9) 1_545 2_767
Si2 O13 Si3 134.88(19) . .
Si2 O13 Ba2 99.84(13) . 2_667
Si3 O13 Ba2 109.40(14) . 2_667
loop_
_geom_bond_atom_site_label_1
_geom_bond_atom_site_label_2
_geom_bond_distance
_geom_bond_site_symmetry_2
Ba1 O10 2.703(3) .
Ba1 O4 2.725(3) 2_656
Ba1 O9 2.804(3) 1_455
Ba1 O6 2.837(3) 2_666
Ba1 O7 2.907(3) .
Ba1 O6 2.971(3) 1_455
Ba1 O2 3.066(3) 2_656
Ba1 O11 3.086(3) 1_455
Ba1 O11 3.234(3) 2_666
Ba1 O8 3.318(3) 1_455
Ba1 Si3 3.3187(12) 2_666
Ba1 Si1 3.4673(12) 2_656
Ba2 O8 2.757(3) 2_767
Ba2 O3 2.771(3) .
Ba2 O12 2.773(3) 1_565
Ba2 O9 2.785(3) 2_767
Ba2 O12 2.872(3) 2_767
Ba2 O13 2.912(3) 2_667
Ba2 O5 2.977(3) 1_565
Ba2 O5 3.045(3) 2_667
Ba2 O7 3.053(3) 2_667
Ba2 O1 3.081(3) .
Ba2 Si2 3.3540(12) 2_767
Ba2 Si2 3.3881(12) 1_565
Pr1 O11 2.345(3) .
Pr1 O9 2.431(3) 2_756
Pr1 O4 2.463(3) .
Pr1 O1 2.467(3) 2_766
Pr1 O4 2.491(3) 2_756
Pr1 O2 2.506(3) 2_656
Pr1 O7 2.693(3) 2_656
Pr1 O7 2.844(3) .
Pr1 Si1 3.2072(12) 2_656
Pr1 Si1 3.2264(12) .
Pr1 Pr2 3.9445(3) 2_666
Pr1 Ba1 3.9570(4) 2_656
Pr2 O2 2.425(3) 1_565
Pr2 O10 2.463(3) .
Pr2 O1 2.471(3) 1_455
Pr2 O12 2.493(3) 2_667
Pr2 O3 2.502(3) .
Pr2 O3 2.522(3) 2_667
Pr2 O8 2.711(3) 2_667
Pr2 O8 2.746(3) 1_455
Pr2 Si4 3.1862(12) 1_455
Pr2 Si4 3.1947(12) 2_667
Pr2 Si2 3.4605(12) 2_667
Pr2 Pr1 3.9445(3) 2_666
Si1 O4 1.617(3) .
Si1 O2 1.617(3) .
Si1 O7 1.619(3) .
Si1 O5 1.675(3) .
Si1 Pr1 3.2073(12) 2_656
Si1 Ba1 3.4673(12) 2_656
Si1 Ba2 3.5497(12) 2_667
Si2 O9 1.588(3) .
Si2 O12 1.598(3) .
Si2 O13 1.642(3) .
Si2 O5 1.666(3) .
Si2 Ba2 3.3540(12) 2_767
Si2 Ba2 3.3881(12) 1_545
Si2 Pr2 3.4605(12) 2_667
Si2 Ba2 3.5788(12) 2_667
Si3 O11 1.586(3) .
Si3 O10 1.591(3) .
Si3 O13 1.644(3) .
Si3 O6 1.670(3) .
Si3 Ba1 3.3187(12) 2_666
Si3 Ba1 3.5553(12) 1_655
Si3 Ba2 3.7896(12) 2_667
Si4 O8 1.619(3) .
Si4 O1 1.620(3) .
Si4 O3 1.629(3) .
Si4 O6 1.658(3) .
Si4 Pr2 3.1863(12) 1_655
Si4 Pr2 3.1946(12) 2_667
Si4 Ba1 3.6832(12) 1_655
O1 Pr1 2.467(3) 2_766
O1 Pr2 2.471(3) 1_655
O2 Pr2 2.425(3) 1_545
O2 Pr1 2.506(3) 2_656
O2 Ba1 3.066(3) 2_656
O3 Pr2 2.522(3) 2_667
O4 Pr1 2.491(3) 2_756
O4 Ba1 2.725(3) 2_656
O5 Ba2 2.978(3) 1_545
O5 Ba2 3.045(3) 2_667
O6 Ba1 2.837(3) 2_666
O6 Ba1 2.971(3) 1_655
O7 Pr1 2.693(3) 2_656
O7 Ba2 3.053(3) 2_667
O8 Pr2 2.711(3) 2_667
O8 Pr2 2.746(3) 1_655
O8 Ba2 2.757(3) 2_767
O8 Ba1 3.318(3) 1_655
O9 Pr1 2.431(3) 2_756
O9 Ba2 2.785(3) 2_767
O9 Ba1 2.804(3) 1_655
O11 Ba1 3.086(3) 1_655
O11 Ba1 3.234(3) 2_666
O12 Pr2 2.493(3) 2_667
O12 Ba2 2.773(3) 1_545
O12 Ba2 2.872(3) 2_767
O13 Ba2 2.912(3) 2_667
