#------------------------------------------------------------------------------
#$Date: 2019-12-26 21:24:38 +0200 (Thu, 26 Dec 2019) $
#$Revision: 246104 $
#$URL: file:///home/coder/svn-repositories/cod/cif/2/31/17/2311783.cif $
#------------------------------------------------------------------------------
#
# This file is available in the Crystallography Open Database (COD),
# http://www.crystallography.net/. The original data for this entry
# were provided by IUCr Journals, http://journals.iucr.org/.
#
# The file may be used within the scientific community so long as
# proper attribution is given to the journal article from which the
# data were obtained.
#
data_2311783
loop_
_publ_author_name
'Fulle, Kyle'
'Sanjeewa, Liurukara D.'
'McMillen, Colin D.'
'Kolis, Joseph W.'
_publ_section_title
;
 Crystal chemistry and the role of ionic radius in rare earth
 tetrasilicates:
 Ba<sub>2</sub>RE<sub>2</sub>Si<sub>4</sub>O<sub>12</sub>F<sub>2</sub> (RE
 = Er<sup>3+</sup>-Lu<sup>3+</sup>) and
 Ba<sub>2</sub>RE<sub>2</sub>Si<sub>4</sub>O<sub>13</sub> (RE =
 La<sup>3+</sup>-Ho<sup>3+</sup>).
;
_journal_issue                   'Pt 5'
_journal_name_full
'Acta crystallographica Section B, Structural science, crystal engineering and materials'
_journal_page_first              907
_journal_page_last               915
_journal_paper_doi               10.1107/S2052520617009544
_journal_volume                  73
_journal_year                    2017
_chemical_formula_sum            'Ba2 Ho2 O13 Si4'
_chemical_formula_weight         924.90
_space_group_crystal_system      monoclinic
_space_group_IT_number           15
_space_group_name_Hall           '-C 2yc'
_space_group_name_H-M_alt        'C 1 2/c 1'
_atom_sites_solution_primary     direct
_atom_sites_solution_secondary   difmap
_audit_creation_method           SHELXL-2014/7
_cell_angle_alpha                90
_cell_angle_beta                 103.971(12)
_cell_angle_gamma                90
_cell_formula_units_Z            4
_cell_length_a                   12.8127(7)
_cell_length_b                   5.1934(5)
_cell_length_c                   17.514(3)
_cell_measurement_reflns_used    2892
_cell_measurement_temperature    298(2)
_cell_measurement_theta_max      26.7225
_cell_measurement_theta_min      2.3967
_cell_volume                     1130.9(2)
_computing_cell_refinement       'CrystalClear (Rigaku/MSC, 2008)'
_computing_data_collection       'CrystalClear (Rigaku/MSC, 2008)'
_computing_data_reduction        'CrystalClear (Rigaku/MSC, 2008)'
_computing_molecular_graphics    'DIAMOND (Bradenburg, 1999)'
_computing_publication_material  'SHELXL-2014/7 (Sheldrick, 2014)'
_computing_structure_refinement  'SHELXL-2014/7 (Sheldrick, 2014)'
_computing_structure_solution    'SHELXL-2014/7 (Sheldrick, 2014)'
_diffrn_ambient_temperature      298(2)
_diffrn_detector_area_resol_mean 14.6199
_diffrn_measured_fraction_theta_full 0.997
_diffrn_measured_fraction_theta_max 0.983
_diffrn_measurement_device_type  'Rigaku AFC8S'
_diffrn_measurement_method       '\w scans'
_diffrn_radiation_type           MoK\a
_diffrn_radiation_wavelength     0.71073
_diffrn_reflns_av_R_equivalents  0.0498
_diffrn_reflns_av_unetI/netI     0.0313
_diffrn_reflns_Laue_measured_fraction_full 0.997
_diffrn_reflns_Laue_measured_fraction_max 0.983
_diffrn_reflns_limit_h_max       14
_diffrn_reflns_limit_h_min       -16
_diffrn_reflns_limit_k_max       6
_diffrn_reflns_limit_k_min       -6
_diffrn_reflns_limit_l_max       22
_diffrn_reflns_limit_l_min       -21
_diffrn_reflns_number            4762
_diffrn_reflns_point_group_measured_fraction_full 0.997
_diffrn_reflns_point_group_measured_fraction_max 0.983
_diffrn_reflns_theta_full        25.242
_diffrn_reflns_theta_max         26.707
_diffrn_reflns_theta_min         2.397
_diffrn_source                   'fine-focus sealed tube'
_exptl_absorpt_coefficient_mu    21.208
_exptl_absorpt_correction_T_max  1.0000
_exptl_absorpt_correction_T_min  0.5231
_exptl_absorpt_correction_type   multi-scan
_exptl_absorpt_process_details   'REQAB, CrystalClear'
_exptl_crystal_colour            pink
_exptl_crystal_density_diffrn    5.432
_exptl_crystal_description       block
_exptl_crystal_F_000             1624
_exptl_crystal_size_max          0.270
_exptl_crystal_size_mid          0.250
_exptl_crystal_size_min          0.220
_exptl_transmission_factor_max   1.0000
_exptl_transmission_factor_min   0.5231
_refine_diff_density_max         2.121
_refine_diff_density_min         -3.120
_refine_diff_density_rms         0.449
_refine_ls_extinction_coef       0.0081(3)
_refine_ls_extinction_expression Fc^*^=kFc[1+0.001xFc^2^\l^3^/sin(2\q)]^-1/4^
_refine_ls_extinction_method     'SHELXL-2014/7 (Sheldrick 2014'
_refine_ls_goodness_of_fit_ref   1.130
_refine_ls_hydrogen_treatment    undef
_refine_ls_matrix_type           full
_refine_ls_number_parameters     97
_refine_ls_number_reflns         1182
_refine_ls_number_restraints     0
_refine_ls_restrained_S_all      1.130
_refine_ls_R_factor_all          0.0366
_refine_ls_R_factor_gt           0.0345
_refine_ls_shift/su_max          0.001
_refine_ls_shift/su_mean         0.000
_refine_ls_structure_factor_coef Fsqd
_refine_ls_weighting_details
'w=1/[\s^2^(Fo^2^)+(0.0790P)^2^+31.2028P] where P=(Fo^2^+2Fc^2^)/3'
_refine_ls_weighting_scheme      calc
_refine_ls_wR_factor_gt          0.1004
_refine_ls_wR_factor_ref         0.1026
_reflns_Friedel_coverage         0.000
_reflns_number_gt                1104
_reflns_number_total             1182
_reflns_threshold_expression     'I > 2\s(I)'
_cod_data_source_file            rm5005sup1.cif
_cod_data_source_block           Ho
_cod_original_sg_symbol_H-M      'C 2/c'
_cod_database_code               2311783
_shelx_shelxl_version_number     2014/7
_shelx_space_group_comment
;
The symmetry employed for this shelxl refinement is uniquely defined
by the following loop, which should always be used as a source of
symmetry information in preference to the above space-group names.
They are only intended as comments.
;
_shelx_estimated_absorpt_t_min   0.110
_shelx_estimated_absorpt_t_max   0.174
_shelx_res_file
;

    c2c.res created by SHELXL-2014/7


TITL c2c in C2/c
CELL 0.71073  12.8127   5.1934  17.5138  90.000 103.971  90.000
ZERR    4.00   0.0007   0.0005   0.0025   0.000   0.012   0.000
LATT  7
SYMM -X, Y, 0.5-Z
SFAC O SI BA HO
UNIT 52 16 8 8

L.S. 20
BOND
FMAP 2
PLAN 20
acta
WGHT    0.059700   20.014700
EXTI    0.008143
FVAR       0.12200
HO1   4    0.886785    0.010470    0.415975    11.00000    0.01000    0.00855 =
         0.00598    0.00006    0.00432   -0.00013
BA1   3    0.662555    0.494727    0.332999    11.00000    0.01241    0.01036 =
         0.00835   -0.00093    0.00462   -0.00184
SI1   2    0.880251   -0.468054    0.542342    11.00000    0.01031    0.00819 =
         0.00797   -0.00055    0.00424   -0.00012
SI2   2    1.062447   -0.544878    0.682671    11.00000    0.01236    0.00824 =
         0.00793   -0.00013    0.00574    0.00023
O1    1    0.979487   -0.646270    0.598765    11.00000    0.01742    0.00757 =
         0.01042   -0.00019    0.00444    0.00101
O2    1    0.791134   -0.456403    0.593965    11.00000    0.01245    0.01555 =
         0.01081   -0.00189    0.00700    0.00070
O3    1    0.929513   -0.177447    0.536780    11.00000    0.01431    0.00777 =
         0.00948    0.00124    0.00180   -0.00235
O4    1    0.842841   -0.602435    0.458256    11.00000    0.01465    0.01226 =
         0.01042   -0.00226    0.00383    0.00190
O5    1    0.500000    0.141095    0.250000    10.50000    0.02290    0.00851 =
         0.00673    0.00000    0.00962    0.00000
O6    1    0.918725    0.242532    0.312457    11.00000    0.02273    0.01380 =
         0.01326   -0.00247    0.00862   -0.00369
O7    1    0.835468   -0.268630    0.308178    11.00000    0.01357    0.01350 =
         0.01622    0.00055    0.00553    0.00225

HKLF 4

REM  c2c in C2/c
REM R1 =  0.0345 for    1104 Fo > 4sig(Fo)  and  0.0366 for all    1182 data
REM     97 parameters refined using      0 restraints

END

WGHT      0.0522     16.9373

REM Highest difference peak  2.121,  deepest hole -3.120,  1-sigma level  0.449
Q1    1   0.8605  0.0156  0.5370  11.00000  0.05    2.12
Q2    1   0.5623  0.5024  0.3316  11.00000  0.05    1.70
Q3    1   0.7032  0.5011  0.2794  11.00000  0.05    1.47
Q4    1   0.8772 -0.5244  0.4082  11.00000  0.05    1.44
Q5    1   0.9369 -0.0004  0.3708  11.00000  0.05    1.31
Q6    1   0.8714 -0.4933  0.6332  11.00000  0.05    1.25
Q7    1   0.5596  0.0070  0.2487  11.00000  0.05    1.22
Q8    1   0.9006 -0.0010  0.2815  11.00000  0.05    1.21
Q9    1   0.9025 -0.4655  0.6474  11.00000  0.05    1.19
Q10   1   0.7153 -0.4879  0.5901  11.00000  0.05    1.18
Q11   1   0.8929 -0.4888  0.5007  11.00000  0.05    1.14
Q12   1   0.8994 -0.0043  0.5083  11.00000  0.05    1.06
Q13   1   0.9853 -0.5022  0.6995  11.00000  0.05    1.03
Q14   1   0.8427 -0.3792  0.4518  11.00000  0.05    1.02
Q15   1   0.8374 -0.0157  0.4612  11.00000  0.05    0.98
Q16   1   0.9773  0.0253  0.3235  11.00000  0.05    0.98
Q17   1   0.7202  0.5852  0.3889  11.00000  0.05    0.96
Q18   1   0.7962 -0.0094  0.2896  11.00000  0.05    0.96
Q19   1   0.9798 -0.0925  0.4327  11.00000  0.05    0.95
Q20   1   0.8346 -0.5829  0.6648  11.00000  0.05    0.95
;
_shelx_res_checksum              55687
_shelx_hkl_file
;
   0   0  -2   91.76    7.03
   0   0  -2  114.29    2.93
   0   0   3   -2.51    2.41
   0   0   3    0.54    0.61
   0   0  -3   -0.26    1.02
   0   0   4  992.12   21.14
   0   0  -4 1280.39   25.97
   0   0   5    2.79    1.67
   0   0   5    5.12    3.58
   0   0   5    2.00    0.87
   0   0  -5    0.25    0.99
   0   0   6   69.58    6.70
   0   0   6   70.67    6.78
   0   0   6   77.58    6.34
   0   0  -6   83.86   10.23
   0   0   7    6.17    3.00
   0   0   8 1960.37   40.92
   0   0   8 2291.19   47.09
   0   0   8 2390.66   48.37
   0   0  -8 2365.31   47.70
   0   0   9   -0.16    1.56
   0   0   9    6.29    2.32
   0   0  -9    0.86    0.58
   0   0  10   74.75    5.24
   0   0  10   90.07    5.05
   0   0  10   92.03    4.49
   0   0 -10   92.15   12.93
   0   0  11    4.33    3.12
   0   0  12 2735.53   72.55
   0   0  12 2894.29   23.08
   0   0  12 2762.53   73.23
   0   0  13    2.32    2.63
   0   0  13   14.50    2.09
   0   0 -13    4.83    2.31
   0   0  14  380.52   16.18
   0   0  14  401.28   16.78
   0   0  14  385.36   16.10
   0   0 -14  379.76   16.13
   0   0  15    3.32    3.54
   0   0  15    8.26    2.70
   0   0  16  862.06   32.19
   0   0  16  804.78   29.77
   0   0  16  817.15   30.55
   0   0  17    3.06    1.56
   0   0  17    3.51    2.00
   0   0  17    4.95    2.33
   0   0 -17    6.98    3.47
   0   0  18  184.24   13.43
   0   0  18  187.43    9.81
   0   0  18  164.61   20.94
   0   0 -18  193.01   11.28
   0   0 -19   15.07    3.98
   0   0  20  271.24   15.68
   0   0  20  340.96   18.73
   0   0 -20  349.09   20.82
   0   0  21    1.64    2.60
  -2   0  20 1824.29   57.87
  -2   0  20 1557.12   48.83
  -2   0  20 1470.09   46.75
  -2   0  19    1.83    9.94
  -2   0  18   80.19    6.41
  -2   0  18   85.57    6.23
  -2   0  18   81.78   19.37
   2   0 -18   79.57    6.62
  -2   0  17    8.10    1.93
  -2   0  16 2813.86   26.64
  -2   0  15    5.27    2.05
  -2   0  14   75.87    6.46
  -2   0  14   77.18    6.38
  -2   0  14   90.33   16.42
   2   0 -14  100.71   12.35
  -2   0  13   -0.56    1.84
  -2   0  13    0.35    2.44
  -2   0  13    1.78    0.92
   2   0 -13    5.28    2.89
  -2   0  12   12.01    4.05
  -2   0  12    8.94    2.46
  -2   0  12   14.03    3.05
   2   0 -12   24.48    3.84
  -2   0  11    3.32    1.46
  -2   0  11    2.51    2.29
  -2   0  11    3.66    2.03
   2   0 -11    3.21    2.46
  -2   0  10  119.64   11.15
  -2   0  10  117.83    6.23
  -2   0  10  115.01    5.44
   2   0 -10  130.16    6.53
  -2   0   9    3.32    1.76
  -2   0   9    5.04    1.60
  -2   0   8 2631.56   54.43
  -2   0   8 2812.48   57.52
   2   0  -8 3132.40   21.21
  -2   0   7    1.13    2.92
  -2   0   7   -0.40    2.87
  -2   0   7    1.90    0.90
   2   0  -7    3.30    2.62
  -2   0   6  305.78    9.27
   2   0  -6  268.42    8.44
  -2   0   6  269.78    8.88
   2   0  -6  329.92    9.22
  -2   0   5   34.20    6.83
   2   0  -5    8.52    3.39
  -2   0   5   17.34    4.41
  -2   0   4 1448.46   31.22
   2   0  -4 1389.49   30.14
   2   0  -3   23.10    6.05
  -2   0   2  291.71    7.35
   2   0  -2  311.73    8.36
  -2   0   1    0.03    1.17
   2   0  -1    1.00    2.49
  -2   0   0   28.08    2.29
   2   0   0   27.66    2.97
  -2   0  -2  100.40    2.35
   2   0   3    1.84    0.50
   2   0   3    3.80    1.02
  -2   0  -3    5.50    2.06
   2   0   4 1144.49   22.58
   2   0   4 1229.61   24.66
  -2   0  -4 1148.32   23.25
   2   0   5    3.72    1.28
   2   0   5    0.59    1.73
   2   0   5    4.34    0.90
  -2   0  -5    4.49    1.60
   2   0   6  486.52   10.77
   2   0   6  434.18   10.49
   2   0   6  513.11   11.65
  -2   0  -6  514.99   12.01
   2   0   7    2.04    2.35
  -2   0  -7    2.54    2.22
   2   0   8 2941.80   17.47
   2   0   9    7.02    8.31
  -2   0  -9    0.90    1.08
   2   0  10  874.34   24.38
   2   0  10  782.70   22.26
   2   0  10  863.94   24.24
  -2   0 -10  883.70   25.14
   2   0  11   10.40    3.05
  -2   0 -11    0.84    1.33
   2   0  12  210.07    9.41
   2   0  12  169.65    7.85
   2   0  12  171.00    7.80
  -2   0 -12  186.18   10.74
   2   0  13   -0.10    1.36
   2   0  13    7.05    2.78
   2   0  13    3.61    1.69
  -2   0 -13    0.94    1.75
   2   0  14   41.90    5.27
   2   0  14   29.05    2.84
   2   0  14   26.00    5.58
  -2   0 -14   35.75    4.64
  -2   0 -15    9.76    2.21
   2   0  16 1504.75   33.31
   2   0  16 1561.87   35.04
  -2   0 -16 1626.59   37.22
   2   0  17   44.51    3.77
   2   0  18  487.49   20.02
  -2   0 -18  506.38   21.43
  -4   0  22 1199.20   72.88
  -4   0  21    2.27    5.72
  -4   0  20  490.92   19.08
  -4   0  20  492.12   18.38
  -4   0  20  510.21   42.64
  -4   0  19    0.55    2.19
  -4   0  18  682.88   30.82
  -4   0  18  668.59   29.83
  -4   0  18  620.46   27.47
  -4   0  17    2.57    2.79
  -4   0  17    4.57    1.41
  -4   0  16  276.96   22.95
  -4   0  15    3.64    2.55
  -4   0  15   -0.25    1.66
  -4   0  14  777.15   30.23
  -4   0  14  740.19   28.40
  -4   0  13    4.85    2.68
  -4   0  13    1.41    1.30
  -4   0  12 1126.91   32.80
  -4   0  12 1222.32   35.00
  -4   0  12 1182.02   33.17
  -4   0  11    2.13    1.53
  -4   0  10 1950.18   52.83
  -4   0  10 1900.86   50.56
  -4   0   9    1.03    1.37
  -4   0   8 1852.58   50.38
  -4   0   8 1946.87   52.61
  -4   0   8 1913.91   50.34
  -4   0   7   -0.36   20.11
  -4   0   7    2.27    2.42
  -4   0   6   50.31    5.66
   4   0  -6   48.37    5.13
  -4   0   6   48.15    4.73
  -4   0   5    7.32    3.48
   4   0  -5    4.29    3.20
  -4   0   4   30.42    4.29
   4   0  -4   34.68    4.76
  -4   0   3   14.07    4.61
   4   0  -3    4.72    3.76
  -4   0   2  443.32   11.41
   4   0  -2  428.28   10.90
  -4   0   1    5.53    3.05
   4   0  -1   -2.63    2.35
  -4   0  -1   20.78    3.50
  -4   0  -1   13.28    1.28
  -4   0  -2 2070.47   40.69
  -4   0  -3    6.58    2.20
  -4   0  -4 1901.59   38.29
  -4   0  -5    1.16    1.12
   4   0   6  284.43    7.59
   4   0   6  300.34    8.07
  -4   0  -6  280.07    8.99
   4   0   7    5.25    0.96
  -4   0  -7    6.71    1.70
   4   0   8  938.57   24.58
   4   0   8  915.36   24.02
  -4   0  -8  968.23   27.02
   4   0   9    0.80    0.45
   4   0   9    1.07    5.17
  -4   0  -9    1.25    1.40
   4   0  10 1194.18   40.23
   4   0  10 1162.38   39.10
   4   0  10 1203.15   41.44
  -4   0 -10 1279.70   44.65
   4   0  11   13.52   13.49
  -4   0 -11   -0.38    1.07
   4   0  12 1723.15   61.12
   4   0  12 1864.66   65.93
   4   0  12 1739.08   62.52
  -4   0 -12 1793.45   64.96
   4   0  13   -1.05    3.59
   4   0  13    4.80   10.36
  -4   0 -13    2.85    1.79
   4   0  14  789.52   28.19
   4   0  14  794.25   28.15
  -4   0 -14  742.01   28.16
   4   0  15   -0.16    1.28
  -4   0 -15    2.71    2.84
   4   0  16  855.28   33.41
   4   0  16  918.59   35.49
  -4   0 -16  862.19   35.40
   4   0  17    0.69    0.90
  -4   0 -17    2.30    2.23
   4   0  18   45.07   10.05
   4   0  18   57.99    4.25
  -4   0 -18   52.08    5.41
   4   0  19    1.57    1.00
  -6   0  21   -1.39    1.66
  -6   0  20  474.98   25.68
  -6   0  20  454.99   24.32
  -6   0  20  419.94   22.20
  -6   0  19    3.66    2.30
  -6   0  18 1680.53   65.69
  -6   0  18 1632.73   63.50
  -6   0  18 1648.77   63.59
  -6   0  17    3.89    2.16
  -6   0  16 1545.79   55.13
  -6   0  16 1535.06   54.03
  -6   0  15    1.40    2.81
  -6   0  15    1.38    1.38
  -6   0  14 2073.91   75.25
  -6   0  14 2354.07   84.20
  -6   0  13    0.62    0.95
  -6   0  12  128.70   15.83
  -6   0  12  159.21    8.53
  -6   0  12  119.11    8.14
  -6   0  11    3.73    1.94
  -6   0  11    9.24    4.17
  -6   0  11    3.36    1.53
  -6   0  10   23.24    6.03
  -6   0  10    2.81    2.70
  -6   0  10    1.99    1.43
  -6   0   9    3.89    2.15
  -6   0   9    4.09    2.11
  -6   0   8 1946.74   53.07
  -6   0   8 1801.51   49.07
  -6   0   8 1975.02   52.25
  -6   0   7    0.35    4.69
  -6   0   7    7.23   18.58
  -6   0   6 2224.19   59.63
  -6   0   6 1955.88   52.31
  -6   0   5    2.95    2.90
  -6   0   4 1524.05   32.38
  -6   0   3    2.85    1.93
  -6   0   2 1895.55   38.91
  -6   0   2 1900.94   38.42
  -6   0   1    1.17    0.70
  -6   0   1   -1.17    1.08
  -6   0   0  160.81    4.64
  -6   0   0  214.08    5.43
  -6   0  -1    9.77    1.92
  -6   0  -1    5.54    0.91
  -6   0  -2   29.37    1.69
  -6   0  -2   27.60    1.80
  -6   0  -3    4.22    1.25
  -6   0  -4 1075.53   29.04
  -6   0  -5    0.29    1.56
  -6   0  -6  719.20   20.40
  -6   0  -7    3.77    1.72
  -6   0  -8 1665.83   56.99
  -6   0  -9    0.33    1.31
  -6   0 -10 1638.27   59.54
   6   0  11    1.01    0.43
   6   0  11   -0.22    0.27
  -6   0 -11   -1.80    1.96
   6   0  12  128.22    4.82
   6   0  12  132.90    4.90
  -6   0 -12  117.87   10.06
   6   0  13    1.15    0.74
   6   0  13    0.17    0.37
  -6   0 -13   -0.16    1.59
   6   0  14  172.16    7.18
   6   0  14  150.07    6.14
  -6   0 -14  144.37    8.46
   6   0  15    0.33    0.48
   6   0  15    0.13    0.43
  -6   0 -15    1.94    4.86
  -6   0 -16  431.75   23.55
  -6   0 -17    9.33    2.93
  -8   0  20   31.49    6.65
  -8   0  20   39.57    4.19
  -8   0  19    3.85    1.89
  -8   0  19    1.06    2.29
  -8   0  19    0.51    0.80
  -8   0  18 1015.13   38.31
  -8   0  18 1020.96   38.10
  -8   0  18 1020.46   37.19
  -8   0  17    1.43    1.59
  -8   0  17   -0.80    2.85
  -8   0  17   -0.42    1.48
  -8   0  16  204.95   11.43
  -8   0  16  226.59   12.38
  -8   0  16  214.99   11.00
  -8   0  15    0.32    1.48
  -8   0  15   -1.66    2.68
  -8   0  15   -0.89    1.57
  -8   0  14  445.89   18.45
  -8   0  14  444.78   18.38
  -8   0  14  430.31   18.20
  -8   0  13   -1.26    1.63
  -8   0  13    1.64    4.29
  -8   0  13    0.65    1.04
  -8   0  12  226.03   17.87
  -8   0  12  254.14   12.18
  -8   0  12  240.16   10.55
  -8   0  11    0.48    0.98
  -8   0  11   -1.06    4.44
  -8   0  11    0.29    1.26
  -8   0  10 2600.77   88.95
  -8   0  10 2524.57   85.82
  -8   0  10 2640.06   88.66
  -8   0   9   -0.30    2.49
  -8   0   9   -0.70    2.57
  -8   0   9    6.26    3.18
  -8   0   8   10.05    2.54
  -8   0   8   11.37    3.98
  -8   0   7   -0.74    4.20
  -8   0   7   -0.75   11.70
  -8   0   6 1658.22   45.42
  -8   0   6 1601.94   43.79
  -8   0   5    0.53    1.74
  -8   0   4    9.63    2.06
  -8   0   4   11.01    2.50
  -8   0   3   -0.39    1.34
  -8   0   3   -1.52    1.50
  -8   0   2  125.44    5.15
  -8   0   2  155.38    5.85
  -8   0   1    0.09    0.50
  -8   0   1    1.65    1.57
  -8   0   0  338.51   10.11
  -8   0   0  390.20   10.94
  -8   0  -1    1.70    0.46
  -8   0  -1    4.88    1.10
  -8   0  -2 2875.22    7.05
  -8   0  -2 2861.78   74.04
  -8   0  -3    0.27    1.22
  -8   0  -4  342.41   13.14
  -8   0  -5    0.48    0.63
  -8   0  -6 1919.38   68.44
  -8   0  -7    1.07    0.99
  -8   0  -8    8.74    2.05
  -8   0 -11   -2.96    1.81
  -8   0 -12  208.92   16.90
  -8   0 -13    4.32   10.99
  -8   0 -14 1734.98   84.90
  -8   0 -15    1.92    1.13
 -10   0  19   -0.94    2.33
 -10   0  19    0.33    0.98
 -10   0  18 1088.48   54.57
 -10   0  18 1098.22   54.73
 -10   0  18 1082.88   53.20
 -10   0  17   -1.14    2.01
 -10   0  17    0.94    1.27
 -10   0  16    7.44    2.21
 -10   0  16    1.03    1.85
 -10   0  16    7.94    1.58
 -10   0  15    1.47    0.98
 -10   0  15   -2.50    2.21
 -10   0  15    0.85    0.78
 -10   0  14 3170.16  203.36
 -10   0  14 3121.69   65.47
 -10   0  14 3078.33   62.54
 -10   0  13   -1.16    1.78
 -10   0  13    1.10    2.37
 -10   0  13    1.40    1.29
 -10   0  12    6.35    1.49
 -10   0  12    5.26    3.27
 -10   0  12    1.09    1.31
 -10   0  11    0.67    0.97
 -10   0  11   -1.24    2.10
 -10   0  11   -0.32    1.44
 -10   0  10  174.66    9.04
 -10   0  10  177.13    9.43
 -10   0  10  183.58    9.10
 -10   0   9   -0.18    1.74
 -10   0   9    4.18    3.11
 -10   0   8   13.97    3.85
 -10   0   8   14.58    3.46
 -10   0   7    1.66    0.87
 -10   0   7    2.62    2.63
 -10   0   6 2643.49   94.05
 -10   0   6 2391.37   85.37
 -10   0   5    0.15    0.69
 -10   0   5   -0.09    1.89
 -10   0   4   16.24    4.21
 -10   0   4   24.74    3.03
 -10   0   3   -0.27    1.27
 -10   0   3    1.42    1.53
 -10   0   2 2018.85   67.84
 -10   0   2 2058.77   68.88
 -10   0   1    0.46    0.72
 -10   0   1    1.25    1.09
 -10   0   0   35.25    6.04
 -10   0   0   14.51    1.55
 -10   0  -1    1.45    0.70
 -10   0  -1    0.42    0.56
 -10   0  -1    2.83    1.63
 -10   0  -2   22.97    1.24
 -10   0  -2   24.09    1.30
 -10   0  -2   18.51    4.19
 -10   0  -3    3.00    1.09
 -10   0  -4  110.81    5.88
 -10   0  -5   -0.47    1.09
 -10   0  -6 1116.19   39.57
 -10   0  -7    0.40    1.58
 -10   0  -8  106.69   10.21
 -10   0 -10 1750.15   62.37
 -10   0 -11    1.42    0.82
 -10   0 -12   72.37   18.56
 -10   0 -13    0.59    1.24
 -12   0  18  865.70   52.03
 -12   0  17   -1.75    2.54
 -12   0  17   -0.57    1.27
 -12   0  16  580.74   30.56
 -12   0  16  551.00   28.99
 -12   0  16  549.57   27.77
 -12   0  15   -0.72    1.92
 -12   0  15    0.85    2.01
 -12   0  15    0.05    0.71
 -12   0  14   89.87    9.51
 -12   0  14   97.41    6.45
 -12   0  14   97.64    9.24
 -12   0  13   -1.22    1.62
 -12   0  13   -0.71    2.09
 -12   0  13    0.40    1.11
 -12   0  12    1.90    1.12
 -12   0  12    3.17    2.12
 -12   0  12    2.05    1.21
 -12   0  11   -0.36    1.34
 -12   0  11    1.52   19.82
 -12   0  11    0.39    1.45
 -12   0  10 1735.75   39.22
 -12   0  10 1643.02   37.15
 -12   0   9   -1.25    2.49
 -12   0   9   -1.86    2.58
 -12   0   8  402.86   12.49
 -12   0   8  411.26   12.93
 -12   0   7    0.47    0.70
 -12   0   7   -1.42    1.95
 -12   0   6 1583.70   55.51
 -12   0   6 1551.62   54.64
 -12   0   5    1.64    0.85
 -12   0   5   -0.90    1.55
 -12   0   4  331.44   13.38
 -12   0   4  361.06   14.25
 -12   0   3   -0.21    1.02
 -12   0   3    2.62    1.68
 -12   0   2   45.68    7.20
 -12   0   2   47.42    3.66
 -12   0   1    0.54    0.53
 -12   0   1   -0.06    0.78
 -12   0   0    8.46    1.61
 -12   0   0    7.43    0.94
 -12   0   0    9.66    1.51
 -12   0  -1    1.01    0.57
 -12   0  -1    0.61    0.41
 -12   0  -1   -0.12    0.84
 -12   0  -2 1679.47   35.78
 -12   0  -3    0.32    0.82
 -12   0  -4  226.62   10.63
 -12   0  -6 1623.84   57.41
 -12   0  -7    2.55    1.23
 -12   0  -8  100.73   10.35
 -12   0  -9    0.92    1.26
 -12   0 -10    7.00    2.26
 -14   0  15   -3.64    2.10
 -14   0  14 1885.87  112.05
 -14   0  14 2085.34  123.77
 -14   0  14 1859.33  109.32
 -14   0  13   -6.99    2.91
 -14   0  13    2.54    3.02
 -14   0  13    2.43    1.72
 -14   0  12  737.38   37.71
 -14   0  12  828.57   42.26
 -14   0  12  735.49   36.49
 -14   0  11   -1.66    2.31
 -14   0  11   -0.03    2.46
 -14   0  11    3.80    2.01
 -14   0  10  605.43   21.46
 -14   0  10  653.36   23.40
 -14   0   9    0.62    1.10
 -14   0   9    3.89    2.78
 -14   0   8  100.40   11.86
 -14   0   8  111.93    7.07
 -14   0   7    1.28    1.03
 -14   0   7    1.37    1.69
 -14   0   6  847.78   31.69
 -14   0   6  754.46   28.04
 -14   0   5    0.84    0.89
 -14   0   5    1.10    1.23
 -14   0   4  617.94   23.17
 -14   0   4  619.75   23.04
 -14   0   3    1.75    0.84
 -14   0   3    2.56    1.78
 -14   0   2 1446.94   49.94
 -14   0   2 1476.65   50.75
 -14   0   2 1362.61   47.72
 -14   0   1    0.21    0.40
 -14   0   1    0.31    0.63
 -14   0   1    0.09    0.94
 -14   0   0  452.39   13.66
 -14   0   0  417.28   14.67
 -14   0  -1    0.87    0.56
 -14   0  -4    7.46    1.66
 -14   0  -5    1.43    1.37
 -14   0  -6  159.62   27.36
 -16   0   8 1012.38   60.99
 -16   0   7    1.54    1.12
 -16   0   5    0.62    0.71
 -16   0   5    1.36    1.13
 -16   0   4  607.84   36.84
 -16   0   4  546.81   33.01
 -15   1  -1   -0.48    0.93
 -15   1   0  701.96   42.29
 -15   1   1   -0.61    0.78
 -15   1   1    2.34    1.23
 -15   1   1   -0.29    0.62
 -15   1   2  352.35   21.78
 -15   1   2  356.51   21.70
 -15   1   2  335.65   20.62
 -15   1   3    4.11    1.61
 -15   1   3    1.21    0.43
 -15   1   4   27.74    7.68
 -15   1   4   34.50    2.53
 -15   1   4   33.67    4.85
 -15   1   5    3.60    1.06
 -15   1   5    6.89    2.27
 -15   1   5    2.98    0.90
 -15   1   6  219.99   14.64
 -15   1   6  218.18   14.43
 -15   1   7    1.43    1.26
 -15   1   7    1.40    1.39
 -15   1   7    2.93    0.95
 -15   1   8  631.57   38.65
 -15   1   8  626.80   38.47
 -15   1   8  689.71   40.40
 -15   1   9   -2.11    1.31
 -15   1   9    1.50    1.73
 -15   1  10  556.04   34.44
 -15   1  10  633.47   39.46
 -15   1  11    2.49    1.18
 -15   1  12  716.08   44.43
 -13   1  -8  237.59   16.42
 -13   1  -7    2.16    1.24
 -13   1  -5   -0.65    1.41
 -13   1  -4   24.45    4.94
 -13   1  -3    0.88    0.45
 -13   1  -2  108.99    5.26
 -13   1  -2  100.55    3.74
 -13   1  -2  102.00    7.50
 -13   1  -1    0.90    0.55
 -13   1  -1    3.08    0.66
 -13   1  -1    2.04    1.03
 -13   1   0   84.53    9.81
 -13   1   0  101.12    4.74
 -13   1   0   92.01    6.77
 -13   1   1   16.93    6.71
 -13   1   1   31.87    2.32
 -13   1   1   23.81    4.80
 -13   1   2  508.53   20.84
 -13   1   2  543.95   21.50
 -13   1   2  469.35   18.70
 -13   1   3    0.14    0.57
 -13   1   3    1.17    1.47
 -13   1   3   -0.39    0.59
 -13   1   4  381.78   17.73
 -13   1   4  361.86   16.27
 -13   1   4  337.23   14.68
 -13   1   5   -0.57    3.53
 -13   1   5   -0.74    1.31
 -13   1   5    0.80    0.37
 -13   1   6 1891.43   78.40
 -13   1   6 1746.96   72.14
 -13   1   6 1606.94   64.98
 -13   1   7    6.42    3.81
 -13   1   7    9.66    2.38
 -13   1   7    7.21    1.17
 -13   1   8  131.16    7.66
 -13   1   8  144.24    8.71
 -13   1   8  153.40    6.57
 -13   1   9    8.73    3.94
 -13   1   9   11.45    2.68
 -13   1   9   11.58    2.24
 -13   1  10  521.50   21.20
 -13   1  10  481.97   19.90
 -13   1  10  531.13   18.85
 -13   1  11    0.25    0.96
 -13   1  11    2.06    2.15
 -13   1  11    0.63    0.34
 -13   1  12  196.29   11.55
 -13   1  12  183.95    9.52
 -13   1  12  188.16    6.89
 -13   1  13    0.32    1.03
 -13   1  13    1.66    2.99
 -13   1  13    1.55    0.57
 -13   1  14  816.47   41.58
 -13   1  14  858.63   43.63
 -13   1  15    3.49    2.18
 -13   1  15   -0.99    2.03
 -13   1  15    3.42    0.91
 -13   1  16  273.15   22.68
 -13   1  16  302.71   18.59
 -11   1 -10 1187.36   71.65
 -11   1  -9   -2.23    1.80
 -11   1  -8    4.36    1.40
 -11   1  -7    4.46    1.78
 -11   1  -6    6.31    1.23
 -11   1  -5    5.22    2.58
 -11   1  -4  154.09    7.84
 -11   1  -3    3.52    0.60
 -11   1  -3    4.21    0.51
 -11   1  -3    4.37    1.23
 -11   1  -2 2336.26   14.03
 -11   1  -2 2247.56   75.25
 -11   1  -2 2498.72   19.46
 -11   1  -1    3.55    1.11
 -11   1  -1    4.41    1.37
 -11   1   0  128.31    5.46
  11  -1   0  152.32    7.36
 -11   1   0  120.57    5.65
 -11   1   1   11.08    1.95
  11  -1  -1    4.92    2.30
 -11   1   1   10.52    2.29
 -11   1   2 2647.89  135.11
  11  -1  -2 2928.93  150.05
 -11   1   2 2473.36   88.55
 -11   1   3    0.85    1.18
  11  -1  -3   -0.76    2.26
 -11   1   3    1.47    0.57
 -11   1   4   64.64    4.14
  11  -1  -4   68.83    5.16
 -11   1   4   54.69    3.71
 -11   1   5    4.17    2.47
  11  -1  -5   -2.04    2.07
 -11   1   6  270.91   12.42
  11  -1  -6  270.18   12.73
 -11   1   7   18.11    3.23
  11  -1  -7   18.04    3.50
 -11   1   7   21.12    2.76
 -11   1   8  146.15    7.95
  11  -1  -8  148.60    8.58
 -11   1   8  143.84    5.86
 -11   1   9    4.08    2.35
  11  -1  -9   13.08    4.34
 -11   1   9   11.05    2.41
 -11   1  10 2392.26   14.67
 -11   1  11   13.74    3.02
  11  -1 -11   12.13    3.38
 -11   1  11   12.69    2.12
 -11   1  12  199.10   11.46
 -11   1  12  187.70    8.89
 -11   1  13    0.42    2.20
 -11   1  13   -5.73    2.78
 -11   1  14 1377.08   54.81
 -11   1  14 1392.72   55.20
 -11   1  14 1328.70   50.55
 -11   1  15   -0.44    1.98
 -11   1  15   -1.97    5.01
 -11   1  15    0.61    0.56
 -11   1  16   20.59    3.97
 -11   1  16   26.14    4.17
 -11   1  16   18.71    4.59
 -11   1  17    6.04    2.09
 -11   1  17   14.44    3.81
 -11   1  17    7.49    1.71
 -11   1  18    2.46    2.28
  -9   1 -14  467.52   30.39
  -9   1 -13    3.27    2.44
  -9   1 -12   78.15    6.09
  -9   1 -11    1.49    1.55
  -9   1 -10  745.28   30.97
  -9   1  -9   22.35    5.50
  -9   1  -8    8.70    1.49
  -9   1  -7    3.32    1.06
  -9   1  -6 2350.45   85.91
  -9   1  -5   39.97    9.14
   9  -1   4  192.67    7.63
  -9   1  -4  244.33   10.79
  -9   1  -3    9.48    1.04
   9  -1   3    7.21    1.63
  -9   1  -3    7.65    1.34
  -9   1  -2  479.13   16.42
   9  -1   2  514.61   18.40
  -9   1  -2  491.58   17.98
  -9   1  -1   53.50    2.70
   9  -1   1   49.94    3.65
  -9   1  -1   48.60    3.91
  -9   1   0   70.86    3.51
   9  -1   0   66.92    4.28
  -9   1   0   59.66    5.39
  -9   1   1    1.95    1.39
   9  -1  -1    1.82    3.25
  -9   1   1    1.35    0.70
  -9   1   2  634.54   22.21
   9  -1  -2  640.73   23.45
  -9   1   2  625.56   21.51
  -9   1   3    7.31    1.35
   9  -1  -3    5.43    2.56
  -9   1   3    8.04    1.22
  -9   1   4    8.41    2.01
   9  -1  -4   10.13    3.02
  -9   1   5    1.49    1.87
  -9   1   6 2169.20   73.42
  -9   1   6 2422.78   80.21
  -9   1   7    6.71    1.89
   9  -1  -7   10.43    3.54
  -9   1   7   11.45    1.44
  -9   1   8  197.68    9.55
   9  -1  -8  179.52    9.40
  -9   1   8  193.72    7.53
  -9   1   9   84.01    6.53
   9  -1  -9   95.81   11.93
  -9   1   9   88.26    5.29
  -9   1  10 1268.23   47.42
   9  -1 -10 1356.07   50.70
  -9   1  10 1382.59   49.44
  -9   1  11   -0.39    3.79
   9  -1 -11    1.24    2.35
  -9   1  11    0.82    0.74
  -9   1  12  228.36   11.67
   9  -1 -12  282.53   14.05
  -9   1  12  241.81   10.38
  -9   1  13   -0.97    2.64
   9  -1 -13    3.81    3.25
  -9   1  13    3.25    1.02
  -9   1  14  582.32   17.39
   9  -1 -14  669.28   19.31
  -9   1  14  578.75   14.51
  -9   1  15   19.51    3.50
  -9   1  15   16.91    4.84
  -9   1  15   17.12    3.93
  -9   1  16   31.85    8.28
  -9   1  16   42.20    4.26
  -9   1  16   25.58    6.80
  -9   1  17   17.38    3.96
  -9   1  17   20.82    3.72
  -9   1  17   13.35    1.67
  -9   1  18 2455.10  344.50
  -9   1  18 1511.28   46.36
  -9   1  19    1.48    1.26
  -9   1  19    0.92    1.12
  -7   1 -16    3.48    3.04
   7  -1  15    6.21    1.28
  -7   1 -15    3.29    2.44
   7  -1  14  871.80   25.82
  -7   1 -14  818.35   28.56
   7  -1  13   21.58    1.29
  -7   1 -13   46.68    4.67
   7  -1  12  895.18   36.22
   7  -1  12  886.84   36.03
   7  -1  10 1176.52   39.47
   7  -1  10 1216.56   41.15
  -7   1 -10 1203.80   43.44
   7  -1   9   -0.01    0.26
   7  -1   9    1.16    0.66
   7  -1   8  439.20   15.57
  -7   1  -8  429.28   17.74
  -7   1  -7   11.73    1.73
  -7   1  -7    7.93    1.76
  -7   1  -6  398.67   13.68
   7  -1   6  416.62   14.09
  -7   1  -6  413.62   17.56
  -7   1  -5    9.54    1.45
   7  -1   5    8.90    0.86
  -7   1  -5   10.39    2.46
  -7   1  -4   45.29    1.56
   7  -1   4   45.46    1.66
  -7   1  -4   50.80   10.12
  -7   1  -3   24.62    1.34
   7  -1   3   27.37    1.67
  -7   1  -3   27.85    5.50
  -7   1  -2 1579.00   40.65
   7  -1   2 1556.36   40.20
  -7   1  -2 1611.31   42.43
  -7   1  -1   36.12    1.69
   7  -1   1   32.31    1.85
  -7   1  -1   43.78    7.43
  -7   1   0  880.45   23.30
   7  -1   0  802.48   21.56
  -7   1   0  822.43   21.86
  -7   1   1   46.23    2.18
   7  -1  -1   43.24    2.40
  -7   1   1   44.97    2.51
  -7   1   2 2753.24   14.73
  -7   1   3   18.79    1.98
   7  -1  -3   16.26    2.46
  -7   1   4 1233.26   33.16
   7  -1  -4 1165.42   31.81
  -7   1   5    8.94    2.18
   7  -1  -5    6.75    2.16
  -7   1   5    7.91    1.08
  -7   1   6   15.30    2.40
   7  -1  -6   24.68    3.27
  -7   1   6   21.90    3.23
  -7   1   7   22.72    3.38
   7  -1  -7   19.34    3.26
  -7   1   7   22.16    4.22
  -7   1   8  200.76    8.60
   7  -1  -8  185.96    8.78
  -7   1   8  173.48    6.08
  -7   1   9    1.80    2.98
   7  -1  -9   -0.36    3.06
  -7   1   9    3.15    1.48
  -7   1  10 2077.87   71.37
   7  -1 -10 2087.66   72.02
  -7   1  10 2229.71   74.80
  -7   1  11   13.10   12.14
   7  -1 -11   11.25    3.18
  -7   1  12  980.28   37.74
   7  -1 -12 1028.05   39.57
  -7   1  12  954.87   34.91
  -7   1  13    6.19    3.74
   7  -1 -13    7.98    3.40
  -7   1  14 1926.01   72.04
   7  -1 -14 2202.09   82.21
  -7   1  14 1698.12   62.06
  -7   1  15   22.67    4.64
   7  -1 -15   37.49    4.77
  -7   1  15   27.83    4.32
  -7   1  16  173.35    8.72
  -7   1  16  164.20    8.45
  -7   1  16  151.02   16.71
  -7   1  17    1.95    2.48
  -7   1  17   -1.87    2.51
  -7   1  17    2.95    1.06
  -7   1  18   72.31   14.32
  -7   1  18   91.84    7.11
  -7   1  18   90.97   10.07
  -7   1  19    3.53    1.81
  -7   1  19    6.21    3.46
  -7   1  19    3.54    2.02
  -7   1  20   -1.59    1.57
  -7   1  20    6.70    2.58
  -7   1  20    4.27    1.38
  -7   1  21    1.60    0.85
  -5   1 -18 1145.99   70.94
   5  -1  17   -0.38    0.76
   5  -1  16 1106.72   33.94
   5  -1  16 1150.02   36.96
   5  -1  15    7.46    1.65
   5  -1  15   16.80    2.19
   5  -1  14  804.42   33.52
   5  -1  14  859.64   36.19
   5  -1  14  812.76   35.01
   5  -1  13   13.69    1.75
   5  -1  13   24.73    2.81
   5  -1  13   13.69   10.02
   5  -1  12  559.58   21.06
  -5   1 -12  501.48   20.36
   5  -1  11    5.45    1.25
   5  -1  11    4.98    3.11
  -5   1 -11   21.87    5.41
   5  -1  10  411.06   15.17
   5  -1  10  352.21   14.02
  -5   1 -10  401.99   16.98
   5  -1   9   30.54    1.62
  -5   1  -8  625.64   17.55
   5  -1   8  630.28   16.82
   5  -1   8  624.14   17.83
  -5   1  -8  621.11   19.99
  -5   1  -7   12.43    2.03
   5  -1   7   12.47    1.12
  -5   1  -6 2247.67   57.64
   5  -1   6 2519.55   64.19
   5  -1   6 2539.95   65.66
  -5   1  -6 2601.75   68.34
  -5   1  -5   12.19    2.08
   5  -1   5   11.60    1.02
   5  -1   5   10.91    3.36
  -5   1  -4 1903.35   48.59
   5  -1   4 2179.07   55.39
   5  -1   4 2203.04   56.62
  -5   1  -4 2049.12   53.56
  -5   1  -3   95.72    3.24
   5  -1   3   96.99    3.28
   5  -1   3   92.36    3.37
  -5   1  -3   91.15    4.19
  -5   1  -2 1024.73   20.49
   5  -1   2 1070.88   21.35
  -5   1  -2 1034.51   21.73
  -5   1  -1  202.08    5.03
   5  -1   1  205.19    5.08
  -5   1  -1  181.94    5.05
  -5   1   0  829.65   17.11
   5  -1   0  795.40   16.39
  -5   1   0  756.56   15.65
  -5   1   1   62.05    5.14
   5  -1  -1   60.13    4.97
  -5   1   1   57.91    4.55
  -5   1   2  307.01    7.52
   5  -1  -2  299.55    7.42
  -5   1   2  308.03    6.19
  -5   1   3   31.07    3.27
   5  -1  -3   30.17    3.16
  -5   1   4  352.47    9.05
   5  -1  -4  334.13    8.68
  -5   1   4  332.76    7.00
  -5   1   5   31.38    3.50
   5  -1  -5   31.74    3.60
  -5   1   5   31.13    5.35
  -5   1   6 2062.47   54.36
   5  -1  -6 1998.94   52.84
  -5   1   6 2005.13   51.52
  -5   1   7   10.05    2.50
   5  -1  -7    7.19    3.62
  -5   1   8 1294.42   36.03
   5  -1  -8 1408.34   39.24
  -5   1   8 1231.80   32.57
  -5   1   9   -1.12    6.04
   5  -1  -9    7.17    4.17
  -5   1  10 1188.69   34.06
   5  -1 -10 1302.31   37.55
  -5   1  10 1183.63   31.89
  -5   1  11   21.21    4.72
   5  -1 -11   21.14    3.80
  -5   1  12  886.16   32.59
   5  -1 -12 1023.29   37.48
  -5   1  12  943.32   32.93
  -5   1  13   -1.16    2.70
   5  -1 -13    9.80    3.69
  -5   1  13    7.19    1.56
  -5   1  14  142.50    8.74
   5  -1 -14  133.55    8.79
  -5   1  14  108.72   14.85
  -5   1  15    3.12    3.08
   5  -1 -15    2.51    2.51
  -5   1  15    2.92    1.23
  -5   1  16  169.19    9.86
  -5   1  16  150.92   12.14
  -5   1  17    4.07    1.41
  -5   1  18 1255.48   50.13
  -5   1  18 1352.31   53.65
  -5   1  18 1246.90   48.76
  -5   1  19    1.81    4.78
  -5   1  20 1110.08   55.31
  -5   1  20 1365.46   67.53
   3  -1  18    8.24    2.25
   3  -1  18    7.24    2.77
  -3   1 -18   21.82    6.01
   3  -1  17    3.53    1.61
   3  -1  17    3.51    2.37
   3  -1  17    2.72    1.56
  -3   1 -17    3.67    2.93
   3  -1  16   45.91    3.15
   3  -1  16   48.29    3.90
   3  -1  16   35.90    6.65
  -3   1 -16   51.04    5.23
   3  -1  15   -0.80    1.84
   3  -1  15    3.94    1.81
  -3   1 -15   10.05    4.04
   3  -1  14  339.58   13.38
   3  -1  14  400.59   16.57
   3  -1  14  355.47   14.85
  -3   1 -14  370.06   16.69
   3  -1  13   -0.02    1.20
   3  -1  13    2.11    2.21
   3  -1  12 1789.02   63.56
   3  -1  12 1663.23   59.98
  -3   1 -12 2001.32   72.75
   3  -1  11   43.94    3.41
   3  -1  11   42.33    3.38
   3  -1  10  251.47    8.02
   3  -1  10  247.36    9.00
  -3   1 -10  251.56   10.02
  -3   1  -9    3.48    1.12
   3  -1   9    3.96    1.08
  -3   1  -8 1727.12   45.01
   3  -1   8 1860.09   47.98
   3  -1   8 2040.26   53.45
  -3   1  -7   10.11    1.72
   3  -1   7    8.93    1.14
  -3   1  -6  130.28    4.52
   3  -1   6  150.04    4.92
   3  -1   6  120.94    4.99
  -3   1  -6  148.86    6.45
  -3   1  -5  139.45    3.89
   3  -1   5  153.35    4.12
   3  -1   5  132.88    5.69
  -3   1  -5  134.39    5.24
  -3   1  -4  124.34    3.86
   3  -1   4  122.04    3.31
   3  -1   4  117.65    5.74
  -3   1  -4  114.92    4.87
  -3   1  -3  267.25    6.12
   3  -1   3  280.66    6.38
   3  -1   3  258.97    6.84
  -3   1  -3  238.85    7.08
  -3   1  -2   93.27    7.12
   3  -1   2   88.59    6.84
   3  -1   2   80.01    6.42
  -3   1  -2   70.91    5.93
  -3   1  -1    1.50    1.07
   3  -1   1    0.61    1.01
   3  -1   1    1.25    0.98
  -3   1  -1    1.87    1.67
  -3   1   0 1921.16   37.67
   3  -1   0 2074.58   40.44
   3  -1   0 1906.24   36.61
  -3   1   1   15.81    2.55
   3  -1  -1    5.46    1.63
  -3   1   2 1354.77   27.17
   3  -1  -2 1382.83   27.60
  -3   1   3   11.62    2.39
   3  -1  -3   10.03    2.77
   3  -1  -3    9.98    1.06
  -3   1   4 2419.76   47.77
   3  -1  -4 2646.52   52.09
  -3   1   4 2453.47   47.18
   3  -1  -4 2595.38   50.03
  -3   1   5   13.91    2.34
   3  -1  -5   13.64    2.31
  -3   1   5   18.43    2.62
  -3   1   6  206.76    6.48
   3  -1  -6  193.55    6.13
  -3   1   6  207.91    5.42
   3  -1  -6  185.77    5.25
  -3   1   7  157.62    5.86
   3  -1  -7  156.24    6.00
  -3   1   7  167.56    5.02
   3  -1  -7  149.14    4.63
  -3   1   8   72.92    4.61
   3  -1  -8   70.63    4.90
  -3   1   8   71.50    3.29
   3  -1  -8   61.15    4.21
  -3   1   9   35.72    3.27
   3  -1  -9   32.97    3.74
  -3   1   9   42.70    2.65
   3  -1  -9   32.16    2.51
  -3   1  10  502.22   16.17
   3  -1 -10  522.35   17.47
   3  -1 -10  520.50   15.44
   3  -1 -11   40.11    5.01
  -3   1  12 2421.97   65.25
   3  -1 -12 2649.09   71.63
  -3   1  12 2833.45   74.34
   3  -1 -12 2898.04   20.87
  -3   1  13   39.98    6.00
   3  -1 -13   52.39    5.89
  -3   1  14  711.58   28.08
   3  -1 -14  901.22   35.48
  -3   1  14  755.38   28.94
   3  -1 -14  756.72   28.83
  -3   1  15    8.76    4.83
   3  -1 -15   12.13    4.06
  -3   1  17   12.19    2.83
  -3   1  17    8.39    2.90
  -3   1  17    3.14    5.12
  -3   1  18  201.90   13.93
  -3   1  18  224.65   11.91
  -3   1  18  218.93   20.43
  -3   1  19   13.06    2.86
  -3   1  19   11.87    2.62
   3  -1 -19   20.63    4.06
  -3   1  20    1.59    1.42
  -3   1  20    4.40    2.99
  -3   1  20    0.79    1.19
   3  -1 -20   -0.92    2.40
  -3   1  21    2.82    1.21
   3  -1 -21    8.07    4.38
   1  -1  20  194.46   15.81
   1  -1  19    2.66    2.53
   1  -1  19    3.97    2.09
   1  -1  18   16.55    2.94
   1  -1  18   17.42    3.00
   1  -1  18   23.51    6.29
   1  -1  17    1.33    2.05
   1  -1  17    3.00    1.35
   1  -1  16 2771.53   58.39
   1  -1  16 3044.41   63.77
   1  -1  16 2331.87   50.00
  -1   1 -16 3147.40  202.62
   1  -1  15   -1.31    2.24
   1  -1  14  149.53    9.48
   1  -1  14  144.98    8.26
   1  -1  14  115.86   12.52
  -1   1 -14  170.93   10.41
   1  -1  13    1.48    2.28
   1  -1  13    3.67    1.65
  -1   1 -13    8.32    3.90
   1  -1  12 1744.56   59.59
   1  -1  12 1457.33   50.34
   1  -1  12 1679.59   58.14
   1  -1  11    1.97    1.65
   1  -1  11    4.30    2.98
   1  -1  11    3.05    1.96
  -1   1 -10   55.73    3.42
   1  -1  10   47.02    4.22
   1  -1  10   51.09    9.46
  -1   1 -10   54.05    4.83
  -1   1  -9    5.24    0.92
   1  -1   9    4.05    0.75
   1  -1   9    1.91    1.40
  -1   1  -9    3.45    4.47
  -1   1  -8 1021.02   27.60
   1  -1   8 1162.49   31.43
   1  -1   8 1095.42   30.26
  -1   1  -8 1319.64   37.36
  -1   1  -7  104.89    9.13
   1  -1   7  103.16    6.72
   1  -1   7   87.45    7.41
  -1   1  -7  108.63    7.29
  -1   1  -6  204.57   10.55
   1  -1   6  166.78    5.02
   1  -1   6  157.62    5.41
  -1   1  -6  162.12    6.56
  -1   1  -5   11.12    2.42
   1  -1   5   12.62    1.75
   1  -1   5   10.73    2.22
  -1   1  -5    6.18    3.40
  -1   1  -4 2798.95   54.57
  -1   1  -3   74.02    5.92
   1  -1   3   71.70    5.76
   1  -1   3   53.22    5.27
  -1   1  -2   68.38    5.52
   1  -1   2   83.21    6.63
  -1   1  -1   10.40    1.64
   1  -1   1   14.71    2.10
  -1   1   0  933.60   18.68
   1  -1   0 1046.13   21.00
  -1   1   1   10.40    1.85
   1  -1  -1   14.97    2.42
  -1   1   2  154.86    4.71
   1  -1  -2  171.97    5.89
  -1   1   3   51.60    4.92
   1  -1  -3   45.40    4.20
  -1   1   4 1063.59   21.82
   1  -1  -4 1085.67   22.28
   1  -1  -4 1039.45   20.72
  -1   1   5  121.28    3.96
   1  -1  -5  109.53    3.81
   1  -1  -5  121.67    3.49
  -1   1   6  425.75   10.07
   1  -1  -6  414.91   10.11
  -1   1   6  449.80   10.13
   1  -1  -6  424.72    9.94
  -1   1   7   82.94    6.82
   1  -1  -7   79.28    6.90
  -1   1   7   86.64    7.11
   1  -1  -7   87.57    7.53
  -1   1   8 2905.65   57.95
   1  -1  -8 2755.78   55.58
  -1   1   8 2959.54   16.48
  -1   1   9   12.17    2.52
   1  -1  -9   14.44    3.15
  -1   1   9   11.65    2.76
   1  -1  -9   13.24    2.03
  -1   1  10  158.81    6.71
   1  -1 -10  156.46    7.69
  -1   1  10  146.52    5.82
   1  -1 -10  161.57    8.29
   1  -1 -11    1.17    2.84
   1  -1 -11    1.34    1.41
   1  -1 -12 1788.45   62.15
   1  -1 -12 1789.21   60.77
  -1   1  13   45.98    5.46
   1  -1 -13   38.51    4.73
  -1   1  13   49.45   10.65
   1  -1 -13   46.53    7.40
  -1   1  14  351.15   15.18
   1  -1 -14  396.46   17.40
  -1   1  14  364.35   15.27
   1  -1 -14  344.19   14.48
  -1   1  15    4.78    2.21
  -1   1  15    6.86    3.93
  -1   1  15    4.77    1.81
   1  -1 -15    3.83    1.72
  -1   1  16  170.77    9.85
  -1   1  16  211.58   10.33
  -1   1  16  164.41    8.56
   1  -1 -16  187.30    9.32
  -1   1  17    1.17    0.88
   1  -1 -17    7.24    2.10
  -1   1  18  285.90   13.55
  -1   1  18  310.57   14.55
  -1   1  18  314.34   14.89
   1  -1 -18  326.83   15.51
   1  -1 -20 2376.46   28.82
  -1  -1  20 2172.09  105.90
  -1  -1  20 2336.20   25.19
  -1  -1  19   25.44    3.82
  -1  -1  19    1.90    6.45
  -1  -1  18  358.79   16.94
  -1  -1  18  295.17   14.05
  -1  -1  17   -0.85    2.28
  -1  -1  17    5.00    2.14
  -1  -1  16  149.22    8.56
  -1  -1  16  216.03   11.00
  -1  -1  16  165.91    8.76
  -1  -1  15    4.09    2.16
  -1  -1  15    1.84    2.72
  -1  -1  15    5.89    2.26
  -1  -1  14  319.52   20.01
  -1  -1  14  321.44   14.55
  -1  -1  14  318.86   14.17
  -1  -1  13   42.08    6.34
  -1  -1  13   36.14    3.88
  -1  -1  13   50.28    9.38
  -1  -1  12 1670.23   57.35
  -1  -1  12 1521.78   52.63
  -1  -1  12 1779.33   61.29
  -1  -1  11   -1.56    6.04
  -1  -1  11    7.23    3.14
  -1  -1  11    7.48    2.74
  -1  -1  10  163.75   10.42
  -1  -1  10  130.02    7.09
   1   1  -9   15.45    2.36
  -1  -1   9   11.70    2.74
  -1  -1   9   11.50    2.79
  -1  -1   8 2925.20   58.47
  -1  -1   8 3240.91   22.56
   1   1  -7   88.16    8.04
  -1  -1   7   92.50   10.74
  -1  -1   7   66.01    6.07
   1   1  -6  441.15   10.57
  -1  -1   6  434.26   10.45
  -1  -1   6  441.63   12.06
   1   1  -5  144.19    4.70
  -1  -1   5  143.53    4.77
   1   1  -4 1018.26   21.05
  -1  -1   4 1110.82   22.89
   1   1  -3   43.57    4.01
  -1  -1   3   40.46    3.69
   1   1  -2  144.51    4.07
  -1  -1   2  148.07    4.40
   1   1  -1   11.76    1.65
  -1  -1   1   10.01    1.54
   1   1   0  940.32   18.89
  -1  -1   0  969.36   19.28
   1   1   1   13.01    2.02
  -1  -1  -1    9.09    1.71
   1   1   2   67.04    5.46
  -1  -1  -2   76.73    6.24
   1   1   3   82.39    6.60
  -1  -1  -3   78.72    6.45
   1   1   5    9.43    1.42
  -1  -1  -5   12.02    2.19
  -1  -1  -5   13.02    3.20
   1   1   6  172.18    4.72
  -1  -1  -6  160.13    4.91
  -1  -1  -6  189.90    5.48
   1   1   7  104.77    3.67
  -1  -1  -7   92.47    7.58
  -1  -1  -7   98.32    7.93
   1   1   8 1174.19   31.00
  -1  -1  -8 1224.75   33.29
  -1  -1  -8 1135.49   30.41
   1   1   9    3.69    1.79
  -1  -1  -9    3.23    2.48
  -1  -1  -9    4.37    1.70
   1   1  10   43.67    2.72
  -1  -1 -10   42.07    3.97
  -1  -1 -10   53.67    4.74
  -1  -1 -11    5.42    3.09
  -1  -1 -11    4.61    1.17
  -1  -1 -12 1883.19   65.01
  -1  -1 -12 1868.87   63.70
  -1  -1 -13    0.73    0.86
   1   1  14  130.08    8.24
   1   1  14  160.60    7.74
  -1  -1 -14  146.01   10.22
   1   1  15    6.33    4.39
  -1  -1 -15    1.95    1.09
   1   1  16 2456.04   51.71
   1   1  16 2485.12   51.47
  -1  -1 -16 2710.43   57.30
   1   1  17    1.64    1.25
  -1  -1 -17    5.46    1.66
   1   1  18    9.16    2.12
   1   1  18   13.37    2.56
  -1  -1 -18    7.66    2.15
   1   1  19    2.70    2.15
  -1  -1 -19    7.23    2.61
  -1  -1 -20  214.17   15.43
  -3  -1  21    5.95    3.36
  -3  -1  20    3.53    4.05
  -3  -1  20    4.17    1.69
  -3  -1  19   10.18    1.69
  -3  -1  19   12.91    2.72
  -3  -1  19   10.92    2.88
  -3  -1  18  346.13   16.53
  -3  -1  18  241.53   12.90
  -3  -1  18  218.75   24.37
  -3  -1  17   11.57    6.94
  -3  -1  17   19.68    3.52
  -3  -1  17   14.00    3.89
  -3  -1  16 1639.28   58.11
  -3  -1  15    5.98    2.77
  -3  -1  15    4.02    1.98
  -3  -1  14  751.25   29.74
  -3  -1  14  785.84   31.04
  -3  -1  14  809.41   31.29
  -3  -1  13   35.59    4.00
  -3  -1  13   47.11    8.54
  -3  -1  12 2674.68   71.55
  -3  -1  12 3038.41   24.24
  -3  -1  11   36.22    3.76
  -3  -1  11   30.56    3.18
  -3  -1  10  510.25   18.39
  -3  -1  10  477.64   15.56
  -3  -1  10  478.39   15.32
   3   1  -9   40.09    3.69
  -3  -1   9   11.91    4.54
  -3  -1   9   36.06    3.83
   3   1  -8   75.55    4.62
  -3  -1   8   73.20    8.94
  -3  -1   8   61.02    3.95
   3   1  -7  172.06    6.78
  -3  -1   7  171.70    6.42
   3   1  -6  214.68    6.49
  -3  -1   6  213.38    6.69
   3   1  -5   19.95    3.97
  -3  -1   5   19.82    4.94
   3   1  -4 2422.36   48.08
  -3  -1   4 2819.78   55.92
   3   1  -3   15.75    3.45
  -3  -1   3   18.76    3.61
   3   1  -2 1326.94   26.74
  -3  -1   2 1440.17   28.88
   3   1  -1   10.07    2.25
  -3  -1   1   12.11    1.81
   3   1   0 1538.98   30.28
  -3  -1   0 1850.96   36.18
   3   1   1    0.88    0.89
  -3  -1  -1    3.88    1.40
   3   1   2   93.02    7.07
  -3  -1  -2  102.45    2.80
   3   1   3  265.84    5.75
  -3  -1  -3  290.32    6.40
   3   1   4  134.12    3.31
  -3  -1  -4  132.34    3.49
   3   1   5  168.12    4.08
  -3  -1  -5  154.27    4.24
  -3  -1  -5  155.86    5.07
   3   1   6  149.45    4.56
  -3  -1  -6  128.53    4.48
  -3  -1  -6  139.31    5.24
   3   1   7   14.56    1.13
  -3  -1  -7    3.85    1.30
  -3  -1  -7   12.52    2.79
   3   1   8 2201.99   56.27
  -3  -1  -8 1977.82   52.11
  -3  -1  -8 2277.86   59.55
   3   1   9    4.11    0.91
  -3  -1  -9    3.90    2.62
  -3  -1  -9    3.46    1.86
   3   1  10  266.93    8.06
  -3  -1 -10  269.89   10.10
  -3  -1 -10  272.25    9.69
   3   1  11   48.29    3.00
  -3  -1 -11   55.99    5.81
   3   1  12 1871.49   66.96
   3   1  12 1931.05   68.06
  -3  -1 -12 2066.90   74.17
   3   1  13    1.80    1.57
  -3  -1 -13    3.81    2.02
   3   1  14  310.20   12.65
   3   1  14  358.21   13.57
  -3  -1 -14  377.66   15.83
   3   1  15    2.60    1.03
   3   1  15    2.81    1.72
  -3  -1 -15    2.42    0.85
   3   1  16   30.91    4.66
   3   1  16   42.36    2.77
  -3  -1 -16   38.21    5.95
   3   1  17    1.39    0.53
   3   1  17    1.49    1.20
  -3  -1 -17   -1.14    1.66
   3   1  18   12.53    3.10
   3   1  18   10.08    2.35
  -3  -1 -18    5.85    2.35
  -5  -1  21    3.21    2.26
  -5  -1  21   11.66    4.46
  -5  -1  20 1307.90   65.14
  -5  -1  20 1311.28   65.02
  -5  -1  20 1385.23   68.27
  -5  -1  19   13.44    4.68
  -5  -1  18 1340.67   53.86
  -5  -1  18 1490.67   58.97
  -5  -1  18 1350.94   53.11
  -5  -1  17    1.45    1.49
  -5  -1  16  158.59   13.58
  -5  -1  16  197.18   10.99
  -5  -1  16  166.12   14.32
  -5  -1  15    4.96    2.27
  -5  -1  15    1.98    2.82
  -5  -1  15    5.55    2.35
  -5  -1  14  108.47   15.35
  -5  -1  14  128.61    8.43
  -5  -1  14  138.07   14.11
  -5  -1  13    5.89    3.63
  -5  -1  13   13.63    4.58
  -5  -1  13    3.58    2.02
  -5  -1  12 1036.67   38.14
  -5  -1  12  961.33   35.02
  -5  -1  12 1047.98   37.07
  -5  -1  11   12.18    9.94
  -5  -1  11   25.57    3.65
  -5  -1  11   29.68    4.32
  -5  -1  10 1334.20   38.28
  -5  -1  10 1185.08   33.77
  -5  -1  10 1438.88   40.09
  -5  -1   9    4.11    2.38
  -5  -1   9    2.33    2.55
  -5  -1   8 1439.04   40.14
  -5  -1   8 1183.64   32.79
  -5  -1   7    7.72    2.25
   5   1  -6 2120.09   56.41
  -5  -1   6 2148.99   56.82
   5   1  -5   29.32    4.43
  -5  -1   5   33.69    8.69
   5   1  -4  360.13    9.49
  -5  -1   4  329.84    8.69
   5   1  -3   34.93    6.20
  -5  -1   3   29.48    4.34
   5   1  -2  310.93    7.88
  -5  -1   2  334.25    8.31
   5   1  -1   58.85    5.12
  -5  -1   1   56.35    4.61
   5   1   0  733.87   15.49
  -5  -1   0  734.97   15.12
   5   1   1  219.25    5.64
  -5  -1  -1  191.57    4.60
   5   1   2  955.16   19.08
  -5  -1  -2 1029.99   20.30
   5   1   3   89.12    2.85
  -5  -1  -3   98.31    3.04
   5   1   4 1752.19   44.45
  -5  -1  -4 2102.58   53.23
   5   1   5   10.70    0.65
  -5  -1  -5    9.42    0.88
  -5  -1  -5   11.42    1.85
   5   1   6 2399.59   60.85
  -5  -1  -6 2270.82   58.28
  -5  -1  -6 2591.66   67.55
   5   1   7   10.29    0.63
  -5  -1  -7    7.98    1.35
  -5  -1  -7   11.15    2.60
   5   1   8  622.27   17.16
   5   1   8  674.69   17.57
  -5  -1  -8  741.71   21.81
   5   1   9   38.60    4.61
   5   1   9   35.85    1.30
  -5  -1  -9   34.43    8.25
   5   1  10  437.44   16.33
   5   1  10  465.05   16.72
  -5  -1 -10  408.06   16.37
   5   1  11    5.76    1.07
  -5  -1 -11    3.95    1.98
   5   1  12  494.31   17.26
  -5  -1 -12  531.39   20.93
   5   1  13   18.22    1.41
  -5  -1 -13   20.96    4.81
   5   1  14  788.91   32.36
  -5  -1 -14  896.53   39.00
   5   1  15    7.57    1.33
  -5  -1 -15    9.92    1.31
   5   1  16 1031.05   31.49
  -5  -1 -16 1325.05   43.00
   5   1  17    0.89    1.01
  -5  -1 -17    2.46    1.54
  -7  -1  21    0.58    1.22
  -7  -1  20    9.36    1.85
  -7  -1  20    6.41    2.46
  -7  -1  19    5.97    2.68
  -7  -1  19    4.64    2.83
  -7  -1  19    2.01    1.72
  -7  -1  18   76.63    6.03
  -7  -1  18   82.98    6.43
  -7  -1  18   83.75   15.79
  -7  -1  17    3.26    1.84
  -7  -1  17    6.99    3.07
  -7  -1  17    2.58    1.36
  -7  -1  16  150.97   11.40
  -7  -1  16  160.35    8.34
  -7  -1  16  136.93   19.63
  -7  -1  15   33.83    8.06
  -7  -1  15   31.92    4.05
  -7  -1  15   31.93    6.24
  -7  -1  14 2143.66   80.48
  -7  -1  14 2101.28   78.40
  -7  -1  14 1878.85   69.31
  -7  -1  13    3.60    2.85
  -7  -1  13    8.16    3.69
  -7  -1  13    9.28    2.54
  -7  -1  12 1015.41   39.25
  -7  -1  12 1048.39   40.28
  -7  -1  12 1124.31   42.40
  -7  -1  11    4.53    5.08
  -7  -1  11   12.48    2.65
  -7  -1  11    9.75    2.78
  -7  -1  10 2169.40   75.07
  -7  -1  10 2124.14   72.90
  -7  -1   9   -3.38    3.92
  -7  -1   9    1.17    2.43
  -7  -1   8  195.17    8.82
  -7  -1   8  161.71    7.95
  -7  -1   7   21.57    6.16
  -7  -1   7   17.73    3.27
  -7  -1   6   18.77    4.38
  -7  -1   6   16.85    3.00
  -7  -1   5   12.22    2.72
  -7  -1   5    6.96    2.85
  -7  -1   4 1154.05   31.23
  -7  -1   4 1041.65   28.98
  -7  -1   3   13.90    3.04
  -7  -1   2 3215.91   18.11
  -7  -1   1   45.70    4.24
  -7  -1   1   43.24    4.92
  -7  -1   0  822.27   21.74
  -7  -1   0  669.64   18.60
  -7  -1  -1   36.32    1.55
  -7  -1  -1   24.18    2.19
  -7  -1  -2 1544.97   39.47
  -7  -1  -2 1176.62   30.91
  -7  -1  -3   25.33    0.87
  -7  -1  -3   17.83    1.33
  -7  -1  -5   16.16    1.94
  -7  -1  -6  400.81   15.22
  -7  -1  -7   10.30    2.64
  -7  -1  -8  481.61   19.16
  -7  -1  -9    2.02    0.64
  -7  -1 -10 1157.61   41.14
  -7  -1 -11   32.64    7.25
  -7  -1 -12  992.19   42.67
  -7  -1 -13    8.60    1.86
  -7  -1 -14  849.39   28.96
  -7  -1 -15    4.10    2.94
  -7  -1 -16    3.79    1.66
  -9  -1  20  212.52   24.71
  -9  -1  19    1.08    1.75
  -9  -1  19   -2.43    1.71
  -9  -1  18 2484.94  348.84
  -9  -1  18 2455.99  344.64
  -9  -1  18 2363.78   71.64
  -9  -1  17   18.18    4.28
  -9  -1  17   17.25    2.79
  -9  -1  17   18.16    4.57
  -9  -1  16   23.72    5.97
  -9  -1  16   27.27    3.61
  -9  -1  16   22.65    2.74
  -9  -1  15   23.71    4.53
  -9  -1  15   18.48    3.37
  -9  -1  15   15.82    2.54
  -9  -1  14  682.44   20.33
  -9  -1  14  654.95   19.04
  -9  -1  14  606.00   16.67
  -9  -1  13    1.59    1.12
  -9  -1  13    2.36    2.72
  -9  -1  13    1.33    2.31
  -9  -1  12  244.11   12.60
  -9  -1  12  244.38   12.50
  -9  -1  12  252.18   12.43
  -9  -1  11    4.08    2.18
  -9  -1  11   -0.20    3.02
  -9  -1  10 1410.23   53.34
  -9  -1  10 1444.33   53.69
  -9  -1   9   77.43    9.56
  -9  -1   9   73.15    6.43
  -9  -1   8  188.20   11.26
  -9  -1   8  198.21   10.08
  -9  -1   7    8.76    1.75
  -9  -1   7    8.71    5.77
  -9  -1   6 2249.94   76.27
  -9  -1   6 2298.02   78.45
  -9  -1   5   -1.39    1.30
  -9  -1   5    5.81    4.09
  -9  -1   4   19.42    4.22
  -9  -1   4   17.05    2.69
  -9  -1   3    7.33    1.47
  -9  -1   3    3.41    2.92
  -9  -1   2  669.64   23.53
  -9  -1   2  644.90   23.70
  -9  -1   1    1.91    0.86
  -9  -1   1    2.63    1.87
  -9  -1   0   65.00    3.13
  -9  -1   0   61.04    4.04
  -9  -1  -1   55.67    2.65
  -9  -1  -1   46.51    2.98
  -9  -1  -2  479.37   16.09
  -9  -1  -2  454.79   15.48
  -9  -1  -4  222.20    9.78
  -9  -1  -5   31.63    6.61
  -9  -1  -6 2082.74   75.84
  -9  -1  -7    1.68    2.04
  -9  -1  -8    3.19    1.14
  -9  -1  -9   18.25    4.19
  -9  -1 -10  701.56   28.58
  -9  -1 -11    1.74    0.97
  -9  -1 -12   82.85   14.82
  -9  -1 -13    6.28    2.88
  -9  -1 -14  486.34   31.10
 -11  -1  19    9.92    2.53
 -11  -1  18    0.29    1.50
 -11  -1  18    2.22    1.85
 -11  -1  17    9.87    2.94
 -11  -1  17   10.72    3.35
 -11  -1  17   10.27    2.70
 -11  -1  16   22.98    4.97
 -11  -1  16   27.63    3.72
 -11  -1  16   31.35    3.82
 -11  -1  15    0.06    2.00
 -11  -1  15    0.82    1.62
 -11  -1  14 1375.29   54.23
 -11  -1  13   -3.63    2.89
 -11  -1  13    1.64    3.24
 -11  -1  13    0.85    2.17
 -11  -1  12  173.32   16.59
 -11  -1  12  177.42   10.19
 -11  -1  11    8.82    2.98
 -11  -1   9    6.98    1.52
 -11  -1   9  -11.89    2.53
 -11  -1   8  141.85   16.48
 -11  -1   8  142.20    8.13
 -11  -1   7   17.89    3.86
 -11  -1   7   17.50    3.93
 -11  -1   6  230.22   10.52
 -11  -1   6  272.33   12.64
 -11  -1   5    0.20    0.44
 -11  -1   5    0.63    2.09
 -11  -1   4   65.44    9.88
 -11  -1   4   73.67    5.22
 -11  -1   3    2.40    1.31
 -11  -1   3    1.85    1.73
 -11  -1   2 2579.90  131.66
 -11  -1   2 2442.43   88.35
 -11  -1   1    9.35    1.64
 -11  -1   1    8.95    2.06
 -11  -1   0  128.36    5.26
 -11  -1   0  115.68    5.19
 -11  -1  -1    5.95    1.01
 -11  -1  -1    5.67    1.01
 -11  -1  -3    3.09    1.75
 -11  -1  -4  136.64   10.89
 -11  -1  -5    6.49    1.82
 -11  -1  -6    8.02    3.14
 -11  -1  -7    1.21    1.24
 -11  -1  -8    6.45    2.10
 -11  -1  -9    1.31    1.03
 -11  -1 -10 1090.38   65.59
 -11  -1 -11   12.22    2.27
 -13  -1  16  347.74   23.23
 -13  -1  15    2.52    1.80
 -13  -1  15    7.76    2.87
 -13  -1  14  907.94   46.28
 -13  -1  14  879.01   44.33
 -13  -1  14 1099.32   55.00
 -13  -1  13   -4.33    2.31
 -13  -1  13   -4.39    2.13
 -13  -1  13   -0.20    2.24
 -13  -1  12  170.46   15.29
 -13  -1  12  178.04    8.96
 -13  -1  11    0.41    0.73
 -13  -1  11   -2.29    1.95
 -13  -1  10  515.10   20.96
 -13  -1  10  532.63   21.40
 -13  -1   9   11.27    2.10
 -13  -1   9    6.39    2.61
 -13  -1   8  128.24    7.29
 -13  -1   8  148.22    8.34
 -13  -1   7    6.11    1.46
 -13  -1   7   10.36    2.65
 -13  -1   6 1767.99   73.00
 -13  -1   6 1934.20   79.88
 -13  -1   5    1.89    1.16
 -13  -1   5   -0.35    1.56
 -13  -1   4  382.37   17.25
 -13  -1   4  331.94   15.44
 -13  -1   3    0.25    0.76
 -13  -1   3    0.91    1.26
 -13  -1   2  537.83   21.24
 -13  -1   2  545.75   21.95
 -13  -1   1   22.89    1.52
 -13  -1   1   23.82    1.88
 -13  -1   0   95.56    4.25
 -13  -1   0  104.45    4.77
 -13  -1  -2  107.49    6.11
 -13  -1  -3    0.74    1.15
 -13  -1  -4    5.94    1.81
 -13  -1  -5    2.12    1.10
 -13  -1  -6 1199.89   71.82
 -13  -1  -8  219.96   15.01
 -15  -1  12  639.00   39.51
 -15  -1  11    3.51    1.86
 -15  -1  11    3.49    3.58
 -15  -1  10  544.51   33.90
 -15  -1  10  638.72   39.35
 -15  -1   9    3.22    2.02
 -15  -1   9    0.63    1.90
 -15  -1   8  678.37   41.68
 -15  -1   8  690.36   42.18
 -15  -1   7    1.56    1.10
 -15  -1   7    2.35    1.67
 -15  -1   6  221.51   16.71
 -15  -1   6  213.35   14.32
 -15  -1   5    3.93    1.28
 -15  -1   5    4.47    2.22
 -15  -1   4   39.33    2.91
 -15  -1   4   29.48    2.59
 -15  -1   3    1.36    0.88
 -15  -1   3    2.45    1.47
 -15  -1   2  344.36   20.81
 -15  -1   1    1.35    0.77
 -15  -1   0  654.19   39.89
 -15  -1  -1    2.83    1.12
 -15  -1  -2  747.45   45.35
 -14   2  -3   21.20    3.01
 -14   2  -2  198.48   12.68
 -14   2  -2  186.21   11.43
 -14   2  -1   17.15    1.67
 -14   2   0  509.74   30.48
  14  -2   0  612.13   37.17
 -14   2   1   37.96    3.04
  14  -2  -1   35.68    3.69
 -14   2   2 1435.90   69.04
  14  -2  -2 1523.52   73.97
 -14   2   3    6.21    1.79
  14  -2  -3    3.30    3.48
 -14   2   4  601.87   30.25
  14  -2  -4  601.56   30.97
 -14   2   5    9.32    2.57
  14  -2  -5    1.97    2.08
 -14   2   6  414.96   21.71
 -14   2   7    9.73    2.98
  14  -2  -7   -0.12    2.10
 -14   2   8   71.79    5.93
  14  -2  -8   76.79    6.67
 -14   2   9   18.87    3.98
  14  -2  -9   14.54    3.80
 -14   2  10  701.19   43.22
 -14   2  11    4.82    2.40
  14  -2 -11    2.74    3.59
  14  -2 -12  749.21   46.54
  14  -2 -13    5.13    2.56
 -12   2  -8  255.08   18.27
 -12   2  -7   -2.66    2.05
 -12   2  -6 1217.44   60.63
 -12   2  -5    0.61    0.41
 -12   2  -5   -2.03    1.78
 -12   2  -4  239.80    7.92
  12  -2   4  246.97    9.04
 -12   2  -4  238.54   10.54
 -12   2  -3    7.33    0.98
  12  -2   3    6.71    1.57
 -12   2  -3    1.95    1.55
 -12   2  -2 1418.03   53.23
  12  -2   2 1642.73   62.38
 -12   2  -2 1623.86   62.00
 -12   2  -1    6.24    1.16
  12  -2   1    1.18    1.80
 -12   2  -1    7.39    2.05
 -12   2   0   44.93    3.84
  12  -2   0   46.05    4.48
 -12   2   1   16.25    2.03
  12  -2  -1   11.16    2.29
 -12   2   2    1.47    1.65
  12  -2  -2    2.05    1.61
 -12   2   3   48.98    3.72
  12  -2  -3   44.91    4.57
 -12   2   4  179.61    9.08
  12  -2  -4  188.34   10.49
 -12   2   5   20.63    2.68
  12  -2  -5   24.95    3.73
 -12   2   6 1098.30   46.27
  12  -2  -6 1139.31   48.80
 -12   2   7    3.93    1.76
  12  -2  -7    3.23    2.89
 -12   2   8  269.92   13.65
  12  -2  -8  273.98   14.70
 -12   2   9   19.76    2.84
  12  -2  -9   14.95    3.19
 -12   2  10 1647.89   64.06
  12  -2 -10 1593.05   62.66
 -12   2  11   43.14    4.36
  12  -2 -11   35.98    4.19
 -12   2  12   16.48    3.21
  12  -2 -12   15.11    3.39
 -12   2  13    9.53    2.96
  12  -2 -13   10.00    3.07
 -12   2  14  229.37   14.49
  12  -2 -14  222.05   14.02
 -12   2  15    9.69    3.08
  12  -2 -15    4.78    2.38
  12  -2 -16  284.73   19.88
 -10   2 -12    0.62    3.12
 -10   2 -11   29.80    7.51
 -10   2 -10 1794.39   89.07
 -10   2  -9   -1.51    2.56
 -10   2  -8  101.20    4.66
 -10   2  -8  107.92    7.91
 -10   2  -7   32.98    4.86
  10  -2   7   25.70    1.64
 -10   2  -7    7.66    3.20
 -10   2  -6  960.94   39.25
  10  -2   6  939.38   38.33
 -10   2  -6  807.59   35.79
 -10   2  -5    1.75    0.89
  10  -2   5   -0.75    0.69
 -10   2  -5   -2.65    1.88
 -10   2  -4    8.36    1.13
  10  -2   4   11.46    1.28
 -10   2  -4   11.67    2.72
 -10   2  -3  104.11    4.71
 -10   2  -3   89.16    6.83
 -10   2  -2   78.40    4.84
  10  -2   2   66.16    4.38
 -10   2  -2   76.11    5.74
 -10   2  -1   23.53    2.16
  10  -2   1   22.78    2.26
 -10   2  -1   24.06    2.91
 -10   2   0   19.34    2.77
  10  -2   0   19.40    2.92
 -10   2   1   13.14    2.15
  10  -2  -1    7.92    1.68
 -10   2   2 2572.51  131.51
  10  -2  -2 2488.49   89.84
 -10   2   3   28.95    2.73
  10  -2  -3   23.43    3.56
 -10   2   4   14.67    2.67
  10  -2  -4   12.82    2.51
 -10   2   5   46.21    3.80
  10  -2  -5   41.40    3.81
 -10   2   6 2019.42   73.82
  10  -2  -6 2027.32   74.33
 -10   2   7   -0.23    1.84
  10  -2  -7   -2.27    1.82
 -10   2   8  161.74    8.24
  10  -2  -8  160.32    8.89
 -10   2   9    5.51    2.94
 -10   2  10  349.73   15.39
 -10   2  11    2.73    2.42
  10  -2 -11    3.19    2.28
 -10   2  12   17.18    3.98
  10  -2 -12   15.32    2.97
 -10   2  13   -0.62    2.66
  10  -2 -13    2.91    3.10
 -10   2  14 2233.68   79.23
  10  -2 -14 2243.43  107.75
 -10   2  15   12.14    8.35
  10  -2 -15   14.62    3.56
 -10   2  16    3.56    2.60
  10  -2 -16    5.07    3.11
  10  -2 -17   23.62    5.43
  -8   2 -14 1469.26   89.74
  -8   2 -13    0.01    3.13
   8  -2  12   84.07    4.52
  -8   2 -12   85.99    7.47
   8  -2  11   21.99    1.36
  -8   2 -11   24.76    4.31
  -8   2 -10  436.63   17.51
   8  -2  10  435.96   16.92
  -8   2 -10  469.63   22.33
  -8   2  -9   25.83    4.97
   8  -2   9   24.32    2.14
  -8   2  -9   17.56    3.43
  -8   2  -8   24.63    3.06
   8  -2   8   26.89    1.52
  -8   2  -8   29.75    3.94
  -8   2  -7   25.77    3.76
   8  -2   7   29.92    2.24
  -8   2  -7   34.93    5.99
  -8   2  -6 1163.97   42.26
   8  -2   6 1203.67   43.48
  -8   2  -6 1056.85   41.26
  -8   2  -5   32.91    2.27
   8  -2   5   33.76    2.29
  -8   2  -5    9.43    4.65
  -8   2  -4  205.29    8.27
   8  -2   4  223.52    8.96
  -8   2  -4  171.64    9.30
  -8   2  -3    5.29    1.82
   8  -2   3    3.45    1.68
  -8   2  -3    1.41    2.21
  -8   2  -2 2565.73   85.08
   8  -2   2 2862.83   94.83
  -8   2  -1   32.83    2.10
   8  -2   1   24.22    1.93
  -8   2   0  587.36   20.64
   8  -2   0  593.76   20.98
  -8   2   1   61.27    3.44
   8  -2  -1   60.56    3.76
  -8   2   2  146.93    6.70
   8  -2  -2  123.21    5.88
  -8   2   3   40.74    2.68
   8  -2  -3   35.78    2.63
  -8   2   4   14.71    2.23
   8  -2  -4   12.13    1.77
  -8   2   5   48.63    9.68
   8  -2  -5   35.76    2.73
  -8   2   6 1399.21   48.15
   8  -2  -6 1359.28   46.83
  -8   2   7  309.15   12.67
   8  -2  -7  301.44   12.53
  -8   2   8  261.30   11.76
   8  -2  -8  247.83   11.31
  -8   2   9    6.15    2.39
   8  -2  -9    7.60    2.26
  -8   2  10 2238.17   80.85
   8  -2 -10 2297.03   83.00
  -8   2  11    3.42    3.25
   8  -2 -11    4.29    2.51
  -8   2  12  117.57    7.81
   8  -2 -12  138.66    8.59
  -8   2  13    8.35    2.46
   8  -2 -13    2.89    2.56
  -8   2  14  381.73   13.38
   8  -2 -14  437.19   15.61
  -8   2  15    7.71    3.27
   8  -2 -15   33.90    4.75
  -8   2  16  140.35    8.57
   8  -2 -16  174.99   10.84
  -8   2  17    2.04    2.41
   8  -2 -17    6.40    3.81
  -8   2  18  959.79   48.87
   8  -2 -18 1103.06   56.40
   8  -2 -19    5.13    3.56
   6  -2  16  409.49   24.93
   6  -2  16  433.32   27.44
   6  -2  15    2.64    0.98
   6  -2  15    6.12    4.10
   6  -2  14   90.46    4.32
   6  -2  14   77.63   10.57
   6  -2  13   10.68    1.32
   6  -2  13   12.31    2.31
   6  -2  13    8.00    1.64
  -6   2 -13   12.32    3.76
  -6   2 -12   50.05    5.70
   6  -2  12   53.33    3.38
   6  -2  12   54.18   11.65
  -6   2 -12   45.95    6.32
  -6   2 -11    3.87    1.32
   6  -2  11    2.67    0.98
   6  -2  11    2.68    0.67
  -6   2 -11   -0.57    3.54
  -6   2 -10 1501.01   51.52
   6  -2  10 1547.25   52.64
   6  -2  10 1635.24   56.60
  -6   2 -10 1736.11   63.03
  -6   2  -9    1.53    1.09
   6  -2   9    1.61    0.89
   6  -2   9    3.20    3.33
  -6   2  -9    3.15    3.60
  -6   2  -8 1361.24   48.43
   6  -2   8 1448.11   51.21
   6  -2   8 1529.18   54.79
  -6   2  -8 1496.75   56.31
  -6   2  -7   27.96    4.58
   6  -2   7   25.17    2.17
   6  -2   7   13.31    7.70
  -6   2  -7   24.32    7.56
  -6   2  -6  887.83   30.28
   6  -2   6 1031.81   34.95
   6  -2   6  951.50   32.74
  -6   2  -6  865.36   32.69
  -6   2  -5   30.61    1.99
   6  -2   5   29.82    1.85
  -6   2  -5   26.15    4.91
  -6   2  -4  806.04   21.85
   6  -2   4  801.38   21.61
   6  -2   4  793.09   21.54
  -6   2  -3   75.73    2.74
   6  -2   3   79.88    2.88
   6  -2   3   74.01    2.87
  -6   2  -2   12.48    1.31
   6  -2   2   15.48    1.62
   6  -2   2   19.78    2.32
  -6   2  -1  100.26    3.08
   6  -2   1  104.04    3.32
   6  -2   1   99.14    2.06
  -6   2   0  107.74    4.25
   6  -2   0  109.85    4.53
  -6   2   1   12.41    1.58
   6  -2  -1   11.06    1.74
  -6   2   2 1599.93   42.20
   6  -2  -2 1535.88   40.40
  -6   2   3    0.86    1.27
   6  -2  -3   -0.28    1.44
  -6   2   4 1396.15   37.30
   6  -2  -4 1473.41   39.31
  -6   2   5   59.84    6.44
   6  -2  -5   55.82    3.30
  -6   2   6 2121.98   56.06
   6  -2  -6 2268.12   59.68
  -6   2   7  220.74    8.38
   6  -2  -7  215.71    8.18
  -6   2   8 1328.91   36.68
   6  -2  -8 1302.44   35.99
  -6   2   9    4.63    3.63
   6  -2  -9    3.07    2.17
  -6   2  10    4.34    2.69
   6  -2 -10    7.31    3.24
   6  -2 -10    3.30    1.59
  -6   2  11   -1.43    2.59
   6  -2 -11    5.31    3.67
   6  -2 -11    6.42    3.17
  -6   2  12  116.59   13.94
   6  -2 -12  109.53   13.29
   6  -2 -12  119.24   13.59
  -6   2  13   -6.70    2.80
   6  -2 -13   -3.27    2.92
   6  -2 -13    2.76    1.97
  -6   2  14 1724.21   61.35
   6  -2 -14 2025.03   72.16
   6  -2 -14 2264.78   78.27
  -6   2  15   -1.09    2.93
   6  -2 -15    4.20    2.91
   6  -2 -15    6.39    3.30
  -6   2  16 1272.92   54.57
   6  -2 -16 1365.82   58.93
   6  -2 -16 1665.15   69.62
  -6   2  17    7.44    3.03
   6  -2 -17    9.98    3.21
   6  -2 -17    9.55    2.93
  -6   2  18 1142.35   38.08
   6  -2 -18 1365.33   45.32
  -6   2  19   -1.32    2.57
   6  -2 -19    0.13    2.70
   4  -2  18  107.70    8.62
   4  -2  17    1.41    1.12
   4  -2  17   10.45    2.96
   4  -2  16  884.98   28.17
   4  -2  16 1036.75   34.43
   4  -2  15   13.09    2.45
   4  -2  15   11.33    2.46
   4  -2  15   14.52   10.43
   4  -2  14  625.31   26.78
   4  -2  14  575.73   25.34
   4  -2  14  627.97   27.90
  -4   2 -13    7.01    2.08
   4  -2  13    3.24    1.49
   4  -2  13    3.76    4.81
  -4   2 -12 1809.66   62.38
   4  -2  12 1784.11   61.04
  -4   2 -11   10.49    2.35
   4  -2  11    7.13    1.59
  -4   2 -10  729.68   27.00
   4  -2  10  714.08   26.21
  -4   2  -9   33.80    6.14
   4  -2   9   30.49    1.99
  -4   2  -8  237.85    9.29
   4  -2   8  266.57   10.10
   4  -2   8  298.05   12.17
  -4   2  -7    9.26    2.00
   4  -2   7    6.33    1.10
   4  -2   7    0.13    3.27
  -4   2  -6  373.05   11.22
   4  -2   6  385.67   11.28
   4  -2   6  368.98   11.82
  -4   2  -5   37.88    2.20
   4  -2   5   34.54    2.08
   4  -2   5   30.98    5.73
  -4   2  -4 1370.20   35.88
   4  -2   4 1453.28   37.94
   4  -2   4 1466.82   38.79
  -4   2  -3    7.90    1.29
   4  -2   3    7.94    1.33
   4  -2   3    8.95    2.03
   4  -2   2 2642.84   14.56
   4  -2   2 2284.94   58.79
  -4   2  -1    9.01    1.19
   4  -2   1    8.29    1.58
   4  -2   1   11.26    2.52
  -4   2   0 2363.11   60.82
   4  -2   0 2635.11   14.47
   4  -2   0 2445.81   62.37
  -4   2   1   13.25    1.75
   4  -2  -1   14.37    1.92
   4  -2  -1   13.03    1.72
  -4   2   2  644.70   14.58
   4  -2  -2  599.53   13.66
  -4   2   3    6.42    1.40
   4  -2  -3    5.17    1.53
  -4   2   4  147.36    5.59
   4  -2  -4  156.83    5.85
   4  -2  -4  146.76    4.44
  -4   2   5    4.34    1.62
   4  -2  -5    3.03    2.37
   4  -2  -5    3.83    0.94
  -4   2   6  685.93   19.53
   4  -2  -6  749.83   21.43
   4  -2  -6  688.67   18.22
  -4   2   7   36.43    2.71
   4  -2  -7   34.31    3.02
   4  -2  -7   41.74    4.69
  -4   2   8 1198.13   32.88
   4  -2  -8 1194.26   32.90
   4  -2  -8 1330.91   35.03
  -4   2   9  166.62    6.96
   4  -2  -9  155.26    6.81
   4  -2  -9  176.25    9.14
  -4   2  10 1332.24   36.99
   4  -2 -10 1314.33   36.58
   4  -2 -10 1290.44   34.49
  -4   2  11    1.21    2.36
   4  -2 -11    6.63    3.40
  -4   2  12 1361.77   50.19
   4  -2 -12 1316.71   48.87
  -4   2  13    7.55    3.63
   4  -2 -13    3.08    2.92
   4  -2 -13   29.44    3.94
  -4   2  14  586.03   24.25
   4  -2 -14  591.02   25.10
   4  -2 -14  582.65   23.00
  -4   2  15  118.94    7.58
   4  -2 -15  114.43    8.04
   4  -2 -15  129.55    6.97
  -4   2  16  279.33   10.82
   4  -2 -16  256.81   11.12
   4  -2 -16  269.75    9.18
  -4   2  17   62.08    5.12
   4  -2 -17   72.45    6.58
   4  -2 -17   77.06    5.65
  -4   2  18  246.25   12.37
   4  -2 -18  282.94   14.34
   4  -2 -18  251.18   12.02
  -4   2  19    6.63    2.89
   4  -2 -19    6.53    2.84
   4  -2 -19   13.30    3.11
  -4   2  20  328.10   21.99
   4  -2 -20  363.26   24.15
  -4   2  21    5.23    4.30
   2  -2  19   65.46    5.83
   2  -2  19   41.56    4.33
   2  -2  18  233.11   14.15
   2  -2  18  180.07   27.95
   2  -2  17   10.08    2.15
   2  -2  17    8.51    2.87
   2  -2  17    6.44    3.50
   2  -2  16 1095.82   42.77
   2  -2  16 1157.53   45.81
   2  -2  16 1132.61   45.16
   2  -2  15    0.32    1.13
   2  -2  15    8.35    2.69
   2  -2  15    9.99    2.09
  -2   2 -14   47.66    4.48
   2  -2  14   30.22    2.85
   2  -2  14   37.76    7.36
  -2   2 -13   99.96   13.37
   2  -2  13   89.46    6.02
   2  -2  13   76.51   12.83
  -2   2 -12   69.60    8.42
   2  -2  12   51.83    3.96
   2  -2  12   56.68   12.34
  -2   2 -11   71.36    6.96
   2  -2  11   67.58    4.65
   2  -2  11   76.41   15.16
  -2   2 -10  392.64   14.82
   2  -2  10  385.20   14.44
   2  -2  10  361.74   14.99
  -2   2  -9   28.44    5.14
   2  -2   9   23.07    2.13
   2  -2   9   22.69    4.31
  -2   2  -8 2092.07   54.77
   2  -2   8 2590.45   67.45
   2  -2   8 2366.28   63.18
  -2   2  -7   30.49    5.51
   2  -2   7   29.53    2.13
   2  -2   7   25.32    5.53
  -2   2  -6   69.46    4.84
   2  -2   6   68.40    3.33
   2  -2   6   48.09    3.42
  -2   2  -5    2.99    0.79
   2  -2   5    2.92    1.08
   2  -2   5    0.26    1.82
  -2   2  -4 1962.03   39.14
   2  -2   4 2090.18   41.60
   2  -2   4 2174.82   45.26
  -2   2  -3    7.59    1.41
   2  -2   3   10.09    2.18
   2  -2   3    5.17    2.24
  -2   2  -2    8.47    1.38
   2  -2   2    3.79    1.28
  -2   2  -1  278.94    6.98
   2  -2   1  281.69    7.22
  -2   2   0  198.88    5.56
   2  -2   0  202.41    5.73
  -2   2   1   57.84    4.82
   2  -2  -1   57.63    4.90
  -2   2   2  164.04    4.93
   2  -2  -2  184.25    5.55
  -2   2   3  311.61    7.98
   2  -2  -3  292.24    7.63
  -2   2   4 2446.13   48.53
   2  -2  -4 2803.08   55.51
  -2   2   5   42.83    4.16
   2  -2  -5   42.88    4.20
  -2   2   6  553.96   15.89
   2  -2  -6  537.02   15.55
   2  -2  -6  542.20   14.79
  -2   2   7   25.92    2.22
   2  -2  -7   20.40    2.65
   2  -2  -7   23.50    1.89
  -2   2   8 2369.80   61.69
   2  -2  -8 2508.50   65.48
   2  -2  -8 2489.76   64.08
  -2   2   9    1.42    1.64
   2  -2  -9    3.32    1.94
   2  -2  -9    1.62    0.56
  -2   2  10    5.09    2.46
   2  -2 -10   10.98    2.85
   2  -2 -10    8.06    1.11
  -2   2  11   95.12    5.61
   2  -2 -11   89.76    5.65
   2  -2 -11   94.07    8.24
  -2   2  12   49.60    4.15
   2  -2 -12   49.53    4.51
   2  -2 -12   48.96    3.93
  -2   2  13    9.46    3.16
   2  -2 -13   14.66    3.54
   2  -2 -13   11.94    2.22
  -2   2  14  526.73   21.64
   2  -2 -14  511.53   22.08
   2  -2 -14  513.66   20.66
   2  -2 -15    2.11    2.63
   2  -2 -15    0.00    1.56
  -2   2  16 2431.42   51.90
   2  -2 -16 2489.93   52.42
   2  -2 -17    2.30    2.23
   2  -2 -17    1.74    0.78
  -2   2  18  150.19    8.60
   2  -2 -18  173.91   10.57
   2  -2 -18  136.41    7.96
   2  -2 -19    1.32    2.25
   2  -2 -19   14.41    3.29
  -2   2  20 1159.33   79.14
  -2   2  20 1156.70   69.60
   2  -2 -20 1207.03   72.61
   0  -2  19    4.19    3.41
   0  -2  19    3.72    2.22
   0  -2  18   20.11    3.34
   0  -2  18   26.50    4.52
   0  -2  18   25.78    6.29
   0  -2  17   46.17    4.18
   0  -2  17   62.30    5.29
   0  -2  17   64.64   12.75
   0  -2  16  852.98   37.05
   0  -2  16  821.12   36.04
   0  -2  16  867.77   38.90
   0  -2  15   -0.05    1.66
   0  -2  15    5.14    2.76
   0  -2  15    3.07    2.54
   0   2 -14   22.73    3.28
   0  -2  14   19.21    2.70
   0  -2  14   37.31    7.63
   0   2 -13   52.27    9.61
   0  -2  13   46.62    4.35
   0  -2  13   59.66   11.93
   0   2 -12 2385.74   85.26
   0  -2  12 2794.16   99.17
   0  -2  12 2928.46  313.55
   0   2 -11    3.00    1.03
   0  -2  11    3.11    2.19
   0  -2  11    1.46    1.84
   0   2 -10    7.27    1.65
   0  -2  10    9.07    1.73
   0  -2  10    6.58    2.81
   0   2  -9  142.13   12.66
   0  -2   9  115.36    4.34
   0  -2   9  110.25    5.58
   0   2  -8 1295.37   35.38
   0  -2   8 1253.97   33.74
   0  -2   8 1327.54   37.31
   0   2  -7   57.39    8.57
   0  -2   7   47.52    2.53
   0  -2   7   43.92    4.29
   0   2  -6  180.38    6.49
   0  -2   6  166.32    6.17
   0  -2   6  147.10    7.28
   0   2  -5    0.34    0.84
   0  -2   5    1.17    1.23
   0   2  -4 1377.89   28.38
   0  -2   4 1458.60   29.96
   0   2  -3   -0.30    0.84
   0  -2   3    0.91    1.33
   0   2  -2  215.84    5.85
   0  -2   2  200.31    5.56
   0   2  -1  103.70    3.61
   0  -2   1   98.57    3.01
   0  -2   0 3225.64   15.04
   0   2   1  103.08    3.55
   0  -2  -1  103.28    3.82
   0   2   2  218.05    5.77
   0  -2  -2  219.31    5.97
   0   2   3   -0.04    1.18
   0  -2  -3   -0.53    1.47
   0   2   4 1461.16   29.78
   0  -2  -4 1450.44   29.55
   0   2   5    1.58    1.21
   0  -2  -5    0.64    1.39
   0   2   6  173.23    6.07
   0  -2  -6  174.13    6.19
   0   2   7   54.13    2.62
   0  -2  -7   56.44    2.97
   0  -2  -7   60.13    8.07
   0   2   8 1348.10   35.76
   0  -2  -8 1411.82   37.88
   0  -2  -8 1404.86   37.21
   0   2   9  123.97    5.05
   0  -2  -9  109.60    4.41
   0  -2  -9  135.42   11.87
   0   2  10    8.34    1.52
   0  -2 -10   17.55    2.60
   0  -2 -10   12.92    2.15
   0   2  11    1.90    2.45
   0  -2 -11    0.12    1.89
   0  -2 -11    0.10    1.02
   0   2  12 2849.23  304.50
   0  -2 -12 2793.35   99.37
   0  -2 -12 3249.41  347.30
   0   2  13   49.26   20.86
   0  -2 -13   50.87    4.97
   0  -2 -13   56.82    5.17
   0   2  14   15.61    2.31
   0  -2 -14   35.23    4.09
   0   2  15    3.55    2.27
   0  -2 -15    6.56    3.14
   0  -2 -15    7.41    1.20
   0   2  16  892.94   38.01
   0  -2 -16  915.58   40.26
   0  -2 -16 1012.21   43.42
   0   2  17   52.10    3.57
   0  -2 -17   60.16    4.97
   0  -2 -17   59.92   12.37
   0   2  18   20.82    2.81
   0  -2 -18   30.00    3.85
   0  -2 -18   33.72    7.12
   0   2  19    3.51    2.37
   0  -2 -19    4.24    1.86
   0   2  20  380.94   28.02
   0   2  20  457.30   28.64
   0  -2 -20  391.98   25.41
  -2  -2  20 1096.18   66.53
  -2  -2  20 1357.64   81.96
  -2  -2  19   40.83    8.21
  -2  -2  19    2.45    1.96
  -2  -2  18  123.64    9.53
  -2  -2  18  138.91   26.39
  -2  -2  17    1.00    0.97
  -2  -2  17    1.20    2.23
  -2  -2  17   -0.36    1.17
  -2  -2  16 2381.59   52.05
  -2  -2  16 2472.09   53.82
  -2  -2  15    1.99    1.42
   2   2 -14  535.04   22.60
  -2  -2  14  479.30   27.04
  -2  -2  14  447.84   19.97
   2   2 -13   10.18    2.30
  -2  -2  13    7.99    1.91
  -2  -2  13   11.44    2.05
   2   2 -12   51.99   10.67
  -2  -2  12   44.61    4.78
  -2  -2  12   47.71    4.77
   2   2 -11  102.38   16.47
  -2  -2  11   89.32    8.79
  -2  -2  11   99.42    6.65
   2   2 -10    1.14    1.18
  -2  -2  10   13.45    2.26
  -2  -2  10    8.23    2.89
   2   2  -9    1.51    0.65
  -2  -2   9    1.49    2.62
   2   2  -8 2565.93   19.70
  -2  -2   8 2542.36   66.54
   2   2  -7   27.01    5.34
  -2  -2   7   22.67    2.31
   2   2  -6  521.13   15.38
  -2  -2   6  536.50   15.76
   2   2  -5   45.66    6.22
  -2  -2   5   38.27    3.82
   2   2  -4 2618.06   52.27
  -2  -2   4 2621.26   52.10
   2   2  -3  277.77    7.28
  -2  -2   3  282.77    7.58
   2   2  -2  163.36    4.92
  -2  -2   2  154.77    4.95
   2   2  -1   53.57    4.47
  -2  -2   1   51.75    4.38
   2   2   0  197.58    5.46
  -2  -2   0  184.44    5.27
   2   2   1  280.25    6.98
  -2  -2  -1  271.41    6.90
   2   2   2   12.03    1.46
  -2  -2  -2    5.23    2.30
   2   2   3    5.78    1.06
  -2  -2  -3    6.51    1.41
   2   2   4 2141.56   42.25
  -2  -2  -4 2262.97   44.79
   2   2   5    5.01    1.18
  -2  -2  -5    3.42    0.87
   2   2   6   71.11    3.13
  -2  -2  -6   69.30    3.41
   2   2   7   31.59    2.26
  -2  -2  -7   25.93    2.08
  -2  -2  -7   31.56    2.47
   2   2   8 2697.69   69.58
  -2  -2  -8 2624.83   68.21
  -2  -2  -8 2694.81   70.23
   2   2   9   23.03    1.96
  -2  -2  -9   25.53    2.71
  -2  -2  -9   24.32    5.80
   2   2  10  418.00   15.11
  -2  -2 -10  388.26   14.81
  -2  -2 -10  449.41   16.99
   2   2  11   74.57    4.64
  -2  -2 -11   69.41    5.10
  -2  -2 -11   76.86    6.93
   2   2  12   58.70    4.16
  -2  -2 -12   64.57    5.57
  -2  -2 -12   56.59    5.76
   2   2  13  101.65    5.23
  -2  -2 -13   96.22    7.35
  -2  -2 -13   99.74    9.24
   2   2  14   44.67    3.77
  -2  -2 -14   31.53    3.64
  -2  -2 -14   44.10   10.39
   2   2  15    6.02    2.40
  -2  -2 -15    3.52    1.91
  -2  -2 -15    8.22    1.46
   2   2  16 1276.18   48.92
  -2  -2 -16 1440.32   56.63
  -2  -2 -16 1302.39   51.34
   2   2  17    7.47    2.42
   2   2  17    1.69    1.49
  -2  -2 -17    7.67    1.86
   2   2  18  189.14   12.75
  -2  -2 -18  214.92   28.40
   2   2  19   24.36    8.35
  -4  -2  20  291.56   20.25
  -4  -2  20  368.22   24.80
  -4  -2  19    6.63    1.08
  -4  -2  19    9.58    3.16
  -4  -2  19    3.03    3.02
  -4  -2  18  251.47   14.66
  -4  -2  18  242.42   12.84
  -4  -2  18  242.08   11.89
  -4  -2  17   65.98   12.20
  -4  -2  17   74.76    6.54
  -4  -2  17   59.26   10.23
  -4  -2  16  272.31   15.68
  -4  -2  16  285.96   11.38
  -4  -2  16  259.34   29.37
  -4  -2  15  124.29   11.29
  -4  -2  15  110.83    7.58
  -4  -2  15  115.77   17.13
  -4  -2  14  592.37   24.93
  -4  -2  14  553.93   23.13
   4   2 -13    1.37    2.33
  -4  -2  13   -0.31    1.96
  -4  -2  13    1.61    2.21
   4   2 -12 1335.21   49.51
  -4  -2  12 1400.70   52.14
  -4  -2  12 1422.14   52.96
   4   2 -11    2.20    1.72
  -4  -2  11   -1.21    2.45
  -4  -2  11    5.48    3.13
   4   2 -10 1262.83   35.58
  -4  -2  10 1365.40   38.45
   4   2  -9  174.61    7.43
  -4  -2   9  171.61   15.26
   4   2  -8 1236.41   34.07
  -4  -2   8 1230.75   34.19
   4   2  -7   43.50    8.83
  -4  -2   7   37.12    3.64
   4   2  -6  800.44   23.81
  -4  -2   6  670.07   19.37
   4   2  -5    6.61    1.52
  -4  -2   5    4.23    1.65
   4   2  -4  129.27    5.07
  -4  -2   4  136.87    5.50
   4   2  -3    2.95    1.33
  -4  -2   3    3.30    1.21
   4   2  -2  621.46   14.24
  -4  -2   2  581.43   13.30
   4   2  -1   17.32    3.36
  -4  -2   1   12.63    1.83
   4   2   0 2118.87   54.68
  -4  -2   0 2325.97   59.75
   4   2   1    9.95    1.18
  -4  -2  -1    7.28    1.29
   4   2   2 2043.78   52.54
  -4  -2  -2 2365.56   60.67
   4   2   3    7.09    0.97
  -4  -2  -3    8.22    1.39
   4   2   4 1402.99   36.40
  -4  -2  -4 1504.49   39.05
   4   2   5   35.65    1.71
  -4  -2  -5   32.99    1.90
   4   2   6  380.07   10.73
  -4  -2  -6  408.01   11.84
   4   2   7    7.06    1.27
  -4  -2  -7    6.37    2.06
   4   2   8  290.53   10.55
  -4  -2  -8  263.15   10.13
  -4  -2  -8  296.23   11.86
   4   2   9   38.21    2.00
  -4  -2  -9   31.43    2.42
  -4  -2  -9   32.07    3.59
   4   2  10  789.90   28.44
  -4  -2 -10  738.62   27.45
  -4  -2 -10  842.08   31.61
   4   2  11    6.20    1.33
  -4  -2 -11    7.58    2.32
  -4  -2 -11    8.28    1.63
   4   2  12 1961.23   66.42
  -4  -2 -12 1890.18   65.79
  -4  -2 -12 1963.19   67.92
   4   2  13    5.75    1.53
  -4  -2 -13    6.66    2.94
  -4  -2 -13    7.37    1.52
   4   2  14  692.98   29.00
  -4  -2 -14  687.28   30.20
  -4  -2 -14  699.22   30.88
   4   2  15   17.81    2.53
   4   2  15    9.92    1.84
  -4  -2 -15   16.83    3.55
   4   2  16  904.96   28.96
   4   2  16 1021.17   31.24
  -4  -2 -16 1035.94   34.39
   4   2  17    6.75    1.92
   4   2  17    7.72    2.21
  -4  -2 -17    6.81    2.24
  -6  -2  20  202.96   32.96
  -6  -2  19    0.50    1.08
  -6  -2  19   -1.01    2.56
  -6  -2  19   -0.11    0.93
  -6  -2  18 1260.00   42.58
  -6  -2  18 1427.18   47.36
  -6  -2  18 1184.17   38.38
  -6  -2  17   10.40    3.34
  -6  -2  17   15.79    3.55
  -6  -2  17   16.64    6.23
  -6  -2  16 1428.03   61.59
  -6  -2  16 1380.84   59.21
  -6  -2  16 1382.84   58.44
  -6  -2  15   -0.99    3.36
  -6  -2  15    4.07    2.49
  -6  -2  15    1.95    1.90
  -6  -2  14 1930.40   68.86
  -6  -2  14 1890.43   67.11
  -6  -2  14 1927.05   67.80
  -6  -2  13   -7.31    6.61
  -6  -2  13   -2.73    2.50
  -6  -2  13    1.69    2.85
   6   2 -12  152.37    9.13
  -6  -2  12  113.88   15.81
  -6  -2  12  121.60   14.62
   6   2 -11    3.50    1.25
  -6  -2  11    2.86    1.44
   6   2 -10    2.91    1.68
  -6  -2  10    7.08    1.19
   6   2  -9    4.54    1.77
  -6  -2   9    3.13    1.96
   6   2  -8 1287.79   35.74
  -6  -2   8 1382.60   38.69
   6   2  -7  235.97    8.83
  -6  -2   7  214.56   10.30
   6   2  -6 2173.04   57.65
  -6  -2   6 2217.30   58.66
   6   2  -5   58.61    6.49
  -6  -2   5   54.81    3.38
   6   2  -4 1386.29   37.33
  -6  -2   4 1371.13   36.78
   6   2  -3    2.19    1.58
  -6  -2   3    4.42    1.35
   6   2  -2 1442.06   38.29
  -6  -2   2 1425.51   37.58
   6   2  -1   12.90    2.93
  -6  -2   1   12.66    1.73
   6   2   0  100.04    3.94
  -6  -2   0   94.11    3.85
   6   2   1  105.30    3.20
  -6  -2  -1   92.46    2.80
   6   2   2   15.01    3.78
  -6  -2  -2   10.93    1.52
   6   2   3   72.93    4.43
  -6  -2  -3   79.32    2.67
   6   2   4  756.59   20.29
  -6  -2  -4  812.28   21.63
   6   2   5   32.08    1.60
  -6  -2  -5   31.28    1.80
   6   2   6  863.40   29.03
  -6  -2  -6  911.89   30.74
   6   2   7   25.68    1.86
  -6  -2  -7   24.39    4.33
  -6  -2  -7   21.21    2.51
   6   2   8 1541.95   54.16
  -6  -2  -8 1416.01   50.11
  -6  -2  -8 1513.56   54.74
   6   2   9    1.74    0.79
  -6  -2  -9    1.62    1.64
  -6  -2  -9    0.22    0.54
   6   2  10 1544.12   52.08
  -6  -2 -10 1470.12   50.86
  -6  -2 -10 1603.12   56.06
   6   2  11    1.47    0.79
  -6  -2 -11    4.88    2.33
  -6  -2 -11    1.32    1.17
   6   2  12   50.02    2.75
  -6  -2 -12   44.47   11.52
   6   2  13   10.85    1.93
  -6  -2 -13    9.25    2.14
   6   2  14   67.37    4.90
  -6  -2 -14   90.07   10.43
  -6  -2 -15    3.53    1.30
  -8  -2  19    1.03    2.12
  -8  -2  18  998.94   71.40
  -8  -2  18 1081.82   55.15
  -8  -2  18  943.61   47.27
  -8  -2  17   -0.49    1.84
  -8  -2  17   12.71    4.34
  -8  -2  17    5.15    2.29
  -8  -2  16  138.35   21.37
  -8  -2  16  158.78    9.73
  -8  -2  16  161.37    9.06
  -8  -2  15   26.09    7.06
  -8  -2  15   29.16    4.52
  -8  -2  15   36.36    5.07
  -8  -2  14  315.85   12.02
  -8  -2  14  381.57   13.49
  -8  -2  14  423.36   14.43
  -8  -2  13   10.28    2.19
  -8  -2  13    6.41    2.14
  -8  -2  12   92.18   10.35
  -8  -2  12  103.66    7.19
  -8  -2  11    8.49    1.93
  -8  -2  11   10.71    3.03
  -8  -2  10 2239.28   81.19
  -8  -2  10 1875.18   67.92
   8   2  -9    6.82    3.36
  -8  -2   9    2.66    2.03
   8   2  -8  272.98   12.56
  -8  -2   8  252.25   11.65
   8   2  -7  324.67   13.67
  -8  -2   7  282.16   14.20
   8   2  -6 1415.56   49.06
  -8  -2   6 1360.40   46.99
   8   2  -5   39.22    8.38
  -8  -2   5   35.87    5.63
   8   2  -4   12.81    2.54
  -8  -2   4   12.27    1.87
   8   2  -3   39.19    5.84
  -8  -2   3   33.97    2.49
   8   2  -2  119.54    5.72
  -8  -2   2  117.84    5.37
   8   2  -1   55.32    3.49
  -8  -2   1   65.53    3.72
   8   2   0  557.23   19.83
  -8  -2   0  553.75   19.39
   8   2   1   36.20    6.38
  -8  -2  -1   26.28    1.79
   8   2   2 2437.98   80.99
  -8  -2  -2 2737.65   90.45
   8   2   3   -0.02   15.58
  -8  -2  -3    1.13    1.02
   8   2   4  219.14    8.65
  -8  -2  -4  215.49    8.28
   8   2   5   15.15    2.52
  -8  -2  -5   34.27    2.05
   8   2   6 1308.86   47.01
  -8  -2  -6 1188.90   42.64
   8   2   7   19.83    2.22
  -8  -2  -7   29.78    3.04
  -8  -2  -8   19.74    4.90
  -8  -2  -9   20.01    4.82
  -8  -2 -10  434.93   18.89
  -8  -2 -11   24.16    4.81
  -8  -2 -12   87.98   10.84
  -8  -2 -14 1218.26   73.26
 -10  -2  17   14.00    3.75
 -10  -2  17   24.02    5.28
 -10  -2  17   25.67    3.39
 -10  -2  16    2.90    2.56
 -10  -2  16   13.96    3.50
 -10  -2  16    7.99    2.71
 -10  -2  15    3.11    1.94
 -10  -2  15   16.94    3.60
 -10  -2  15   18.96    3.96
 -10  -2  14 2383.82  114.33
 -10  -2  14 2674.38   30.88
 -10  -2  14 2916.17   31.72
 -10  -2  13   -4.11    9.37
 -10  -2  13    1.05    3.29
 -10  -2  12   15.06    9.00
 -10  -2  12   14.73    3.12
 -10  -2  11    3.48    1.59
 -10  -2  10  322.21   14.44
 -10  -2   9    4.30    1.62
 -10  -2   9    2.79    2.13
 -10  -2   8  140.68   15.37
 -10  -2   8  127.77    7.39
 -10  -2   7    0.97    1.00
 -10  -2   7    0.76    2.34
 -10  -2   6 1953.56   71.40
 -10  -2   6 1821.46   67.23
 -10  -2   5   43.00    3.40
 -10  -2   5   34.28   13.77
 -10  -2   4   15.05    2.59
 -10  -2   4   12.11    2.61
 -10  -2   3   25.72    2.57
 -10  -2   3   22.04    4.99
 -10  -2   2 2368.77   85.25
 -10  -2   2 1952.51   71.02
 -10  -2   1   11.76    1.89
 -10  -2   0   30.74    2.12
 -10  -2   0   14.35    2.64
 -10  -2  -1   24.08    2.06
 -10  -2  -1   17.86    2.44
 -10  -2  -2   79.32    4.66
 -10  -2  -2   64.43    4.59
 -10  -2  -3  102.08    4.14
 -10  -2  -3   77.92    5.04
 -10  -2  -4    8.15    0.77
 -10  -2  -4    8.62    1.04
 -10  -2  -6  967.30   41.22
 -10  -2  -7   29.61    8.40
 -10  -2  -8   96.88    8.15
 -10  -2  -9   -1.80    1.41
 -10  -2 -10 1703.82   82.98
 -10  -2 -11   23.13    5.93
 -12  -2  16  283.60   27.68
 -12  -2  16  370.69   25.18
 -12  -2  15    2.50    6.34
 -12  -2  15    6.35    2.72
 -12  -2  15    6.89    4.04
 -12  -2  14  225.85   29.58
 -12  -2  14  251.17   15.72
 -12  -2  13    1.55    1.10
 -12  -2  13   11.06    4.13
 -12  -2  12   14.16    4.37
 -12  -2  12   18.16    3.86
 -12  -2  11   37.97    8.34
 -12  -2  11   38.58    4.25
 -12  -2  10 1802.63   70.10
 -12  -2  10 1727.55   67.46
 -12  -2   9   16.34    3.78
 -12  -2   9   15.45    4.64
 -12  -2   8  222.89   14.97
 -12  -2   8  236.47   12.93
 -12  -2   7    5.72    1.01
 -12  -2   7   -2.53   10.27
 -12  -2   6 1056.29   44.54
 -12  -2   6 1145.13   49.04
 -12  -2   5   19.64    2.67
 -12  -2   5    5.65    2.48
 -12  -2   4  162.72    8.25
 -12  -2   4  184.81   10.31
 -12  -2   3   35.37    3.29
 -12  -2   3   45.57    4.74
 -12  -2   2    1.28    1.34
 -12  -2   2    4.80    2.42
 -12  -2   1   10.06    1.46
 -12  -2   1   16.61    3.22
 -12  -2   0   42.19    3.37
 -12  -2   0   44.70    4.35
 -12  -2  -1    6.12    0.90
 -12  -2  -1    5.75    1.39
 -12  -2  -2 1577.91   58.58
 -12  -2  -2 1335.52   49.92
 -12  -2  -5    0.11    1.37
 -12  -2  -6 1243.36   61.13
 -12  -2  -7    3.22    1.53
 -12  -2  -8  262.68   17.64
 -14  -2  13    7.55    1.78
 -14  -2  13    3.13    2.67
 -14  -2  12  738.04   45.43
 -14  -2  11    2.04    1.20
 -14  -2  11   -2.30    2.05
 -14  -2  10  634.30   39.30
 -14  -2   9   13.00    4.10
 -14  -2   9    4.12    2.36
 -14  -2   8   64.13    6.07
 -14  -2   8   72.91    5.98
 -14  -2   7    2.57    1.88
 -14  -2   7    3.26    2.12
 -14  -2   6  448.91   23.76
 -14  -2   5    8.28    2.03
 -14  -2   5    9.47    2.59
 -14  -2   4  541.56   27.11
 -14  -2   4  644.86   32.63
 -14  -2   3    8.39    1.93
 -14  -2   3    6.28    1.87
 -14  -2   2 1402.28   67.21
 -14  -2   2 1435.52   69.29
 -14  -2   1   29.03    1.70
 -14  -2   0  484.67   28.67
 -14  -2   0  497.69   29.70
 -14  -2  -1   14.95    0.84
 -14  -2  -3   15.03    2.67
 -14  -2  -4    5.38    1.71
 -13   3  -3   81.18    5.66
  13  -3   3   88.24    6.54
 -13   3  -2   89.30    6.38
  13  -3   1   -0.11    1.24
 -13   3   0   62.70    4.96
 -13   3   1  110.60    6.91
  13  -3  -1   95.66    6.62
  13  -3  -2  592.51   30.15
 -13   3   3    0.56    1.31
  13  -3  -3   -1.47    2.45
 -13   3   4  271.39   14.73
  13  -3  -4  268.83   15.28
 -13   3   5   15.73    3.16
  13  -3  -5   21.03    4.80
 -13   3   7    7.08    2.92
 -13   3   8   81.78    7.10
  13  -3  -8   85.61    7.95
  13  -3  -9   86.83    8.42
  13  -3 -10  428.30   28.10
 -13   3  11    4.20    2.34
  13  -3 -11    4.02    2.45
 -11   3  -8    3.56    0.88
 -11   3  -7   10.87    2.14
 -11   3  -6    3.86    1.03
  11  -3   6    1.64    1.08
 -11   3  -5   24.40    2.27
  11  -3   5   18.02    1.94
 -11   3  -4   42.64    2.75
  11  -3   4   43.52    2.91
 -11   3  -3   23.68    2.06
  11  -3   3   17.19    1.82
 -11   3  -2 1779.59   61.22
  11  -3   2 1810.89   62.45
 -11   3  -1    2.31    0.97
  11  -3   1    0.40    1.09
 -11   3   0   93.51    5.19
  11  -3   0   91.15    5.22
 -11   3   1    5.61    1.56
  11  -3  -1    5.18    1.67
 -11   3   2 1575.47   64.82
  11  -3  -2 1548.54   63.88
 -11   3   3    5.43    1.63
  11  -3  -3    4.91    1.26
 -11   3   4   10.46    2.04
  11  -3  -4    7.81    2.01
 -11   3   5   10.38    2.09
  11  -3  -5   12.69    2.42
 -11   3   6   56.61    4.05
  11  -3  -6   46.56    3.61
 -11   3   7   16.39    2.53
  11  -3  -7   16.25    2.54
 -11   3   8   95.65    6.49
  11  -3  -8   99.61    6.92
 -11   3   9   15.60    2.73
  11  -3  -9   19.75    3.35
 -11   3  10 1887.33   66.96
  11  -3 -10 1953.02   69.39
 -11   3  11   91.61    6.34
  11  -3 -11  108.01    7.61
 -11   3  12   91.39    6.92
  11  -3 -12   69.11    6.04
 -11   3  13   41.56    8.81
  11  -3 -13   33.81    4.65
  11  -3 -14 1117.66   68.50
  11  -3 -15   13.90    3.74
  -9   3 -11    1.00    0.42
   9  -3  11    0.63    0.63
  -9   3 -10  564.00   28.01
   9  -3  10  527.21   25.94
  -9   3  -9   29.14    3.91
   9  -3   9   30.50    2.47
  -9   3  -8    4.42    1.08
   9  -3   8    2.88    0.83
  -9   3  -7    0.56    0.61
   9  -3   7   -0.08    0.67
  -9   3  -6 1943.04   72.98
   9  -3   6 1980.59   74.24
  -9   3  -5    0.98    0.76
   9  -3   5    2.72    1.26
  -9   3  -4  123.92    4.67
   9  -3   4  124.34    4.76
  -9   3  -3   18.35    1.93
   9  -3   3   21.57    2.06
  -9   3  -2  536.82   19.62
   9  -3   2  524.52   19.22
  -9   3  -1  105.01    5.22
   9  -3   1  102.37    5.11
  -9   3   0   64.70    4.66
   9  -3   0   66.38    4.70
  -9   3   1   26.91    2.77
   9  -3  -1   23.95    2.46
  -9   3   2  389.60   15.08
   9  -3  -2  408.38   15.78
  -9   3   3  170.14    7.87
   9  -3  -3  175.38    8.16
  -9   3   4    1.99    2.05
   9  -3  -4    1.78    1.39
  -9   3   5   -0.96    1.63
   9  -3  -5   -1.20    1.30
  -9   3   6 2072.24   71.60
  -9   3   7   23.99    3.19
  -9   3   8   50.18    4.49
   9  -3  -8   49.32    4.52
  -9   3   9   65.82    4.83
   9  -3  -9   55.63    4.22
  -9   3  10 1043.19   25.81
   9  -3 -10  967.20   24.28
  -9   3  11  129.78    8.38
   9  -3 -11  126.14    8.24
  -9   3  12  149.89   20.55
   9  -3 -12  170.60    9.84
  -9   3  13   70.56    5.77
   9  -3 -13   67.83    5.86
  -9   3  14  330.13   14.39
   9  -3 -14  342.44   15.49
  -9   3  15   10.64    3.00
   9  -3 -15    5.03    2.24
   9  -3 -16   16.55    3.44
  -7   3 -14  587.89   35.99
  -7   3 -13   24.66    7.07
   7  -3  13   32.15    2.55
   7  -3  13   26.57    7.91
  -7   3 -12  590.25   29.51
   7  -3  12  588.36   29.17
   7  -3  12  618.85   31.37
  -7   3 -11   19.06    4.19
   7  -3  11   18.76    2.10
   7  -3  11   17.05    3.76
  -7   3 -10 1158.33   40.78
   7  -3  10 1164.45   40.76
   7  -3  10 1282.34   45.47
  -7   3  -9   51.90    8.69
   7  -3   9   61.16    3.93
   7  -3   9   54.38    4.19
  -7   3  -8  519.62   13.19
   7  -3   8  485.37   12.06
   7  -3   8  478.69   12.55
  -7   3  -7  208.65   16.22
   7  -3   7  190.58    6.00
   7  -3   7  175.56    5.99
  -7   3  -6  108.08    5.30
   7  -3   6  106.31    5.11
   7  -3   6   85.91    5.45
  -7   3  -5   99.75    4.87
   7  -3   5  105.74    5.11
   7  -3   5   92.90    7.82
  -7   3  -4    4.94    1.28
   7  -3   4    3.89    1.16
   7  -3   4    1.43    0.86
  -7   3  -3    2.56    1.99
   7  -3   3    2.28    2.01
   7  -3   3   -0.17    2.97
  -7   3  -2 1532.84   54.71
   7  -3   2 1568.68   55.89
   7  -3   2 1601.71   56.29
  -7   3  -1   38.01    3.16
   7  -3   1   35.15    3.05
   7  -3   1   34.72    3.73
  -7   3   0 1158.79   41.91
   7  -3   0 1138.73   41.13
   7  -3   0 1089.07   38.09
  -7   3   1   41.35    3.46
   7  -3  -1   46.64    3.96
  -7   3   2 2356.95   79.07
   7  -3  -2 2559.39   85.69
  -7   3   3    2.47    1.52
   7  -3  -3    7.78    2.28
  -7   3   4  825.24   30.76
   7  -3  -4  780.61   29.08
  -7   3   5   64.99    5.14
   7  -3  -5   55.14    4.30
  -7   3   6   45.89    4.24
   7  -3  -6   44.46    4.01
  -7   3   7   39.69    3.96
   7  -3  -7   42.07    3.92
  -7   3   8   38.11    3.77
   7  -3  -8   29.40    3.06
  -7   3   9    2.81    2.23
   7  -3  -9   -0.25    1.55
  -7   3  10 1648.94   58.04
   7  -3 -10 1626.53   57.14
  -7   3  11  122.37    7.19
   7  -3 -11  118.44    6.97
   7  -3 -11  114.67    5.52
  -7   3  12  563.22   16.36
   7  -3 -12  572.29   16.68
  -7   3  13   69.80    5.73
   7  -3 -13   82.88    6.58
   7  -3 -13   72.95    4.86
  -7   3  14 2071.46   79.99
   7  -3 -14 2377.65   91.79
   7  -3 -14 2647.50   22.90
  -7   3  15   10.06    4.82
   7  -3 -15   11.30    3.21
   7  -3 -15    5.71    3.08
  -7   3  16  185.71    9.72
   7  -3 -16  212.49   11.94
   7  -3 -16  211.62    9.47
  -7   3  17    0.01    2.23
   7  -3 -17   -0.47    2.84
   7  -3 -18   45.27    5.81
  -5   3 -15   18.34    5.59
   5  -3  15   19.11    2.63
   5  -3  15   18.56    5.13
  -5   3 -14  741.92   37.00
   5  -3  14  741.88   36.74
   5  -3  14  804.46   40.67
  -5   3 -13    0.02    0.97
   5  -3  13    2.12    1.40
  -5   3 -12  323.73   23.09
   5  -3  12  303.22   13.16
   5  -3  12  290.34   13.74
  -5   3 -11   18.10    3.32
   5  -3  11   12.49    1.86
   5  -3  11   13.51    4.20
  -5   3 -10  278.36    8.61
   5  -3  10  277.20    8.27
   5  -3  10  293.51    9.89
  -5   3  -9   23.48    3.81
   5  -3   9   18.50    2.00
   5  -3   9   26.46    5.55
  -5   3  -8  615.25   24.32
   5  -3   8  556.36   21.38
   5  -3   8  576.13   22.88
  -5   3  -7   64.21    4.70
   5  -3   7   51.17    3.29
   5  -3   7   53.07    8.56
  -5   3  -6 1767.29   62.94
   5  -3   6 1742.27   61.94
   5  -3   6 1874.47   67.21
  -5   3  -5  126.85    6.07
   5  -3   5  140.18    6.62
   5  -3   5  127.59    6.89
  -5   3  -4 1850.22   62.26
   5  -3   4 1986.61   66.78
   5  -3   4 1975.09   66.60
  -5   3  -3    3.90    1.77
   5  -3   3    6.03    1.41
   5  -3   3    2.52    1.60
  -5   3  -2  579.40   20.71
   5  -3   2  566.60   20.25
   5  -3   2  536.77   19.13
  -5   3  -1   70.64    3.23
   5  -3   1   68.73    3.27
   5  -3   1   60.34    2.80
  -5   3   0  194.22    7.24
   5  -3   0  196.74    7.22
   5  -3   0  170.22    5.89
  -5   3   1   50.91    3.28
   5  -3  -1   53.68    3.24
   5  -3  -1   53.37    2.89
  -5   3   2  282.93    9.52
   5  -3  -2  269.83    9.10
  -5   3   3  424.80   13.17
   5  -3  -3  408.39   12.76
  -5   3   4  342.10   11.26
   5  -3  -4  338.79   11.24
  -5   3   5    1.40    1.70
   5  -3  -5    6.84    2.41
   5  -3  -5    0.58    0.65
  -5   3   6 1559.95   53.34
   5  -3  -6 1525.86   52.16
   5  -3  -6 1455.59   48.21
  -5   3   7    0.33    1.83
   5  -3  -7    1.24    1.87
   5  -3  -7    2.22    0.60
  -5   3   8 1408.83   48.55
   5  -3  -8 1567.40   54.07
   5  -3  -8 1453.51   48.53
  -5   3   9   44.15    4.02
   5  -3  -9   34.86    3.75
   5  -3  -9   40.76    3.85
  -5   3  10  989.25   37.03
   5  -3 -10  974.43   37.21
   5  -3 -10 1021.27   37.50
  -5   3  11  239.18   11.28
   5  -3 -11  248.64   11.65
   5  -3 -11  268.28   12.20
  -5   3  12  831.41   31.00
   5  -3 -12  806.46   30.24
   5  -3 -12  773.95   27.50
  -5   3  13    9.31    3.04
   5  -3 -13   10.29    2.83
   5  -3 -13    8.35    1.80
  -5   3  14  222.87   12.06
   5  -3 -14  210.17   11.76
   5  -3 -14  186.59   10.98
  -5   3  15   41.89    4.20
   5  -3 -15   53.13    4.85
   5  -3 -15   43.73    3.12
  -5   3  16  179.18    9.77
   5  -3 -16  180.16   10.73
   5  -3 -16  170.64    8.48
   5  -3 -17    8.98    3.32
   5  -3 -17   15.49    2.61
  -5   3  18  962.56   58.67
   5  -3 -18 1099.49   67.75
  -3   3 -16    9.13    4.27
   3  -3  16   10.29    2.82
   3  -3  16   14.16    4.19
  -3   3 -15   -0.74    1.38
   3  -3  15    2.10    2.38
   3  -3  15   -0.05    1.91
  -3   3 -14  224.49   21.00
   3  -3  14  240.21   10.66
   3  -3  14  251.70   12.48
  -3   3 -13   72.13    5.52
   3  -3  13   53.67    4.05
   3  -3  13   64.52   12.44
  -3   3 -12 1201.47   27.64
   3  -3  12 1165.90   26.09
   3  -3  12 1261.12   30.53
  -3   3 -11    1.91    0.97
   3  -3  11    1.69    1.52
   3  -3  11    2.23    1.70
  -3   3 -10  301.74   19.77
   3  -3  10  252.70   10.84
   3  -3  10  262.45   13.49
  -3   3  -9  124.02   11.20
   3  -3   9  119.30    6.01
   3  -3   9  108.20   12.99
  -3   3  -8 1914.60   68.41
   3  -3   8 1728.63   61.65
   3  -3   8 1721.27   62.70
  -3   3  -7   32.23    5.76
   3  -3   7   24.13    2.28
   3  -3   7   28.55    5.77
  -3   3  -6  391.67   14.80
   3  -3   6  380.07   14.31
   3  -3   6  351.87   14.66
  -3   3  -5  537.39   15.85
   3  -3   5  539.08   19.44
   3  -3   5  475.00   18.53
  -3   3  -4  222.13    7.70
   3  -3   4  225.40    7.86
   3  -3   4  211.63    9.41
  -3   3  -3    9.62    1.68
   3  -3   3    9.43    1.59
   3  -3   3   11.49    4.18
  -3   3  -2  281.16    9.25
   3  -3   2  295.14    9.65
  -3   3  -1   29.95    2.57
   3  -3   1   30.22    2.47
  -3   3   0 1738.29   45.88
   3  -3   0 1831.32   48.34
  -3   3   1  138.12    5.72
   3  -3  -1  141.67    5.62
  -3   3   2 1069.21   29.18
   3  -3  -2 1114.52   30.42
  -3   3   3  229.25    8.11
   3  -3  -3  221.76    7.89
  -3   3   4 2572.78   67.16
   3  -3  -4 2748.83   71.58
  -3   3   5   37.20    2.70
   3  -3  -5   40.11    3.18
  -3   3   6  155.64    6.54
   3  -3  -6  163.16    6.71
  -3   3   7    8.60    1.90
   3  -3  -7    9.23    1.99
   3  -3  -7   10.42    2.72
   3  -3  -8   28.72    3.18
   3  -3  -8   36.69    3.19
  -3   3   9    1.54    2.53
   3  -3  -9    2.14    2.04
   3  -3  -9    2.29    0.78
  -3   3  10  217.01    9.85
   3  -3 -10  218.97   10.36
   3  -3 -10  205.36   11.84
  -3   3  11   32.79    3.12
   3  -3 -11   32.55    3.26
   3  -3 -11   37.75    2.79
  -3   3  12 1613.81   59.74
   3  -3 -12 1773.25   65.58
   3  -3 -12 1884.41   68.51
   3  -3 -13  180.44    9.26
   3  -3 -13  189.79    9.48
  -3   3  14  560.31   15.95
   3  -3 -14  543.71   16.11
   3  -3 -14  579.89   15.02
  -3   3  15    4.10    5.59
   3  -3 -15   10.13    3.01
   3  -3 -15    7.13    1.06
  -3   3  16 1223.03   44.54
   3  -3 -16 1309.67   48.61
   3  -3 -16 1255.41   44.82
  -3   3  17   21.08    3.49
   3  -3 -17   34.24    4.55
   3  -3 -17   34.31    6.90
  -3   3  18  156.55   22.86
   3  -3 -18  147.55   11.16
   3  -3 -18  137.90   10.64
   3  -3 -19   55.92    6.05
   1  -3  18   10.53    2.98
   1  -3  17   24.63    3.77
   1  -3  17   19.86    7.17
  -1   3 -16 1758.71   54.83
   1  -3  16 1747.52   54.06
   1  -3  16 2004.82   63.00
  -1   3 -15   33.27    8.54
   1  -3  15   32.13    4.65
   1  -3  15   35.90   10.84
  -1   3 -14   70.10    7.56
   1  -3  14   70.60    5.04
   1  -3  14   77.72   17.93
  -1   3 -13    4.20    1.55
   1  -3  13    4.61    1.66
   1  -3  13    8.00    1.73
  -1   3 -12 1445.25   50.77
   1  -3  12 1510.91   52.97
  -1   3 -11    2.62    1.69
   1  -3  11    3.99    1.76
   1  -3  11    4.28    2.07
  -1   3 -10   50.57    7.99
   1  -3  10   53.02    4.23
   1  -3  10   52.28    5.40
  -1   3  -9    3.15    1.28
   1  -3   9    6.16    2.03
   1  -3   9    6.27    3.48
  -1   3  -8  701.64   25.28
   1  -3   8  652.10   23.51
   1  -3   8  669.41   26.01
  -1   3  -7   56.93    4.83
   1  -3   7   53.25    3.63
   1  -3   7   51.04    5.75
  -1   3  -6  577.32   16.95
   1  -3   6  580.26   17.07
  -1   3  -5   81.33    3.54
   1  -3   5   79.92    3.70
  -1   3  -3  106.23    4.66
   1  -3   3  109.36    4.84
  -1   3  -2   10.42    2.08
   1  -3   2    6.93    1.61
  -1   3  -1    0.95    1.35
   1  -3   1    1.45    1.57
  -1   3   0 1401.64   37.22
   1  -3   0 1509.22   40.11
  -1   3   1   77.76    3.87
   1  -3  -1   87.24    4.54
  -1   3   2   55.48    2.80
   1  -3  -2   55.39    3.16
  -1   3   3  182.89    6.65
   1  -3  -3  194.70    7.31
  -1   3   4  688.35   19.44
   1  -3  -4  702.45   19.97
  -1   3   5  183.96    6.71
   1  -3  -5  190.06    7.11
  -1   3   6  310.43   10.08
   1  -3  -6  307.67   10.34
  -1   3   7    8.90    1.75
   1  -3  -7    9.94    2.08
  -1   3   8 2263.14   76.06
   1  -3  -8 2205.30   74.22
   1  -3  -8 2385.03   79.63
  -1   3   9    6.41    2.33
   1  -3  -9    0.40    1.81
   1  -3  -9    4.98    0.82
  -1   3  10  249.31   10.89
   1  -3 -10  251.47   11.29
   1  -3 -10  256.37   10.71
  -1   3  11   10.32    2.27
   1  -3 -11   12.57    2.73
   1  -3 -11   17.84    4.45
  -1   3  12 1596.72   58.66
   1  -3 -12 1625.86   60.11
   1  -3 -12 1680.23   61.37
  -1   3  13   76.82    5.57
   1  -3 -13   77.60    6.06
   1  -3 -13   80.10    7.76
  -1   3  14   81.68    4.79
   1  -3 -14   70.74    4.74
   1  -3 -14   78.02    7.32
  -1   3  15   50.89    3.71
   1  -3 -15   54.23    4.55
   1  -3 -15   54.49    4.12
  -1   3  16  131.26    7.37
   1  -3 -16  130.56    8.63
   1  -3 -16  138.86   10.08
   1  -3 -17    5.09    3.36
   1  -3 -17    1.47    1.56
   1  -3 -18  254.19   18.05
   1  -3 -18  252.60   20.48
  -1   3  19   17.23    3.21
   1  -3 -19   14.92    3.50
   1  -3 -19    3.80    5.46
  -1  -3  19    8.03    2.42
  -1  -3  18  238.77   16.35
  -1  -3  18  256.28   17.77
   1   3 -17    5.33    3.07
  -1  -3  17   -0.49    1.60
  -1  -3  17    1.25    1.32
   1   3 -16  120.10   18.77
  -1  -3  16  116.51    7.17
  -1  -3  16  114.74   14.19
   1   3 -15   49.02   14.30
  -1  -3  15  164.60    8.93
  -1  -3  15   48.65   12.59
   1   3 -14   76.47    9.52
  -1  -3  14   66.31    4.39
  -1  -3  14   77.84   15.64
   1   3 -13   80.05    7.08
  -1  -3  13   80.90    7.05
   1   3 -12 1602.76   59.42
  -1  -3  12 1633.33   61.31
   1   3 -11   16.32    3.77
  -1  -3  11   10.41    3.17
  -1  -3  11   15.34    4.20
   1   3 -10  260.32   13.00
  -1  -3  10  232.01   10.50
  -1  -3  10  255.50   13.50
   1   3  -9    4.46    1.25
  -1  -3   9    5.98    2.03
  -1  -3   9    7.92    4.23
   1   3  -8 1911.14   64.63
  -1  -3   8 2391.44   80.78
   1   3  -7   11.92    1.94
  -1  -3   7   11.75    1.93
   1   3  -6  308.42   10.43
  -1  -3   6  300.84   10.34
   1   3  -5  183.81    6.92
  -1  -3   5  171.93    6.85
   1   3  -4  699.37   19.98
  -1  -3   4  645.23   18.55
   1   3  -3  180.36    6.63
  -1  -3   3  174.38    6.49
   1   3  -2   56.67    2.91
  -1  -3   2   57.37    3.18
   1   3  -1   81.02    4.05
  -1  -3   1   74.66    3.71
   1   3   0 1419.76   37.71
  -1  -3   0 1426.43   37.93
   1   3   1    1.11    1.26
  -1  -3  -1    2.76    1.73
   1   3   2   24.01    2.08
  -1  -3  -2    6.94    1.77
   1   3   3  111.51    4.56
  -1  -3  -3  105.33    4.69
   1   3   4 3353.69   18.55
   1   3   5   83.03    3.45
  -1  -3  -5   86.86    3.85
   1   3   6  603.30   17.25
  -1  -3  -6  594.24   17.32
   1   3   7   51.22    3.20
  -1  -3  -7   61.75    4.16
   1   3   8  684.94   24.15
  -1  -3  -8  688.21   24.52
   1   3   9    2.32    1.61
  -1  -3  -9    7.13    1.82
  -1  -3  -9    3.89    1.45
   1   3  10   47.30    3.75
  -1  -3 -10   50.98    4.35
  -1  -3 -10   45.66    5.04
   1   3  11    5.61    2.30
  -1  -3 -11    2.28    1.67
  -1  -3 -11    1.51    1.67
   1   3  12 1629.52   56.32
  -1  -3 -12 1460.74   51.09
   1   3  13    5.82    1.64
  -1  -3 -13    6.00    2.22
  -1  -3 -13    6.06    1.00
   1   3  14   71.24    4.81
  -1  -3 -14   68.25    5.28
  -1  -3 -14   72.05    5.81
   1   3  15   33.06    2.80
  -1  -3 -15   38.80    4.12
  -1  -3 -15   41.56    4.70
   1   3  16 1897.80   57.37
  -1  -3 -16 2007.47   62.69
  -1  -3 -16 1937.47   59.58
   1   3  17   12.36    2.98
  -1  -3 -17   20.95    4.52
  -1  -3 -17   25.32    3.85
   1   3  18    5.51    2.29
  -1  -3 -18    8.73    3.33
  -3  -3  18  159.62   10.91
  -3  -3  18  173.19   11.80
   3   3 -17   42.79    4.92
  -3  -3  17   37.43    7.35
  -3  -3  17   27.97    7.17
   3   3 -16 1288.11   47.59
  -3  -3  16 1122.47   41.84
  -3  -3  16 1130.04   41.65
   3   3 -15   10.52    3.26
  -3  -3  15    4.14    3.39
  -3  -3  15    4.79    2.30
   3   3 -14  509.34   14.87
  -3  -3  14  525.12   15.70
  -3  -3  14  490.74   15.01
   3   3 -13  170.72   24.59
  -3  -3  13  142.92    8.16
  -3  -3  13  160.34    9.13
  -3  -3  12 1745.00   64.83
  -3  -3  12 2069.75   77.50
   3   3 -11   33.82    8.22
  -3  -3  11   28.56    3.09
  -3  -3  11   30.47    4.19
   3   3 -10  241.93   13.33
  -3  -3  10  207.89    9.78
   3   3  -9    2.71    1.80
  -3  -3   9    3.05    1.61
   3   3  -8   42.93    8.93
  -3  -3   8   32.24    2.93
   3   3  -7    9.63    1.91
  -3  -3   7    7.69    1.83
   3   3  -6  142.78    6.01
  -3  -3   6  144.47    6.51
   3   3  -5   42.90    7.58
  -3  -3   5   39.29    3.18
   3   3  -4 2540.46   66.54
  -3  -3   4 2816.71   73.53
   3   3  -3  215.74    7.60
  -3  -3   3  211.57    7.77
   3   3  -2 1062.47   29.11
  -3  -3   2 1006.01   27.56
   3   3  -1  140.91    5.56
  -3  -3   1  135.16    5.42
   3   3   0 1581.76   41.78
  -3  -3   0 1742.12   45.97
   3   3   1   35.13    2.24
  -3  -3  -1   30.42    2.40
   3   3   2  303.59    9.63
  -3  -3  -2  283.25    9.19
   3   3   3    9.89    1.52
  -3  -3  -3   10.24    2.04
   3   3   4  231.78    7.70
  -3  -3  -4  224.27    7.81
   3   3   5  543.42   15.51
  -3  -3  -5  565.48   16.44
   3   3   6  390.96   14.23
  -3  -3  -6  380.02   14.14
   3   3   7   27.21    2.10
  -3  -3  -7   28.77    2.69
   3   3   8 1841.81   65.18
  -3  -3  -8 1817.26   64.58
   3   3   9  132.94    6.25
  -3  -3  -9  135.18    6.84
  -3  -3  -9  136.22    7.00
   3   3  10  285.87   11.68
  -3  -3 -10  258.89   11.19
  -3  -3 -10  271.77   11.88
   3   3  11    1.91    1.13
  -3  -3 -11    1.39    1.15
  -3  -3 -11    4.75    1.03
   3   3  12 1238.38   26.45
  -3  -3 -12 1201.76   26.94
  -3  -3 -12 1384.28   31.28
   3   3  13   58.43    3.98
  -3  -3 -13   60.75    4.55
  -3  -3 -13   58.92   14.22
   3   3  14  247.79   10.16
  -3  -3 -14  257.34   11.94
  -3  -3 -14  209.21   14.14
  -3  -3 -15    0.54    1.76
  -3  -3 -15    0.71    0.88
   3   3  16   12.69    2.55
  -3  -3 -16    8.01    2.60
  -3  -3 -16   10.84    3.07
   3   3  17   68.10    5.28
  -3  -3 -17   84.22    7.65
  -3  -3 -17   69.57   14.24
  -5  -3  19    1.10    2.14
  -5  -3  18  982.65   60.36
  -5  -3  17   11.61    6.07
  -5  -3  17   15.76    3.44
   5   3 -16  217.57   12.10
  -5  -3  16  154.27    9.21
  -5  -3  16  155.33    8.64
   5   3 -15   45.98    7.94
  -5  -3  15   38.54    4.16
  -5  -3  15   41.39    4.05
   5   3 -14  205.75   14.60
  -5  -3  14  193.81   11.26
  -5  -3  14  211.96   12.38
   5   3 -13    6.75    1.38
  -5  -3  13    6.40    3.05
  -5  -3  13    3.74    3.17
   5   3 -12  800.07   30.01
  -5  -3  12  782.11   29.77
   5   3 -11  254.38   11.97
  -5  -3  11  243.00   11.69
   5   3 -10  980.30   36.83
  -5  -3  10  968.79   36.62
   5   3  -9   40.73    8.46
  -5  -3   9   31.54    3.40
   5   3  -8 1596.98   55.31
  -5  -3   8 1306.28   45.35
   5   3  -7    3.76    1.10
  -5  -3   7    3.32    2.07
   5   3  -6 1415.22   49.18
  -5  -3   6 1446.18   49.72
   5   3  -5    3.47    1.44
  -5  -3   5    1.05    1.60
   5   3  -4  298.10    9.94
  -5  -3   4  318.38   10.78
   5   3  -3  428.05   13.49
  -5  -3   3  386.87   12.34
   5   3  -2  287.03    9.64
  -5  -3   2  259.90    8.91
   5   3  -1   44.84    2.51
  -5  -3   1   44.24    2.78
   5   3   0  189.68    6.82
  -5  -3   0  176.99    6.55
   5   3   1   67.63    3.01
  -5  -3  -1   62.94    3.01
   5   3   2  533.56   18.94
  -5  -3  -2  553.06   19.73
   5   3   3    1.93    0.91
  -5  -3  -3    4.43    1.93
   5   3   4 1724.27   57.81
  -5  -3  -4 1787.45   59.97
   5   3   5  146.85    6.53
  -5  -3  -5  135.90    6.38
   5   3   6 1735.74   61.39
  -5  -3  -6 1714.40   60.77
   5   3   7   55.71    3.23
  -5  -3  -7   59.73    3.73
   5   3   8  575.00   21.64
  -5  -3  -8  537.41   20.54
   5   3   9   21.23    1.99
  -5  -3  -9   22.33    2.43
  -5  -3  -9   21.36    2.49
   5   3  10  279.64    7.48
  -5  -3 -10  270.10    7.98
  -5  -3 -10  288.82    9.44
   5   3  11   13.08    1.65
  -5  -3 -11   15.23    2.18
  -5  -3 -11   11.87    2.72
   5   3  12  305.64   12.60
  -5  -3 -12  290.71   12.92
  -5  -3 -12  310.54   14.32
   5   3  13    2.23    1.25
  -5  -3 -13    7.73    2.80
  -5  -3 -13    0.98    0.74
   5   3  14  772.78   37.58
  -5  -3 -14  779.53   39.31
  -5  -3 -14  748.07   37.74
   5   3  15   21.63    2.00
  -5  -3 -15   17.43    3.03
  -5  -3 -15   20.67    5.11
  -7  -3  18   31.21    4.91
  -7  -3  17    1.29    2.50
  -7  -3  17   -0.42    2.50
  -7  -3  17   -0.33    1.95
  -7  -3  16  169.22    9.70
  -7  -3  16  192.68   10.44
  -7  -3  16  205.18   10.84
  -7  -3  15    7.13    2.86
  -7  -3  15   15.35    4.20
   7   3 -14 2354.69   91.17
  -7  -3  14 2083.46   80.83
  -7  -3  14 2478.03   30.14
   7   3 -13   73.89   15.40
  -7  -3  13   62.25    5.64
   7   3 -12  572.97   16.83
  -7  -3  12  548.11   16.54
   7   3 -11  106.92    6.49
  -7  -3  11   95.85    7.60
   7   3 -10 1621.79   57.23
  -7  -3  10 1667.81   58.92
   7   3  -9    2.51    2.93
  -7  -3   9    1.06    1.45
   7   3  -8   37.68    9.80
  -7  -3   8   40.59    3.63
   7   3  -7   38.36    7.94
  -7  -3   7   31.30    3.05
   7   3  -6   51.38   10.65
  -7  -3   6   34.81    3.39
   7   3  -5   63.24   12.71
  -7  -3   5   51.60    4.26
   7   3  -4  830.39   31.07
  -7  -3   4  812.23   30.41
   7   3  -3    0.97    0.88
  -7  -3   3    4.25    1.97
   7   3  -2 2087.69   70.23
  -7  -3   2 2432.49   81.46
   7   3  -1   37.29    8.69
  -7  -3   1   37.94    3.11
   7   3   0 1053.90   38.20
  -7  -3   0 1099.51   39.67
   7   3   1   36.78    4.74
  -7  -3  -1   32.65    2.80
   7   3   2 1527.55   54.54
  -7  -3  -2 1509.59   53.74
   7   3   3    1.25    0.88
  -7  -3  -3    1.90    1.18
   7   3   4    2.05    0.76
  -7  -3  -4    2.79    1.44
   7   3   5  111.13    5.32
  -7  -3  -5   99.73    6.12
   7   3   6  115.58    5.21
  -7  -3  -6  108.97    5.06
   7   3   7  193.56    5.76
  -7  -3  -7  191.24    5.82
   7   3   8  471.07   11.01
  -7  -3  -8  473.04   11.50
   7   3   9   56.56    3.33
  -7  -3  -9   48.12    3.18
  -7  -3  -9   54.43    4.40
  -7  -3 -10 1109.33   38.81
  -7  -3 -10 1047.13   38.07
   7   3  11   19.24    1.81
  -7  -3 -11   17.97    2.15
  -7  -3 -11   16.86    3.89
  -7  -3 -12  552.21   27.90
  -7  -3 -12  579.24   29.95
  -7  -3 -13   28.14    2.71
  -7  -3 -13   30.34    8.30
  -9  -3  17   -0.06    2.76
  -9  -3  16    9.94    2.24
  -9  -3  16   11.55    3.04
  -9  -3  15    8.03    2.80
  -9  -3  15   13.58    3.92
  -9  -3  15   18.50    5.84
  -9  -3  14  274.64   12.66
  -9  -3  14  325.02   14.27
  -9  -3  13   66.54    5.87
   9   3 -12  160.73    9.94
  -9  -3  12  130.11    8.39
   9   3 -11  131.84    8.65
  -9  -3  11  105.34    7.29
   9   3 -10  994.97   25.14
  -9  -3  10  945.70   23.96
   9   3  -9   59.09   10.66
  -9  -3   9   54.72    4.04
   9   3  -7   22.16    5.19
  -9  -3   7   18.84    2.59
   9   3  -6 2013.94   69.87
  -9  -3   6 1925.69   66.48
   9   3  -5    1.93    1.40
  -9  -3   5    3.01    1.51
   9   3  -4    0.28    0.80
  -9  -3   4    5.00    1.48
   9   3  -3  163.98    7.72
  -9  -3   3  165.30    7.56
   9   3  -2  415.59   16.09
  -9  -3   2  375.17   14.43
   9   3  -1   26.29    3.15
  -9  -3   1   30.86    2.78
   9   3   0   73.50    9.26
  -9  -3   0   66.12    4.53
   9   3   1  110.18    7.70
  -9  -3  -1  102.38    4.93
   9   3   2  587.82   21.53
  -9  -3  -2  531.12   19.13
   9   3   3   15.50    4.57
  -9  -3  -3   18.54    1.88
   9   3   4  128.08    7.81
  -9  -3  -4  121.15    4.16
   9   3   5   -1.50    1.32
  -9  -3  -5    3.24    1.16
   9   3   6 1884.77   70.59
  -9  -3  -6 2161.32   80.59
   9   3   7   -0.12    0.61
  -9  -3  -7    2.43    1.14
   9   3   8    8.78    2.56
  -9  -3  -8    4.05    0.96
  -9  -3  -8   20.01    2.98
  -9  -3  -9   25.24    2.12
  -9  -3  -9   27.41    6.02
  -9  -3 -10  500.25   26.18
 -11  -3  15    5.50    3.82
 -11  -3  14  934.56   57.40
 -11  -3  13   29.41    4.25
 -11  -3  13   33.48    4.68
 -11  -3  12   71.09    5.96
 -11  -3  12   70.35    5.86
 -11  -3  11   93.12    6.49
 -11  -3  11   85.13    6.53
 -11  -3  10 1997.15   70.62
 -11  -3  10 1762.88   62.75
 -11  -3   9   13.21    2.44
  11   3  -8  115.41    7.91
 -11  -3   8   81.28    5.62
  11   3  -7   16.44    4.16
 -11  -3   7    8.33    1.66
  11   3  -6   48.89   13.61
 -11  -3   6   44.49    3.23
  11   3  -5   12.18    3.40
 -11  -3   5   14.09    2.39
  11   3  -4    9.29    2.69
 -11  -3   4    7.32    1.68
  11   3  -3   -1.77    1.49
 -11  -3   3    4.73    1.44
  11   3  -2 1681.38   69.65
 -11  -3   2 1576.98   64.69
  11   3  -1    0.71    0.56
 -11  -3   1    3.97    1.01
  11   3   0  102.30   12.55
 -11  -3   0   89.49    4.73
  11   3   1   -0.32    1.91
 -11  -3  -1    3.52    1.47
  11   3   2 1925.47   66.55
 -11  -3  -2 1756.94   59.99
  11   3   3    9.97    3.15
 -11  -3  -3   18.56    1.46
 -11  -3  -4   39.18    2.15
 -11  -3  -5   20.92    1.66
 -11  -3  -6    3.54    0.84
 -11  -3  -7   17.54    2.76
 -11  -3  -8    1.32    1.01
 -13  -3  11    3.04    2.10
 -13  -3  11    6.87    3.75
 -13  -3  10  332.37   22.02
 -13  -3   9   63.01    5.79
 -13  -3   9   58.38    6.42
 -13  -3   8   73.76    6.31
 -13  -3   8   67.98    6.78
 -13  -3   7    3.13    1.49
 -13  -3   7   -1.18    2.62
 -13  -3   6 1474.03   71.63
 -13  -3   6 1324.05   65.26
 -13  -3   5   17.52    3.33
 -13  -3   4  244.56   14.16
 -13  -3   3    1.63    1.26
 -13  -3   3   -1.42    1.95
 -13  -3   2  542.63   26.99
 -13  -3   2  514.35   26.67
 -13  -3   1  101.84    6.11
 -13  -3   1   80.46    5.98
 -13  -3   0   59.66    4.43
 -13  -3   0   52.75    3.63
 -13  -3  -1    0.07    0.69
 -13  -3  -1    2.27    1.58
 -13  -3  -2   79.82    5.33
 -13  -3  -2   83.16    6.20
  12  -4   2 1334.86   79.19
 -12   4  -1   -0.84    1.18
 -12   4   1   71.99    5.77
  12  -4  -1   66.03    5.58
  12  -4  -3   20.58    2.87
  12  -4  -4  117.32    8.90
 -12   4   5  100.44    8.06
  12  -4  -5   88.03    7.18
 -12   4   6  971.12   58.46
  12  -4  -6  909.30   54.98
 -12   4   7   17.81    2.80
  12  -4  -7   14.10    2.64
  12  -4  -8  264.74   17.85
  12  -4  -9    5.73    1.87
 -10   4  -6  518.47   31.49
 -10   4  -5   31.21    2.67
 -10   4  -3   96.16    6.32
  10  -4   3   79.04    5.54
 -10   4  -2   43.51    3.31
 -10   4  -1   30.18    3.05
  10  -4   1   30.60    3.19
 -10   4   0   22.06    2.64
  10  -4   0   14.41    2.09
 -10   4   1   30.07    3.08
  10  -4  -1   27.18    2.76
 -10   4   2 1777.59   62.01
  10  -4  -2 1814.26   63.37
 -10   4   3    0.06    1.33
  10  -4  -3   -0.49    1.31
 -10   4   4   28.65    3.25
  10  -4  -4   22.71    2.80
 -10   4   5  124.39    6.84
  10  -4  -5  128.05    7.15
 -10   4   6 1334.39   47.69
  10  -4  -6 1319.42   47.19
 -10   4   7   20.55    2.92
  10  -4  -7   21.22    3.05
 -10   4   8  110.30    6.72
  10  -4  -8   96.42    6.03
 -10   4   9   30.39    3.81
  10  -4  -9   29.12    3.45
 -10   4  10  192.29   12.39
  10  -4 -10  169.22   10.89
 -10   4  11   16.94    4.34
  10  -4 -11   15.85    3.82
  10  -4 -12    5.59    2.79
  10  -4 -13    3.21    2.44
  -8   4  -9   24.18    4.39
   8  -4   9   25.90    2.57
  -8   4  -8    3.10    1.66
   8  -4   8    3.45    1.34
  -8   4  -7    1.17    1.08
   8  -4   7    1.23    1.23
  -8   4  -5   29.46    2.93
   8  -4   5   26.94    2.45
  -8   4  -4  123.33    6.55
   8  -4   4  117.39    6.24
   8  -4   4  117.98    8.72
  -8   4  -3    8.65    2.03
   8  -4   3    7.15    1.63
   8  -4   3    5.86    2.33
   8  -4   2 2057.47   84.10
   8  -4   2 2255.96   12.20
  -8   4  -1   15.02    2.21
   8  -4   1   22.30    2.73
   8  -4   1   22.32    2.98
   8  -4   0  243.30   11.79
   8  -4   0  237.57   10.21
  -8   4   1   40.20    2.93
   8  -4  -1   39.48    3.12
  -8   4   2  103.96    5.23
   8  -4  -2   94.95    4.91
  -8   4   3  125.18    5.60
   8  -4  -3  120.89    5.43
  -8   4   4    7.10    1.83
   8  -4  -4    3.86    1.21
  -8   4   5    9.61    2.12
   8  -4  -5    7.80    1.89
  -8   4   6 1018.70   43.21
   8  -4  -6 1089.69   46.11
  -8   4   7  220.27   11.49
   8  -4  -7  226.88   11.80
  -8   4   8  194.52   10.56
   8  -4  -8  185.71   10.21
  -8   4   9   18.45    2.84
   8  -4  -9   17.16    2.50
  -8   4  10 1575.63   56.51
   8  -4 -10 1417.75   50.83
  -8   4  11    4.36    3.29
   8  -4 -11    6.50    2.03
  -8   4  12  136.88    8.06
   8  -4 -12  120.18    7.26
  -8   4  13   11.47    3.70
   8  -4 -13   10.64    3.13
   8  -4 -14  190.57   14.27
  -6   4 -13   87.57   10.39
   6  -4  13   99.80    7.69
  -6   4 -12   43.76    9.61
  -6   4 -11   21.41    5.18
   6  -4  11   17.08    3.31
   6  -4  11   19.62    5.40
  -6   4 -10  909.73   28.91
   6  -4  10 1069.28   34.51
  -6   4  -9   57.60    7.39
   6  -4   9   53.60    3.89
   6  -4   9   34.73   10.27
   6  -4   8  997.88   35.87
   6  -4   8 1080.10   39.17
  -6   4  -7   15.24    1.93
   6  -4   7   11.91    1.83
   6  -4   7   13.15    3.18
  -6   4  -6  861.12   36.48
   6  -4   6  865.74   36.63
   6  -4   6  922.71   39.18
  -6   4  -5  115.85    5.04
   6  -4   5  112.41    4.92
   6  -4   5  109.00    7.27
  -6   4  -4  376.46   10.60
   6  -4   4  370.46   10.46
   6  -4   4  392.71   10.96
  -6   4  -3   68.28    5.17
   6  -4   3   56.38    4.35
   6  -4   3   54.26    7.91
  -6   4  -2    1.58    1.27
   6  -4   2    6.73    1.73
   6  -4   2    7.41    2.06
  -6   4  -1  243.23   10.38
   6  -4   1  242.57   14.05
   6  -4   1  232.25    9.38
  -6   4   0   25.00    2.66
   6  -4   0   25.60    2.89
   6  -4   0   21.12    2.14
  -6   4   1    7.95    1.89
   6  -4  -1    5.93    1.42
   6  -4  -1   11.70    2.01
  -6   4   2 1262.07   46.96
   6  -4  -2 1260.08   46.79
   6  -4  -2 1392.41   50.62
  -6   4   3   17.94    3.21
   6  -4  -3   16.92    3.01
  -6   4   4  878.84   31.77
   6  -4  -4  952.04   34.37
  -6   4   5   13.71    1.95
   6  -4  -5    8.37    1.59
   6  -4  -5   10.30    2.01
  -6   4   6 1576.49   55.06
   6  -4  -6 1608.72   56.15
   6  -4  -6 1581.29   53.13
  -6   4   7   65.42    5.23
   6  -4  -7   71.20    5.70
   6  -4  -7   62.58    5.82
  -6   4   8  719.10   18.49
   6  -4  -8  741.62   19.04
   6  -4  -8  707.38   15.00
  -6   4   9   48.45    4.07
   6  -4  -9   49.58    4.18
   6  -4  -9   45.36    5.19
  -6   4  10   18.50    3.25
   6  -4 -10    8.88    2.13
   6  -4 -10   16.15    2.64
  -6   4  11   16.02    2.92
   6  -4 -11   13.14    2.72
   6  -4 -11   11.20    1.96
  -6   4  12   83.47    6.19
   6  -4 -12   65.31    5.20
   6  -4 -12   72.02    4.55
  -6   4  13    1.90    2.23
   6  -4 -13    1.71    1.95
   6  -4 -13    0.09    0.47
  -6   4  14  967.50   32.31
   6  -4 -14  997.86   33.63
   6  -4 -14  931.67   28.99
  -6   4  15   -1.35    2.01
   6  -4 -15    3.79    2.66
   6  -4 -15   -0.24    1.04
   6  -4 -16  788.19   48.96
   6  -4 -16  815.25   48.93
   6  -4 -17   58.49    5.21
  -4   4 -14  364.47   23.18
   4  -4  14  416.57   27.26
  -4   4 -13  115.58   10.30
   4  -4  13   85.91    6.46
   4  -4  13   87.70   22.82
  -4   4 -12 1384.59   43.29
   4  -4  12 1455.18   46.93
  -4   4 -11   24.33    5.57
   4  -4  11   22.24    2.46
   4  -4  11   20.77    5.80
  -4   4 -10  243.17   11.25
   4  -4  10  246.49   11.42
   4  -4  10  239.11   17.03
  -4   4  -9   99.36   11.61
   4  -4   9   84.79    5.35
   4  -4   9   85.96   15.35
   4  -4   8  177.79    6.66
   4  -4   8  153.65    7.29
  -4   4  -7   68.26   12.23
   4  -4   7   64.47    3.75
   4  -4   7   60.54   14.46
  -4   4  -6  241.78   10.45
   4  -4   6  212.05    9.42
   4  -4   6  198.70    9.79
  -4   4  -5    5.37    1.82
   4  -4   5    3.98    1.16
   4  -4   5    6.68    2.96
  -4   4  -4  930.80   35.03
   4  -4   4 1011.61   38.05
   4  -4   4  938.67   36.45
  -4   4  -3   43.71    3.43
   4  -4   3   47.13    4.04
   4  -4   3   34.67    4.03
  -4   4  -2 1460.59   53.86
   4  -4   2 1423.49   52.57
  -4   4  -1   15.39    2.47
   4  -4   1    9.70    1.85
  -4   4   0 2259.08   80.29
   4  -4   0 2345.18   83.32
  -4   4   1   75.49    5.37
   4  -4  -1   77.89    5.72
  -4   4   2  575.05   22.13
   4  -4  -2  553.94   21.55
  -4   4   3   61.45    5.30
   4  -4  -3   56.99    4.50
  -4   4   4  172.39    8.29
   4  -4  -4  163.62    7.92
  -4   4   5   27.66    3.09
   4  -4  -5   27.67    3.16
   4  -4  -6  403.54   16.90
  -4   4   7  362.60   15.30
   4  -4  -7  352.10   15.03
   4  -4  -7  371.44   14.33
  -4   4   8 1019.42   36.60
   4  -4  -8 1017.78   36.58
   4  -4  -8 1014.29   34.97
  -4   4   9  212.77    9.83
   4  -4  -9  229.74   10.66
   4  -4  -9  221.86    8.85
  -4   4  10 1150.81   26.76
   4  -4 -10 1212.86   28.47
   4  -4 -10 1123.28   32.54
  -4   4  11    2.30    2.16
   4  -4 -11    2.60    1.80
   4  -4 -11    1.56    0.49
  -4   4  12 1241.31   48.88
   4  -4 -12 1146.30   45.31
   4  -4 -12 1245.17   47.73
  -4   4  13    1.05    2.36
   4  -4 -13   -1.45    1.68
   4  -4 -13   -0.24    0.84
  -4   4  14  458.18   17.34
   4  -4 -14  429.90   16.72
   4  -4 -14  427.31   18.08
  -4   4  15  131.01    9.59
   4  -4 -15  114.61    8.62
   4  -4 -15  116.58    8.53
  -4   4  16   75.62    7.14
   4  -4 -16   77.55    7.78
   4  -4 -17   36.70    4.52
  -2   4 -15   40.85    7.69
   2  -4  15   34.60    3.31
   2  -4  15   38.74   11.03
  -2   4 -14    5.96    1.60
   2  -4  14    7.10    2.57
   2  -4  14    4.31    1.32
  -2   4 -13   38.28    7.92
   2  -4  13   36.20    6.08
   2  -4  13   40.69    9.15
  -2   4 -12  141.71    7.57
   2  -4  12  126.65    6.90
   2  -4  12  126.14   14.58
  -2   4 -11   25.06    5.25
   2  -4  11   22.48    2.43
   2  -4  11   30.63    8.20
  -2   4 -10  319.97   23.51
   2  -4  10  308.59   14.60
   2  -4  10  317.55   16.36
  -2   4  -9  169.73   14.88
   2  -4   9  150.97    6.28
   2  -4   9  149.26    7.69
   2  -4   8 2265.47   79.55
  -2   4  -7   17.18    3.12
   2  -4   7   15.42    2.40
   2  -4   7   15.81    3.77
  -2   4  -6  103.98    5.96
   2  -4   6   86.86    5.21
   2  -4   6   84.55    7.56
  -2   4  -5   83.26    5.08
   2  -4   5   77.40    4.88
  -2   4  -4 1100.88   40.22
   2  -4   4 1129.68   41.36
  -2   4  -3    6.35    2.15
   2  -4   3    7.14    1.74
  -2   4  -2   10.41    2.08
   2  -4   2    7.67    2.07
  -2   4  -1  574.21   21.07
   2  -4   1  585.83   21.74
  -2   4   0   90.01    5.16
   2  -4   0   81.87    6.56
  -2   4   1  143.28    6.89
   2  -4  -1  142.83    6.90
  -2   4   2  368.95   14.25
   2  -4  -2  358.29   14.04
  -2   4   3   10.76    2.12
   2  -4  -3    7.06    1.64
  -2   4   4 1674.07   60.11
   2  -4  -4 1759.21   63.16
  -2   4   5    5.22    2.73
   2  -4  -5    2.80    1.81
  -2   4   6  223.91   10.04
   2  -4  -6  227.39   10.23
  -2   4   7  128.77    6.76
   2  -4  -7  142.51    7.53
   2  -4  -8 2213.08   80.71
   2  -4  -8 2299.42   82.92
  -2   4   9   -1.20    1.68
   2  -4  -9    0.63    1.52
   2  -4  -9    0.29    0.64
  -2   4  10   33.48    2.88
   2  -4 -10   36.55    3.51
   2  -4 -10   33.25    6.89
  -2   4  11  105.65    5.34
   2  -4 -11  112.77    6.22
   2  -4 -11   99.16    5.10
  -2   4  12    5.29    1.73
   2  -4 -12   22.03    3.08
   2  -4 -12    3.36    1.01
  -2   4  13    0.01    1.57
   2  -4 -13    0.84    2.07
   2  -4 -13    1.96    0.93
  -2   4  14  236.34   11.05
   2  -4 -14  229.67   11.21
   2  -4 -14  221.83   13.30
  -2   4  15   38.74    3.84
   2  -4 -15   36.32    6.47
  -2   4  16 1784.99  105.94
   2  -4 -16 1641.50   98.05
   2  -4 -16 1797.33  106.37
  -2   4  17   39.82    8.68
   0  -4  16  330.47   21.64
   0   4 -15   27.99    9.09
   0  -4  15   35.83    4.43
   0  -4  15   38.64    9.14
   0   4 -14    2.38    0.94
   0  -4  14    6.15    2.03
   0  -4  14    8.61    1.89
   0   4 -13    6.96    2.07
   0  -4  13    9.20    2.08
   0  -4  13    7.77    2.75
   0   4 -12 2112.13   80.88
   0  -4  12 1972.03   75.47
   0  -4  12 2129.99   82.29
   0   4 -11   15.48    3.69
   0  -4  11    9.74    2.20
   0  -4  11   13.12    3.03
   0   4 -10   65.21   13.68
   0  -4  10   77.46    6.61
   0  -4  10   54.29    5.11
   0   4  -9  217.43    9.75
   0  -4   9  232.51   10.38
   0  -4   8 1195.85   44.79
   0   4  -7   75.56   12.53
   0  -4   7   61.66    4.32
   0   4  -6    7.52    1.80
   0  -4   6    7.74    1.83
   0   4  -5   11.06    2.37
   0  -4   5   10.53    2.42
   0   4  -4  952.63   35.28
   0  -4   4  932.88   34.64
   0   4  -3    3.70    1.49
   0  -4   3    1.78    1.58
   0   4  -2    2.04    1.44
   0  -4   2   18.32    2.25
   0   4  -1    2.18    1.52
   0  -4   1    5.37    2.46
   0   4   0 3139.27  104.89
   0  -4   0 3334.18  160.74
   0   4   1    5.17    2.10
   0  -4  -1    3.68    2.02
   0   4   2   14.13    1.93
   0  -4  -2    3.33    1.89
   0   4   3    0.36    1.36
   0  -4  -3    5.65    2.37
   0   4   4  906.12   33.34
   0  -4  -4  950.01   35.16
   0   4   5   10.37    1.88
   0  -4  -5   13.10    2.25
   0   4   6    7.92    1.73
   0  -4  -6    3.61    1.77
   0   4   7   63.05    4.20
   0  -4  -7   61.44    4.50
   0  -4  -8 1273.66   47.57
   0  -4  -9  254.78   10.59
   0   4  10   62.01    3.54
   0  -4 -10   52.73    6.73
   0   4  11   13.22    2.31
   0  -4 -11   11.75    2.24
   0  -4 -11   10.39    3.38
   0   4  12 1909.65   72.51
   0  -4 -12 2005.25   76.51
   0  -4 -12 2242.85   84.97
   0   4  13    9.55    1.97
   0  -4 -13   10.61    2.45
   0  -4 -13    8.18    1.23
   0   4  14    4.08    1.52
   0  -4 -14    6.28    2.49
   0  -4 -14    5.43    1.50
   0   4  15   37.27    3.67
   0  -4 -15   32.98    3.83
   0  -4 -15   32.74    7.59
   0  -4 -16  346.37   22.72
   0  -4 -16  412.95   26.28
   0  -4 -17  138.45   11.17
   0  -4 -17  144.07   13.46
  -2  -4  17   29.99    3.93
   2   4 -16 1561.75   93.16
  -2  -4  16 1766.04  105.43
   2   4 -15   33.54   10.31
  -2  -4  15   33.46    4.99
  -2  -4  15   37.08    6.68
   2   4 -14  215.76   10.62
  -2  -4  14  216.75   10.96
  -2  -4  14  223.18   11.59
   2   4 -13    3.11    2.46
  -2  -4  13    2.62    1.87
  -2  -4  13    2.48    3.16
   2   4 -12    6.61    1.77
  -2  -4  12    2.98    1.77
  -2  -4  12   11.15    4.24
   2   4 -11  115.15   15.82
  -2  -4  11  104.06    6.03
  -2  -4  11  113.82    7.89
   2   4 -10   44.31    6.44
  -2  -4  10   32.68    3.72
   2   4  -9   -0.53    1.06
  -2  -4   9    0.11    1.41
   2   4  -8 2000.45   73.25
  -2  -4   8 2228.52   81.54
   2   4  -7  133.83   20.44
  -2  -4   7  127.98    6.99
   2   4  -6  224.98   10.22
  -2  -4   6  225.02   10.23
   2   4  -5    1.40    1.27
  -2  -4   5    2.39    2.19
   2   4  -4 1664.90   59.95
  -2  -4   4 1688.76   60.81
   2   4  -3    9.01    1.84
  -2  -4   3    7.65    2.01
   2   4  -2  353.52   13.73
  -2  -4   2  360.37   14.24
   2   4  -1  136.37    6.49
  -2  -4   1  147.17    7.12
   2   4   0   86.92    4.87
  -2  -4   0   92.56    5.50
   2   4   1  588.26   21.48
  -2  -4  -1  551.75   20.40
   2   4   2   13.61    2.03
  -2  -4  -2    7.81    2.28
   2   4   3    5.67    1.90
  -2  -4  -3    6.28    1.75
   2   4   4 1124.83   40.88
  -2  -4  -4 1130.25   41.24
   2   4   5   76.42    4.45
  -2  -4  -5   79.90    5.00
   2   4   6   90.59    4.93
  -2  -4  -6   75.87    4.69
   2   4   7   12.28    1.64
  -2  -4  -7   14.72    2.41
   2   4   8 2014.63   68.94
  -2  -4  -8 2225.60   76.48
   2   4   9  164.12    6.04
  -2  -4  -9  148.80    6.04
   2   4  10  339.64   15.41
  -2  -4 -10  302.93   14.29
  -2  -4 -10  416.88   18.95
   2   4  11   26.55    2.53
  -2  -4 -11   24.53    2.52
  -2  -4 -11   21.47    5.39
   2   4  12  151.37    7.27
  -2  -4 -12  158.93    8.01
  -2  -4 -12  139.27    9.64
   2   4  13   37.86    3.17
  -2  -4 -13   38.12    3.58
  -2  -4 -13   36.62   11.32
   2   4  14    4.93    1.58
  -2  -4 -14    6.16    2.01
  -2  -4 -14    1.26    1.53
   2   4  15   43.21    3.26
  -2  -4 -15   37.58    3.76
  -2  -4 -15   38.84    6.10
   2   4  16  949.83   56.71
  -2  -4 -16  976.06   59.16
  -4  -4  17   34.05    4.34
  -4  -4  16   61.86    6.12
   4   4 -15  123.29   15.33
  -4  -4  15  116.36    8.75
  -4  -4  15  121.64    9.62
   4   4 -14  429.56   16.88
  -4  -4  14  399.90   16.10
  -4  -4  14  474.57   19.43
   4   4 -13   -1.94    1.62
  -4  -4  13    5.64    4.93
   4   4 -12 1101.38   43.74
  -4  -4  12 1166.71   46.54
   4   4 -11    3.84    1.63
  -4  -4  11    3.61    1.95
   4   4 -10 1252.77   29.61
  -4  -4  10 1239.45   29.43
   4   4  -9  238.40   23.60
  -4  -4   9  207.45   10.09
   4   4  -8  990.06   35.73
  -4  -4   8 1027.27   37.26
   4   4  -7  352.73   14.98
  -4  -4   7  361.99   15.60
  -4  -4   6  378.79   16.06
   4   4  -5   28.19    6.05
  -4  -4   5   21.17    3.33
   4   4  -4  169.08    8.13
  -4  -4   4  162.01    7.95
   4   4  -3   61.29    7.50
  -4  -4   3   53.32    4.17
   4   4  -2  563.16   21.69
  -4  -4   2  542.94   21.08
   4   4  -1   80.96    5.48
  -4  -4   1   67.29    4.94
   4   4   0 2107.75   74.99
  -4  -4   0 2298.43   81.66
   4   4   1    9.82    1.87
  -4  -4  -1   13.18    2.12
   4   4   2 1301.85   47.84
  -4  -4  -2 1386.43   51.14
   4   4   3   39.32    3.04
  -4  -4  -3   38.62    3.31
   4   4   4 1031.87   38.44
  -4  -4  -4  941.21   35.29
   4   4   5    3.85    1.25
  -4  -4  -5    8.73    1.98
   4   4   6  227.35    9.47
  -4  -4  -6  209.36    9.09
   4   4   7   69.44    3.43
  -4  -4  -7   66.24    3.56
   4   4   8  191.14    6.38
  -4  -4  -8  185.79    6.84
   4   4   9   89.47    5.23
  -4  -4  -9   88.28    5.48
   4   4  10  247.42   10.86
  -4  -4 -10  232.18   10.77
  -4  -4 -10  262.34   12.32
   4   4  11   25.35    2.19
  -4  -4 -11   26.32    2.70
  -4  -4 -11   21.96    4.90
  -4  -4 -12 1320.85   40.89
  -4  -4 -12 1286.82   40.49
   4   4  13  100.07    6.24
  -4  -4 -13   96.32    9.98
  -4  -4 -14  385.51   24.43
  -4  -4 -14  377.58   24.14
  -6  -4  16  708.94   44.20
  -6  -4  15   -2.94    2.90
  -6  -4  15    1.44    2.92
   6   4 -14  977.48   32.76
  -6  -4  14  899.85   30.80
  -6  -4  14 1161.72   39.87
   6   4 -13    4.09    1.36
  -6  -4  13    2.58    2.12
   6   4 -12   81.68   11.57
  -6  -4  12   70.56    5.39
   6   4 -11   11.11    3.73
  -6  -4  11   11.09    2.52
   6   4 -10    9.94    2.84
  -6  -4  10    8.17    1.92
   6   4  -9   49.84   10.41
  -6  -4   9   49.72    4.23
   6   4  -8  730.92   19.12
  -6  -4   8  722.32   18.92
   6   4  -7   69.41   15.26
  -6  -4   7   58.01    5.01
   6   4  -6 1508.25   52.88
  -6  -4   6 1636.22   57.21
  -6  -4   5   12.91    2.16
  -6  -4   4  844.00   30.51
   6   4  -3   20.79    4.52
  -6  -4   3   13.02    2.37
   6   4  -2 1282.15   48.41
  -6  -4   2 1214.42   45.18
   6   4  -1    8.83    2.24
  -6  -4   1    8.40    1.82
   6   4   0   25.41    5.77
  -6  -4   0   27.18    3.01
   6   4   1  240.09   10.02
  -6  -4  -1  218.39    9.38
   6   4   2    4.58    1.73
  -6  -4  -2    5.65    1.64
   6   4   3   61.58    4.45
  -6  -4  -3   57.83    4.64
   6   4   4  385.99   10.32
  -6  -4  -4  363.93   10.08
   6   4   5  110.15    4.49
  -6  -4  -5  110.60    4.84
   6   4   6  809.76   33.87
  -6  -4  -6  803.29   33.82
   6   4   7   13.51    1.81
  -6  -4  -7   10.17    1.69
   6   4   8  971.84   34.32
  -6  -4  -8  958.70   34.16
  -6  -4  -9   51.00    3.51
  -6  -4 -10  971.27   30.54
  -6  -4 -10  919.14   30.21
   6   4  11   21.92    3.76
  -6  -4 -11   18.07    3.39
  -6  -4 -11   18.19    4.28
  -6  -4 -12   33.75   10.24
  -8  -4  15  130.37   10.63
  -8  -4  14  160.99   12.28
   8   4 -13    7.16    3.05
  -8  -4  13    3.85    3.08
   8   4 -12  116.12   16.42
  -8  -4  12  106.82    6.78
   8   4 -11    5.89    2.32
  -8  -4  11    6.53    2.18
   8   4 -10 1508.28   54.20
  -8  -4  10 1500.72   53.95
   8   4  -9   16.81    4.32
  -8  -4   9   22.94    3.07
   8   4  -8  167.64   14.33
  -8  -4   8  184.36   10.22
   8   4  -7  202.17   15.08
  -8  -4   7  205.32   10.92
   8   4  -6 1172.94   49.85
   8   4  -5    7.55    1.65
  -8  -4   5   11.40    2.14
   8   4  -4    7.76    1.80
  -8  -4   4    7.94    1.68
   8   4  -3  114.41    5.32
  -8  -4   3  114.11    5.17
   8   4  -2   86.26    4.37
  -8  -4   2   91.71    4.57
   8   4  -1   34.94    8.86
  -8  -4   1   31.45    2.59
   8   4   0  222.31    7.35
  -8  -4   0  236.54    7.71
   8   4   1   12.83    4.24
  -8  -4  -1   21.40    2.58
   8   4   2 2146.39   87.81
  -8  -4  -2 2227.26   18.23
   8   4   3    8.03    1.74
  -8  -4  -3    8.32    1.64
   8   4   4  126.02    7.69
  -8  -4  -4  118.29    6.10
   8   4   5   29.52    6.75
  -8  -4  -5   24.60    5.70
   8   4   6  717.73   22.77
  -8  -4  -6  698.77   22.11
  -8  -4  -7    0.45    0.82
  -8  -4  -8    8.81    1.81
  -8  -4  -9   26.36    2.50
  -8  -4  -9   21.66    3.15
  -8  -4 -10  246.64   15.65
 -10  -4  13    5.37    2.59
  10   4 -12    1.74    1.04
 -10  -4  12    6.51    2.52
  10   4 -11   10.41    3.44
 -10  -4  11   11.95    3.14
  10   4 -10  175.64   11.19
 -10  -4  10  148.55   10.06
  10   4  -9   23.37    7.28
 -10  -4   9   25.99    3.59
  10   4  -8   96.30    6.00
 -10  -4   8  101.34    6.50
 -10  -4   7   21.01    2.85
  10   4  -6 1418.27   50.81
 -10  -4   6 1436.15   51.05
  10   4  -5  122.28    6.82
 -10  -4   5  116.27    6.49
  10   4  -4   20.34    5.93
 -10  -4   4   51.40    3.74
  10   4  -3    1.38    1.76
 -10  -4   3    0.97    1.16
  10   4  -2 1861.49   65.10
 -10  -4   2 1850.81   64.24
  10   4  -1   29.08    7.77
 -10  -4   1   23.61    2.30
  10   4   0   17.08    4.18
 -10  -4   0    9.88    1.64
  10   4   1   20.20    7.97
 -10  -4  -1   29.42    2.78
 -10  -4  -2   36.22    5.69
  10   4   3   93.39    6.11
 -10  -4  -3   83.37    5.29
 -10  -4  -4   39.46    3.07
  10   4   5   15.86    5.14
 -10  -4  -5   30.69    2.25
  10   4   6  631.32   38.00
 -10  -4  -6  528.08   31.74
 -10  -4  -7   61.77    4.67
 -12  -4  10  890.01   54.34
 -12  -4   9    4.24    3.12
  12   4  -7   15.07    4.15
 -12  -4   7   14.67    2.32
  12   4  -6 1090.50   65.86
  12   4  -5  103.51    8.32
 -12  -4   5   89.60    7.00
  12   4  -4  128.15    9.71
 -12  -4   4  114.66    8.34
 -12  -4   3   16.41    2.19
  12   4  -2    0.77    0.72
 -12  -4   2    5.10    1.49
 -12  -4   1   72.36    5.68
  12   4   1   -1.82    1.39
  -9   5  -4  143.65   10.14
  -9   5  -3   70.60    5.93
  -9   5  -1  159.86   11.26
   9  -5   1  128.73    9.41
   9  -5   0   14.63    2.63
  -9   5   1  255.01   16.74
   9  -5  -1  212.95   14.26
  -9   5   2  245.24   16.11
   9  -5  -2  220.75   14.69
  -9   5   3  137.80    9.95
   9  -5  -3  131.89    9.59
  -9   5   4    9.04    2.07
   9  -5  -4    7.92    2.04
   9  -5  -5   20.42    2.74
  -9   5   6 1253.26   74.90
   9  -5  -6 1276.81   76.36
  -9   5   7   17.05    2.80
   9  -5  -7   19.10    2.81
   9  -5  -8   19.15    2.82
  -7   5  -8  233.85   22.81
  -7   5  -6   40.07    3.42
   7  -5   6   36.69    3.45
  -7   5  -5  158.80   11.07
   7  -5   5  149.23   10.13
  -7   5  -4    5.58    1.90
   7  -5   4    8.36    2.48
   7  -5   4    6.95    1.78
  -7   5  -3   26.71    2.98
   7  -5   3   24.48    2.87
  -7   5  -2 1008.54   32.50
   7  -5   2  864.22   28.10
  -7   5  -1    5.18    1.77
   7  -5   1    5.23    2.09
  -7   5   0  365.76   13.76
   7  -5   0  351.10   13.25
  -7   5   1   72.55    5.14
   7  -5  -1   67.50    4.63
   7  -5  -1   80.72    6.90
  -7   5   2 1430.12   50.71
   7  -5  -2 1449.95   51.55
   7  -5  -2 1638.08   55.75
  -7   5   3    3.09    2.27
   7  -5  -3    0.23    1.38
   7  -5  -3   -0.36    0.41
  -7   5   4  401.67   15.09
   7  -5  -4  374.65   14.31
  -7   5   5   16.53    3.36
   7  -5  -5   15.23    2.70
  -7   5   6   10.40    2.29
   7  -5  -6   12.20    2.39
  -7   5   7   58.68    4.49
   7  -5  -7   55.91    4.64
  -7   5   8    2.32    1.92
   7  -5  -8    3.20    1.98
  -7   5   9   17.81    3.68
   7  -5  -9   19.09    4.34
   7  -5 -10  900.67   54.80
   7  -5 -10  921.01   54.13
   7  -5 -11  158.99   12.05
  -5   5 -10   50.87   12.57
  -5   5  -9   38.58    9.50
   5  -5   9   42.15    3.85
  -5   5  -8  190.35   21.69
   5  -5   8  197.17   11.83
  -5   5  -7    3.11    1.56
   5  -5   7    1.66    1.72
  -5   5  -6 1090.93   34.80
   5  -5   6 1070.85   34.39
   5  -5   6 1001.92   32.77
  -5   5  -5    1.56    1.35
   5  -5   5    2.77    2.26
   5  -5   5    1.67    1.69
  -5   5  -4 1340.04   47.51
   5  -5   4 1388.54   49.28
  -5   5  -3    1.43    1.53
   5  -5   3    0.54    1.27
   5  -5   3    0.76    1.50
  -5   5  -2  475.45   20.27
   5  -5   2  439.56   18.84
   5  -5   2  430.27   18.95
  -5   5  -1   85.80    5.80
   5  -5   1   69.53    5.06
   5  -5   1   68.57    5.24
  -5   5   0  282.30   13.05
   5  -5   0  261.49   12.30
  -5   5   1    1.70    1.56
   5  -5  -1    1.75    2.06
  -5   5   2   91.51    5.94
   5  -5  -2   88.36    5.83
  -5   5   3  314.02   14.13
   5  -5  -3  312.53   14.16
  -5   5   4  435.40   18.69
   5  -5  -4  433.89   18.76
  -5   5   5   43.90    3.50
   5  -5  -5   57.03    4.28
  -5   5   6  810.81   32.65
   5  -5  -6  861.90   34.79
  -5   5   7   17.47    2.51
   5  -5  -7   16.38    2.53
   5  -5  -7   14.52    3.53
  -5   5   8  803.25   30.03
   5  -5  -8  806.50   30.33
   5  -5  -8  807.45   28.35
  -5   5   9   15.37    2.77
   5  -5  -9   13.86    2.72
   5  -5  -9   11.87    2.37
  -5   5  10  704.91   24.08
   5  -5 -10  780.62   26.78
   5  -5 -10  664.65   20.74
  -5   5  11  231.15   13.51
   5  -5 -11  234.76   14.19
   5  -5 -11  227.60   12.01
   5  -5 -12  260.34   17.63
   5  -5 -12  254.10   15.95
   5  -5 -13   20.94    3.65
   3  -5  12  828.58   50.27
  -3   5 -11   20.64    5.27
   3  -5  11   25.57    3.31
   3  -5  11   16.31    4.44
  -3   5 -10  322.37   17.64
   3  -5  10  327.18   17.83
   3  -5  10  280.29   16.49
  -3   5  -9   76.83    6.87
   3  -5   9   60.35    4.46
   3  -5   9   59.87    5.51
  -3   5  -8 1260.16   39.84
   3  -5   8 1208.30   38.23
  -3   5  -7   23.13    2.68
   3  -5   7   23.55    2.88
   3  -5   7   15.47    3.13
  -3   5  -6   56.54    4.16
   3  -5   6   51.88    3.93
   3  -5   6   49.10    4.95
  -3   5  -5  343.11   15.43
   3  -5   5  334.09   15.10
   3  -5   5  322.76   16.28
  -3   5  -4   16.16    2.45
   3  -5   4   24.81    3.36
  -3   5  -3   42.57    4.38
   3  -5   3   45.32    4.83
  -3   5  -2  288.35   13.98
   3  -5   2  300.32   14.65
  -3   5  -1   32.61    3.41
   3  -5   1   28.96    3.14
  -3   5   0 1317.58   29.89
   3  -5   0 1182.05   27.20
  -3   5   1   17.61    2.35
   3  -5  -1   15.03    2.49
  -3   5   2  585.98   15.67
   3  -5  -2  589.68   15.95
  -3   5   3   98.27    5.14
   3  -5  -3   95.25    5.30
  -3   5   4 1524.09   63.28
   3  -5  -4 1599.70   66.45
  -3   5   5   10.61    2.46
   3  -5  -5   11.13    2.29
  -3   5   6   41.23    4.40
   3  -5  -6   52.67    4.57
  -3   5   7   55.95    7.10
   3  -5  -7   61.91    4.46
  -3   5   8   14.68    2.45
   3  -5  -8   15.13    2.57
   3  -5  -8   12.27    1.66
  -3   5   9   -0.35    1.51
   3  -5  -9    3.62    2.16
   3  -5  -9    0.31    0.54
  -3   5  10  194.44    8.82
   3  -5 -10  194.39    9.30
   3  -5 -10  198.31    8.40
  -3   5  11   48.44    3.98
   3  -5 -11   47.84    4.59
   3  -5 -11   52.73    3.89
  -3   5  12  962.31   47.80
   3  -5 -12  981.80   49.25
   3  -5 -13   68.48    6.73
   3  -5 -14  299.31   19.98
   1  -5  13  101.48    8.23
   1  -5  13   98.48   11.26
   1  -5  12  728.56   44.55
   1  -5  12  815.07   50.45
  -1   5 -11   13.59    3.28
   1  -5  11    8.69    2.21
   1  -5  11   14.24    3.96
  -1   5 -10    9.91    1.67
   1  -5  10   10.60    2.12
   1  -5  10   14.30    3.85
  -1   5  -9   24.25    6.39
   1  -5   9   24.39    2.79
   1  -5   9   27.34    4.19
  -1   5  -8  228.82   31.82
   1  -5   8  228.57   10.73
   1  -5   8  225.94   13.00
  -1   5  -7  139.28   11.95
   1  -5   7  131.46    7.56
  -1   5  -6  126.72    7.42
   1  -5   6  132.09    7.76
  -1   5  -5   31.13    3.69
   1  -5   5   31.71    3.96
  -1   5  -4 2387.79   50.31
   1  -5   4 2416.85   51.02
  -1   5  -3   90.87    4.87
   1  -5   3   89.57    5.11
  -1   5  -2   19.55    2.36
   1  -5   2   41.62    3.48
  -1   5  -1   20.64    2.51
   1  -5   1   17.65    2.67
  -1   5   0 1257.96   28.84
   1  -5   0 1181.50   27.43
  -1   5   1    1.22    1.53
   1  -5  -1    2.73    1.54
  -1   5   2   42.30    3.27
   1  -5  -2   42.87    3.55
  -1   5   3  243.59    8.50
   1  -5  -3  228.23    8.44
  -1   5   4  403.97   11.68
   1  -5  -4  420.13   12.47
  -1   5   5  257.61   12.50
   1  -5  -5  253.56   12.70
  -1   5   6   88.73    5.76
   1  -5  -6   90.60    5.90
  -1   5   7   74.69    5.12
   1  -5  -7   75.44    5.40
  -1   5   8 1636.04   62.69
   1  -5  -8 1825.95   70.21
  -1   5   9    6.86    1.90
   1  -5  -9    7.05    1.98
   1  -5  -9    7.69    1.54
  -1   5  10   51.81    4.02
   1  -5 -10   55.66    4.20
   1  -5 -10   55.22    6.95
  -1   5  11   48.45    3.97
   1  -5 -11   47.26    4.42
   1  -5 -11   38.56   10.34
  -1   5  12  733.62   36.81
   1  -5 -12  792.06   40.21
   1  -5 -12  809.07   40.19
  -1   5  13   54.77    4.20
   1  -5 -13   55.73    4.39
   1  -5 -13   58.28    9.73
  -1   5  14    7.70    1.97
   1  -5 -14    9.64    2.90
  -1  -5  14    9.96    2.58
  -1  -5  13   56.02    4.50
   1   5 -12  816.58   41.40
  -1  -5  12  737.99   37.54
  -1  -5  12  888.02   46.00
   1   5 -11   40.06    8.18
  -1  -5  11   40.01    4.28
  -1  -5  11   53.88    6.73
   1   5 -10   42.65    9.33
  -1  -5  10   49.28    4.26
  -1  -5  10   58.43    6.34
   1   5  -9    7.93    2.52
  -1  -5   9    8.65    2.30
   1   5  -8 1891.60   72.88
  -1  -5   8 1658.42   64.12
   1   5  -7   89.15   18.23
  -1  -5   7   75.26    6.69
   1   5  -6   88.49   16.35
  -1  -5   6   99.68    6.67
   1   5  -5  254.57   12.58
  -1  -5   5  269.26   13.44
   1   5  -4  455.15   13.16
  -1  -5   4  427.34   12.73
   1   5  -3  242.81    8.59
  -1  -5   3  236.66    8.75
   1   5  -2   45.62    3.34
  -1  -5   2   43.87    3.50
   1   5  -1    5.01    2.03
  -1  -5   1    3.99    1.71
   1   5   0 1082.72   24.91
  -1  -5   0 1226.96   28.32
   1   5   1   17.42    2.48
  -1  -5  -1   16.29    2.20
   1   5   2   28.80    2.80
  -1  -5  -2   27.11    2.73
   1   5   3   85.54    4.72
  -1  -5  -3   77.06    6.54
   1   5   4 2272.59   47.53
  -1  -5  -4 2367.51   49.87
   1   5   5   30.21    3.40
  -1  -5  -5   35.56    4.02
   1   5   6  137.80    7.65
  -1  -5  -6  121.30    7.14
   1   5   7  126.77    6.93
  -1  -5  -7  124.43    7.13
   1   5   8  225.09   10.00
  -1  -5  -8  239.11   11.08
   1   5   9   24.89    2.46
  -1  -5  -9   30.50    3.50
   1   5  10   10.90    1.93
  -1  -5 -10    8.88    1.95
  -1  -5 -10    8.07    1.75
   1   5  11   11.63    2.55
  -1  -5 -11   10.16    2.57
  -1  -5 -11   12.34    2.80
   1   5  12  754.36   45.53
  -1  -5 -12  783.34   47.76
  -1  -5 -12  723.81   43.82
  -1  -5 -13  102.41    9.28
  -3  -5  13   62.38    6.06
  -3  -5  12  957.78   48.17
  -3  -5  12 1194.77   60.90
   3   5 -11   43.37    9.53
  -3  -5  11   51.36    4.43
   3   5 -10  164.99   29.12
  -3  -5  10  187.32    8.99
   3   5  -9    1.26    1.36
  -3  -5   9   -0.59    1.47
   3   5  -8   10.87    2.93
  -3  -5   8   10.69    2.26
   3   5  -7   64.36   15.16
  -3  -5   7   55.55    4.17
   3   5  -6   50.12    7.86
  -3  -5   6   49.25    4.25
   3   5  -5   11.81    2.34
  -3  -5   5   13.14    2.43
   3   5  -4 1459.31   60.79
  -3  -5   4 1682.70   69.91
   3   5  -3  103.89    5.35
  -3  -5   3   93.48    5.20
   3   5  -2  568.55   15.28
  -3  -5   2  550.94   15.06
   3   5  -1   16.03    2.42
  -3  -5   1   16.27    2.54
   3   5   0 1185.30   26.71
  -3  -5   0 1267.26   28.87
   3   5   1   26.93    2.64
  -3  -5  -1   28.03    3.25
   3   5   2  275.89   13.12
  -3  -5  -2  289.50   14.06
   3   5   3   40.67    4.12
  -3  -5  -3   36.45    3.89
   3   5   4   22.09    2.94
  -3  -5  -4   18.22    2.66
   3   5   5  370.42   16.13
  -3  -5  -5  318.64   14.34
   3   5   6   55.01    3.53
  -3  -5  -6   51.60    3.47
   3   5   7   26.05    2.46
  -3  -5  -7   20.61    2.58
   3   5   8 1250.17   38.74
  -3  -5  -8 1251.80   39.37
   3   5   9   67.66    4.48
  -3  -5  -9   62.32    4.62
  -3  -5 -10  301.87   16.36
  -3  -5 -10  318.05   17.34
  -3  -5 -11   17.77    2.41
  -3  -5 -11   18.70    4.61
  -3  -5 -12  820.72   49.68
  -5  -5  12  246.10   17.02
  -5  -5  11  230.90   14.06
   5   5 -10  835.61   28.61
  -5  -5  10  672.38   23.68
   5   5  -9   13.44    2.98
  -5  -5   9   10.54    2.53
   5   5  -8  823.05   30.91
  -5  -5   8  775.47   29.42
   5   5  -7   15.83    3.93
  -5  -5   7   17.25    2.63
   5   5  -6  835.20   33.61
  -5  -5   6  841.61   33.96
   5   5  -5   51.06    9.78
  -5  -5   5   44.93    3.65
   5   5  -4  511.96   21.87
  -5  -5   4  444.41   19.23
   5   5  -3  325.88   14.75
  -5  -5   3  315.18   14.31
   5   5  -2   80.97    7.77
  -5  -5   2   75.02    5.34
   5   5  -1    0.30    0.37
  -5  -5   1    1.68    1.38
   5   5   0  277.23   12.61
  -5  -5   0  261.50   12.19
   5   5   1   86.24    5.51
  -5  -5  -1   82.31    5.51
   5   5   2  433.58   18.30
  -5  -5  -2  472.29   20.20
   5   5   3    2.83    1.85
  -5  -5  -3    3.31    1.41
   5   5   4 1332.65   46.85
  -5  -5  -4 1317.74   46.70
   5   5   5    2.12    1.72
  -5  -5  -5    7.12    2.29
   5   5   6 1026.12   32.16
  -5  -5  -6 1003.05   31.88
  -5  -5  -7    0.84    1.21
  -5  -5  -8  190.38   11.09
  -5  -5  -9   36.30    3.06
  -5  -5 -10   55.33    3.80
  -5  -5 -10   60.54    5.76
  -7  -5  11  149.53   11.42
  -7  -5  10  870.92   53.14
   7   5  -9   21.27    7.33
  -7  -5   9   16.75    3.72
   7   5  -8    4.24    1.74
  -7  -5   8    4.46    2.51
   7   5  -7   56.47   14.80
  -7  -5   7   46.19    4.23
   7   5  -6   17.45    4.07
  -7  -5   6   13.91    2.41
   7   5  -5   11.84    2.49
  -7  -5   5   11.69    2.15
   7   5  -4  343.60   14.36
  -7  -5   4  364.13   15.36
   7   5  -3    0.82    0.69
  -7  -5   3    1.89    1.49
  -7  -5   2 1494.88   52.89
   7   5  -1   79.22   10.05
  -7  -5   1   66.55    4.69
   7   5   0  400.90   14.80
  -7  -5   0  351.26   13.22
   7   5   1    7.03    2.36
  -7  -5  -1    5.70    1.86
   7   5   2  915.39   29.21
  -7  -5  -2  950.50   30.66
  -7  -5  -3   23.82    2.77
  -7  -5  -4    5.35    1.66
   7   5   5  163.95    9.56
  -7  -5  -5  126.84    9.35
  -7  -5  -6   33.49    2.81
  -7  -5  -7   99.62    7.39
  -7  -5  -8  206.71   13.68
  -9  -5   9   92.43    7.96
   9   5  -8   19.48    4.51
  -9  -5   8   22.96    3.07
   9   5  -7   17.83    5.28
  -9  -5   7   19.39    2.93
   9   5  -6 1458.53   87.12
  -9  -5   6 1289.32   76.96
   9   5  -5   16.72    4.49
  -9  -5   5   18.32    2.52
   9   5  -4   11.59    2.60
  -9  -5   4    6.90    2.14
   9   5  -3  141.55   10.23
  -9  -5   3  142.40   10.21
  -9  -5   2  250.85   16.40
   9   5  -1  226.46   14.89
  -9  -5   1  235.41   15.45
   9   5   0   10.63    2.54
  -9  -5   0   12.25    2.23
   9   5   1  132.40   11.04
  -9  -5  -1  139.73    9.95
  -9  -5  -2  267.46   17.26
   9   5   3   62.36    9.49
  -9  -5  -3   60.16    5.13
  -9  -5  -4  131.43    9.21
   6  -6   1  255.83   17.19
   6  -6  -1    0.54    1.49
   4  -6   4  454.29   28.59
   4  -6   3   64.72    6.04
   4  -6   2  537.37   33.42
   4  -6   2  544.97   34.54
   4  -6   1   10.58    2.37
   4  -6   0  963.62   58.23
   4  -6  -1   27.14    3.57
   4  -6  -2   92.87    7.75
   4  -6  -3   43.79    3.96
   4  -6  -4   72.00    6.81
   4  -6  -5    6.49    2.37
   4  -6  -7  225.69   14.31
   4  -6  -8  428.85   26.12
   2  -6   7   23.24    2.85
   2  -6   6   60.31    5.83
   2  -6   5   46.33    4.45
   2  -6   4 1008.51   61.11
  -2   6  -3   13.78    3.26
   2  -6   3   14.05    3.64
  -2   6  -2   31.36    3.52
   2  -6   2   31.33    3.93
   2  -6   1  478.44   25.21
  -2   6   0    8.42    2.46
   2  -6   0    5.37    1.77
  -2   6   1  200.30   12.18
   2  -6  -1  174.85   10.89
  -2   6   2  122.68    8.41
   2  -6  -2   91.82    6.72
  -2   6   3   31.27    4.04
   2  -6  -3   30.90    3.74
   2  -6  -4 1211.70   59.71
   2  -6  -5    0.88    1.86
   2  -6  -6  366.51   23.68
   2  -6  -7  170.72   12.55
   0  -6   7    8.19    2.34
   0  -6   6   60.91    6.02
   0  -6   5    6.32    3.09
   0  -6   4  472.52   25.15
   0   6  -3   21.33    4.16
   0  -6   3   27.49    3.81
   0   6  -2   31.52    3.73
   0  -6   2   41.10    4.77
   0   6  -1   15.18    3.23
   0  -6   1   20.23    4.22
   0   6   0 1580.44   76.78
   0  -6   0 1698.08   82.59
   0  -6  -1   12.88    3.06
   0   6   2   38.95    4.11
   0  -6  -2   33.41    3.79
   0   6   3   24.51    3.24
   0  -6  -3   18.56    4.16
   0   6   4  484.94   25.34
   0  -6  -4  433.21   23.08
   0  -6  -5    4.49    1.96
   0  -6  -6   49.56    4.28
   0  -6  -7    9.42    3.11
   0  -6  -8  267.30   18.00
  -2  -6   6  381.24   24.65
  -2  -6   5    0.71    2.08
  -2  -6   4 1240.55   61.24
   2   6  -3   25.40    2.89
  -2  -6   3   28.81    3.30
   2   6  -2  114.22    7.88
  -2  -6   2   98.61    7.30
   2   6  -1  188.51   11.39
  -2  -6   1  184.73   11.54
   2   6   0    8.63    2.32
  -2  -6   0    5.78    2.27
   2   6   1  471.34   24.46
  -2  -6  -1  452.58   23.92
  -2  -6  -2   28.78    3.21
   2   6   3    9.14    2.40
  -2  -6  -3   11.74    2.99
   2   6   4  957.54   57.56
  -2  -6  -4  922.55   55.77
   2   6   5   47.36    4.17
  -2  -6  -5   37.45    3.99
   2   6   6   63.44    5.85
  -2  -6  -6   47.32    3.88
  -2  -6  -7   18.95    2.88
  -4  -6   6   92.37    8.15
  -4  -6   5    7.50    1.96
  -4  -6   4   78.37    7.11
  -4  -6   3   47.44    4.29
  -4  -6   2   84.95    7.41
   4   6  -1   28.00    3.04
  -4  -6   1   28.57    3.38
   4   6   0  969.45   58.31
  -4  -6   0 1025.62   61.95
   4   6   1    8.56    1.75
  -4  -6  -1    5.80    2.15
   4   6   2  589.51   36.18
  -4  -6  -2  531.75   32.99
   4   6   3   74.14    6.26
  -4  -6  -3   64.80    5.97
   4   6   4  503.09   31.03
  -4  -6  -4  461.44   29.02
   4   6   5   15.45    2.27
  -4  -6  -5   15.68    2.71
  -6  -6   5   15.59    3.39
  -6  -6   4  516.87   32.37
  -6  -6   3    8.04    2.31
  -6  -6   2  875.18   53.07
  -6  -6   1    0.01    1.78
  -6  -6   0   44.61    4.24
  -6  -6  -1  272.25   18.18
   0   0   0    0.00    0.00
;
_shelx_hkl_checksum              71169
loop_
_space_group_symop_operation_xyz
'x, y, z'
'-x, y, -z+1/2'
'x+1/2, y+1/2, z'
'-x+1/2, y+1/2, -z+1/2'
'-x, -y, -z'
'x, -y, z-1/2'
'-x+1/2, -y+1/2, -z'
'x+1/2, -y+1/2, z-1/2'
loop_
_atom_site_label
_atom_site_type_symbol
_atom_site_fract_x
_atom_site_fract_y
_atom_site_fract_z
_atom_site_U_iso_or_equiv
_atom_site_adp_type
_atom_site_occupancy
_atom_site_site_symmetry_order
_atom_site_calc_flag
_atom_site_refinement_flags_posn
_atom_site_refinement_flags_adp
_atom_site_refinement_flags_occupancy
Ho1 Ho 0.88679(3) 0.01047(6) 0.41597(2) 0.0078(2) Uani 1 1 d . . .
Ba1 Ba 0.66256(4) 0.49473(7) 0.33300(3) 0.0100(2) Uani 1 1 d . . .
Si1 Si 0.8803(2) -0.4681(4) 0.54234(14) 0.0085(5) Uani 1 1 d . . .
Si2 Si 1.06245(18) -0.5449(4) 0.68267(13) 0.0089(5) Uani 1 1 d . . .
O1 O 0.9795(4) -0.6463(9) 0.5988(3) 0.0116(10) Uani 1 1 d . . .
O2 O 0.7911(5) -0.4564(11) 0.5940(3) 0.0122(11) Uani 1 1 d . . .
O3 O 0.9295(4) -0.1774(9) 0.5368(3) 0.0107(10) Uani 1 1 d . . .
O4 O 0.8428(4) -0.6024(10) 0.4583(3) 0.0123(10) Uani 1 1 d . . .
O5 O 0.5000 0.1411(13) 0.2500 0.0117(14) Uani 1 2 d S T P
O6 O 0.9187(4) 0.2425(10) 0.3125(3) 0.0159(11) Uani 1 1 d . . .
O7 O 0.8355(4) -0.2686(10) 0.3082(3) 0.0141(11) Uani 1 1 d . . .
loop_
_atom_site_aniso_label
_atom_site_aniso_U_11
_atom_site_aniso_U_22
_atom_site_aniso_U_33
_atom_site_aniso_U_23
_atom_site_aniso_U_13
_atom_site_aniso_U_12
Ho1 0.0100(3) 0.0085(3) 0.0060(3) 0.00006(9) 0.0043(2) -0.00013(9)
Ba1 0.0124(4) 0.0104(3) 0.0084(4) -0.00093(12) 0.0046(3) -0.00184(12)
Si1 0.0103(10) 0.0082(9) 0.0080(12) -0.0005(7) 0.0042(8) -0.0001(7)
Si2 0.0124(10) 0.0082(9) 0.0079(10) -0.0001(7) 0.0057(8) 0.0002(8)
O1 0.017(3) 0.008(2) 0.010(2) -0.0002(18) 0.004(2) 0.0010(19)
O2 0.012(3) 0.016(2) 0.011(3) -0.002(2) 0.007(2) 0.001(2)
O3 0.014(2) 0.008(2) 0.009(2) 0.0012(18) 0.0018(19) -0.0023(19)
O4 0.015(2) 0.012(3) 0.010(2) -0.0023(19) 0.004(2) 0.002(2)
O5 0.023(4) 0.009(3) 0.007(3) 0.000 0.010(3) 0.000
O6 0.023(3) 0.014(3) 0.013(3) -0.002(2) 0.009(2) -0.004(2)
O7 0.014(2) 0.014(2) 0.016(3) 0.001(2) 0.006(2) 0.0022(19)
loop_
_atom_type_symbol
_atom_type_description
_atom_type_scat_dispersion_real
_atom_type_scat_dispersion_imag
_atom_type_scat_source
O O 0.0106 0.0060 'International Tables Vol C Tables 4.2.6.8 and 6.1.1.4'
Si Si 0.0817 0.0704 'International Tables Vol C Tables 4.2.6.8 and 6.1.1.4'
Ba Ba -0.3244 2.2819 'International Tables Vol C Tables 4.2.6.8 and 6.1.1.4'
Ho Ho -0.2175 4.6783 'International Tables Vol C Tables 4.2.6.8 and 6.1.1.4'
loop_
_geom_angle_atom_site_label_1
_geom_angle_atom_site_label_2
_geom_angle_atom_site_label_3
_geom_angle
_geom_angle_site_symmetry_1
_geom_angle_site_symmetry_3
O4 Ho1 O2 79.01(19) 1_565 7_646
O4 Ho1 O3 95.74(18) 1_565 .
O2 Ho1 O3 91.72(19) 7_646 .
O4 Ho1 O6 84.13(19) 1_565 .
O2 Ho1 O6 111.9(2) 7_646 .
O3 Ho1 O6 155.77(18) . .
O4 Ho1 O7 140.36(18) 1_565 .
O2 Ho1 O7 77.28(19) 7_646 .
O3 Ho1 O7 116.21(17) . .
O6 Ho1 O7 75.96(18) . .
O4 Ho1 O3 82.52(17) 1_565 5_756
O2 Ho1 O3 159.34(19) 7_646 5_756
O3 Ho1 O3 80.92(18) . 5_756
O6 Ho1 O3 75.03(17) . 5_756
O7 Ho1 O3 123.29(18) . 5_756
O4 Ho1 O1 154.11(17) 1_565 5_746
O2 Ho1 O1 125.23(18) 7_646 5_746
O3 Ho1 O1 76.37(17) . 5_746
O6 Ho1 O1 93.21(17) . 5_746
O7 Ho1 O1 62.29(16) . 5_746
O3 Ho1 O1 71.96(16) 5_756 5_746
O4 Ho1 Si2 165.78(14) 1_565 5_746
O2 Ho1 Si2 101.63(15) 7_646 5_746
O3 Ho1 Si2 98.43(13) . 5_746
O6 Ho1 Si2 82.48(13) . 5_746
O7 Ho1 Si2 29.92(13) . 5_746
O3 Ho1 Si2 98.55(12) 5_756 5_746
O1 Ho1 Si2 32.39(12) 5_746 5_746
O4 Ho1 Si1 113.35(14) 1_565 .
O2 Ho1 Si1 76.86(15) 7_646 .
O3 Ho1 Si1 26.30(13) . .
O6 Ho1 Si1 162.08(14) . .
O7 Ho1 Si1 91.52(13) . .
O3 Ho1 Si1 102.39(12) 5_756 .
O1 Ho1 Si1 69.40(12) 5_746 .
Si2 Ho1 Si1 80.38(6) 5_746 .
O4 Ho1 Ho1 88.53(13) 1_565 5_756
O2 Ho1 Ho1 131.10(15) 7_646 5_756
O3 Ho1 Ho1 42.35(12) . 5_756
O6 Ho1 Ho1 113.54(14) . 5_756
O7 Ho1 Ho1 130.80(12) . 5_756
O3 Ho1 Ho1 38.57(11) 5_756 5_756
O1 Ho1 Ho1 68.89(11) 5_746 5_756
Si2 Ho1 Ho1 101.19(4) 5_746 5_756
Si1 Ho1 Ho1 65.19(4) . 5_756
O4 Ho1 Ba1 46.92(13) 1_565 .
O2 Ho1 Ba1 53.31(15) 7_646 .
O3 Ho1 Ba1 128.67(13) . .
O6 Ho1 Ba1 67.41(14) . .
O7 Ho1 Ba1 93.53(12) . .
O3 Ho1 Ba1 117.76(11) 5_756 .
O1 Ho1 Ba1 152.82(11) 5_746 .
Si2 Ho1 Ba1 122.31(4) 5_746 .
Si1 Ho1 Ba1 127.08(4) . .
Ho1 Ho1 Ba1 135.423(17) 5_756 .
O4 Ho1 Ba1 120.55(13) 1_565 1_545
O2 Ho1 Ba1 41.88(14) 7_646 1_545
O3 Ho1 Ba1 92.39(12) . 1_545
O6 Ho1 Ba1 108.60(13) . 1_545
O7 Ho1 Ba1 40.98(13) . 1_545
O3 Ho1 Ba1 156.65(12) 5_756 1_545
O1 Ho1 Ba1 84.75(11) 5_746 1_545
Si2 Ho1 Ba1 60.10(4) 5_746 1_545
Si1 Ho1 Ba1 66.81(4) . 1_545
Ho1 Ho1 Ba1 130.749(17) 5_756 1_545
Ba1 Ho1 Ba1 83.862(15) . 1_545
O7 Ba1 O2 64.72(17) 1_565 7_656
O7 Ba1 O6 77.41(16) 1_565 4_655
O2 Ba1 O6 90.78(17) 7_656 4_655
O7 Ba1 O4 69.61(16) 1_565 1_565
O2 Ba1 O4 75.33(16) 7_656 1_565
O6 Ba1 O4 147.02(16) 4_655 1_565
O7 Ba1 O7 84.09(12) 1_565 4_655
O2 Ba1 O7 142.29(17) 7_656 4_655
O6 Ba1 O7 60.70(15) 4_655 4_655
O4 Ba1 O7 114.49(15) 1_565 4_655
O7 Ba1 O5 137.62(12) 1_565 .
O2 Ba1 O5 147.85(16) 7_656 .
O6 Ba1 O5 76.80(14) 4_655 .
O4 Ba1 O5 129.24(15) 1_565 .
O7 Ba1 O5 53.94(11) 4_655 .
O7 Ba1 O3 118.66(15) 1_565 7_656
O2 Ba1 O3 55.75(16) 7_656 7_656
O6 Ba1 O3 114.84(14) 4_655 7_656
O4 Ba1 O3 82.08(14) 1_565 7_656
O7 Ba1 O3 156.27(14) 4_655 7_656
O5 Ba1 O3 102.58(10) . 7_656
O7 Ba1 O1 161.78(15) 1_565 7_646
O2 Ba1 O1 115.35(16) 7_656 7_646
O6 Ba1 O1 120.41(15) 4_655 7_646
O4 Ba1 O1 92.51(14) 1_565 7_646
O7 Ba1 O1 100.95(14) 4_655 7_646
O5 Ba1 O1 52.18(10) . 7_646
O3 Ba1 O1 59.75(13) 7_656 7_646
O7 Ba1 O2 113.82(16) 1_565 7_646
O2 Ba1 O2 127.5(2) 7_656 7_646
O6 Ba1 O2 141.60(16) 4_655 7_646
O4 Ba1 O2 58.25(15) 1_565 7_646
O7 Ba1 O2 83.25(15) 4_655 7_646
O5 Ba1 O2 71.01(15) . 7_646
O3 Ba1 O2 92.50(14) 7_656 7_646
O1 Ba1 O2 50.38(14) 7_646 7_646
O7 Ba1 O6 127.08(14) 1_565 3_455
O2 Ba1 O6 78.55(15) 7_656 3_455
O6 Ba1 O6 65.93(17) 4_655 3_455
O4 Ba1 O6 136.62(14) 1_565 3_455
O7 Ba1 O6 107.43(14) 4_655 3_455
O5 Ba1 O6 69.31(13) . 3_455
O3 Ba1 O6 54.56(13) 7_656 3_455
O1 Ba1 O6 68.44(13) 7_646 3_455
O2 Ba1 O6 118.71(14) 7_646 3_455
O7 Ba1 Si1 92.32(12) 1_565 7_656
O2 Ba1 Si1 27.70(13) 7_656 7_656
O6 Ba1 Si1 99.65(11) 4_655 7_656
O4 Ba1 Si1 81.92(11) 1_565 7_656
O7 Ba1 Si1 160.34(11) 4_655 7_656
O5 Ba1 Si1 124.79(8) . 7_656
O3 Ba1 Si1 28.81(10) 7_656 7_656
O1 Ba1 Si1 88.46(10) 7_646 7_656
O2 Ba1 Si1 115.66(12) 7_646 7_656
O6 Ba1 Si1 59.88(10) 3_455 7_656
O7 Ba1 Si2 110.60(12) 1_565 8_445
O2 Ba1 Si2 159.51(13) 7_656 8_445
O6 Ba1 Si2 68.84(11) 4_655 8_445
O4 Ba1 Si2 123.01(11) 1_565 8_445
O7 Ba1 Si2 26.51(11) 4_655 8_445
O5 Ba1 Si2 27.73(5) . 8_445
O3 Ba1 Si2 130.28(10) 7_656 8_445
O1 Ba1 Si2 75.65(10) 7_646 8_445
O2 Ba1 Si2 72.93(12) 7_646 8_445
O6 Ba1 Si2 90.73(10) 3_455 8_445
Si1 Ba1 Si2 150.31(6) 7_656 8_445
O4 Si1 O2 115.9(3) . .
O4 Si1 O3 112.3(3) . .
O2 Si1 O3 109.3(3) . .
O4 Si1 O1 108.5(3) . .
O2 Si1 O1 103.1(3) . .
O3 Si1 O1 107.0(3) . .
O4 Si1 Ho1 76.3(2) . .
O2 Si1 Ho1 118.4(2) . .
O3 Si1 Ho1 37.69(18) . .
O1 Si1 Ho1 131.3(2) . .
O4 Si1 Ba1 147.7(2) . 7_656
O2 Si1 Ba1 51.2(2) . 7_656
O3 Si1 Ba1 60.13(18) . 7_656
O1 Si1 Ba1 103.59(19) . 7_656
Ho1 Si1 Ba1 85.51(5) . 7_656
O4 Si1 Ba1 99.8(2) . 7_646
O2 Si1 Ba1 57.5(2) . 7_646
O3 Si1 Ba1 147.5(2) . 7_646
O1 Si1 Ba1 55.59(18) . 7_646
Ho1 Si1 Ba1 172.75(8) . 7_646
Ba1 Si1 Ba1 94.99(6) 7_656 7_646
O6 Si2 O7 118.8(3) 5_756 5_746
O6 Si2 O5 110.7(3) 5_756 7_646
O7 Si2 O5 105.6(3) 5_746 7_646
O6 Si2 O1 114.4(3) 5_756 .
O7 Si2 O1 103.1(3) 5_746 .
O5 Si2 O1 102.5(2) 7_646 .
O6 Si2 Ho1 138.1(2) 5_756 5_746
O7 Si2 Ho1 46.8(2) 5_746 5_746
O5 Si2 Ho1 111.2(2) 7_646 5_746
O1 Si2 Ho1 56.36(18) . 5_746
O6 Si2 Ba1 126.3(2) 5_756 8_546
O7 Si2 Ba1 52.0(2) 5_746 8_546
O5 Si2 Ba1 54.42(16) 7_646 8_546
O1 Si2 Ba1 119.1(2) . 8_546
Ho1 Si2 Ba1 79.25(5) 5_746 8_546
O6 Si2 Ba1 78.1(2) 5_756 5_756
O7 Si2 Ba1 42.6(2) 5_746 5_756
O5 Si2 Ba1 136.49(12) 7_646 5_756
O1 Si2 Ba1 112.3(2) . 5_756
Ho1 Si2 Ba1 71.15(4) 5_746 5_756
Ba1 Si2 Ba1 85.34(5) 8_546 5_756
O6 Si2 Ba1 137.7(2) 5_756 7_646
O7 Si2 Ba1 103.3(2) 5_746 7_646
O5 Si2 Ba1 49.79(15) 7_646 7_646
O1 Si2 Ba1 54.14(19) . 7_646
Ho1 Si2 Ba1 74.40(5) 5_746 7_646
Ba1 Si2 Ba1 76.78(5) 8_546 7_646
Ba1 Si2 Ba1 143.53(7) 5_756 7_646
Si2 O1 Si1 124.7(3) . .
Si2 O1 Ho1 91.3(2) . 5_746
Si1 O1 Ho1 139.6(3) . 5_746
Si2 O1 Ba1 99.0(2) . 7_646
Si1 O1 Ba1 96.9(2) . 7_646
Ho1 O1 Ba1 94.47(15) 5_746 7_646
Si1 O2 Ho1 141.8(3) . 7_646
Si1 O2 Ba1 101.1(3) . 7_656
Ho1 O2 Ba1 104.3(2) 7_646 7_656
Si1 O2 Ba1 96.1(2) . 7_646
Ho1 O2 Ba1 90.51(18) 7_646 7_646
Ba1 O2 Ba1 127.5(2) 7_656 7_646
Si1 O3 Ho1 116.0(3) . .
Si1 O3 Ho1 130.8(3) . 5_756
Ho1 O3 Ho1 99.08(18) . 5_756
Si1 O3 Ba1 91.1(2) . 7_656
Ho1 O3 Ba1 121.82(19) . 7_656
Ho1 O3 Ba1 98.90(16) 5_756 7_656
Si1 O4 Ho1 130.4(3) . 1_545
Si1 O4 Ba1 130.3(3) . 1_545
Ho1 O4 Ba1 97.26(17) 1_545 1_545
Si2 O5 Si2 144.8(5) 8_445 7_646
Si2 O5 Ba1 104.31(14) 8_445 2_655
Si2 O5 Ba1 97.85(14) 7_646 2_655
Si2 O5 Ba1 97.85(14) 8_445 .
Si2 O5 Ba1 104.31(14) 7_646 .
Ba1 O5 Ba1 101.1(2) 2_655 .
Si2 O6 Ho1 122.1(3) 5_756 .
Si2 O6 Ba1 121.2(3) 5_756 4_645
Ho1 O6 Ba1 112.1(2) . 4_645
Si2 O6 Ba1 104.5(3) 5_756 3_545
Ho1 O6 Ba1 93.07(17) . 3_545
Ba1 O6 Ba1 93.08(14) 4_645 3_545
Si2 O7 Ho1 103.3(3) 5_746 .
Si2 O7 Ba1 113.3(3) 5_746 1_545
Ho1 O7 Ba1 103.70(19) . 1_545
Si2 O7 Ba1 101.5(2) 5_746 4_645
Ho1 O7 Ba1 110.16(19) . 4_645
Ba1 O7 Ba1 123.33(19) 1_545 4_645
loop_
_geom_bond_atom_site_label_1
_geom_bond_atom_site_label_2
_geom_bond_distance
_geom_bond_site_symmetry_2
Ho1 O4 2.260(5) 1_565
Ho1 O2 2.262(6) 7_646
Ho1 O3 2.274(5) .
Ho1 O6 2.295(5) .
Ho1 O7 2.345(5) .
Ho1 O3 2.457(5) 5_756
Ho1 O1 2.606(5) 5_746
Ho1 Si2 3.130(2) 5_746
Ho1 Si1 3.342(2) .
Ho1 Ho1 3.6011(9) 5_756
Ho1 Ba1 3.8308(7) .
Ho1 Ba1 3.9401(6) 1_545
Ba1 O7 2.659(5) 1_565
Ba1 O2 2.715(6) 7_656
Ba1 O6 2.819(5) 4_655
Ba1 O4 2.821(5) 1_565
Ba1 O7 2.831(5) 4_655
Ba1 O5 2.892(4) .
Ba1 O3 2.965(5) 7_656
Ba1 O1 3.011(5) 7_646
Ba1 O2 3.072(6) 7_646
Ba1 O6 3.317(6) 3_455
Ba1 Si1 3.419(2) 7_656
Ba1 Si2 3.522(2) 8_445
Si1 O4 1.595(5) .
Si1 O2 1.620(6) .
Si1 O3 1.648(5) .
Si1 O1 1.686(5) .
Si1 Ba1 3.419(2) 7_656
Si1 Ba1 3.623(2) 7_646
Si2 O6 1.588(6) 5_756
Si2 O7 1.604(5) 5_746
Si2 O5 1.654(3) 7_646
Si2 O1 1.677(5) .
Si2 Ho1 3.130(2) 5_746
Si2 Ba1 3.522(2) 8_546
Si2 Ba1 3.609(2) 5_756
Si2 Ba1 3.669(2) 7_646
O1 Ho1 2.606(5) 5_746
O1 Ba1 3.011(5) 7_646
O2 Ho1 2.261(6) 7_646
O2 Ba1 2.715(6) 7_656
O2 Ba1 3.072(6) 7_646
O3 Ho1 2.457(5) 5_756
O3 Ba1 2.965(5) 7_656
O4 Ho1 2.260(5) 1_545
O4 Ba1 2.821(5) 1_545
O5 Si2 1.654(3) 8_445
O5 Si2 1.654(3) 7_646
O5 Ba1 2.892(4) 2_655
O6 Si2 1.588(5) 5_756
O6 Ba1 2.819(5) 4_645
O6 Ba1 3.317(6) 3_545
O7 Si2 1.604(5) 5_746
O7 Ba1 2.660(5) 1_545
O7 Ba1 2.831(5) 4_645
