#------------------------------------------------------------------------------
#$Date: 2021-05-18 19:36:50 +0300 (Tue, 18 May 2021) $
#$Revision: 265307 $
#$URL: file:///home/coder/svn-repositories/cod/cif/3/00/00/3000098.cif $
#------------------------------------------------------------------------------
#
# This file is available in the Crystallography Open Database (COD),
# http://www.crystallography.net/
#
# All data on this site have been placed in the public domain by the
# contributors.
#
data_3000098
loop_
_publ_author_name
'Bubnova, Rimma'
'Volkov, Sergey'
'Barbara Albert'
'Filatov, Stanislav'
_publ_section_title
;
 Borates--Crystal Structures of Prospective Nonlinear Optical Materials:
 High Anisotropy of the Thermal Expansion Caused by Anharmonic Atomic
 Vibrations
;
_journal_issue                   3
_journal_name_full               Crystals
_journal_page_first              93
_journal_paper_doi               10.3390/cryst7030093
_journal_volume                  7
_journal_year                    2017
_chemical_formula_sum            'B2 Ba O4'
_chemical_formula_weight         223
_space_group_IT_number           161
_symmetry_cell_setting           trigonal
_symmetry_Int_Tables_number      161
_symmetry_space_group_name_Hall  'R 3 -2"c'
_symmetry_space_group_name_H-M   'R 3 c :H'
_cell_angle_alpha                90
_cell_angle_beta                 90
_cell_angle_gamma                120
_cell_formula_units_Z            18
_cell_length_a                   12.5269
_cell_length_b                   12.5269
_cell_length_c                   12.7181
_cell_measurement_temperature    298
_cell_volume                     1728.383
_diffrn_ambient_temperature      298
_diffrn_measured_fraction_theta_full 0.99
_diffrn_measured_fraction_theta_max 0.99
_diffrn_radiation_probe          x-ray
_diffrn_radiation_source         'X-ray tube'
_diffrn_radiation_type           'Mo K\a'
_diffrn_radiation_wavelength     0.71073
_diffrn_reflns_av_R_equivalents  0.0782
_diffrn_reflns_av_unetI/netI     0.0479
_diffrn_reflns_limit_h_max       25
_diffrn_reflns_limit_h_min       -25
_diffrn_reflns_limit_k_max       25
_diffrn_reflns_limit_k_min       -25
_diffrn_reflns_limit_l_max       25
_diffrn_reflns_limit_l_min       -26
_diffrn_reflns_number            30297
_diffrn_reflns_theta_full        47.28
_diffrn_reflns_theta_max         47.28
_diffrn_reflns_theta_min         3.25
_exptl_absorpt_coefficient_mu    10.199
_exptl_crystal_density_diffrn    3.8557
_exptl_crystal_F_000             1764
_refine_diff_density_max         2.50
_refine_diff_density_min         -0.89
_refine_ls_abs_structure_details
'  1743 of Friedel pairs used in the refinement'
_refine_ls_extinction_coef       6750(160)
_refine_ls_extinction_method
'B-C type 1 Gaussian isotropic (Becker & Coppens, 1974)'
_refine_ls_goodness_of_fit_gt    1.22
_refine_ls_goodness_of_fit_ref   1.17
_refine_ls_number_constraints    1
_refine_ls_number_parameters     90
_refine_ls_number_reflns         3517
_refine_ls_number_restraints     0
_refine_ls_R_factor_all          0.0366
_refine_ls_R_factor_gt           0.0311
_refine_ls_shift/su_max          0.0484
_refine_ls_shift/su_mean         0.0059
_refine_ls_structure_factor_coef F
_refine_ls_weighting_details     w=1/(\s^2^(F)+0.0001F^2^)
_refine_ls_weighting_scheme      sigma
_refine_ls_wR_factor_gt          0.0341
_refine_ls_wR_factor_ref         0.0352
_reflns_number_gt                3046
_reflns_number_total             3517
_reflns_threshold_expression     I>3\s(I)
_cod_data_source_file            b-BaB2O4_298K_anharmonicity.cif
_cod_data_source_block           I
_cod_depositor_comments
;
The following automatic conversions were performed:

'_diffrn_radiation_probe' value 'X-ray' changed to 'x-ray' according
to the built-in table from CIF Core dictionary named 'cif_core.dic'
version 2.4.1 from 2010-06-29.

Automatic conversion script
Id: cif_fix_values 4624 2016-04-14 12:54:50Z antanas 

 Released structure into public domain as published material.

 Antanas Vaitkus,
 2021-05-18
;
_cod_original_sg_symbol_Hall     'R 3;-2"c'
_cod_original_sg_symbol_H-M      'R 3 c'
_cod_original_formula_sum        'B2 Ba1 O4'
_cod_database_code               3000098
loop_
_space_group_symop_id
_space_group_symop_operation_xyz
1 x,y,z
2 -y,x-y,z
3 -x+y,-x,z
4 -y,-x,z+1/2
5 -x+y,y,z+1/2
6 x,x-y,z+1/2
7 x+2/3,y+1/3,z+1/3
8 -y+2/3,x-y+1/3,z+1/3
9 -x+y+2/3,-x+1/3,z+1/3
10 -y+2/3,-x+1/3,z+5/6
11 -x+y+2/3,y+1/3,z+5/6
12 x+2/3,x-y+1/3,z+5/6
13 x+1/3,y+2/3,z+2/3
14 -y+1/3,x-y+2/3,z+2/3
15 -x+y+1/3,-x+2/3,z+2/3
16 -y+1/3,-x+2/3,z+1/6
17 -x+y+1/3,y+2/3,z+1/6
18 x+1/3,x-y+2/3,z+1/6
loop_
_atom_site_label
_atom_site_type_symbol
_atom_site_fract_x
_atom_site_fract_y
_atom_site_fract_z
_atom_site_adp_type
_atom_site_U_iso_or_equiv
_atom_site_site_symmetry_multiplicity
_atom_site_occupancy
_atom_site_calc_flag
_atom_site_refinement_flags
_atom_site_disorder_assembly
_atom_site_disorder_group
B1 B 0.0218(3) -0.1015(3) 0.2416(3) Uani 0.0136(8) 18 1 d . . .
B2 B 0.0429(3) -0.0872(3) 0.5036(3) Uani 0.0141(8) 18 1 d . . .
Ba1 Ba 0.36085(3) 0.35767(3) 0.379918(17) Uani 0.01094(15) 18 1 d . . .
O1 O -0.0414(2) 0.0830(2) 0.5008(3) Uani 0.0201(7) 18 1 d . . .
O2 O 0.1635(2) 0.24933(19) 0.5096(3) Uani 0.0185(6) 18 1 d . . .
O3 O 0.11888(19) 0.02169(19) 0.2441(3) Uani 0.0196(6) 18 1 d . . .
O4 O 0.0457(2) 0.23790(18) 0.7351(2) Uani 0.0163(6) 18 1 d . . .
loop_
_atom_site_aniso_label
_atom_site_aniso_type_symbol
_atom_site_aniso_U_11
_atom_site_aniso_U_22
_atom_site_aniso_U_33
_atom_site_aniso_U_12
_atom_site_aniso_U_13
_atom_site_aniso_U_23
B1 B 0.0135(10) 0.0121(9) 0.0166(11) 0.0075(8) 0.0000(7) 0.0004(8)
B2 B 0.0102(9) 0.0123(9) 0.0193(11) 0.0051(8) -0.0001(8) -0.0013(8)
Ba1 Ba 0.0099(2) 0.0102(2) 0.01285(17) 0.00520(11) -0.00068(16) -0.00010(16)
O1 O 0.0118(7) 0.0116(7) 0.0373(12) 0.0061(6) 0.0016(7) 0.0026(7)
O2 O 0.0141(7) 0.0108(7) 0.0286(11) 0.0047(6) 0.0049(7) 0.0018(6)
O3 O 0.0110(7) 0.0103(7) 0.0374(12) 0.0053(6) -0.0011(7) -0.0008(7)
O4 O 0.0187(8) 0.0109(7) 0.0201(8) 0.0079(6) 0.0023(6) 0.0006(6)
loop_
_atom_type_symbol
_atom_type_scat_dispersion_real
_atom_type_scat_dispersion_imag
_atom_type_scat_source
B 0.0013 0.0007 'International Tables Vol C tables 4.2.6.8 and 6.1.1.1'
Ba -0.3244 2.2819 'International Tables Vol C tables 4.2.6.8 and 6.1.1.1'
O 0.0106 0.0060 'International Tables Vol C tables 4.2.6.8 and 6.1.1.1'
loop_
_geom_angle_atom_site_label_1
_geom_angle_atom_site_label_2
_geom_angle_atom_site_label_3
_geom_angle_site_symmetry_1
_geom_angle_site_symmetry_2
_geom_angle_site_symmetry_3
_geom_angle
O1 Ba1 O2 10_554 . . 143.57(9)
O1 Ba1 O2 10_554 . 15_554 80.96(10)
O1 Ba1 O2 10_554 . 10_554 50.26(6)
O1 Ba1 O3 10_554 . 16_555 128.03(6)
O1 Ba1 O4 10_554 . 15_554 79.32(9)
O1 Ba1 O4 10_554 . 10_554 75.68(9)
O1 Ba1 O4 10_554 . 5_554 112.92(10)
O2 Ba1 O2 . . 15_554 134.90(10)
O2 Ba1 O2 . . 10_554 103.36(8)
O2 Ba1 O3 . . 16_555 78.73(8)
O2 Ba1 O4 . . 15_554 117.66(9)
O2 Ba1 O4 . . 10_554 70.64(8)
O2 Ba1 O4 . . 5_554 82.49(9)
O2 Ba1 O2 15_554 . 10_554 105.87(9)
O2 Ba1 O3 15_554 . 16_555 72.26(10)
O2 Ba1 O4 15_554 . 15_554 65.06(8)
O2 Ba1 O4 15_554 . 10_554 152.85(7)
O2 Ba1 O4 15_554 . 5_554 68.24(7)
O2 Ba1 O3 10_554 . 16_555 177.89(8)
O2 Ba1 O4 10_554 . 15_554 129.31(8)
O2 Ba1 O4 10_554 . 10_554 69.01(9)
O2 Ba1 O4 10_554 . 5_554 82.65(9)
O3 Ba1 O4 16_555 . 15_554 49.17(8)
O3 Ba1 O4 16_555 . 10_554 112.18(9)
O3 Ba1 O4 16_555 . 5_554 97.42(9)
O4 Ba1 O4 15_554 . 10_554 96.80(8)
O4 Ba1 O4 15_554 . 5_554 128.81(9)
O4 Ba1 O4 10_554 . 5_554 134.16(7)
loop_
_geom_bond_atom_site_label_1
_geom_bond_atom_site_label_2
_geom_bond_site_symmetry_1
_geom_bond_site_symmetry_2
_geom_bond_distance
Ba1 O1 . 10_554 2.753(3)
Ba1 O2 . . 2.705(3)
Ba1 O2 . 15_554 3.038(3)
Ba1 O2 . 10_554 2.815(3)
Ba1 O3 . 16_555 2.770(3)
Ba1 O4 . 15_554 2.900(2)
Ba1 O4 . 10_554 2.826(3)
Ba1 O4 . 5_554 2.634(3)
loop_
_refln_index_h
_refln_index_k
_refln_index_l
_refln_F_squared_calc
_refln_F_squared_meas
_refln_F_squared_sigma
_refln_observed_status
-1 2 0 67613.20 73621.20 3120.06 o
0 3 0 530838.00 765500.00 36126.20 o
-3 3 0 546043.00 781485.00 42630.10 o
-2 4 0 179864.00 184286.00 7116.19 o
-1 5 0 146397.00 144583.00 5012.98 o
-4 5 0 152620.00 137904.00 4748.14 o
-3 6 0 227660.00 223512.00 7989.27 o
0 6 0 153054.00 147628.00 7638.86 o
-6 6 0 150910.00 132828.00 6584.15 o
-2 7 0 68423.30 65225.00 2363.22 o
-5 7 0 70921.10 66140.80 2093.96 o
-4 8 0 74108.40 70300.90 2543.18 o
-1 8 0 22954.50 22545.80 897.78 o
-7 8 0 21607.80 22060.10 775.07 o
-3 9 0 132366.00 119860.00 4623.00 o
-6 9 0 131746.00 117965.00 4002.70 o
0 9 0 61014.80 60340.40 3996.19 o
-9 9 0 59010.70 56257.50 3998.38 o
-5 10 0 347.46 275.32 43.80 o
-2 10 0 151.28 287.74 56.30 o
-8 10 0 43.85 43.78 40.65 <
-4 11 0 17534.10 17478.10 586.88 o
-7 11 0 16980.00 16788.20 589.62 o
-1 11 0 7622.81 7027.85 255.85 o
-10 11 0 7406.15 7575.28 306.30 o
-6 12 0 9067.57 9343.47 345.00 o
-3 12 0 4770.79 4892.34 198.21 o
-9 12 0 5422.81 6118.18 223.57 o
0 12 0 1134.93 1167.88 103.32 o
-12 12 0 1231.12 1452.97 144.04 o
-5 13 0 3046.12 3053.89 144.38 o
-8 13 0 3069.06 3201.49 147.52 o
-2 13 0 1126.73 1036.35 75.14 o
-11 13 0 1306.63 1434.28 103.34 o
-7 14 0 18160.60 17699.50 494.85 o
-4 14 0 11521.60 11304.90 342.09 o
-10 14 0 11677.40 12276.30 373.83 o
-1 14 0 1725.57 1619.57 97.11 o
-13 14 0 2024.22 2290.67 128.48 o
-6 15 0 1065.67 1048.72 87.65 o
-9 15 0 988.29 998.55 87.65 o
-3 15 0 3691.36 3616.15 166.37 o
-12 15 0 3768.80 3767.13 194.63 o
0 15 0 8878.05 8804.87 441.66 o
-15 15 0 8561.01 9625.22 476.21 o
-8 16 0 13178.20 13583.00 421.60 o
-5 16 0 18297.60 17766.70 516.09 o
-11 16 0 18828.20 18824.90 573.73 o
-2 16 0 6473.36 6199.89 273.80 o
-14 16 0 6412.59 6517.36 298.96 o
-7 17 0 11601.90 11815.50 465.03 o
-10 17 0 11323.10 11533.90 499.69 o
-4 17 0 1693.50 1506.57 128.42 o
-13 17 0 1434.98 1556.29 150.30 o
-1 17 0 674.87 607.02 103.26 o
-16 17 0 574.24 547.52 106.37 o
-9 18 0 6093.92 5596.34 330.31 o
-6 18 0 2585.58 2485.96 194.36 o
-12 18 0 2815.41 2897.28 241.44 o
-3 18 0 4010.31 4043.30 232.30 o
-15 18 0 4481.78 4440.88 276.38 o
0 18 0 10823.00 10684.90 739.51 o
-18 18 0 10740.80 10728.30 764.73 o
-8 19 0 36417.60 36173.50 1356.67 o
-11 19 0 35834.80 35930.50 1598.64 o
-5 19 0 25078.80 25362.10 884.17 o
-14 19 0 24605.60 25831.10 973.43 o
-2 19 0 5086.89 5395.87 326.83 o
-17 19 0 5250.50 5337.02 333.17 o
-10 20 0 11004.50 10152.00 534.15 o
-7 20 0 4267.77 4308.12 314.00 o
-13 20 0 4086.43 4288.52 389.29 o
-4 20 0 1249.88 1186.56 153.41 o
-16 20 0 1143.17 1098.78 162.78 o
-1 20 0 952.77 826.29 190.92 o
-19 20 0 1130.73 1161.40 181.57 o
-9 21 0 10375.70 9751.79 514.91 o
-12 21 0 10210.10 9895.50 660.12 o
-6 21 0 5382.54 5290.78 336.37 o
-15 21 0 5286.51 4875.35 436.93 o
-3 21 0 6150.83 7006.78 453.07 o
-18 21 0 5713.13 5308.61 424.56 o
0 21 0 3579.93 4531.75 709.26 o
-21 21 0 3649.14 3725.46 505.31 o
-11 22 0 23711.70 24028.10 1277.10 o
-8 22 0 22869.90 22606.10 959.51 o
-14 22 0 23230.80 23705.00 1139.02 o
-5 22 0 12131.10 12426.70 652.04 o
-17 22 0 12075.60 12020.90 724.80 o
-2 22 0 2726.68 3176.37 398.22 o
-20 22 0 2783.46 2075.89 275.95 o
-10 23 0 7211.99 7493.17 554.35 o
-13 23 0 7387.17 6294.23 532.40 o
-7 23 0 3895.01 3682.38 339.04 o
-16 23 0 4005.52 3601.16 373.62 o
-4 23 0 1087.21 1039.28 231.65 o
-19 23 0 1216.07 1004.98 187.85 o
-12 24 0 5752.97 5412.96 563.00 o
-9 24 0 6756.48 6545.66 428.19 o
-15 24 0 7102.87 6396.78 532.28 o
-6 24 0 5592.73 4975.04 647.83 o
-18 24 0 5515.00 4801.70 556.58 o
-11 25 0 18815.40 20090.10 2100.16 o
-14 25 0 18977.70 16112.30 1478.95 o
-8 25 0 11442.10 11546.40 1433.01 o
-17 25 0 11467.60 10224.30 892.10 o
-2 3 1 18366.50 18543.60 727.54 o
-1 3 -1 17825.00 18238.00 670.51 o
-1 4 1 55648.50 57074.10 2439.76 o
-3 4 -1 58362.20 58032.70 1742.77 o
-3 5 1 15717.40 16014.60 556.89 o
-2 5 -1 13704.30 13791.60 510.68 o
-5 6 1 76999.20 71142.00 2668.67 o
-1 6 -1 79509.70 77991.20 2702.55 o
-2 6 1 170629.00 170605.00 6390.90 o
-4 6 -1 167320.00 159858.00 5169.49 o
-4 7 1 39397.80 36538.30 1311.67 o
-3 7 -1 37065.30 34727.90 1212.90 o
-1 7 1 98511.70 95652.00 4066.89 o
-6 7 -1 101754.00 96448.90 2901.41 o
-6 8 1 12542.80 12648.90 484.03 o
-2 8 -1 12622.90 12211.70 445.64 o
-3 8 1 6534.66 6560.23 294.73 o
-5 8 -1 6906.25 6844.31 256.90 o
-8 9 1 18390.00 18248.70 779.83 o
-1 9 -1 19961.50 19890.90 859.34 o
-5 9 1 91700.80 84480.20 3697.36 o
-4 9 -1 93417.20 88258.10 3135.85 o
-2 9 1 166818.00 161243.00 6641.79 o
-7 9 -1 162430.00 150445.00 6024.88 o
-7 10 1 25704.90 25224.00 855.99 o
-3 10 -1 22880.30 22655.60 894.43 o
-4 10 1 108216.00 101497.00 3708.65 o
-6 10 -1 111909.00 104799.00 4056.29 o
-1 10 1 130626.00 129229.00 6175.39 o
-9 10 -1 131936.00 128704.00 5532.42 o
-9 11 1 19903.10 19564.60 645.73 o
-2 11 -1 19247.30 18029.20 632.32 o
-6 11 1 5473.39 5153.69 204.89 o
-5 11 -1 4843.17 4503.36 188.95 o
-3 11 1 2498.44 2300.16 147.49 o
-8 11 -1 2775.04 2709.17 153.82 o
-11 12 1 6188.42 6417.19 226.82 o
-1 12 -1 6527.16 6133.01 182.79 o
-8 12 1 28210.50 28836.70 921.01 o
-4 12 -1 29044.70 28516.60 954.45 o
-5 12 1 86333.70 84206.20 2526.99 o
-7 12 -1 83725.70 81798.80 2672.07 o
-2 12 1 112234.00 103322.00 2606.92 o
-10 12 -1 111258.00 107455.00 2725.14 o
-10 13 1 11565.50 12504.60 370.86 o
-3 13 -1 12008.00 11407.40 329.82 o
-7 13 1 61483.10 60273.70 1473.13 o
-6 13 -1 60622.80 59472.30 1619.53 o
-4 13 1 98769.40 93445.00 2475.46 o
-9 13 -1 100832.00 98687.70 2414.28 o
-1 13 1 101026.00 98973.60 2370.92 o
-12 13 -1 100172.00 97268.60 2382.82 o
-12 14 1 1461.24 1387.41 112.75 o
-2 14 -1 1571.53 1494.07 97.10 o
-9 14 1 1781.83 1632.43 109.66 o
-5 14 -1 1845.56 1739.09 94.00 o
-6 14 1 2477.48 2389.50 128.57 o
-8 14 -1 2541.95 2562.16 128.58 o
-3 14 1 658.67 572.64 62.58 o
-11 14 -1 618.12 622.68 71.97 o
-14 15 1 2883.20 3274.05 200.71 o
-1 15 -1 2729.77 2630.75 150.51 o
-11 15 1 4859.01 5333.77 251.45 o
-4 15 -1 4783.71 4604.22 198.00 o
-8 15 1 33846.60 33629.90 888.24 o
-7 15 -1 33311.90 33028.00 910.42 o
-5 15 1 58081.60 56359.20 1570.61 o
-10 15 -1 59874.90 58914.50 1540.14 o
-2 15 1 75849.70 72332.90 1768.32 o
-13 15 -1 77232.50 76810.30 1902.13 o
-13 16 1 9655.56 10296.20 426.25 o
-3 16 -1 9824.23 9628.46 328.42 o
-10 16 1 11321.60 11230.70 376.46 o
-6 16 -1 11511.40 11628.40 370.21 o
-7 16 1 43239.20 42434.20 1215.20 o
-9 16 -1 43424.30 43758.60 1264.43 o
-4 16 1 55310.00 54312.70 1442.75 o
-12 16 -1 53745.30 53906.00 1651.60 o
-1 16 1 47129.40 46231.20 1364.27 o
-15 16 -1 46150.50 46911.60 1438.20 o
-15 17 1 6832.56 7507.80 339.98 o
-2 17 -1 6867.72 7048.44 321.10 o
-12 17 1 5730.24 6427.99 327.06 o
-5 17 -1 5068.69 4663.83 276.56 o
-9 17 1 2514.23 2442.04 184.96 o
-8 17 -1 2086.46 2180.91 156.67 o
-6 17 1 3174.92 3058.45 210.17 o
-11 17 -1 3556.32 3599.37 257.32 o
-3 17 1 1373.42 1280.64 125.25 o
-14 17 -1 1259.09 1386.94 156.54 o
-17 18 1 8395.62 8654.17 435.07 o
-1 18 -1 8499.96 8740.18 397.28 o
-14 18 1 2111.40 2105.63 184.87 o
-4 18 -1 2190.66 2033.72 166.08 o
-11 18 1 4962.19 4817.05 336.22 o
-7 18 -1 4811.21 5036.26 320.46 o
-8 18 1 16254.60 15955.40 610.00 o
-10 18 -1 16643.00 15996.40 692.87 o
-5 18 1 29125.90 29394.60 910.14 o
-13 18 -1 29621.40 30495.90 1161.54 o
-2 18 1 32423.10 33215.80 1096.76 o
-16 18 -1 32264.40 31943.30 1109.50 o
-16 19 1 2495.29 2742.76 219.42 o
-3 19 -1 2146.97 1905.17 184.88 o
-13 19 1 2951.04 2750.23 266.56 o
-6 19 -1 3386.53 3673.77 244.71 o
-10 19 1 12253.90 11968.00 531.63 o
-9 19 -1 12202.80 12078.20 522.11 o
-7 19 1 24278.80 23963.20 905.90 o
-12 19 -1 23980.40 25156.50 1062.45 o
-4 19 1 16161.10 16272.90 568.58 o
-15 19 -1 16263.90 16442.80 673.47 o
-1 19 1 12615.60 12961.70 554.05 o
-18 19 -1 13187.20 13003.80 582.87 o
-18 20 1 8059.51 8018.95 494.88 o
-2 20 -1 7886.52 9316.02 516.86 o
-15 20 1 8152.69 8381.35 482.27 o
-5 20 -1 9042.12 9331.92 416.43 o
-12 20 1 6132.37 6373.28 468.72 o
-8 20 -1 6116.40 6637.42 408.94 o
-9 20 1 1339.45 1280.58 162.81 o
-11 20 -1 1325.21 1227.34 222.30 o
-6 20 1 134.75 190.77 100.07 <
-14 20 -1 225.21 187.65 118.85 <
-3 20 1 23.26 9.38 87.55 <
-17 20 -1 33.28 37.52 109.44 <
-20 21 1 12220.40 10760.30 633.15 o
-1 21 -1 12369.70 13839.50 851.71 o
-17 21 1 8546.70 8303.72 491.98 o
-4 21 -1 8185.78 7663.92 435.06 o
-14 21 1 524.32 425.48 172.07 <
-7 21 -1 348.04 181.42 112.61 <
-11 21 1 1904.07 1895.34 250.62 o
-10 21 -1 1818.19 1265.54 206.75 o
-8 21 1 4400.84 4679.41 339.18 o
-13 21 -1 3932.01 3792.02 395.52 o
-5 21 1 11255.80 11174.60 556.52 o
-16 21 -1 10951.70 11006.90 635.38 o
-2 21 1 9317.21 9466.04 549.21 o
-19 21 -1 9257.04 9313.98 580.74 o
-19 22 1 113.69 215.78 146.98 <
-3 22 -1 159.41 140.73 168.88 <
-16 22 1 1179.36 1145.81 219.14 o
-6 22 -1 1203.67 1055.04 159.66 o
-13 22 1 2117.49 2262.41 297.68 o
-9 22 -1 2070.72 1923.90 213.07 o
-10 22 1 6762.52 6428.33 447.02 o
-12 22 -1 6692.52 5917.93 497.36 o
-7 22 1 5205.74 5921.92 421.20 o
-15 22 -1 5377.49 5646.29 484.15 o
-4 22 1 3995.63 3632.51 295.12 o
-18 22 -1 4284.90 3473.40 332.89 o
-1 22 1 2972.88 3406.14 429.69 o
-21 22 -1 2882.75 2653.16 370.06 o
-21 23 1 10820.00 6812.85 758.74 o
-2 23 -1 10705.70 12037.30 1074.76 o
-18 23 1 10360.70 8857.32 635.15 o
-5 23 -1 10040.40 10547.60 619.15 o
-15 23 1 3861.11 4055.79 414.37 o
-8 23 -1 4087.05 3698.77 304.57 o
-12 23 1 655.71 560.09 225.29 <
-11 23 -1 649.90 641.43 231.54 <
-9 23 1 589.15 638.27 159.57 o
-14 23 -1 650.08 344.18 193.99 <
-6 23 1 476.54 503.67 190.83 <
-17 23 -1 521.32 469.28 190.84 <
-3 23 1 423.82 334.72 184.57 <
-20 23 -1 422.49 168.93 193.95 <
-20 24 1 7583.69 4950.34 614.46 o
-4 24 -1 7758.95 5527.97 1613.64 o
-17 24 1 3835.17 3512.72 370.42 o
-7 24 -1 3858.54 3880.10 361.01 o
-14 24 1 806.76 660.32 209.67 o
-10 24 -1 811.21 485.07 209.68 <
-11 24 1 491.80 672.62 228.38 <
-13 24 -1 561.66 591.32 219.01 <
-8 24 1 3357.17 2949.37 301.21 o
-16 24 -1 3375.97 3573.83 401.62 o
-5 24 1 2346.80 1557.80 388.67 o
-19 24 -1 2307.41 1777.13 344.77 o
-16 25 1 534.23 722.71 262.80 <
-9 25 -1 520.30 588.17 303.47 <
-13 25 1 630.94 732.16 325.41 <
-12 25 -1 626.41 422.40 347.31 <
-10 25 1 266.26 243.96 294.01 <
-15 25 -1 351.76 816.41 353.47 <
-7 25 1 157.73 118.84 397.18 <
-18 25 -1 115.53 134.47 469.09 <
0 1 2 12855.00 15822.50 871.56 o
-1 1 -2 12885.00 15202.20 1068.15 o
-2 2 2 24115.50 26290.10 1805.10 o
0 2 -2 24805.00 26836.90 1481.57 o
-1 3 2 1944.15 2449.54 132.58 o
-2 3 -2 1856.91 2259.19 88.35 o
-3 4 2 33261.10 33054.90 1312.18 o
-1 4 -2 32898.40 33573.90 1134.39 o
0 4 2 59371.70 64645.20 4065.38 o
-4 4 -2 56873.00 57315.50 2849.26 o
-5 5 2 175608.00 159322.00 9026.33 o
0 5 -2 180356.00 170662.00 7877.96 o
-2 5 2 61908.60 59443.80 2529.12 o
-3 5 -2 59639.00 58623.10 1871.07 o
-4 6 2 17631.30 17430.90 717.28 o
-2 6 -2 18593.80 18058.60 617.27 o
-1 6 2 3723.67 3971.05 236.75 o
-5 6 -2 4199.96 4443.59 151.70 o
-6 7 2 42453.00 40443.80 1471.74 o
-1 7 -2 41542.70 39985.40 1462.26 o
-3 7 2 41128.90 39209.60 1601.02 o
-4 7 -2 42492.00 41607.20 1392.52 o
0 7 2 55054.00 54755.90 3725.70 o
-7 7 -2 54933.80 54862.00 2640.77 o
-8 8 2 207782.00 190637.00 13271.40 o
0 8 -2 211113.00 202493.00 10864.80 o
-5 8 2 120750.00 107515.00 3927.84 o
-3 8 -2 119580.00 110115.00 3663.89 o
-2 8 2 53177.70 55608.20 2969.64 o
-6 8 -2 53157.50 52270.70 2109.75 o
-7 9 2 47012.10 44271.40 1760.18 o
-2 9 -2 46604.00 44246.20 1752.29 o
-4 9 2 8894.36 8997.14 362.17 o
-5 9 -2 9324.56 9048.50 365.63 o
-1 9 2 5258.03 4910.43 264.92 o
-8 9 -2 5659.55 5267.08 315.58 o
-9 10 2 55618.30 54841.70 2125.41 o
-1 10 -2 52887.00 50799.90 2279.25 o
-6 10 2 38979.80 37074.20 1398.46 o
-4 10 -2 41264.00 38974.80 1523.26 o
-3 10 2 36085.30 36012.40 1595.63 o
-7 10 -2 36394.80 36471.70 1464.16 o
0 10 2 12451.40 13349.60 664.78 o
-10 10 -2 11009.00 11234.60 590.46 o
-11 11 2 175214.00 166508.00 5773.78 o
0 11 -2 175832.00 152540.00 5366.31 o
-8 11 2 156762.00 146693.00 5188.43 o
-3 11 -2 156794.00 140950.00 4563.85 o
-5 11 2 79796.90 78190.20 2584.71 o
-6 11 -2 75556.90 73536.50 2428.32 o
-2 11 2 24551.60 24442.10 908.02 o
-9 11 -2 25754.20 26377.30 912.69 o
-10 12 2 47773.10 47807.70 1258.36 o
-2 12 -2 46362.10 43603.50 1190.18 o
-7 12 2 15728.50 16007.60 526.67 o
-5 12 -2 16780.70 17234.40 549.76 o
-4 12 2 8315.26 8139.17 262.35 o
-8 12 -2 9067.56 8941.21 291.08 o
-1 12 2 697.53 635.29 59.46 o
-11 12 -2 754.47 682.28 65.72 o
-12 13 2 31675.50 32506.40 880.48 o
-1 13 -2 32395.10 30950.50 783.97 o
-9 13 2 34911.90 36024.80 964.22 o
-4 13 -2 35738.30 35237.20 860.79 o
-6 13 2 20230.10 20152.60 519.11 o
-7 13 -2 19933.60 20360.00 544.56 o
-3 13 2 2681.99 2434.13 112.92 o
-10 13 -2 2710.35 2954.93 138.02 o
0 13 2 4655.21 4481.49 257.70 o
-13 13 -2 4885.08 5108.15 292.34 o
-14 14 2 83044.80 82406.50 3513.15 o
0 14 -2 80856.80 77299.10 2930.74 o
-11 14 2 116630.00 112634.00 3133.52 o
-3 14 -2 118152.00 110765.00 2873.57 o
-8 14 2 83202.00 81429.50 1977.49 o
-6 14 -2 83850.30 80932.20 2037.00 o
-5 14 2 32393.90 32481.90 823.31 o
-9 14 -2 31418.30 31812.90 922.82 o
-2 14 2 1561.27 1465.85 90.83 o
-12 14 -2 1771.83 1719.95 112.78 o
-13 15 2 19678.20 21347.80 663.53 o
-2 15 -2 19821.00 19793.90 587.05 o
-10 15 2 22586.50 22672.70 685.30 o
-5 15 -2 23511.00 22906.00 625.06 o
-7 15 2 21688.50 21890.00 640.06 o
-8 15 -2 20712.20 20809.30 629.81 o
-4 15 2 9162.98 8931.81 277.84 o
-11 15 -2 9319.82 9716.40 331.56 o
-1 15 2 581.75 525.63 75.09 o
-14 15 -2 561.69 544.39 81.35 o
-15 16 2 16546.50 17920.90 746.84 o
-1 16 -2 16871.40 17570.40 597.66 o
-12 16 2 15370.50 16615.30 597.03 o
-4 16 -2 15485.10 15340.40 520.88 o
-9 16 2 7391.28 7451.85 274.13 o
-7 16 -2 7004.35 7048.88 274.02 o
-6 16 2 2611.31 2746.56 166.17 o
-10 16 -2 2621.55 2439.32 188.12 o
-3 16 2 2710.65 2718.43 169.31 o
-13 16 -2 2363.89 2454.20 184.93 o
0 16 2 6869.41 7265.68 450.17 o
-16 16 -2 6944.27 7678.63 487.98 o
-17 17 2 41768.90 44338.60 2063.02 o
0 17 -2 42675.90 43900.30 2022.41 o
-14 17 2 57848.70 59665.20 1942.37 o
-3 17 -2 56051.60 54745.90 1714.93 o
-11 17 2 48035.00 46329.80 1611.81 o
-6 17 -2 49021.30 47500.70 1514.93 o
-8 17 2 21934.10 22003.00 773.38 o
-9 17 -2 22812.80 22428.10 815.63 o
-5 17 2 4895.82 4820.10 263.94 o
-12 17 -2 4962.18 5276.06 298.53 o
-2 17 2 623.47 606.99 100.12 o
-15 17 -2 716.74 951.25 128.29 o
-16 18 2 7949.92 8732.23 469.54 o
-2 18 -2 7855.26 8252.47 425.39 o
-13 18 2 13105.90 13276.70 557.42 o
-5 18 -2 13258.60 13025.20 484.64 o
-10 18 2 11286.90 11635.30 496.40 o
-8 18 -2 10655.30 11059.40 458.17 o
-7 18 2 13992.80 14636.00 583.29 o
-11 18 -2 13551.50 13733.10 678.10 o
-4 18 2 4855.89 4756.70 263.91 o
-14 18 -2 5057.12 5298.13 345.67 o
-1 18 2 4797.31 5023.51 276.47 o
-17 18 -2 4515.99 4843.11 295.23 o
-18 19 2 6547.32 6011.24 383.96 o
-1 19 -2 6377.92 6501.13 443.69 o
-15 19 2 9514.91 9313.70 457.64 o
-4 19 -2 9426.30 9536.97 400.79 o
-12 19 2 4733.34 4834.65 354.98 o
-7 19 -2 4561.54 4321.87 301.53 o
-9 19 2 857.30 829.32 128.31 o
-10 19 -2 810.80 816.77 150.21 o
-6 19 2 1868.67 1901.51 184.82 o
-13 19 -2 1873.42 1519.33 216.15 o
-3 19 2 9281.58 9993.38 451.23 o
-16 19 -2 9728.15 10300.80 514.57 o
0 19 2 17055.30 16931.00 938.14 o
-19 19 -2 17225.30 18559.10 1110.05 o
-20 20 2 9502.35 9363.60 792.40 o
0 20 -2 9530.65 11318.10 962.91 o
-17 20 2 16843.00 16223.60 801.17 o
-3 20 -2 17719.50 18528.50 760.49 o
-14 20 2 21964.00 23056.90 935.95 o
-6 20 -2 21470.30 22011.50 782.25 o
-11 20 2 11120.20 11152.10 562.66 o
-9 20 -2 10918.20 10856.00 502.51 o
-8 20 2 3511.96 3890.75 282.39 o
-12 20 -2 3396.04 3567.16 341.97 o
-5 20 2 171.41 168.88 93.82 <
-15 20 -2 149.35 78.18 137.60 <
-2 20 2 2124.85 1786.12 184.88 o
-18 20 -2 2056.16 1701.40 197.40 o
-19 21 2 1241.58 1205.37 178.46 o
-2 21 -2 1257.91 1102.07 237.95 o
-16 21 2 2629.18 2595.88 241.40 o
-5 21 -2 2452.58 2272.56 241.36 o
-13 21 2 2558.60 2661.48 285.27 o
-8 21 -2 2855.45 2405.13 238.32 o
-10 21 2 3374.40 3353.83 282.36 o
-11 21 -2 3275.72 2901.77 313.70 o
-7 21 2 4871.12 4904.73 355.05 o
-14 21 -2 5570.90 5540.11 440.19 o
-4 21 2 6256.92 6444.13 361.85 o
-17 21 -2 5869.54 6422.77 421.48 o
-1 21 2 4588.72 4885.05 333.00 o
-20 21 -2 4632.29 4454.86 414.70 o
-21 22 2 1167.68 848.40 231.67 o
-1 22 -2 1228.72 1280.51 281.77 o
-18 22 2 2771.67 2342.37 266.54 o
-4 22 -2 2643.24 2251.14 253.96 o
-15 22 2 3323.36 2864.41 338.83 o
-7 22 -2 3628.41 3546.30 323.25 o
-12 22 2 1142.69 942.27 197.22 o
-10 22 -2 1101.77 845.19 209.73 o
-9 22 2 1877.05 1347.10 197.37 o
-13 22 -2 1868.25 1788.80 294.48 o
-6 22 2 7454.40 7630.32 469.41 o
-16 22 -2 7398.17 7132.15 519.79 o
-3 22 2 11935.10 12814.70 636.14 o
-19 22 -2 11811.00 11316.30 658.22 o
0 22 2 14882.00 20525.20 2056.97 o
-22 22 -2 14397.20 12973.50 1367.47 o
-20 23 2 2878.34 2283.08 326.15 o
-3 23 -2 2886.53 2819.38 398.29 o
-17 23 2 3251.18 2663.54 307.45 o
-6 23 -2 3264.25 3096.52 348.24 o
-14 23 2 2923.93 3233.39 357.52 o
-9 23 -2 2870.84 2571.52 288.51 o
-11 23 2 1285.80 1277.43 256.74 o
-12 23 -2 1301.00 1048.89 250.48 o
-8 23 2 635.49 556.95 172.09 o
-15 23 -2 715.50 766.65 222.17 o
-5 23 2 1916.28 1381.66 228.71 o
-18 23 -2 1777.81 1102.67 222.41 o
-2 23 2 2638.66 3125.92 457.76 o
-21 23 -2 2753.32 1890.82 360.60 o
-19 24 2 270.54 156.39 222.07 <
-5 24 -2 257.57 400.35 265.86 <
-16 24 2 126.69 50.04 162.62 <
-8 24 -2 177.59 218.92 143.86 <
-13 24 2 721.87 819.85 240.95 o
-11 24 -2 718.77 744.75 240.95 o
-10 24 2 1970.16 2092.97 300.79 o
-14 24 -2 1946.92 2014.59 350.91 o
-7 24 2 1872.30 1782.61 272.56 o
-17 24 -2 1846.79 1249.99 266.29 o
-4 24 2 3852.72 3741.91 1776.78 <
-20 24 -2 3647.13 508.44 797.19 <
-15 25 2 575.86 397.35 259.68 <
-10 25 -2 591.47 544.41 222.14 <
-12 25 2 79.76 -150.10 372.13 <
-13 25 -2 83.54 -9.38 300.21 <
-9 25 2 3020.50 2675.48 545.76 o
-16 25 -2 2857.41 2377.11 429.64 o
-1 2 3 419724.00 536817.00 21461.10 o
-1 2 -3 419806.00 569956.00 17566.90 o
-2 4 3 407647.00 431032.00 21518.10 o
-2 4 -3 407964.00 466275.00 14352.20 o
-4 5 3 299781.00 282936.00 11396.80 o
-1 5 -3 309785.00 307513.00 9442.67 o
-1 5 3 333628.00 335530.00 15987.60 o
-4 5 -3 324754.00 334009.00 11157.00 o
-3 6 3 8849.05 10252.90 470.11 o
-3 6 -3 8752.16 10154.50 348.50 o
-5 7 3 132052.00 120021.00 4654.15 o
-2 7 -3 127987.00 118585.00 4281.76 o
-2 7 3 117878.00 105290.00 4687.25 o
-5 7 -3 119920.00 112954.00 3496.39 o
-7 8 3 82328.10 74952.00 3024.37 o
-1 8 -3 83711.60 79499.60 3023.76 o
-4 8 3 64707.20 61412.20 2640.51 o
-4 8 -3 63101.10 60951.30 2225.30 o
-1 8 3 67519.00 67863.30 3659.09 o
-7 8 -3 67328.70 65078.80 2602.31 o
-6 9 3 1652.60 1715.26 116.02 o
-3 9 -3 2102.35 2008.43 131.80 o
-3 9 3 5650.77 5196.80 322.04 o
-6 9 -3 5316.12 5591.43 268.21 o
-8 10 3 37784.60 36079.30 1310.84 o
-2 10 -3 34518.40 33186.40 1712.40 o
-5 10 3 42904.70 41744.70 1812.23 o
-5 10 -3 42948.90 41587.20 1672.17 o
-2 10 3 38784.60 38712.20 1643.32 o
-8 10 -3 43320.40 43316.40 1657.06 o
-10 11 3 5962.64 6424.81 255.23 o
-1 11 -3 6137.05 5899.91 195.40 o
-7 11 3 10835.70 10552.40 403.18 o
-4 11 -3 12723.20 12550.30 477.44 o
-4 11 3 19186.10 18760.70 712.92 o
-7 11 -3 17873.50 18008.90 599.44 o
-1 11 3 10270.40 9996.08 297.82 o
-10 11 -3 9510.74 9479.97 303.87 o
-9 12 3 3664.05 3866.96 204.19 o
-3 12 -3 4500.12 4386.72 150.94 o
-6 12 3 11592.70 11779.80 371.39 o
-6 12 -3 11471.90 11435.20 355.46 o
-3 12 3 4759.52 4532.85 176.15 o
-9 12 -3 4142.69 4321.90 185.45 o
-11 13 3 3191.84 3059.78 178.88 o
-2 13 -3 3343.56 3210.97 141.24 o
-8 13 3 14909.90 15093.30 439.24 o
-5 13 -3 14650.70 14535.00 375.47 o
-5 13 3 17136.80 16833.80 430.82 o
-8 13 -3 17315.20 18216.20 472.40 o
-2 13 3 3276.81 3094.60 134.96 o
-11 13 -3 3048.83 3191.07 156.89 o
-13 14 3 1655.33 1657.00 134.69 o
-1 14 -3 1681.84 1588.13 115.90 o
-10 14 3 1752.90 1691.81 125.32 o
-4 14 -3 1813.86 1704.45 103.39 o
-7 14 3 3331.30 3072.82 156.94 o
-7 14 -3 3404.44 3311.64 150.67 o
-4 14 3 2019.12 1836.47 109.69 o
-10 14 -3 1850.64 1973.99 122.20 o
-1 14 3 3319.82 3238.20 147.48 o
-13 14 -3 3179.65 3058.89 160.00 o
-12 15 3 8075.94 8204.42 324.77 o
-3 15 -3 7807.38 7707.25 277.40 o
-9 15 3 19013.50 19168.60 574.29 o
-6 15 -3 18487.20 18144.00 500.63 o
-6 15 3 22400.20 22767.90 681.98 o
-9 15 -3 22713.00 23921.90 826.33 o
-3 15 3 3159.08 2964.62 144.31 o
-12 15 -3 3279.06 3313.25 175.70 o
-14 16 3 3993.86 4680.76 326.49 o
-2 16 -3 4025.01 4458.00 257.43 o
-11 16 3 2870.50 3148.62 250.89 o
-5 16 -3 3013.91 3017.34 172.51 o
-8 16 3 1441.81 1249.49 106.47 o
-8 16 -3 1181.89 1058.18 103.31 o
-5 16 3 1052.13 1067.42 109.56 o
-11 16 -3 878.84 832.50 112.67 o
-2 16 3 1532.54 1390.46 122.14 o
-14 16 -3 1868.41 2080.12 172.30 o
-16 17 3 5474.12 6145.92 430.69 o
-1 17 -3 5393.69 6013.42 377.21 o
-13 17 3 8898.88 9340.32 485.79 o
-4 17 -3 9656.31 9438.79 388.29 o
-10 17 3 17687.30 17680.40 620.53 o
-7 17 -3 18433.40 18444.90 678.31 o
-7 17 3 12040.30 11895.80 493.68 o
-10 17 -3 11350.50 11618.80 543.94 o
-4 17 3 14944.40 14723.20 485.48 o
-13 17 -3 13798.10 13971.40 608.56 o
-1 17 3 5760.88 5921.23 289.30 o
-16 17 -3 5802.23 6393.17 311.33 o
-15 18 3 8110.54 9073.94 460.16 o
-3 18 -3 8031.27 8130.94 416.00 o
-12 18 3 14841.70 15117.00 596.43 o
-6 18 -3 13818.80 13682.20 535.62 o
-9 18 3 23745.90 24245.90 844.78 o
-9 18 -3 24051.80 23868.90 883.44 o
-6 18 3 20857.00 20195.10 791.34 o
-12 18 -3 22042.90 22144.30 891.27 o
-3 18 3 3834.38 3471.36 225.98 o
-15 18 -3 3633.92 4066.91 291.84 o
-17 19 3 2667.71 2436.02 235.14 o
-2 19 -3 3080.96 2769.48 279.14 o
-14 19 3 797.43 769.82 143.95 o
-5 19 -3 903.94 942.03 125.19 o
-11 19 3 437.87 456.72 122.00 o
-8 19 -3 452.57 312.83 103.23 o
-8 19 3 211.28 203.29 100.08 <
-11 19 -3 167.68 103.20 115.71 <
-5 19 3 979.99 992.18 134.59 o
-14 19 -3 901.32 710.43 143.96 o
-2 19 3 1361.65 1296.28 147.16 o
-17 19 -3 1481.69 1180.57 169.10 o
-19 20 3 4835.10 5087.13 377.06 o
-1 20 -3 4652.87 5535.45 424.11 o
-16 20 3 12590.60 12638.40 541.38 o
-4 20 -3 11898.80 12576.10 585.30 o
-13 20 3 24817.00 24961.10 1012.15 o
-7 20 -3 24176.30 24264.00 969.92 o
-10 20 3 19551.70 19704.10 806.27 o
-10 20 -3 19502.70 18511.40 885.90 o
-7 20 3 13720.10 14432.00 652.83 o
-13 20 -3 14404.10 14273.50 748.40 o
-4 20 3 17197.90 17847.10 680.55 o
-16 20 -3 18206.70 18596.70 751.25 o
-1 20 3 5946.30 6027.06 352.31 o
-19 20 -3 5622.30 6377.30 408.80 o
-18 21 3 3599.37 3351.67 279.31 o
-3 21 -3 3873.29 3854.86 335.89 o
-15 21 3 11209.30 11088.60 547.00 o
-6 21 -3 11720.60 12011.60 534.62 o
-12 21 3 17022.80 17532.20 820.33 o
-9 21 -3 17294.00 16792.50 811.00 o
-9 21 3 23846.10 25447.70 995.38 o
-12 21 -3 23693.90 23059.90 1104.03 o
-6 21 3 13639.10 13403.40 649.73 o
-15 21 -3 13037.60 13424.00 731.70 o
-3 21 3 2391.47 2253.67 216.28 o
-18 21 -3 2298.68 2068.55 219.39 o
-20 22 3 2070.32 2111.99 235.01 o
-2 22 -3 2042.00 1964.66 288.27 o
-17 22 3 734.91 801.08 150.20 o
-5 22 -3 757.26 538.24 156.46 o
-14 22 3 325.68 309.66 159.52 <
-8 22 -3 210.73 293.99 131.36 <
-11 22 3 59.93 87.56 150.10 <
-11 22 -3 61.61 109.45 156.35 <
-8 22 3 140.18 140.73 118.84 <
-14 22 -3 89.56 65.67 168.87 <
-5 22 3 1160.27 1245.97 203.49 o
-17 22 -3 1162.25 920.39 200.36 o
-2 22 3 1815.70 2158.43 222.42 o
-20 22 -3 1824.11 1707.34 231.82 o
-19 23 3 6809.74 6272.14 462.85 o
-4 23 -3 6569.89 6431.16 487.92 o
-16 23 3 12187.70 12748.10 766.09 o
-7 23 -3 12081.40 12496.70 699.53 o
-13 23 3 22519.00 23620.70 1132.10 o
-10 23 -3 22977.10 22578.70 1167.81 o
-10 23 3 20363.40 21438.90 992.48 o
-13 23 -3 20260.80 20728.30 1241.27 o
-7 23 3 12668.30 14106.60 801.29 o
-16 23 -3 12539.50 13113.60 813.86 o
-4 23 3 4409.41 4202.66 354.93 o
-19 23 -3 4484.89 4334.91 383.23 o
-18 24 3 6194.44 5299.04 827.58 o
-6 24 -3 6163.36 5667.03 541.22 o
-15 24 3 15275.20 14490.30 816.13 o
-9 24 -3 15393.20 13793.30 1038.55 o
-12 24 3 16685.00 15986.00 1411.93 o
-12 24 -3 16558.20 15840.90 988.86 o
-9 24 3 13410.90 13360.20 805.10 o
-15 24 -3 13018.10 12882.80 795.28 o
-6 24 3 6510.96 6342.64 613.80 o
-18 24 -3 6637.53 6075.86 635.92 o
-17 25 3 524.54 644.48 422.36 <
-8 25 -3 558.07 547.52 378.57 <
-14 25 3 150.21 228.30 356.52 <
-11 25 -3 173.50 59.42 222.05 <
-11 25 3 71.52 -153.23 265.80 <
-14 25 -3 86.05 193.88 328.35 <
-8 25 3 236.64 197.04 397.21 <
-17 25 -3 207.32 -78.19 265.84 <
-1 1 4 184912.00 223661.00 12230.50 o
0 1 -4 186196.00 224722.00 10635.80 o
0 2 4 23036.20 25727.00 1655.41 o
-2 2 -4 19848.40 22736.60 1155.01 o
-2 3 4 3527.16 4739.08 234.26 o
-1 3 -4 3724.79 4793.02 174.23 o
-4 4 4 23413.80 24896.00 1741.59 o
0 4 -4 24554.50 25200.00 1234.90 o
-1 4 4 14903.70 15940.90 640.64 o
-3 4 -4 14800.90 15416.60 601.24 o
-3 5 4 74236.40 72858.50 3543.90 o
-2 5 -4 73882.30 74782.40 2361.94 o
0 5 4 161029.00 145981.00 10282.00 o
-5 5 -4 167094.00 158622.00 8487.91 o
-5 6 4 21191.70 23495.10 1002.58 o
-1 6 -4 21017.40 22150.00 743.46 o
-2 6 4 12433.00 13040.00 704.78 o
-4 6 -4 10221.90 10902.50 448.27 o
-7 7 4 46378.00 45015.10 2438.21 o
0 7 -4 44088.90 41717.00 2415.14 o
-4 7 4 19124.20 18730.00 842.34 o
-3 7 -4 19028.60 18918.20 666.59 o
-1 7 4 29831.10 28815.90 1691.55 o
-6 7 -4 29687.20 29777.80 1032.53 o
-6 8 4 34625.00 34704.40 1504.99 o
-2 8 -4 34306.50 34214.10 1185.41 o
-3 8 4 122590.00 115163.00 5669.09 o
-5 8 -4 124563.00 121728.00 4330.92 o
0 8 4 157217.00 152150.00 13994.00 o
-8 8 -4 155504.00 144476.00 8065.67 o
-8 9 4 3904.56 3768.54 198.18 o
-1 9 -4 3277.07 2925.82 182.27 o
-5 9 4 14700.30 14600.20 749.72 o
-4 9 -4 14882.00 14383.40 615.34 o
-2 9 4 70098.50 68698.30 3929.79 o
-7 9 -4 70488.70 70859.40 2773.27 o
-10 10 4 10840.00 11355.10 580.44 o
0 10 -4 11512.00 10907.90 466.67 o
-7 10 4 52658.90 49854.80 2204.24 o
-3 10 -4 54070.10 51636.20 2032.89 o
-4 10 4 57664.50 55779.90 2793.58 o
-6 10 -4 58087.10 58505.70 2281.74 o
-1 10 4 54379.00 51988.40 2148.12 o
-9 10 -4 53798.00 54590.10 1854.27 o
-9 11 4 15698.40 16481.60 504.18 o
-2 11 -4 15948.00 14763.20 424.54 o
-6 11 4 69837.00 69099.90 2334.53 o
-5 11 -4 70246.90 67300.40 2081.92 o
-3 11 4 130511.00 118042.00 3849.94 o
-8 11 -4 128301.00 121314.00 3470.62 o
0 11 4 164352.00 143626.00 5037.73 o
-11 11 -4 163118.00 154064.00 4773.89 o
-11 12 4 90.34 90.69 53.16 <
-1 12 -4 32.90 56.29 40.65 <
-8 12 4 6641.37 7138.43 258.55 o
-4 12 -4 6173.60 6576.51 192.22 o
-5 12 4 18861.20 19371.60 534.72 o
-7 12 -4 18882.90 20031.70 515.52 o
-2 12 4 30526.30 30542.60 751.98 o
-10 12 -4 32199.80 33303.30 795.64 o
-13 13 4 2816.18 3268.01 269.72 o
0 13 -4 2443.00 2457.87 216.32 o
-10 13 4 4996.09 5195.20 261.02 o
-3 13 -4 4437.06 4591.62 182.28 o
-7 13 4 14076.30 14071.20 406.94 o
-6 13 -4 14181.20 14301.80 346.58 o
-4 13 4 23591.70 23343.80 620.06 o
-9 13 -4 23580.70 24535.40 613.63 o
-1 13 4 25792.40 25129.80 642.95 o
-12 13 -4 25437.80 26023.40 681.28 o
-12 14 4 4485.94 4850.89 251.34 o
-2 14 -4 4291.24 4121.15 213.60 o
-9 14 4 31941.20 32556.40 964.68 o
-5 14 -4 32130.90 32028.70 770.60 o
-6 14 4 78961.20 74953.50 1818.77 o
-8 14 -4 79360.30 77694.10 1761.68 o
-3 14 4 111393.00 103420.00 2419.03 o
-11 14 -4 111880.00 109780.00 2591.49 o
0 14 4 104531.00 97332.90 3429.79 o
-14 14 -4 106690.00 101859.00 3706.29 o
-14 15 4 594.24 391.10 122.02 o
-1 15 -4 876.27 804.32 122.06 o
-11 15 4 7092.03 6923.78 337.05 o
-4 15 -4 7181.98 7157.54 248.88 o
-8 15 4 10920.10 10758.30 354.29 o
-7 15 -4 11285.70 11407.90 319.61 o
-5 15 4 20259.00 20256.30 568.44 o
-10 15 -4 20058.90 20296.90 597.06 o
-2 15 4 17370.20 16826.70 493.22 o
-13 15 -4 16697.20 17476.90 578.75 o
-16 16 4 7077.04 7251.30 727.33 o
0 16 -4 6846.97 6884.52 579.22 o
-13 16 4 1481.23 1478.08 178.50 o
-3 16 -4 1594.63 1694.35 150.33 o
-10 16 4 3032.34 3064.45 207.01 o
-6 16 -4 2802.49 2866.17 150.52 o
-7 16 4 5100.70 5167.51 270.32 o
-9 16 -4 4939.78 4987.53 279.70 o
-4 16 4 17887.80 17252.70 553.87 o
-12 16 -4 18117.00 18542.80 617.67 o
-1 16 4 14214.60 13833.60 485.11 o
-15 16 -4 14096.70 15188.90 535.78 o
-15 17 4 1211.41 1139.54 178.45 o
-2 17 -4 1191.04 1155.17 156.53 o
-12 17 4 2115.55 2231.03 219.34 o
-5 17 -4 2285.96 2071.57 166.10 o
-9 17 4 28616.80 29593.20 984.08 o
-8 17 -4 28800.10 28093.10 968.17 o
-6 17 4 41068.60 41055.90 1405.62 o
-11 17 -4 39912.40 39811.90 1504.85 o
-3 17 4 40964.50 41062.40 1239.00 o
-14 17 -4 40919.10 43272.00 1329.99 o
0 17 4 37162.80 37178.00 1633.06 o
-17 17 -4 38052.70 40208.50 1838.72 o
-17 18 4 3000.75 2866.44 323.02 o
-1 18 -4 3286.57 3278.20 276.06 o
-14 18 4 9947.00 10754.10 543.07 o
-4 18 -4 9826.52 10386.60 501.97 o
-11 18 4 13085.00 13548.90 563.75 o
-7 18 -4 13109.30 13631.60 519.42 o
-8 18 4 10498.70 10460.20 502.32 o
-10 18 -4 10424.10 10364.60 559.14 o
-5 18 4 16126.20 16488.20 600.32 o
-13 18 -4 16040.10 16270.80 768.60 o
-2 18 4 9311.97 9289.78 388.13 o
-16 18 -4 9239.66 10273.60 451.20 o
-19 19 4 18696.20 19739.90 1188.15 o
0 19 -4 19040.60 19443.80 1178.99 o
-16 19 4 7537.29 7613.95 453.62 o
-3 19 -4 7449.78 7509.35 488.23 o
-13 19 4 520.59 397.32 122.01 o
-6 19 -4 575.50 412.98 115.76 o
-10 19 4 821.03 607.11 134.57 o
-9 19 -4 868.92 726.06 128.31 o
-7 19 4 8117.18 8405.83 469.62 o
-12 19 -4 8308.81 8930.69 554.82 o
-4 19 4 11485.20 11374.50 483.82 o
-15 19 -4 11577.30 11558.90 550.27 o
-1 19 4 3366.71 3372.70 232.17 o
-18 19 -4 3338.12 3808.69 260.40 o
-18 20 4 1971.35 1619.81 216.18 o
-2 20 -4 1644.34 1390.64 219.24 o
-15 20 4 404.67 353.48 118.87 <
-5 20 -4 476.75 269.04 115.75 <
-12 20 4 2086.80 1851.80 222.47 o
-8 20 -4 2094.59 1851.81 219.34 o
-9 20 4 11230.90 12073.50 588.03 o
-11 20 -4 11417.10 11658.30 629.24 o
-6 20 4 14383.90 15475.80 751.59 o
-14 20 -4 14345.90 15798.70 754.73 o
-3 20 4 17840.70 18932.70 693.78 o
-17 20 -4 17240.50 16828.70 776.07 o
0 20 4 10200.60 10829.90 723.47 o
-20 20 -4 9916.88 11155.30 982.25 o
-20 21 4 4224.18 3576.88 314.04 o
-1 21 -4 4092.05 4270.33 395.63 o
-17 21 4 4737.33 4543.08 336.17 o
-4 21 -4 4648.64 5406.60 408.40 o
-14 21 4 5891.71 5309.21 355.42 o
-7 21 -4 5411.78 5146.35 380.40 o
-11 21 4 1761.00 1450.29 238.06 o
-10 21 -4 1970.31 1651.10 256.91 o
-8 21 4 2725.21 2962.93 285.32 o
-13 21 -4 2855.34 3038.57 316.71 o
-5 21 4 2625.91 2552.00 263.35 o
-16 21 -4 2703.16 2128.92 253.97 o
-2 21 4 817.53 801.15 156.48 o
-19 21 -4 933.48 970.26 169.01 o
-22 22 4 13805.30 21181.30 3088.42 o
-19 22 4 13667.40 12488.40 649.94 o
-3 22 -4 13913.30 15076.00 723.04 o
-16 22 4 6096.65 5461.79 371.25 o
-6 22 -4 6151.65 5764.14 399.59 o
-13 22 4 1884.22 1807.64 269.42 o
-9 22 -4 1876.79 1450.49 219.30 o
-10 22 4 253.04 168.90 137.62 <
-12 22 -4 174.54 287.72 175.14 <
-7 22 4 2756.06 2775.00 294.75 o
-15 22 -4 2812.52 2737.53 313.58 o
-4 22 4 2557.62 2589.54 250.80 o
-18 22 -4 2518.36 2316.70 260.20 o
-1 22 4 1178.94 1230.35 237.93 o
-21 22 -4 1152.98 1033.09 247.32 o
-21 23 4 2675.84 2652.58 1015.88 <
-2 23 -4 2693.51 2197.98 1066.07 <
-18 23 4 1129.19 795.15 178.44 o
-5 23 -4 1172.72 986.15 197.23 o
-15 23 4 243.37 369.07 187.66 <
-8 23 -4 219.35 384.69 143.87 <
-12 23 4 1235.18 1252.33 272.38 o
-11 23 -4 1187.62 1208.44 250.45 o
-9 23 4 3601.42 3339.20 301.28 o
-14 23 -4 3710.00 3323.87 414.31 o
-6 23 4 4096.69 3940.67 379.94 o
-17 23 -4 4179.54 3721.19 348.57 o
-3 23 4 2949.02 2361.65 313.63 o
-20 23 -4 3069.47 2123.55 326.22 o
-17 24 4 1367.14 1296.34 322.52 o
-7 24 -4 1487.13 854.94 241.14 o
-14 24 4 1550.19 1493.89 300.66 o
-10 24 -4 1692.58 1638.20 266.25 o
-11 24 4 492.25 879.10 231.51 o
-13 24 -4 487.55 578.76 175.19 o
-8 24 4 25.29 -46.90 153.22 <
-16 24 -4 45.58 131.34 190.75 <
-5 24 4 53.77 18.76 234.53 <
-19 24 -4 67.49 -12.51 190.75 <
-16 25 4 3069.91 3089.65 577.15 o
-9 25 -4 2972.51 2286.43 417.14 o
-13 25 4 88.61 6.25 378.39 <
-12 25 -4 108.99 78.18 218.91 <
-10 25 4 509.85 156.43 234.64 <
-15 25 -4 449.46 381.66 290.93 <
-1 3 5 34039.90 38402.40 1523.82 o
-2 3 -5 34992.80 38910.80 1334.24 o
-3 4 5 38284.20 40181.60 1599.95 o
-1 4 -5 39080.60 41168.40 1399.23 o
-2 5 5 17367.20 19143.30 775.64 o
-3 5 -5 17145.70 18879.30 638.43 o
-4 6 5 73833.00 70890.20 3339.98 o
-2 6 -5 70230.10 68636.40 2211.64 o
-1 6 5 31108.70 30779.90 1621.57 o
-5 6 -5 33071.30 34113.80 1149.83 o
-6 7 5 106469.00 97113.10 4766.61 o
-1 7 -5 105675.00 101056.00 3602.34 o
-3 7 5 35018.70 34706.10 2031.31 o
-4 7 -5 35601.10 36204.70 1327.78 o
-5 8 5 4768.04 5164.59 299.53 o
-3 8 -5 4876.82 4910.13 227.06 o
-2 8 5 14916.10 15256.80 894.63 o
-6 8 -5 13713.40 14387.80 579.22 o
-7 9 5 131688.00 117603.00 5035.94 o
-2 9 -5 129184.00 117350.00 5023.73 o
-4 9 5 87530.40 83114.00 4767.29 o
-5 9 -5 87866.10 86460.90 3354.35 o
-1 9 5 15959.10 16403.00 1004.99 o
-8 9 -5 16520.20 16634.10 582.98 o
-9 10 5 96717.60 91548.20 3299.96 o
-1 10 -5 101186.00 90781.50 2777.94 o
-6 10 5 97376.20 89232.10 3976.73 o
-4 10 -5 100407.00 94259.10 3143.40 o
-3 10 5 25462.10 26243.90 1117.93 o
-7 10 -5 23282.30 23642.10 781.83 o
-8 11 5 4175.70 4407.78 223.22 o
-3 11 -5 4363.89 4176.15 163.52 o
-5 11 5 1253.38 1450.18 119.02 o
-6 11 -5 1171.59 1183.82 78.30 o
-2 11 5 3281.52 3124.24 138.16 o
-9 11 -5 2994.35 3047.77 141.25 o
-10 12 5 102127.00 95428.80 2843.45 o
-2 12 -5 100251.00 90299.10 2164.27 o
-7 12 5 77568.10 73587.90 1901.01 o
-5 12 -5 76248.10 71824.40 1651.96 o
-4 12 5 33700.70 31938.20 856.24 o
-8 12 -5 36213.10 36975.50 891.41 o
-1 12 5 5570.67 5610.78 188.81 o
-11 12 -5 5400.80 5619.14 213.94 o
-12 13 5 88155.20 83922.80 3046.83 o
-1 13 -5 88310.40 80139.00 2527.43 o
-9 13 5 75626.20 74245.10 1904.33 o
-4 13 -5 74219.70 70839.30 1606.67 o
-6 13 5 40084.10 38631.00 1024.18 o
-7 13 -5 40499.30 40112.00 910.07 o
-3 13 5 10247.90 9966.36 284.66 o
-10 13 -5 9642.33 10108.20 306.60 o
-11 14 5 30.71 21.89 65.67 <
-3 14 -5 51.15 106.32 53.16 <
-8 14 5 1708.86 1594.58 109.65 o
-6 14 -5 1846.40 1811.02 94.00 o
-5 14 5 2656.10 2489.96 134.85 o
-9 14 -5 2610.28 2640.35 134.84 o
-2 14 5 2393.25 2294.63 122.25 o
-12 14 -5 2218.87 2394.50 144.17 o
-13 15 5 73371.60 74233.80 2580.27 o
-2 15 -5 74257.00 71724.90 2558.85 o
-10 15 5 46236.40 46341.50 1418.68 o
-5 15 -5 45590.40 45460.90 1224.60 o
-7 15 5 23867.30 24016.70 724.38 o
-8 15 -5 24105.40 24503.40 628.38 o
-4 15 5 3725.06 3622.33 172.64 o
-11 15 -5 3426.39 3448.63 178.86 o
-1 15 5 1174.35 1152.05 118.96 o
-14 15 -5 1369.31 1258.73 134.64 o
-15 16 5 41367.10 42863.50 1838.03 o
-1 16 -5 41483.40 42298.80 1558.43 o
-12 16 5 45996.80 47365.60 1683.92 o
-4 16 -5 44613.90 44303.00 1541.31 o
-9 16 5 47673.80 48823.40 1658.25 o
-7 16 -5 47198.20 47871.00 1343.03 o
-6 16 5 10817.50 10978.70 407.79 o
-10 16 -5 11484.30 12143.80 452.35 o
-3 16 5 5150.75 4946.98 248.29 o
-13 16 -5 5599.31 6109.43 320.72 o
-14 17 5 279.96 215.82 121.98 <
-3 17 -5 371.38 190.81 90.71 <
-11 17 5 1180.85 1170.83 153.40 o
-6 17 -5 898.75 1014.02 115.80 o
-8 17 5 1172.14 970.47 131.48 o
-9 17 -5 1316.33 1387.03 162.81 o
-5 17 5 7598.53 7683.79 359.14 o
-12 17 -5 7528.91 7906.93 406.37 o
-2 17 5 6682.81 6763.76 314.74 o
-15 17 -5 6223.97 6779.62 358.64 o
-16 18 5 26799.00 28562.90 1196.94 o
-2 18 -5 26591.10 27751.90 1097.24 o
-13 18 5 22951.60 23453.50 968.70 o
-5 18 -5 24221.90 25056.60 953.87 o
-10 18 5 13696.70 14336.30 589.42 o
-8 18 -5 13974.80 14035.90 589.58 o
-7 18 5 4511.01 4550.97 317.22 o
-11 18 -5 4235.95 4194.93 310.85 o
-4 18 5 1712.79 1428.26 137.82 o
-14 18 -5 1843.24 1923.39 191.09 o
-1 18 5 7938.86 8439.46 371.87 o
-17 18 -5 7718.67 8283.26 431.65 o
-18 19 5 11775.30 12173.70 724.48 o
-1 19 -5 11227.60 12786.90 610.26 o
-15 19 5 13169.00 14288.30 712.67 o
-4 19 -5 13839.90 14684.30 611.71 o
-12 19 5 23004.90 23106.40 997.54 o
-7 19 -5 23192.60 22547.70 994.52 o
-9 19 5 12051.00 12595.20 563.16 o
-10 19 -5 12443.00 12353.10 633.00 o
-6 19 5 3973.11 4105.95 310.77 o
-13 19 -5 3610.22 3884.83 348.32 o
-3 19 5 1902.99 1882.80 166.04 o
-16 19 -5 2039.34 2183.85 197.39 o
-17 20 5 290.51 162.65 121.98 <
-3 20 -5 391.94 193.94 137.64 <
-14 20 5 1079.91 1277.14 175.29 o
-6 20 -5 1004.54 1067.33 165.89 o
-11 20 5 1158.51 1152.01 172.18 o
-9 20 -5 1080.95 939.07 147.12 o
-8 20 5 4278.00 4035.03 307.73 o
-12 20 -5 4505.04 4142.72 345.49 o
-5 20 5 6147.14 5735.14 352.35 o
-15 20 -5 6117.31 6247.75 437.28 o
-2 20 5 6373.95 6407.21 352.46 o
-18 20 -5 6717.91 6761.99 409.24 o
-19 21 5 7571.91 7184.25 482.10 o
-2 21 -5 7698.51 8801.82 557.80 o
-16 21 5 11612.70 10976.90 575.73 o
-5 21 -5 11135.60 11373.30 588.11 o
-13 21 5 4856.34 4128.65 355.05 o
-8 21 -5 4446.48 3988.77 345.48 o
-10 21 5 1379.04 1418.43 212.92 o
-11 21 -5 1492.90 1478.09 206.68 o
-7 21 5 238.12 147.00 134.49 <
-14 21 -5 122.51 75.05 153.24 <
-4 21 5 6281.20 5856.05 374.46 o
-17 21 -5 6076.48 5725.86 415.28 o
-1 21 5 10105.50 11034.80 559.17 o
-20 21 -5 10246.00 11611.40 625.60 o
-21 22 5 1995.99 1723.30 266.33 o
-1 22 -5 2024.43 2237.22 350.94 o
-18 22 5 4475.10 3759.97 323.54 o
-4 22 -5 4502.54 4507.70 376.95 o
-15 22 5 4076.91 3369.00 323.40 o
-7 22 -5 4239.16 3611.35 345.43 o
-12 22 5 4662.53 5299.84 527.78 o
-10 22 -5 4620.23 4677.61 420.95 o
-9 22 5 1912.88 2008.20 234.97 o
-13 22 -5 1534.59 1349.78 219.22 o
-6 22 5 1490.42 1753.71 228.61 o
-16 22 -5 1427.56 1853.80 263.04 o
-3 22 5 256.23 206.43 115.72 <
-19 22 -5 249.17 419.11 162.64 <
-20 23 5 573.45 347.29 172.08 <
-3 23 -5 573.96 560.04 240.91 <
-17 23 5 705.64 672.77 194.01 o
-6 23 -5 606.02 403.62 193.99 <
-14 23 5 538.07 631.98 197.10 o
-9 23 -5 594.36 535.02 165.83 o
-11 23 5 1161.29 1020.57 237.93 o
-12 23 -5 1258.77 767.07 184.72 o
-8 23 5 3025.95 2669.20 288.56 o
-15 23 -5 2992.71 2807.11 310.51 o
-5 23 5 7349.52 7223.84 532.41 o
-18 23 -5 7748.35 7062.87 501.11 o
-19 24 5 1809.75 645.33 604.60 <
-5 24 -5 1877.56 968.06 717.43 <
-16 24 5 2408.02 2093.91 379.29 o
-8 24 -5 2349.74 1488.85 247.62 o
-13 24 5 636.88 597.62 244.06 <
-11 24 -5 639.79 569.47 190.87 <
-10 24 5 538.15 228.39 172.07 <
-14 24 -5 567.47 544.40 181.46 <
-7 24 5 3737.31 3170.24 417.47 o
-17 24 -5 3766.27 3142.08 486.54 o
-15 25 5 468.41 735.17 412.95 <
-10 25 -5 396.67 328.46 284.66 <
-12 25 5 466.82 447.36 337.86 <
-13 25 -5 514.14 200.23 222.13 <
-9 25 5 540.57 660.14 666.40 <
0 0 6 672089.00 944827.00 89642.20 o
0 0 -6 676341.00 956018.00 90095.10 o
-1 2 6 110954.00 118675.00 4643.89 o
-1 2 -6 110741.00 119891.00 4027.23 o
-3 3 6 392427.00 400606.00 22166.10 o
0 3 -6 386054.00 405624.00 19059.00 o
0 3 6 336588.00 336275.00 19246.60 o
-3 3 -6 338260.00 364536.00 16740.10 o
-2 4 6 90376.60 90351.10 3567.89 o
-2 4 -6 89086.60 92113.20 2916.87 o
-4 5 6 69802.50 66855.90 2669.93 o
-1 5 -6 70078.30 69317.20 2322.56 o
-1 5 6 54636.10 54797.40 2423.33 o
-4 5 -6 56235.80 57364.70 1933.41 o
-6 6 6 132802.00 124226.00 8367.50 o
0 6 -6 128455.00 122998.00 5877.30 o
-3 6 6 192387.00 173786.00 8711.62 o
-3 6 -6 196351.00 188693.00 6199.87 o
0 6 6 172129.00 158051.00 10883.20 o
-6 6 -6 171355.00 162251.00 7680.27 o
-5 7 6 27284.80 28653.20 1360.69 o
-2 7 -6 26729.70 26536.30 1025.29 o
-2 7 6 36455.20 37137.50 1871.36 o
-5 7 -6 37089.00 38273.50 1323.34 o
-7 8 6 22436.50 23511.80 1177.85 o
-1 8 -6 23388.10 23023.60 1046.67 o
-4 8 6 45308.90 47506.00 2638.66 o
-4 8 -6 44920.40 46201.10 1719.99 o
-1 8 6 21226.70 21640.90 1101.43 o
-7 8 -6 20950.00 21154.10 823.30 o
-9 9 6 33986.70 34143.80 1870.71 o
0 9 -6 32752.80 30866.70 1430.19 o
-6 9 6 73160.60 68511.80 4008.89 o
-3 9 -6 74409.40 73163.00 2626.12 o
-3 9 6 66699.40 64656.20 3740.41 o
-6 9 -6 67181.70 67680.90 2456.25 o
0 9 6 46968.40 44928.80 1995.06 o
-9 9 -6 44279.20 45554.70 1994.90 o
-8 10 6 921.46 1008.10 115.84 o
-2 10 -6 1136.67 964.54 78.29 o
-5 10 6 4061.31 4333.30 267.29 o
-5 10 -6 3649.70 3730.54 166.57 o
-2 10 6 1246.81 1218.39 100.23 o
-8 10 -6 1554.37 1463.29 94.00 o
-10 11 6 4585.96 4882.70 226.37 o
-1 11 -6 5078.92 5008.25 195.04 o
-7 11 6 27185.30 28000.80 922.14 o
-4 11 -6 26308.90 26409.50 694.90 o
-4 11 6 16890.60 17068.20 447.23 o
-7 11 -6 15370.80 16184.50 430.44 o
-1 11 6 4417.40 4331.62 172.89 o
-10 11 -6 4908.19 5306.03 201.30 o
-12 12 6 2023.99 2218.72 260.11 o
0 12 -6 2172.58 2115.65 181.79 o
-9 12 6 7936.40 8300.22 280.88 o
-3 12 -6 7658.21 7647.62 224.00 o
-6 12 6 7085.12 7124.13 239.68 o
-6 12 -6 7662.64 7738.13 205.13 o
-3 12 6 4121.88 4141.16 169.67 o
-9 12 -6 3837.80 3945.05 169.61 o
0 12 6 884.37 666.67 97.03 o
-12 12 -6 1169.04 1152.16 144.02 o
-11 13 6 2041.91 2118.45 159.82 o
-2 13 -6 1898.57 1876.86 115.93 o
-8 13 6 2303.12 2294.85 134.81 o
-5 13 -6 2579.22 2612.30 116.03 o
-5 13 6 4178.93 4357.51 175.93 o
-8 13 -6 4418.02 4669.79 185.41 o
-2 13 6 1317.63 1211.83 81.42 o
-11 13 -6 1210.63 1017.57 90.80 o
-13 14 6 141.65 162.62 103.20 <
-1 14 -6 88.76 81.31 68.80 <
-10 14 6 6372.23 6774.65 283.33 o
-4 14 -6 6035.19 5891.09 207.70 o
-7 14 6 10453.00 10492.30 347.85 o
-7 14 -6 11268.80 11286.40 303.84 o
-4 14 6 8840.64 8619.75 268.28 o
-10 14 -6 8861.61 9109.17 296.70 o
-1 14 6 1280.38 1164.72 93.93 o
-13 14 -6 1388.71 1302.63 122.12 o
-15 15 6 3927.83 3810.78 505.38 o
0 15 -6 3650.09 4365.19 426.79 o
-12 15 6 2416.50 2491.97 219.42 o
-3 15 -6 2640.62 2379.66 188.12 o
-9 15 6 516.61 538.11 87.60 o
-6 15 -6 521.81 556.89 65.70 o
-6 15 6 256.09 215.81 56.30 o
-9 15 -6 251.82 272.11 68.81 o
-3 15 6 1317.41 1227.38 103.32 o
-12 15 -6 1575.91 1581.60 131.54 o
0 15 6 6853.32 6352.76 409.25 o
-15 15 -6 6423.02 6545.18 500.33 o
-14 16 6 3761.75 3785.03 313.85 o
-2 16 -6 3979.04 3842.34 288.80 o
-11 16 6 13796.10 14189.10 662.54 o
-5 16 -6 13791.80 14189.00 478.67 o
-8 16 6 18000.30 18105.00 611.25 o
-8 16 -6 16956.60 17609.40 553.37 o
-5 16 6 13144.90 12706.80 462.53 o
-11 16 -6 13489.80 13570.00 535.57 o
-2 16 6 5637.89 5430.17 270.41 o
-14 16 -6 6073.57 6215.75 330.29 o
-16 17 6 618.24 572.57 165.83 o
-1 17 -6 568.65 450.52 131.40 o
-13 17 6 2085.32 1901.92 222.46 o
-4 17 -6 1961.21 1942.42 197.38 o
-10 17 6 9624.15 9987.68 514.54 o
-7 17 -6 10162.60 10643.50 388.47 o
-7 17 6 6216.35 5921.03 311.47 o
-10 17 -6 6415.92 6384.76 333.56 o
-4 17 6 3486.81 3194.10 203.95 o
-13 17 -6 3269.29 3689.06 250.96 o
-1 17 6 839.72 641.54 103.27 o
-16 17 -6 740.59 697.80 131.43 o
-18 18 6 5814.29 6428.38 710.77 o
0 18 -6 5974.78 6404.23 594.50 o
-15 18 6 6335.19 6686.04 456.22 o
-3 18 -6 6003.63 6838.00 427.77 o
-12 18 6 3397.53 3488.71 304.32 o
-6 18 -6 3531.86 3429.55 229.05 o
-9 18 6 3974.44 3738.68 260.55 o
-9 18 -6 4212.57 3500.92 276.31 o
-6 18 6 4292.53 3686.44 260.63 o
-12 18 -6 4631.38 5283.35 317.25 o
-3 18 6 4821.98 4765.99 254.48 o
-15 18 -6 4647.61 5204.95 307.84 o
0 18 6 6967.91 6482.94 478.58 o
-18 18 -6 7263.07 9108.36 614.15 o
-17 19 6 5776.81 5434.39 456.01 o
-2 19 -6 5540.50 5662.64 393.02 o
-14 19 6 16132.70 17280.20 879.89 o
-5 19 -6 16471.30 17397.00 699.06 o
-11 19 6 25335.20 26483.90 1047.82 o
-8 19 -6 25164.80 25589.00 996.39 o
-8 19 6 28212.80 28387.60 1053.89 o
-11 19 -6 27745.90 29062.40 1172.26 o
-5 19 6 14391.20 14736.40 561.30 o
-14 19 -6 14311.40 15778.50 624.67 o
-2 19 6 4293.29 4107.49 251.22 o
-17 19 -6 4022.80 4024.76 291.97 o
-19 20 6 672.47 560.10 165.84 o
-1 20 -6 679.49 1007.55 190.87 o
-16 20 6 1414.37 1183.64 212.93 o
-4 20 -6 1618.05 1531.53 212.97 o
-13 20 6 5968.06 5576.77 386.88 o
-7 20 -6 5726.92 5820.72 433.96 o
-10 20 6 7759.11 7634.53 456.87 o
-10 20 -6 7694.87 7397.75 478.90 o
-7 20 6 4682.70 4875.46 370.69 o
-13 20 -6 4286.23 4433.93 339.14 o
-4 20 6 779.19 666.55 128.30 o
-16 20 -6 947.25 976.52 172.14 o
-1 20 6 400.55 234.61 106.36 <
-19 20 -6 448.24 447.35 128.26 o
-21 21 6 3598.52 3414.59 379.75 o
0 21 -6 3599.29 3194.90 483.32 o
-18 21 6 4609.79 4055.73 361.28 o
-3 21 -6 4866.43 4968.07 399.08 o
-15 21 6 6855.85 7017.87 434.48 o
-6 21 -6 6777.74 7344.73 456.49 o
-12 21 6 6117.67 5087.08 402.69 o
-9 21 -6 5923.87 6032.87 405.76 o
-9 21 6 8971.37 9105.03 517.40 o
-12 21 -6 8781.50 8759.51 548.85 o
-6 21 6 4782.46 4703.47 358.18 o
-15 21 -6 4479.50 4563.84 364.35 o
-3 21 6 4027.30 4160.09 282.57 o
-18 21 -6 4112.13 3877.85 326.56 o
0 21 6 2343.06 1949.59 291.50 o
-21 21 -6 2434.98 3106.47 467.07 o
-20 22 6 2419.16 1858.84 203.75 o
-2 22 -6 2436.26 2366.69 313.47 o
-17 22 6 11134.80 11125.00 543.92 o
-5 22 -6 10910.30 12485.20 667.10 o
-14 22 6 19170.70 19197.60 911.59 o
-8 22 -6 19749.90 21039.10 985.46 o
-11 22 6 23363.90 24754.60 1481.75 o
-11 22 -6 23303.40 24497.10 1235.25 o
-8 22 6 17766.20 19094.60 1091.76 o
-14 22 -6 18538.80 19943.70 939.69 o
-5 22 6 9784.44 10001.50 568.45 o
-17 22 -6 9435.90 9499.20 558.78 o
-2 22 6 2628.49 2668.14 260.23 o
-20 22 -6 2694.06 2292.06 341.77 o
-19 23 6 1097.29 970.42 234.78 o
-4 23 -6 1084.16 1130.06 300.52 o
-16 23 6 2122.53 1983.62 275.76 o
-7 23 -6 1979.98 1550.94 256.92 o
-13 23 6 4493.78 4341.15 477.46 o
-10 23 -6 4482.25 4589.26 534.00 o
-10 23 6 5404.78 5587.09 506.20 o
-13 23 -6 5541.52 4311.17 396.21 o
-7 23 6 3990.17 4291.89 383.04 o
-16 23 -6 3992.25 4225.97 364.20 o
-4 23 6 457.76 509.92 231.50 <
-19 23 -6 475.46 369.15 234.63 <
-18 24 6 3606.01 3565.23 602.57 o
-6 24 -6 3759.50 3298.98 555.59 o
-15 24 6 5052.88 4686.30 550.03 o
-9 24 -6 4916.08 3519.73 417.97 o
-12 24 6 4825.93 3651.39 443.07 o
-12 24 -6 4704.28 3946.28 455.58 o
-9 24 6 4546.19 3970.78 408.39 o
-15 24 -6 4654.17 3757.57 508.97 o
-6 24 6 3152.74 3591.82 577.20 o
-18 24 -6 3241.00 2553.72 580.39 o
-14 25 6 15974.10 16536.90 1979.72 o
-11 25 -6 15691.60 13736.60 2544.64 o
-11 25 6 15996.80 14122.10 1735.08 o
-14 25 -6 15954.30 8207.90 1617.43 o
-2 3 7 7932.00 9086.88 375.57 o
-1 3 -7 7598.45 8113.31 327.59 o
-1 4 7 29061.20 31672.30 1297.15 o
-3 4 -7 30953.40 33039.70 1142.17 o
-3 5 7 9969.94 10645.20 490.97 o
-2 5 -7 8891.57 9808.59 362.69 o
-5 6 7 42487.20 42506.50 1740.72 o
-1 6 -7 45293.80 45145.80 1522.53 o
-2 6 7 112415.00 108851.00 5152.95 o
-4 6 -7 109709.00 106072.00 3880.86 o
-4 7 7 29592.90 29927.60 1493.26 o
-3 7 -7 29251.00 29845.70 1131.64 o
-1 7 7 71112.60 70521.80 3395.66 o
-6 7 -7 71139.00 69709.50 2396.21 o
-6 8 7 11282.40 11779.30 725.08 o
-2 8 -7 10915.10 11289.80 505.37 o
-3 8 7 2673.13 2518.09 222.92 o
-5 8 -7 2888.49 2782.75 175.88 o
-8 9 7 19796.00 21571.40 895.60 o
-1 9 -7 21000.20 20602.20 649.45 o
-5 9 7 51653.70 50381.50 2501.28 o
-4 9 -7 51367.30 51201.40 1506.91 o
-2 9 7 110177.00 97428.20 3409.88 o
-7 9 -7 107348.00 101781.00 2669.95 o
-7 10 7 26463.20 26765.30 970.46 o
-3 10 -7 23995.00 23396.10 725.58 o
-4 10 7 49021.40 46473.30 1581.41 o
-6 10 -7 51140.30 49318.70 1268.43 o
-1 10 7 94353.70 84955.40 2142.82 o
-9 10 -7 98473.60 93256.40 2229.57 o
-9 11 7 10747.30 10548.80 376.86 o
-2 11 -7 10431.10 10326.50 300.74 o
-6 11 7 4590.60 5088.19 182.40 o
-5 11 -7 4194.92 4639.37 160.30 o
-3 11 7 1699.88 1453.88 94.00 o
-8 11 -7 1790.33 1673.39 97.14 o
-11 12 7 5022.89 5005.36 254.67 o
-1 12 -7 5011.81 5206.52 223.23 o
-8 12 7 16120.70 15176.90 509.61 o
-4 12 -7 17517.00 17070.20 408.33 o
-5 12 7 67503.60 64311.50 1543.91 o
-7 12 -7 65953.00 65642.60 1426.94 o
-2 12 7 89341.40 81730.10 2054.07 o
-10 12 -7 88144.00 87517.00 2010.47 o
-10 13 7 8068.12 8090.28 337.49 o
-3 13 -7 8138.34 8012.03 249.19 o
-7 13 7 43230.20 42655.10 1074.49 o
-6 13 -7 43521.00 42520.60 1002.72 o
-4 13 7 75130.20 70327.30 1764.69 o
-9 13 -7 75121.90 74424.00 1737.63 o
-1 13 7 71585.30 67242.20 1658.56 o
-12 13 -7 71026.90 72401.20 1734.86 o
-12 14 7 1802.21 1776.22 200.49 o
-2 14 -7 1663.93 1697.66 150.35 o
-9 14 7 1089.49 1245.93 112.70 o
-5 14 -7 1070.81 1051.82 84.52 o
-6 14 7 1295.99 1230.56 90.80 o
-8 14 -7 1414.66 1337.19 97.08 o
-3 14 7 616.62 578.84 62.58 o
-11 14 -7 632.40 497.50 78.22 o
-14 15 7 1322.25 1061.40 197.25 o
-1 15 -7 1412.55 1261.90 162.83 o
-11 15 7 4822.54 4860.91 301.65 o
-4 15 -7 4714.57 5268.81 257.63 o
-8 15 7 22613.90 23149.10 652.63 o
-7 15 -7 22629.90 23600.60 591.85 o
-5 15 7 49185.20 46856.90 1348.90 o
-10 15 -7 49862.20 50614.50 1418.73 o
-2 15 7 41714.60 41071.00 1204.62 o
-13 15 -7 41643.70 44870.70 1233.84 o
-13 16 7 2599.13 2451.51 272.74 o
-3 16 -7 2952.53 2643.66 232.07 o
-10 16 7 14057.50 14984.70 570.72 o
-6 16 -7 14606.20 15417.80 469.52 o
-7 16 7 26488.30 25857.90 834.43 o
-9 16 -7 25642.10 26035.60 878.65 o
-4 16 7 46439.50 46467.60 1317.56 o
-12 16 -7 45732.40 46937.00 1391.84 o
-1 16 7 37375.40 36983.10 1202.31 o
-15 16 -7 37212.70 39560.00 1289.61 o
-15 17 7 8398.36 9738.58 599.01 o
-2 17 -7 8079.26 8203.84 475.90 o
-12 17 7 2934.34 3236.27 279.10 o
-5 17 -7 2412.56 2140.74 197.46 o
-9 17 7 1737.95 1494.09 137.82 o
-8 17 -7 1785.50 1888.84 156.62 o
-6 17 7 2132.46 2049.29 153.54 o
-11 17 -7 2142.63 1933.37 169.21 o
-3 17 7 668.74 585.11 97.00 o
-14 17 -7 738.75 841.74 125.17 o
-17 18 7 5278.35 5013.55 440.06 o
-1 18 -7 5102.89 5666.37 389.70 o
-14 18 7 420.58 378.51 147.02 <
-4 18 -7 555.89 269.06 112.63 <
-11 18 7 2391.53 2400.82 213.13 o
-7 18 -7 2011.71 2052.16 162.92 o
-8 18 7 12481.60 12407.30 515.92 o
-10 18 -7 12970.90 14699.50 544.66 o
-5 18 7 21897.50 21679.90 766.53 o
-13 18 -7 23057.60 25336.10 853.70 o
-2 18 7 20636.00 22030.10 733.80 o
-16 18 -7 20195.70 23331.50 835.55 o
-16 19 7 396.78 491.12 187.69 <
-3 19 -7 268.55 250.22 131.37 <
-13 19 7 3924.64 3700.88 269.95 o
-6 19 -7 3892.33 3929.90 295.06 o
-10 19 7 8576.91 9213.81 504.52 o
-9 19 -7 8691.16 8716.57 498.27 o
-7 19 7 11880.20 11695.20 540.95 o
-12 19 -7 11616.00 12444.90 581.92 o
-4 19 7 16354.10 15804.70 600.54 o
-15 19 -7 17202.70 18024.70 667.82 o
-1 19 7 12832.10 13099.50 519.42 o
-18 19 -7 12829.20 14331.50 592.26 o
-18 20 7 9613.05 9686.60 612.52 o
-2 20 -7 9967.37 10754.40 593.78 o
-15 20 7 6661.29 7441.18 453.27 o
-5 20 -7 7191.17 7571.06 466.11 o
-12 20 7 2195.85 1986.77 250.70 o
-8 20 -7 2362.13 2353.80 219.40 o
-9 20 7 1500.98 1384.14 184.76 o
-11 20 -7 1386.31 1477.92 187.87 o
-6 20 7 170.14 115.71 96.95 <
-14 20 -7 89.45 46.91 106.32 <
-3 20 7 478.36 425.46 109.49 o
-17 20 -7 588.13 453.67 134.54 o
-20 21 7 8625.61 7570.70 372.23 o
-1 21 -7 8747.26 8678.98 520.55 o
-17 21 7 5912.14 5687.34 390.06 o
-4 21 -7 5559.68 6229.33 433.95 o
-14 21 7 1501.00 1581.47 178.50 o
-7 21 -7 1383.90 1437.24 219.19 o
-11 21 7 1001.14 882.67 203.45 o
-10 21 -7 1044.66 989.13 181.55 o
-8 21 7 7510.35 7633.55 504.07 o
-13 21 -7 7177.77 7319.23 450.37 o
-5 21 7 7822.21 7891.67 416.01 o
-16 21 -7 7313.47 7478.14 469.35 o
-2 21 7 5103.21 5450.29 311.18 o
-19 21 -7 5238.30 5256.13 339.51 o
-19 22 7 13.65 53.16 96.93 <
-3 22 -7 21.14 31.27 153.22 <
-16 22 7 691.29 725.95 134.55 o
-6 22 -7 690.26 666.50 187.74 o
-13 22 7 3647.29 3577.84 326.40 o
-9 22 -7 3507.71 3150.56 395.39 o
-10 22 7 3304.33 2886.37 357.66 o
-12 22 -7 3193.00 2694.69 285.47 o
-7 22 7 2960.59 2794.45 313.63 o
-15 22 -7 3079.18 2898.30 276.03 o
-4 22 7 2448.68 2470.16 235.10 o
-18 22 -7 2463.36 2310.33 278.99 o
-1 22 7 2265.06 1560.79 454.45 o
-21 22 -7 2238.69 1657.91 642.48 <
-18 23 7 6686.01 6359.50 453.35 o
-5 23 -7 6799.63 7367.80 557.31 o
-15 23 7 3036.63 2750.80 257.20 o
-8 23 -7 3108.37 2622.39 307.41 o
-12 23 7 332.89 237.72 215.83 <
-11 23 -7 350.19 147.02 147.02 <
-9 23 7 163.14 237.68 159.50 <
-14 23 -7 197.22 112.59 125.10 <
-6 23 7 574.54 581.94 193.98 o
-17 23 -7 518.17 519.34 240.90 <
-17 24 7 2918.16 1819.00 404.57 o
-7 24 -7 2929.16 2142.06 445.35 o
-14 24 7 321.66 78.20 265.87 <
-10 24 -7 342.76 128.25 215.83 <
-11 24 7 210.23 250.21 287.74 <
-13 24 -7 234.96 153.25 209.55 <
-8 24 7 2059.79 2086.90 510.76 o
-16 24 -7 2004.53 1698.25 357.20 o
0 1 8 17104.40 23920.90 1335.06 o
-1 1 -8 16384.30 22280.70 1342.80 o
-2 2 8 27798.60 34223.40 1854.29 o
0 2 -8 27035.10 30951.40 1864.74 o
-1 3 8 552.57 676.15 75.13 o
-2 3 -8 615.66 666.84 72.01 o
-3 4 8 23452.70 26215.00 1080.46 o
-1 4 -8 23864.60 27132.70 947.33 o
0 4 8 34227.90 36733.40 2574.46 o
-4 4 -8 34277.10 36819.60 1823.87 o
-5 5 8 53628.60 50864.60 3710.16 o
0 5 -8 56724.40 56330.10 2652.04 o
-2 5 8 27115.90 27388.80 1353.55 o
-3 5 -8 25613.80 26554.20 954.55 o
-4 6 8 22716.20 23844.60 1083.55 o
-2 6 -8 22568.50 24286.60 1002.21 o
-1 6 8 529.89 394.33 87.63 o
-5 6 -8 324.13 278.44 56.31 o
-6 7 8 35087.10 35253.00 1585.96 o
-1 7 -8 35734.20 36405.00 1267.95 o
-3 7 8 40308.90 41332.80 2109.49 o
-4 7 -8 41547.90 43726.90 1604.11 o
0 7 8 32463.50 33291.50 1894.99 o
-7 7 -8 31615.30 32242.70 1229.16 o
-8 8 8 144947.00 126377.00 5570.75 o
0 8 -8 145597.00 134274.00 5589.62 o
-5 8 8 73154.50 70436.90 3116.40 o
-3 8 -8 73874.80 72719.20 2109.51 o
-2 8 8 35211.50 35441.50 1326.14 o
-6 8 -8 35380.20 34940.60 971.85 o
-7 9 8 14318.80 14628.60 474.67 o
-2 9 -8 13312.30 13082.50 429.51 o
-4 9 8 4478.47 4265.74 223.35 o
-5 9 -8 4266.31 4327.42 169.83 o
-1 9 8 4335.66 4612.60 179.22 o
-8 9 -8 4162.31 4124.34 166.61 o
-9 10 8 30855.40 31191.90 972.52 o
-1 10 -8 29227.80 28991.80 760.39 o
-6 10 8 16345.40 16869.80 459.56 o
-4 10 -8 16110.20 16829.80 417.95 o
-3 10 8 8174.47 7795.91 255.86 o
-7 10 -8 8193.29 8115.14 240.07 o
0 10 8 9105.90 8449.58 379.19 o
-10 10 -8 9270.35 9693.25 414.02 o
-11 11 8 120031.00 110604.00 5334.45 o
0 11 -8 118180.00 108471.00 3996.56 o
-8 11 8 114828.00 101184.00 2797.38 o
-3 11 -8 114611.00 105966.00 2364.86 o
-5 11 8 54676.70 54198.00 1195.37 o
-6 11 -8 54012.60 54194.80 1194.49 o
-2 11 8 13509.00 13711.30 403.27 o
-9 11 -8 14110.90 14864.60 400.37 o
-10 12 8 29017.30 29917.50 948.23 o
-2 12 -8 29898.90 30487.40 781.23 o
-7 12 8 15987.50 15929.20 432.93 o
-5 12 -8 16156.20 16858.70 401.17 o
-4 12 8 7301.72 7537.58 239.59 o
-8 12 -8 7438.86 7822.50 242.78 o
-1 12 8 1185.53 1170.94 90.79 o
-11 12 -8 1285.84 1365.20 106.46 o
-12 13 8 23506.70 24214.30 1031.08 o
-1 13 -8 23980.40 25452.70 778.48 o
-9 13 8 25596.00 25796.20 732.35 o
-4 13 -8 26290.50 26042.80 655.73 o
-6 13 8 14099.70 14390.00 361.89 o
-7 13 -8 13967.10 14210.30 368.19 o
-3 13 8 3828.76 3871.06 163.26 o
-10 13 -8 3538.56 3414.78 163.21 o
0 13 8 2549.93 2517.38 231.99 o
-13 13 -8 2420.57 2698.86 253.90 o
-14 14 8 49217.90 43320.50 3353.28 o
0 14 -8 48350.90 48038.20 2148.57 o
-11 14 8 71283.80 66897.50 2281.97 o
-3 14 -8 72160.40 71348.30 1908.21 o
-8 14 8 49701.20 49517.50 1249.11 o
-6 14 -8 50144.10 50410.30 1183.88 o
-5 14 8 20188.10 19768.60 558.61 o
-9 14 -8 19532.60 19966.10 580.58 o
-2 14 8 605.81 603.86 81.35 o
-12 14 -8 537.89 494.32 93.86 o
-13 15 8 18888.80 20824.70 1060.66 o
-2 15 -8 18561.40 19741.90 716.44 o
-10 15 8 17174.20 17319.50 620.26 o
-5 15 -8 17784.80 19105.90 550.61 o
-7 15 8 15921.90 15987.70 463.87 o
-8 15 -8 16040.80 17473.50 527.48 o
-4 15 8 5525.79 5549.51 254.68 o
-11 15 -8 5659.40 6342.69 276.73 o
-1 15 8 1816.85 1810.58 134.70 o
-14 15 -8 2011.50 2020.85 169.19 o
-15 16 8 11666.60 12792.90 765.36 o
-1 16 -8 11675.70 12271.20 578.77 o
-12 16 8 9846.37 9389.59 473.58 o
-4 16 -8 9903.12 9911.08 423.09 o
-9 16 8 9207.21 8743.79 318.70 o
-7 16 -8 9329.55 10016.60 337.67 o
-6 16 8 1370.70 1189.83 125.25 o
-10 16 -8 1309.34 1455.89 147.15 o
-3 16 8 1883.39 1807.56 144.10 o
-13 16 -8 1866.51 2139.59 159.76 o
0 16 8 4733.50 4636.77 364.41 o
-16 16 -8 4621.26 5060.31 442.89 o
-17 17 8 26228.70 25421.60 1453.12 o
0 17 -8 27286.60 27977.60 1505.97 o
-14 17 8 46676.30 50116.50 2101.81 o
-3 17 -8 46582.00 49347.30 1807.46 o
-11 17 8 37524.50 37845.00 1283.54 o
-6 17 -8 37439.90 39582.40 1166.76 o
-8 17 8 12995.20 13253.00 481.35 o
-9 17 -8 12739.60 13297.20 506.56 o
-5 17 8 4932.31 4895.29 257.65 o
-12 17 -8 5266.02 5242.62 292.30 o
-2 17 8 7.30 6.25 68.79 <
-15 17 -8 8.11 37.52 93.81 <
-16 18 8 5170.55 5220.41 342.58 o
-2 18 -8 4877.10 4772.73 358.19 o
-13 18 8 6106.63 5772.30 374.33 o
-5 18 -8 5811.44 6314.68 393.10 o
-10 18 8 7965.21 8451.86 406.52 o
-8 18 -8 7731.93 8856.38 371.77 o
-7 18 8 6559.30 6514.35 321.00 o
-11 18 -8 6148.90 6829.46 352.33 o
-4 18 8 2237.11 2174.85 172.36 o
-14 18 -8 1920.06 1907.88 191.10 o
-1 18 8 2995.27 2703.44 206.99 o
-17 18 -8 3142.85 3196.29 250.94 o
-18 19 8 6133.30 6497.00 383.84 o
-1 19 -8 6304.78 6734.13 446.84 o
-15 19 8 4598.16 4498.20 310.98 o
-4 19 -8 4344.48 4368.31 339.17 o
-12 19 8 1895.13 1810.73 178.57 o
-7 19 -8 1635.06 1390.58 165.99 o
-9 19 8 508.10 469.27 118.88 o
-10 19 -8 555.62 450.52 118.89 o
-6 19 8 2768.08 2527.18 203.80 o
-13 19 -8 2940.66 3098.36 238.34 o
-3 19 8 7219.67 7634.24 374.78 o
-16 19 -8 7492.64 8225.41 434.74 o
0 19 8 8555.14 8708.25 570.88 o
-19 19 -8 8504.77 9256.58 668.62 o
-20 20 8 6993.12 6515.76 570.01 o
0 20 -8 6780.79 6712.72 654.90 o
-17 20 8 12442.80 13722.20 595.24 o
-3 20 -8 12273.40 12925.30 667.95 o
-14 20 8 17783.30 17620.70 700.12 o
-6 20 -8 17845.70 20451.10 824.28 o
-11 20 8 7530.83 7207.92 535.55 o
-9 20 -8 7475.64 7632.79 453.62 o
-8 20 8 2803.35 2423.84 244.58 o
-12 20 -8 2840.84 2662.25 253.99 o
-5 20 8 74.24 59.42 90.69 <
-15 20 -8 119.24 190.76 112.58 <
-2 20 8 2568.47 2451.61 203.78 o
-18 20 -8 2466.77 2319.70 219.43 o
-19 21 8 1062.96 829.53 156.51 o
-2 21 -8 1242.73 1308.70 212.90 o
-16 21 8 1400.90 1221.22 169.09 o
-5 21 -8 1315.87 1462.21 212.91 o
-13 21 8 1753.52 1516.09 200.48 o
-8 21 -8 1910.80 1657.31 256.90 o
-10 21 8 4234.34 3306.64 329.72 o
-11 21 -8 4466.45 3744.00 310.95 o
-7 21 8 3776.50 3587.67 338.99 o
-14 21 -8 3803.86 4202.99 329.58 o
-4 21 8 4131.52 4012.97 270.04 o
-17 21 -8 3944.20 3776.76 332.78 o
-1 21 8 3359.68 3216.08 263.56 o
-20 21 -8 3288.77 2892.70 326.29 o
-18 22 8 2498.16 1877.80 194.36 o
-4 22 -8 2523.59 2529.92 297.82 o
-15 22 8 1710.53 1434.61 197.34 o
-7 22 -8 1870.35 1550.76 275.69 o
-12 22 8 1311.86 945.58 216.04 o
-10 22 -8 1282.47 1180.37 253.61 o
-9 22 8 409.28 422.31 184.56 <
-13 22 -8 386.80 200.20 140.76 <
-6 22 8 4997.43 4852.55 433.71 o
-16 22 -8 5085.43 4488.38 352.03 o
-3 22 8 7948.87 8744.48 570.57 o
-19 22 -8 7779.00 8418.35 702.84 o
-17 23 8 2025.67 1829.89 288.27 o
-6 23 -8 2020.44 1394.34 300.80 o
-14 23 8 1737.19 1647.67 266.26 o
-9 23 -8 1808.51 1798.16 322.67 o
-11 23 8 814.00 1026.47 272.27 o
-12 23 -8 755.14 675.93 194.02 o
-8 23 8 570.47 400.48 184.59 <
-15 23 -8 565.29 788.43 187.72 o
-5 23 8 1539.53 1268.38 422.80 <
-18 23 -8 1573.06 1556.57 331.98 o
-16 24 8 355.33 115.74 328.44 <
-8 24 -8 413.15 150.15 325.33 <
-13 24 8 572.93 876.04 369.19 <
-11 24 -8 553.74 391.08 284.71 <
-10 24 8 1224.29 1318.07 388.22 o
-14 24 -8 1342.32 1236.82 319.38 o
-1 2 9 212359.00 225890.00 8637.43 o
-1 2 -9 213439.00 219311.00 8667.16 o
-2 4 9 174050.00 178533.00 6948.58 o
-2 4 -9 173520.00 178167.00 6429.87 o
-4 5 9 123626.00 121172.00 5290.60 o
-1 5 -9 122927.00 125359.00 4486.32 o
-1 5 9 116935.00 118000.00 5707.12 o
-4 5 -9 117252.00 119333.00 4037.45 o
-3 6 9 799.69 942.34 125.23 o
-3 6 -9 695.43 613.52 78.26 o
-5 7 9 83215.60 82803.50 3222.25 o
-2 7 -9 83730.20 81014.20 2500.44 o
-2 7 9 89069.60 86430.60 3390.33 o
-5 7 -9 87610.40 85559.70 2396.67 o
-7 8 9 43156.90 43007.40 1281.04 o
-1 8 -9 43355.40 42737.10 1139.35 o
-4 8 9 49222.60 48952.20 1810.82 o
-4 8 -9 48410.60 48075.80 1325.91 o
-1 8 9 28800.90 28158.50 859.58 o
-7 8 -9 29357.60 30323.60 749.81 o
-6 9 9 1319.98 1230.92 87.70 o
-3 9 -9 1060.81 992.56 72.02 o
-3 9 9 2886.38 2777.42 150.64 o
-6 9 -9 3263.42 3532.30 141.29 o
-8 10 9 12894.10 13509.20 412.64 o
-2 10 -9 14163.10 14231.40 381.45 o
-5 10 9 30119.70 30139.50 719.38 o
-5 10 -9 30496.30 29997.00 684.03 o
-2 10 9 25914.40 25280.50 670.11 o
-8 10 -9 25836.00 26589.40 657.16 o
-10 11 9 4932.22 5212.27 229.49 o
-1 11 -9 4463.59 4530.93 204.24 o
-7 11 9 4371.86 4305.23 163.41 o
-4 11 -9 3925.46 3973.25 157.04 o
-4 11 9 5830.74 5684.76 226.63 o
-7 11 -9 6596.69 6912.06 204.78 o
-1 11 9 4773.31 4507.30 188.59 o
-10 11 -9 4700.56 5085.25 210.58 o
-9 12 9 4008.86 4117.05 185.28 o
-3 12 -9 3939.31 4063.36 178.99 o
-6 12 9 7798.93 7723.30 230.22 o
-6 12 -9 7566.34 7661.45 227.01 o
-3 12 9 3012.37 2641.38 144.30 o
-9 12 -9 3528.39 3358.48 153.80 o
-11 13 9 2072.51 1836.25 131.61 o
-2 13 -9 2043.32 2108.80 150.40 o
-8 13 9 4722.67 4682.22 179.12 o
-5 13 -9 4683.10 5049.68 201.11 o
-5 13 9 8577.81 8414.64 265.03 o
-8 13 -9 8386.47 8561.22 274.44 o
-2 13 9 2215.46 2059.03 131.63 o
-11 13 -9 2060.02 2002.30 144.14 o
-13 14 9 1261.17 1120.83 134.62 o
-1 14 -9 1154.09 1092.54 118.96 o
-10 14 9 1937.49 2039.61 131.59 o
-4 14 -9 1833.53 1845.16 134.71 o
-7 14 9 1020.65 870.18 81.38 o
-7 14 -9 1108.38 945.39 81.39 o
-4 14 9 1366.12 1252.49 112.72 o
-10 14 -9 1328.47 1258.70 112.72 o
-1 14 9 2189.81 2284.46 153.55 o
-13 14 -9 2215.61 2441.21 181.76 o
-12 15 9 6068.54 6857.53 324.00 o
-3 15 -9 6480.95 6970.45 333.57 o
-9 15 9 9775.61 9901.67 363.10 o
-6 15 -9 9548.14 9814.22 363.02 o
-6 15 9 13310.30 12632.50 459.42 o
-9 15 -9 12990.00 13110.00 462.45 o
-3 15 9 2788.46 2520.96 163.05 o
-12 15 -9 2511.02 2416.82 175.54 o
-14 16 9 1501.35 1449.89 169.10 o
-2 16 -9 1716.71 1556.69 169.14 o
-11 16 9 1365.89 1377.68 128.38 o
-5 16 -9 1328.25 1264.92 128.37 o
-8 16 9 2393.22 2259.82 156.71 o
-8 16 -9 2184.77 2416.04 172.35 o
-5 16 9 51.74 65.67 65.67 <
-11 16 -9 6.27 68.79 68.79 <
-2 16 9 204.31 156.38 71.93 <
-14 16 -9 197.01 281.48 87.57 o
-16 17 9 4622.70 4963.10 345.53 o
-1 17 -9 4685.75 5067.08 370.68 o
-13 17 9 8187.05 8775.22 438.13 o
-4 17 -9 7480.04 8829.04 434.68 o
-10 17 9 13967.80 14082.90 481.79 o
-7 17 -9 14126.00 14455.90 481.86 o
-7 17 9 7347.68 6824.83 362.18 o
-10 17 -9 7471.12 7266.62 359.08 o
-4 17 9 8768.13 9070.33 391.07 o
-13 17 -9 8850.66 9414.84 416.33 o
-1 17 9 3487.07 3878.19 232.19 o
-16 17 -9 3559.42 3806.29 254.17 o
-15 18 9 5164.05 4893.51 323.72 o
-3 18 -9 5120.56 5270.43 377.13 o
-12 18 9 7171.24 7529.17 384.17 o
-6 18 -9 7280.61 7489.03 371.62 o
-9 18 9 14201.10 13880.20 529.47 o
-9 18 -9 14420.10 14384.20 567.63 o
-6 18 9 14742.50 15435.80 536.10 o
-12 18 -9 14860.20 15970.50 624.99 o
-3 18 9 2462.30 2328.96 172.40 o
-15 18 -9 2174.56 1920.92 188.02 o
-17 19 9 2513.31 2210.05 235.11 o
-2 19 -9 2766.40 2640.19 279.07 o
-14 19 9 547.42 466.16 128.27 o
-5 19 -9 548.05 366.05 137.66 <
-11 19 9 160.24 190.77 100.08 <
-8 19 -9 163.19 128.22 96.95 <
-8 19 9 5.17 87.55 84.43 <
-11 19 -9 12.01 100.06 90.68 <
-5 19 9 526.52 575.65 112.63 o
-14 19 -9 552.59 700.81 137.66 o
-2 19 9 1032.45 1252.06 153.38 o
-17 19 -9 1267.09 1192.87 172.20 o
-19 20 9 3631.61 3970.19 316.99 o
-1 20 -9 3369.02 3620.85 332.59 o
-16 20 9 4867.41 4493.46 314.23 o
-4 20 -9 5061.10 5220.35 408.58 o
-13 20 9 16789.20 16748.90 709.00 o
-7 20 -9 17217.20 18756.60 817.44 o
-10 20 9 14760.20 14969.70 764.67 o
-10 20 -9 14898.20 15235.10 650.53 o
-7 20 9 9412.62 9226.04 460.83 o
-13 20 -9 8940.40 9354.24 466.92 o
-4 20 9 9652.64 9557.40 486.24 o
-16 20 -9 9878.34 11568.10 558.98 o
-1 20 9 4107.53 3463.43 276.32 o
-19 20 -9 3923.75 3817.54 301.39 o
-18 21 9 2505.53 2028.28 216.31 o
-3 21 -9 2528.06 2291.67 263.34 o
-15 21 9 8524.19 9783.52 517.25 o
-6 21 -9 8181.56 9931.49 567.51 o
-12 21 9 12315.60 13362.60 762.94 o
-9 21 -9 12091.00 12255.00 734.29 o
-9 21 9 16145.80 15253.30 784.91 o
-12 21 -9 16595.80 16624.00 797.97 o
-6 21 9 8175.90 8061.80 450.86 o
-15 21 -9 8415.91 8129.97 444.66 o
-3 21 9 1260.60 1058.25 172.20 o
-18 21 -9 1321.75 1130.33 191.00 o
-17 22 9 589.91 725.88 143.92 o
-5 22 -9 556.80 622.61 181.46 o
-14 22 9 503.42 409.83 150.17 <
-8 22 -9 457.58 459.87 203.34 <
-11 22 9 56.54 -62.54 156.35 <
-11 22 -9 61.04 187.62 159.48 <
-8 22 9 492.28 447.37 187.71 <
-14 22 -9 461.19 369.15 137.65 <
-5 22 9 936.73 1042.25 178.40 o
-17 22 -9 986.37 1374.09 209.71 o
-16 23 9 8848.01 9569.61 993.88 o
-7 23 -9 8716.97 9448.47 826.54 o
-13 23 9 12769.80 12550.30 741.23 o
-10 23 -9 12933.90 10350.50 966.30 o
-10 23 9 10678.40 11269.00 885.08 o
-13 23 -9 10585.30 9055.43 638.46 o
-7 23 9 9469.89 10728.00 991.34 o
-16 23 -9 9299.09 9665.52 893.32 o
-15 24 9 10726.40 11585.30 2487.75 o
-9 24 -9 10691.40 15397.00 2866.98 o
-12 24 9 11900.10 13054.90 1642.55 o
-12 24 -9 11756.40 10591.20 1601.18 o
-9 24 9 7926.52 2433.46 1308.14 <
-1 1 10 9626.65 11509.90 679.86 o
0 1 -10 9920.50 9465.37 835.93 o
0 2 10 15775.30 17795.90 1202.64 o
-2 2 -10 15309.80 15388.80 993.45 o
-2 3 10 387.62 466.19 71.96 o
-1 3 -10 443.37 472.49 81.36 o
-4 4 10 22907.40 26042.00 1439.23 o
0 4 -10 22292.90 23530.70 1250.53 o
-1 4 10 10053.10 10483.60 587.36 o
-3 4 -10 10200.20 10508.20 419.18 o
-3 5 10 26455.50 28100.20 1390.39 o
-2 5 -10 25709.70 26967.20 1051.43 o
0 5 10 46006.80 46614.20 2654.82 o
-5 5 -10 47343.20 46560.10 1885.36 o
-5 6 10 2044.49 2138.55 153.65 o
-1 6 -10 2191.90 2154.66 119.18 o
-2 6 10 5935.81 6274.22 327.90 o
-4 6 -10 5673.50 5417.82 220.62 o
-7 7 10 24390.10 25277.80 1118.52 o
0 7 -10 22716.50 23148.00 884.62 o
-4 7 10 17816.70 19025.50 669.08 o
-3 7 -10 18332.90 18967.80 544.59 o
-1 7 10 20077.40 19953.40 644.90 o
-6 7 -10 20279.80 20481.60 548.79 o
-6 8 10 17069.90 17338.40 510.98 o
-2 8 -10 16875.60 17251.20 443.81 o
-3 8 10 70951.00 68886.50 2074.36 o
-5 8 -10 71639.10 71449.90 1540.81 o
0 8 10 85440.30 78880.60 3240.35 o
-8 8 -10 85715.90 84545.80 2672.95 o
-8 9 10 349.06 425.43 68.82 o
-1 9 -10 295.20 212.70 50.05 o
-5 9 10 5376.81 5372.35 214.01 o
-4 9 -10 5754.98 5913.21 185.77 o
-2 9 10 24897.80 24264.40 675.98 o
-7 9 -10 24880.00 25805.70 592.27 o
-10 10 10 8570.25 8959.64 454.45 o
0 10 -10 8256.43 8707.39 378.58 o
-7 10 10 16795.10 17186.30 493.95 o
-3 10 -10 17412.70 17829.50 440.08 o
-4 10 10 23376.50 23195.50 626.12 o
-6 10 -10 24534.70 24431.00 549.77 o
-1 10 10 32077.20 30155.80 844.95 o
-9 10 -10 30262.30 30941.30 817.47 o
-9 11 10 6747.81 6963.78 289.76 o
-2 11 -10 7115.26 6944.45 261.52 o
-6 11 10 54457.90 53237.60 1199.55 o
-5 11 -10 53268.00 51931.50 1297.38 o
-3 11 10 78553.40 72093.20 2031.42 o
-8 11 -10 78098.00 76969.50 1833.90 o
0 11 10 84941.50 76958.20 3181.66 o
-11 11 -10 84626.70 81859.70 3180.73 o
-11 12 10 147.54 187.64 68.80 <
-1 12 -10 114.64 206.40 71.93 <
-8 12 10 2995.50 2813.72 150.57 o
-4 12 -10 3213.32 3134.39 156.88 o
-5 12 10 13034.80 13051.70 380.42 o
-7 12 -10 13729.00 14603.00 368.01 o
-2 12 10 17412.60 16492.30 509.32 o
-10 12 -10 17051.20 17848.20 499.58 o
-13 13 10 344.49 347.20 140.76 <
0 13 -10 290.29 181.41 106.35 <
-10 13 10 4015.68 4213.43 226.06 o
-3 13 -10 4014.83 4313.90 222.92 o
-7 13 10 8711.04 8329.21 271.33 o
-6 13 -10 8656.15 8940.78 274.47 o
-4 13 10 12703.90 12122.10 405.44 o
-9 13 -10 12604.60 12953.90 402.23 o
-1 13 10 16712.20 16534.00 562.68 o
-12 13 -10 17145.20 17984.90 610.63 o
-12 14 10 1885.66 1704.21 162.90 o
-2 14 -10 1934.86 1898.53 159.78 o
-9 14 10 17400.20 17733.20 601.29 o
-5 14 -10 16702.00 17934.10 565.90 o
-6 14 10 38749.20 36910.70 1130.32 o
-8 14 -10 39215.20 39731.40 1101.57 o
-3 14 10 56110.70 52755.40 1768.52 o
-11 14 -10 56911.50 58116.90 1690.58 o
0 14 10 66302.10 64176.10 2725.30 o
-14 14 -10 66719.00 69772.50 2975.99 o
-14 15 10 1154.53 1092.52 134.61 o
-1 15 -10 1255.22 1330.57 144.01 o
-11 15 10 3869.47 3829.38 235.41 o
-4 15 -10 3944.65 4174.96 251.12 o
-8 15 10 8516.95 8491.81 318.48 o
-7 15 -10 8041.94 8957.48 349.85 o
-5 15 10 11231.00 10512.20 417.33 o
-10 15 -10 11484.30 11906.30 423.76 o
-2 15 10 12402.50 11976.10 446.25 o
-13 15 -10 12490.50 12622.80 468.45 o
-16 16 10 4234.51 4794.77 474.14 o
0 16 -10 4319.99 4220.50 427.08 o
-13 16 10 1698.07 1703.87 169.13 o
-3 16 -10 1619.59 1960.55 181.65 o
-10 16 10 1410.18 1362.08 140.90 o
-6 16 -10 1324.68 1599.92 144.02 o
-7 16 10 5879.24 5613.76 314.50 o
-9 16 -10 5717.28 5389.62 295.58 o
-4 16 10 10182.70 10080.70 426.35 o
-12 16 -10 10479.50 11012.30 448.58 o
-1 16 10 7831.87 7480.49 359.21 o
-15 16 -10 8066.88 8774.41 387.66 o
-15 17 10 224.11 93.83 103.21 <
-2 17 -10 255.14 247.09 112.60 <
-12 17 10 1472.14 1374.69 153.44 o
-5 17 -10 1523.86 1434.26 162.84 o
-9 17 10 14615.40 13948.90 545.53 o
-8 17 -10 15334.80 17154.70 571.29 o
-6 17 10 24932.20 24423.60 826.40 o
-11 17 -10 24897.10 26139.60 880.82 o
-3 17 10 30151.60 29672.70 1001.22 o
-14 17 -10 28928.60 31831.50 1000.06 o
0 17 10 18571.80 17519.50 923.59 o
-17 17 -10 19235.80 22868.80 1035.73 o
-17 18 10 1920.48 1801.44 206.77 o
-1 18 -10 1876.79 2164.76 253.76 o
-14 18 10 4602.93 4388.23 307.84 o
-4 18 -10 4829.20 5240.67 348.75 o
-11 18 10 5673.16 6269.92 314.44 o
-7 18 -10 5446.69 5639.79 292.36 o
-8 18 10 7695.02 7281.04 384.37 o
-10 18 -10 7387.85 8094.62 393.71 o
-5 18 10 5695.00 5905.41 320.74 o
-13 18 -10 5626.78 6326.35 361.60 o
-2 18 10 5413.69 4781.78 295.52 o
-16 18 -10 5369.79 5825.28 326.95 o
-19 19 10 9150.56 9124.19 719.58 o
0 19 -10 9196.37 9200.36 770.11 o
-16 19 10 4946.88 5197.68 364.53 o
-3 19 -10 5046.86 5512.48 408.57 o
-13 19 10 1090.45 1051.78 156.51 o
-6 19 -10 1048.21 735.59 159.64 o
-10 19 10 588.96 513.11 128.28 o
-9 19 -10 599.29 672.68 137.66 o
-7 19 10 4533.14 4827.73 298.40 o
-12 19 -10 4560.40 5148.25 304.69 o
-4 19 10 4878.06 4546.78 282.80 o
-15 19 -10 4732.99 4929.41 336.17 o
-1 19 10 2709.36 2555.44 228.89 o
-18 19 -10 2486.99 2595.62 247.65 o
-18 20 10 1744.97 1437.80 200.48 o
-2 20 -10 1610.34 1534.70 231.77 o
-15 20 10 98.89 146.98 109.45 <
-5 20 -10 98.47 134.47 131.34 <
-12 20 10 1636.70 1215.23 175.39 o
-8 20 -10 1560.00 1121.18 159.72 o
-9 20 10 7073.45 6515.48 340.10 o
-11 20 -10 7110.39 7369.15 396.80 o
-6 20 10 9850.98 10263.30 498.96 o
-14 20 -10 9477.24 10723.60 552.43 o
-3 20 10 9513.83 9313.61 476.73 o
-17 20 -10 9839.44 10778.90 549.53 o
0 20 10 5495.19 6109.70 619.46 o
-20 20 -10 5434.50 6480.35 852.10 o
-20 21 10 2618.36 2238.57 567.48 o
-1 21 -10 2624.78 2376.54 410.72 o
-17 21 10 3161.85 3303.26 288.60 o
-4 21 -10 2916.00 2527.79 282.26 o
-14 21 10 2226.38 2635.67 260.12 o
-7 21 -10 2360.15 2090.64 269.56 o
-11 21 10 1857.72 1892.20 225.56 o
-10 21 -10 1902.20 1456.81 209.91 o
-8 21 10 1480.59 1302.74 169.11 o
-13 21 -10 1731.30 1594.39 191.08 o
-5 21 10 1370.22 1196.14 165.96 o
-16 21 -10 1310.93 1133.45 184.73 o
-2 21 10 822.65 647.81 209.68 o
-19 21 -10 881.15 773.04 253.51 o
-19 22 10 8783.63 9527.75 2135.86 o
-16 22 10 3626.62 3690.87 295.02 o
-6 22 -10 3573.46 3533.76 348.35 o
-13 22 10 637.16 522.53 225.28 <
-9 22 -10 609.73 262.82 253.44 <
-10 22 10 221.96 303.38 187.66 <
-12 22 -10 155.82 212.66 143.86 <
-7 22 10 1156.44 926.66 190.97 o
-15 22 -10 1326.80 1205.49 203.52 o
-4 22 10 2196.86 1538.75 369.80 o
-18 22 -10 2128.63 1905.29 332.17 o
-15 23 10 98.11 172.00 234.54 <
-8 23 -10 135.60 34.40 203.28 <
-12 23 10 298.05 319.04 275.25 <
-11 23 -10 295.60 437.90 222.08 <
-9 23 10 1782.18 1503.65 328.92 o
-14 23 -10 1843.39 942.97 281.95 o
-1 3 11 16927.30 19107.70 977.01 o
-2 3 -11 17513.00 18174.50 801.49 o
-3 4 11 11411.70 12653.00 587.70 o
-1 4 -11 11997.40 12068.60 438.74 o
-2 5 11 7430.11 8388.66 341.11 o
-3 5 -11 7014.61 7099.24 271.47 o
-4 6 11 39777.80 40958.10 1104.75 o
-2 6 -11 37482.60 37937.80 927.87 o
-1 6 11 12106.80 12647.70 412.80 o
-5 6 -11 12952.90 13497.20 327.42 o
-6 7 11 50484.20 49270.70 1327.51 o
-1 7 -11 51246.60 50512.60 1209.09 o
-3 7 11 16092.40 16197.70 510.36 o
-4 7 -11 15611.70 15694.00 388.92 o
-5 8 11 249.41 165.77 50.05 o
-3 8 -11 300.10 312.80 50.05 o
-2 8 11 6119.09 6242.42 245.66 o
-6 8 -11 5918.44 6130.74 201.52 o
-7 9 11 63532.00 63786.80 1785.35 o
-2 9 -11 61551.50 61690.30 1457.44 o
-4 9 11 37952.30 37196.40 1021.27 o
-5 9 -11 38594.30 38424.00 839.14 o
-1 9 11 9675.65 9184.61 322.38 o
-8 9 -11 10375.20 10779.50 303.65 o
-9 10 11 54259.10 53640.60 1669.86 o
-1 10 -11 56271.20 56978.00 1355.12 o
-6 10 11 39465.20 39509.00 985.28 o
-4 10 -11 41420.50 40877.80 964.41 o
-3 10 11 19240.70 19281.10 545.96 o
-7 10 -11 18068.30 19454.70 487.88 o
-8 11 11 3520.61 3766.25 188.31 o
-3 11 -11 3709.82 3594.34 175.79 o
-5 11 11 2455.52 2225.93 125.40 o
-6 11 -11 2202.36 2328.76 122.24 o
-2 11 11 2263.10 2156.40 134.77 o
-9 11 -11 1772.85 1773.11 125.31 o
-10 12 11 53945.90 53229.30 1681.24 o
-2 12 -11 53379.60 52752.80 1485.95 o
-7 12 11 43501.00 44447.90 1071.51 o
-5 12 -11 42483.10 42488.10 1099.81 o
-4 12 11 15312.50 15023.50 447.85 o
-8 12 -11 16450.00 17250.80 451.54 o
-1 12 11 1747.93 1625.72 150.35 o
-11 12 -11 1742.46 1863.77 147.22 o
-12 13 11 49740.20 49720.30 1731.45 o
-1 13 -11 49585.40 52569.00 1462.34 o
-9 13 11 39544.90 41528.00 1355.45 o
-4 13 -11 39185.20 42183.10 1254.25 o
-6 13 11 20493.10 20467.80 663.85 o
-7 13 -11 20155.30 21686.10 606.20 o
-3 13 11 4879.25 4402.20 238.81 o
-10 13 -11 4896.55 4905.03 257.66 o
-11 14 11 117.28 -9.38 71.93 <
-3 14 -11 77.71 6.25 68.80 <
-8 14 11 420.24 387.90 84.46 o
-6 14 -11 523.85 456.76 90.73 o
-5 14 11 1569.24 1377.98 134.67 o
-9 14 -11 1580.63 1778.87 147.20 o
-2 14 11 1317.68 1130.27 128.37 o
-12 14 -11 1325.52 1371.37 137.76 o
-13 15 11 32758.20 35642.70 1180.99 o
-2 15 -11 33207.20 35089.50 1139.52 o
-10 15 11 26004.20 27941.30 923.47 o
-5 15 -11 26188.40 29671.50 955.70 o
-7 15 11 12799.30 11686.70 455.94 o
-8 15 -11 12599.20 13150.10 459.02 o
-4 15 11 2028.43 1901.81 159.79 o
-11 15 -11 1951.55 2274.48 178.57 o
-1 15 11 387.94 325.32 93.84 o
-14 15 -11 345.16 344.08 100.09 o
-15 16 11 26788.80 27362.70 1014.15 o
-1 16 -11 26772.10 28511.20 908.22 o
-12 16 11 29282.20 31227.00 1080.67 o
-4 16 -11 28280.90 33119.00 1118.21 o
-9 16 11 21749.90 21619.20 673.80 o
-7 16 -11 21591.30 21759.60 740.75 o
-6 16 11 9727.00 9343.87 410.37 o
-10 16 -11 10278.80 10230.10 401.12 o
-3 16 11 811.45 791.73 122.05 o
-13 16 -11 781.90 732.26 115.78 o
-14 17 11 163.50 21.89 87.57 <
-3 17 -11 120.42 6.25 93.82 <
-11 17 11 53.75 -87.56 81.30 <
-6 17 -11 110.94 106.33 87.56 <
-8 17 11 1454.66 1399.72 153.44 o
-9 17 -11 1415.48 1584.41 165.96 o
-5 17 11 4085.87 4156.69 251.16 o
-12 17 -11 3901.79 4328.58 266.81 o
-2 17 11 4233.05 3994.16 244.93 o
-15 17 -11 4229.85 4810.56 279.46 o
-16 18 11 12428.60 14531.70 649.02 o
-2 18 -11 11981.10 13446.10 683.54 o
-13 18 11 13030.50 12998.80 566.96 o
-5 18 -11 13733.20 16082.20 576.85 o
-10 18 11 9021.81 8858.67 429.05 o
-8 18 -11 9364.28 9836.80 432.35 o
-7 18 11 1744.72 1428.33 153.48 o
-11 18 -11 1525.37 1528.23 162.84 o
-4 18 11 282.73 162.64 93.83 <
-14 18 -11 315.96 325.30 106.35 o
-1 18 11 3634.33 3734.68 244.79 o
-17 18 -11 3537.76 3841.01 257.32 o
-18 19 11 7834.36 8390.27 485.39 o
-1 19 -11 7905.18 8179.68 510.64 o
-15 19 11 10449.60 10724.50 556.13 o
-4 19 -11 11019.60 11751.80 610.19 o
-12 19 11 10140.70 11083.50 546.44 o
-7 19 -11 9925.91 10575.90 549.48 o
-9 19 11 7349.91 7751.76 374.83 o
-10 19 -11 7605.14 7939.61 422.19 o
-6 19 11 3271.30 2603.84 207.05 o
-13 19 -11 3425.64 3448.27 257.29 o
-3 19 11 940.77 932.70 147.10 o
-16 19 -11 807.74 691.61 159.60 o
-17 20 11 235.03 234.57 134.49 <
-3 20 -11 286.38 62.56 147.01 <
-14 20 11 544.07 603.82 159.56 o
-6 20 -11 573.70 876.04 175.21 o
-11 20 11 581.17 366.06 147.05 <
-9 20 -11 549.80 506.84 137.66 o
-8 20 11 1087.82 973.53 137.74 o
-12 20 -11 1014.75 1123.71 153.38 o
-5 20 11 3164.88 2929.91 235.27 o
-15 20 -11 3467.77 3574.08 288.69 o
-2 20 11 5971.56 5407.94 349.20 o
-18 20 -11 6132.65 6705.19 459.39 o
-19 21 11 3461.68 3872.23 712.32 o
-2 21 -11 3401.18 3278.96 567.93 o
-16 21 11 6377.00 7235.58 453.21 o
-5 21 -11 6147.59 6415.80 459.39 o
-13 21 11 5473.52 5156.70 405.62 o
-8 21 -11 5384.27 5322.87 446.45 o
-10 21 11 573.46 419.25 131.41 o
-11 21 -11 516.41 409.84 147.04 <
-7 21 11 749.69 544.49 125.17 o
-14 21 -11 664.06 672.74 147.06 o
-4 21 11 2762.00 2317.31 238.32 o
-17 21 -11 2505.77 2156.82 279.01 o
-4 22 -11 2281.26 3287.75 1285.01 <
-15 22 11 2095.66 2155.92 325.89 o
-7 22 -11 2106.93 2209.21 335.30 o
-12 22 11 2018.07 1958.34 341.54 o
-10 22 -11 1860.79 1676.07 244.36 o
-9 22 11 1470.35 1102.32 197.29 o
-13 22 -11 1385.22 1424.75 194.14 o
-6 22 11 528.98 312.86 187.71 <
-16 22 -11 525.20 600.69 240.90 <
-14 23 11 78.05 68.80 325.22 <
-9 23 -11 113.94 115.71 322.11 <
-11 23 11 742.03 469.39 328.57 <
-12 23 -11 776.15 582.06 256.61 <
-8 23 11 1620.10 1628.67 491.73 o
-15 23 -11 1633.49 949.03 707.86 <
0 0 12 121664.00 133648.00 8573.91 o
0 0 -12 113166.00 107973.00 11877.50 o
-1 2 12 58124.30 69481.20 1891.26 o
-1 2 -12 59439.10 59893.20 2630.48 o
-3 3 12 148126.00 152123.00 7208.46 o
0 3 -12 150343.00 147737.00 5473.40 o
0 3 12 159181.00 162725.00 6849.03 o
-3 3 -12 157489.00 156146.00 6200.50 o
-2 4 12 29992.90 32600.80 974.42 o
-2 4 -12 29215.10 29528.80 807.99 o
-4 5 12 19433.40 20775.10 563.65 o
-1 5 -12 19595.70 19152.00 486.89 o
-1 5 12 23292.70 24324.80 659.60 o
-4 5 -12 22569.30 22021.10 536.86 o
-6 6 12 73710.10 73319.90 2679.95 o
0 6 -12 73999.90 70699.20 2354.60 o
-3 6 12 94876.30 94928.30 2383.49 o
-3 6 -12 97010.70 94638.70 2175.88 o
0 6 12 82285.70 84831.80 2930.67 o
-6 6 -12 83246.80 85086.00 2491.02 o
-5 7 12 7391.39 7377.04 283.85 o
-2 7 -12 7103.94 7056.15 236.47 o
-2 7 12 12429.70 12933.60 374.33 o
-5 7 -12 12047.00 11554.90 291.73 o
-7 8 12 14646.20 15332.60 457.59 o
-1 8 -12 14680.80 14595.90 413.12 o
-4 8 12 15684.90 15496.40 448.76 o
-4 8 -12 15559.80 15427.40 378.68 o
-1 8 12 12000.00 12084.90 380.23 o
-7 8 -12 12340.40 12729.70 329.65 o
-9 9 12 14541.60 15686.80 685.76 o
0 9 -12 13380.30 13074.10 542.24 o
-6 9 12 24444.20 24174.00 699.86 o
-3 9 -12 23750.50 22921.20 609.52 o
-3 9 12 21980.90 21719.00 624.39 o
-6 9 -12 21309.10 21393.20 521.55 o
0 9 12 13369.70 12674.40 567.60 o
-9 9 -12 13119.30 12855.00 504.05 o
-8 10 12 2313.21 2294.45 153.59 o
-2 10 -12 2527.03 2254.21 134.81 o
-5 10 12 1741.76 1538.16 112.78 o
-5 10 -12 1766.66 1669.78 103.38 o
-2 10 12 2898.85 2584.41 153.68 o
-8 10 -12 3128.66 3137.17 153.72 o
-10 11 12 2003.75 2271.60 178.60 o
-1 11 -12 2015.45 1867.43 137.86 o
-7 11 12 13187.00 13365.90 437.39 o
-4 11 -12 13303.10 13190.00 389.90 o
-4 11 12 9430.00 9222.79 328.37 o
-7 11 -12 9188.72 9233.14 306.19 o
-1 11 12 1674.86 1475.27 140.95 o
-10 11 -12 1717.10 1584.96 144.09 o
-12 12 12 1108.16 1245.87 209.73 o
0 12 -12 1290.01 1271.14 178.46 o
-9 12 12 4059.75 4326.47 263.73 o
-3 12 -12 4235.23 4374.33 248.08 o
-6 12 12 4788.78 4732.01 226.23 o
-6 12 -12 4898.13 5122.20 223.11 o
-3 12 12 3870.35 3795.15 232.29 o
-9 12 -12 3683.10 3841.51 222.83 o
0 12 12 933.37 713.59 159.62 o
-12 12 -12 1104.18 1101.87 169.04 o
-11 13 12 857.49 613.39 115.79 o
-2 13 -12 888.61 848.13 112.67 o
-8 13 12 2117.63 2055.57 166.07 o
-5 13 -12 2200.49 2190.50 175.49 o
-5 13 12 2457.33 2140.90 169.27 o
-8 13 -12 2614.25 2834.08 191.24 o
-2 13 12 1302.08 936.14 125.24 o
-11 13 -12 1208.49 1258.51 128.36 o
-13 14 12 95.03 -28.14 78.18 <
-1 14 -12 149.43 193.90 81.31 <
-10 14 12 2315.98 2231.43 194.31 o
-4 14 -12 2141.79 2346.98 184.88 o
-7 14 12 4159.34 4053.40 232.34 o
-7 14 -12 4417.33 4299.39 244.96 o
-4 14 12 3909.54 3292.74 210.31 o
-10 14 -12 3813.30 3713.00 238.54 o
-1 14 12 573.54 513.10 109.50 o
-13 14 -12 510.10 663.23 112.62 o
-15 15 12 1645.62 1453.24 241.16 o
0 15 -12 1354.18 1255.56 219.18 o
-12 15 12 564.47 682.04 128.27 o
-3 15 -12 665.39 757.20 115.77 o
-9 15 12 195.61 153.25 84.44 <
-6 15 -12 149.71 140.73 84.44 <
-6 15 12 53.91 53.16 71.92 <
-9 15 -12 42.28 43.78 71.92 <
-3 15 12 367.38 347.21 93.84 o
-12 15 -12 426.48 425.43 109.49 o
0 15 12 1521.90 1324.67 203.55 o
-15 15 -12 1500.24 1988.53 244.26 o
-14 16 12 2098.10 1914.50 188.00 o
-2 16 -12 2098.26 1807.97 178.60 o
-11 16 12 6285.46 6487.50 358.67 o
-5 16 -12 6482.28 6476.16 355.59 o
-8 16 12 12222.80 12113.20 458.83 o
-8 16 -12 12319.20 13835.90 515.84 o
-5 16 12 5841.16 5553.81 295.62 o
-11 16 -12 5774.10 5496.85 314.46 o
-2 16 12 2385.38 2153.25 191.19 o
-14 16 -12 2490.45 2868.17 213.15 o
-16 17 12 566.78 788.43 159.56 o
-1 17 -12 499.11 472.40 140.78 o
-13 17 12 2015.62 2158.74 203.65 o
-4 17 -12 1961.46 2136.70 197.38 o
-10 17 12 4184.14 3956.17 263.74 o
-7 17 -12 4194.20 4113.20 257.47 o
-7 17 12 3272.40 2860.95 213.32 o
-10 17 -12 3312.79 3410.06 232.15 o
-4 17 12 2475.88 2059.42 181.81 o
-13 17 -12 2612.65 2344.99 197.51 o
-1 17 12 337.26 262.75 106.35 <
-16 17 -12 333.53 306.54 109.48 <
-18 18 12 2150.79 2572.81 366.65 o
0 18 -12 2027.30 2384.49 397.94 o
-15 18 12 4077.53 4047.13 317.11 o
-3 18 -12 4270.15 3916.01 301.47 o
-12 18 12 3136.85 2851.25 235.25 o
-6 18 -12 3401.82 3884.24 266.69 o
-9 18 12 2060.81 1776.59 184.87 o
-9 18 -12 2009.03 1832.89 187.99 o
-6 18 12 3756.11 2815.34 210.29 o
-12 18 -12 3976.69 4093.66 276.26 o
-3 18 12 4106.60 3937.35 248.05 o
-15 18 -12 4028.58 4018.67 273.14 o
0 18 12 2114.64 1939.72 247.56 o
-18 18 -12 2037.18 2005.37 263.20 o
-17 19 12 3246.79 3429.02 301.18 o
-2 19 -12 3262.93 3711.43 341.97 o
-14 19 12 7358.16 6757.08 431.57 o
-5 19 -12 7115.78 7835.68 444.06 o
-11 19 12 12482.80 12411.00 585.72 o
-8 19 -12 12004.90 12753.30 566.46 o
-8 19 12 11866.80 11922.50 484.11 o
-11 19 -12 11767.10 12864.20 553.67 o
-5 19 12 5239.84 4991.82 292.34 o
-14 19 -12 5115.75 5560.09 345.74 o
-2 19 12 2688.79 2583.63 210.08 o
-17 19 -12 2623.33 2956.55 232.01 o
-19 20 12 218.09 53.17 306.50 <
-1 20 -12 291.00 190.80 228.33 <
-16 20 12 737.25 682.18 165.85 o
-4 20 -12 802.33 873.12 197.16 o
-13 20 12 4079.31 3975.06 342.24 o
-7 20 -12 4065.03 3701.84 295.14 o
-10 20 12 3405.69 3300.85 257.29 o
-10 20 -12 3273.54 3422.77 263.53 o
-7 20 12 2775.86 2781.38 213.23 o
-13 20 -12 2755.23 2734.29 232.04 o
-4 20 12 537.40 572.53 131.40 o
-16 20 -12 645.29 566.34 162.71 o
-1 20 12 303.20 319.04 209.57 <
-19 20 -12 279.67 -43.79 200.18 <
-18 21 12 3243.27 2945.88 633.72 o
-3 21 -12 3103.00 2904.68 454.84 o
-15 21 12 4541.58 4586.47 354.98 o
-6 21 -12 4570.65 4806.51 389.55 o
-12 21 12 2829.78 2395.85 297.91 o
-9 21 -12 2637.61 2235.48 300.99 o
-9 21 12 3253.76 2880.03 229.02 o
-12 21 -12 3227.83 3143.48 257.25 o
-6 21 12 2915.10 2270.62 219.54 o
-15 21 -12 2892.99 3292.96 275.98 o
-3 21 12 1515.83 1052.26 294.38 o
-18 21 -12 1592.14 1822.81 372.71 o
-14 22 12 9975.72 13468.90 1421.44 o
-8 22 -12 10249.30 11324.10 1061.64 o
-11 22 12 15047.10 16715.90 1533.48 o
-11 22 -12 15244.80 17214.60 1524.26 o
-8 22 12 10790.30 12503.20 812.47 o
-14 22 -12 10929.60 11275.00 951.70 o
-2 3 13 5811.07 6773.92 261.38 o
-1 3 -13 5884.43 5955.66 214.16 o
-1 4 13 12109.70 13212.80 367.99 o
-3 4 -13 12192.80 11929.10 333.13 o
-3 5 13 3258.53 3305.25 185.19 o
-2 5 -13 3243.32 3057.22 138.11 o
-5 6 13 14076.20 14753.00 463.81 o
-1 6 -13 14323.50 13975.30 384.50 o
-2 6 13 28705.10 29793.30 807.32 o
-4 6 -13 28526.40 27724.30 645.73 o
-4 7 13 11244.40 11803.30 379.93 o
-3 7 -13 11622.00 11263.40 326.25 o
-1 7 13 39455.90 40870.80 1053.57 o
-6 7 -13 38831.20 38885.10 925.76 o
-6 8 13 4402.45 4206.79 219.92 o
-2 8 -13 4473.41 4153.70 185.38 o
-3 8 13 1509.44 1450.12 122.15 o
-5 8 -13 1429.36 1271.49 90.82 o
-8 9 13 13032.70 13009.30 440.51 o
-1 9 -13 13154.50 12589.40 383.51 o
-5 9 13 25887.00 25364.40 745.26 o
-4 9 -13 25017.80 24703.20 648.31 o
-2 9 13 36519.30 37158.60 1015.95 o
-7 9 -13 37004.00 38615.10 876.80 o
-7 10 13 7472.47 6932.07 327.70 o
-3 10 -13 7831.43 7476.76 280.54 o
-4 10 13 25185.10 24537.80 734.63 o
-6 10 -13 24262.90 24345.30 644.21 o
-1 10 13 44148.90 41918.90 1410.80 o
-9 10 -13 45052.40 44854.20 1238.78 o
-9 11 13 567.67 459.92 100.12 o
-2 11 -13 535.59 366.04 87.60 o
-6 11 13 422.58 337.85 81.33 o
-5 11 -13 454.95 450.48 78.21 o
-3 11 13 672.48 622.67 109.51 o
-8 11 -13 682.54 641.45 103.26 o
-11 12 13 2606.72 2661.56 206.90 o
-1 12 -13 2486.95 2470.04 175.54 o
-8 12 13 11425.00 11179.20 455.39 o
-4 12 -13 11430.80 11795.90 442.74 o
-5 12 13 27917.70 25943.10 874.09 o
-7 12 -13 28270.50 29095.80 909.75 o
-2 12 13 39089.60 38010.60 1298.73 o
-10 12 -13 39756.50 41361.20 1244.31 o
-10 13 13 4051.57 4269.53 269.98 o
-3 13 -13 3962.88 3694.71 238.57 o
-7 13 13 14285.30 13616.00 561.26 o
-6 13 -13 14686.50 15026.50 526.58 o
-4 13 13 35136.80 32939.20 1060.89 o
-9 13 -13 34256.30 34091.60 1121.41 o
-1 13 13 32470.80 31694.30 1109.70 o
-12 13 -13 32315.40 34134.60 1096.64 o
-12 14 13 1192.17 1715.54 172.18 o
-2 14 -13 1206.16 1211.54 140.88 o
-9 14 13 781.61 638.38 122.04 o
-5 14 -13 752.65 654.00 118.91 o
-6 14 13 258.26 203.30 90.70 <
-8 14 -13 249.92 278.36 106.34 <
-3 14 13 182.46 184.52 87.57 <
-11 14 -13 196.88 175.14 90.70 <
-14 15 13 299.03 365.95 118.86 o
-1 15 -13 312.04 459.80 115.73 o
-11 15 13 1507.31 1409.19 162.84 o
-4 15 -13 1605.16 1356.08 159.72 o
-8 15 13 9643.71 9428.37 451.38 o
-7 15 -13 9714.62 10574.90 464.03 o
-5 15 13 25187.80 24999.90 871.46 o
-10 15 -13 24870.70 25665.00 916.04 o
-2 15 13 21296.80 20600.40 769.36 o
-13 15 -13 20432.50 21221.30 746.40 o
-13 16 13 756.59 488.16 128.30 o
-3 16 -13 568.93 578.80 122.02 o
-10 16 13 8448.61 8178.71 438.26 o
-6 16 -13 8759.01 9584.66 444.70 o
-7 16 13 13345.10 12589.40 513.21 o
-9 16 -13 13062.70 14403.90 560.57 o
-4 16 13 19556.90 19885.00 707.56 o
-12 16 -13 19988.50 21216.50 774.81 o
-1 16 13 15978.50 15991.90 600.41 o
-15 16 -13 16262.90 17737.70 635.53 o
-15 17 13 3369.31 3215.94 254.14 o
-2 17 -13 3320.50 3309.91 263.54 o
-12 17 13 1034.61 1255.18 165.90 o
-5 17 -13 1135.60 1152.00 159.65 o
-9 17 13 686.38 729.06 143.93 o
-8 17 -13 846.73 863.75 150.22 o
-6 17 13 788.74 675.94 118.92 o
-11 17 -13 675.41 641.44 134.55 o
-3 17 13 77.18 203.26 100.07 <
-14 17 -13 109.97 93.82 100.07 <
-17 18 13 2975.21 3261.84 291.68 o
-1 18 -13 2884.76 2841.30 260.30 o
-14 18 13 165.09 184.52 118.84 <
-4 18 -13 138.73 193.89 125.09 <
-11 18 13 754.07 569.53 156.46 o
-7 18 -13 625.32 672.70 140.80 o
-8 18 13 5969.44 5976.62 314.56 o
-10 18 -13 5903.68 6208.99 358.57 o
-5 18 13 10594.70 10962.80 499.31 o
-13 18 -13 10895.20 11791.10 553.20 o
-2 18 13 9821.30 9736.37 438.97 o
-16 18 -13 9667.92 10915.80 489.43 o
-16 19 13 23.36 34.40 125.08 <
-3 19 -13 59.51 -21.89 125.08 <
-13 19 13 2762.31 2784.46 247.72 o
-6 19 -13 2699.03 2621.24 228.89 o
-10 19 13 3957.16 3729.61 304.52 o
-9 19 -13 4043.95 4291.94 351.64 o
-7 19 13 5554.70 4930.54 283.00 o
-12 19 -13 5450.35 5458.24 345.86 o
-4 19 13 8379.88 8268.65 384.73 o
-15 19 -13 8840.82 9856.32 526.89 o
-1 19 13 6931.72 7053.89 444.02 o
-18 19 -13 6829.86 7686.06 532.14 o
-18 20 13 5482.25 5854.89 918.17 o
-2 20 -13 5701.15 6938.10 858.61 o
-15 20 13 3839.11 3575.51 304.50 o
-5 20 -13 3690.84 3800.96 326.42 o
-12 20 13 855.70 747.98 187.78 o
-8 20 -13 825.46 729.18 181.51 o
-9 20 13 382.54 528.65 128.25 o
-11 20 -13 354.69 550.53 131.38 o
-6 20 13 268.18 240.84 115.73 <
-14 20 -13 231.97 428.49 140.74 o
-3 20 13 269.92 384.71 162.64 <
-17 20 -13 311.58 81.33 218.95 <
-17 21 13 2214.78 1946.19 548.44 o
-4 21 -13 2269.04 2109.27 532.80 o
-14 21 13 613.21 319.14 219.02 <
-7 21 -13 662.42 312.90 187.74 <
-11 21 13 362.45 375.37 153.27 <
-10 21 -13 382.02 328.45 140.76 <
-8 21 13 3574.15 3279.55 241.65 o
-13 21 -13 3788.06 3788.79 351.57 o
-5 21 13 3547.73 4170.71 514.67 o
-16 21 -13 3503.58 3925.76 599.38 o
-13 22 13 1213.64 1261.70 713.82 <
-9 22 -13 1261.83 1242.98 353.79 o
-10 22 13 1085.19 826.41 259.82 o
-12 22 -13 960.32 654.16 234.75 <
0 1 14 651.40 788.58 153.34 o
-1 1 -14 421.23 322.23 93.85 o
-2 2 14 6937.83 8100.77 463.35 o
0 2 -14 6624.31 6339.64 337.15 o
-1 3 14 162.93 168.88 59.42 <
-2 3 -14 185.16 265.84 50.04 o
-3 4 14 5166.40 5636.10 273.63 o
-1 4 -14 5396.39 5411.05 198.20 o
0 4 14 8357.59 8938.28 378.74 o
-4 4 -14 8351.28 7814.63 315.61 o
-5 5 14 27469.70 28306.50 1185.21 o
0 5 -14 27067.20 26018.40 940.04 o
-2 5 14 10617.50 11522.50 370.16 o
-3 5 -14 10672.00 10188.00 310.07 o
-4 6 14 5296.92 5591.68 257.88 o
-2 6 -14 5148.95 4763.80 201.24 o
-1 6 14 492.60 359.78 71.96 o
-5 6 -14 426.07 334.73 62.57 o
-6 7 14 11023.20 10454.60 379.59 o
-1 7 -14 11722.80 10769.30 326.05 o
-3 7 14 14097.50 14580.90 447.52 o
-4 7 -14 14338.20 14064.00 380.96 o
0 7 14 11159.70 12172.50 518.79 o
-7 7 -14 10695.90 10260.10 442.66 o
-8 8 14 52969.60 51231.40 2316.12 o
0 8 -14 52116.50 51505.90 1968.59 o
-5 8 14 31378.80 30500.50 939.62 o
-3 8 -14 32021.80 30756.00 785.14 o
-2 8 14 10690.30 11040.50 369.91 o
-6 8 -14 10740.20 10272.70 319.34 o
-7 9 14 7013.96 6263.85 352.72 o
-2 9 -14 6647.01 6318.19 292.77 o
-4 9 14 3127.79 3588.66 241.54 o
-5 9 -14 3015.97 2995.44 159.97 o
-1 9 14 1208.09 1033.14 150.27 o
-8 9 -14 1075.20 935.96 103.30 o
-9 10 14 12083.20 12069.40 515.81 o
-1 10 -14 12079.40 11477.60 424.04 o
-6 10 14 11726.50 11421.50 487.23 o
-4 10 -14 11165.20 11497.40 395.26 o
-3 10 14 4404.54 4324.83 266.96 o
-7 10 -14 4202.90 4179.51 226.09 o
0 10 14 3332.86 3513.70 389.02 o
-10 10 -14 3863.87 4237.48 329.58 o
-11 11 14 49208.60 52760.20 2411.59 o
0 11 -14 48265.20 52678.50 2049.39 o
-8 11 14 43584.00 42716.00 1480.50 o
-3 11 -14 43645.00 43608.70 1297.96 o
-5 11 14 18869.20 17832.60 637.11 o
-6 11 -14 19549.90 18972.80 631.15 o
-2 11 14 5138.00 4704.77 292.28 o
-9 11 -14 4884.61 4445.95 245.08 o
-10 12 14 9510.12 10181.60 460.79 o
-2 12 -14 9961.88 10192.30 388.37 o
-7 12 14 10431.70 10311.20 492.81 o
-5 12 -14 10429.60 9335.01 432.79 o
-4 12 14 3587.59 3081.48 219.66 o
-8 12 -14 3576.68 3429.75 241.62 o
-1 12 14 400.79 422.30 109.48 o
-11 12 -14 400.11 384.76 96.97 o
-12 13 14 9795.88 10310.60 467.23 o
-1 13 -14 9809.27 10051.90 416.72 o
-9 13 14 9335.48 8725.03 429.15 o
-4 13 -14 9163.25 9032.76 429.08 o
-6 13 14 4277.38 4141.71 254.34 o
-7 13 -14 4294.93 4053.86 266.91 o
-3 13 14 1841.63 1610.13 172.29 o
-10 13 -14 1855.77 1857.63 172.29 o
0 13 14 332.70 259.62 162.65 <
-13 13 -14 259.76 281.49 137.62 <
-14 14 14 26916.60 28758.10 1438.06 o
0 14 -14 27215.40 29395.60 1338.94 o
-11 14 14 33026.30 33229.90 1220.10 o
-3 14 -14 33087.70 35242.80 1081.37 o
-8 14 14 23232.70 22698.70 940.18 o
-6 14 -14 23420.70 25104.80 876.38 o
-5 14 14 8277.50 8047.80 381.43 o
-9 14 -14 8140.55 8210.62 428.65 o
-2 14 14 895.84 516.39 112.67 o
-12 14 -14 874.35 832.47 128.31 o
-13 15 14 8492.41 9708.84 444.61 o
-2 15 -14 8505.80 8507.57 403.62 o
-10 15 14 7867.29 7843.18 422.25 o
-5 15 -14 7714.82 7763.24 409.59 o
-7 15 14 4253.85 4012.91 273.18 o
-8 15 -14 4428.19 4494.10 326.61 o
-4 15 14 2186.86 1958.53 181.75 o
-11 15 -14 2185.31 2303.23 197.42 o
-1 15 14 1289.54 1192.88 156.55 o
-14 15 -14 1357.52 1208.61 150.29 o
-15 16 14 4963.13 5405.15 333.11 o
-1 16 -14 4968.93 5128.64 311.11 o
-12 16 14 4832.26 5162.22 323.62 o
-4 16 -14 4876.56 5171.87 311.07 o
-9 16 14 3402.77 3400.99 285.51 o
-7 16 -14 3642.15 3677.95 307.54 o
-6 16 14 438.90 509.90 109.49 o
-10 16 -14 408.58 541.17 190.82 <
-3 16 14 492.08 406.70 109.50 o
-13 16 -14 585.53 597.59 122.02 o
0 16 14 2311.70 2096.79 266.41 o
-16 16 -14 2313.67 2081.12 272.68 o
-17 17 14 12162.90 13472.90 918.03 o
0 17 -14 12119.50 14285.90 785.04 o
-14 17 14 17596.00 18460.40 766.93 o
-3 17 -14 17918.90 20885.60 741.71 o
-11 17 14 17029.40 16867.10 737.78 o
-6 17 -14 16836.00 18177.00 670.87 o
-8 17 14 7957.58 7211.18 416.03 o
-9 17 -14 7651.29 7917.93 463.17 o
-5 17 14 1409.53 1249.40 150.30 o
-12 17 -14 1461.60 1418.56 162.84 o
-2 17 14 139.49 125.09 103.20 <
-15 17 -14 106.47 46.91 100.07 <
-16 18 14 2757.63 2282.79 219.50 o
-2 18 -14 2683.43 2511.50 241.43 o
-13 18 14 3266.96 3422.73 263.53 o
-5 18 -14 3092.86 2791.66 238.39 o
-10 18 14 3356.72 3184.54 323.16 o
-8 18 -14 3449.33 3366.83 294.95 o
-7 18 14 2088.93 1936.50 175.48 o
-11 18 -14 2007.99 1836.08 219.33 o
-4 18 14 2014.71 2030.37 197.40 o
-14 18 -14 1959.71 2258.98 203.65 o
-1 18 14 817.95 804.28 143.96 o
-17 18 -14 935.80 838.81 137.71 o
-18 19 14 2111.78 2673.00 614.19 o
-1 19 -14 2184.36 2262.66 404.27 o
-15 19 14 2418.67 1865.10 200.62 o
-4 19 -14 2308.07 2356.97 235.07 o
-12 19 14 1299.69 1145.96 197.26 o
-7 19 -14 1221.43 1252.31 190.98 o
-9 19 14 104.66 156.36 109.45 <
-10 19 -14 134.04 128.22 128.22 <
-6 19 14 933.16 654.14 137.71 o
-13 19 -14 957.48 798.14 153.37 o
-3 19 14 3081.48 2910.91 235.26 o
-16 19 -14 2991.75 3001.60 250.92 o
-17 20 14 6625.44 6075.72 887.75 o
-3 20 -14 6411.22 7160.24 730.19 o
-14 20 14 5941.59 6279.20 405.82 o
-6 20 -14 5959.75 5835.74 390.10 o
-11 20 14 3587.53 3317.24 310.70 o
-9 20 -14 3615.57 3229.46 307.57 o
-8 20 14 1010.00 804.44 147.12 o
-12 20 -14 1057.31 651.10 169.04 o
-5 20 14 48.33 31.27 140.72 <
-15 20 -14 59.08 -21.89 206.39 <
-13 21 14 1330.94 648.15 344.43 <
-8 21 -14 1362.62 1042.71 356.96 <
-10 21 14 1954.44 1447.51 404.18 o
-11 21 -14 2073.88 2365.81 557.77 o
-7 21 14 2396.39 2570.33 329.13 o
-14 21 -14 2225.33 1858.47 354.14 o
-1 2 15 75147.30 87641.40 2850.92 o
-1 2 -15 76048.20 76830.40 2291.58 o
-2 4 15 52536.90 56699.10 1476.09 o
-2 4 -15 51550.80 49956.10 1237.11 o
-4 5 15 48010.80 47820.80 1494.40 o
-1 5 -15 46779.30 44774.10 1157.98 o
-1 5 15 35598.70 38395.60 999.14 o
-4 5 -15 36431.40 36522.00 896.09 o
-3 6 15 124.62 31.27 68.80 <
-3 6 -15 111.13 193.89 56.29 o
-5 7 15 26190.30 26068.00 789.84 o
-2 7 -15 26678.20 25810.80 745.25 o
-2 7 15 32320.20 33730.10 852.78 o
-5 7 -15 31765.40 30505.80 862.00 o
-7 8 15 14243.80 13562.10 523.33 o
-1 8 -15 14078.30 14041.90 485.19 o
-4 8 15 20699.30 20942.80 747.04 o
-4 8 -15 21213.10 20608.50 616.47 o
-1 8 15 11805.60 12709.90 515.74 o
-7 8 -15 11844.00 11555.50 417.67 o
-6 9 15 998.64 813.81 128.33 o
-3 9 -15 906.89 791.82 106.41 o
-3 9 15 464.04 337.86 103.24 o
-6 9 -15 584.36 544.40 96.99 o
-8 10 15 4601.33 4369.31 301.55 o
-2 10 -15 5442.25 5146.27 276.65 o
-5 10 15 13177.90 12563.40 586.04 o
-5 10 -15 13500.70 13036.30 497.50 o
-2 10 15 12846.60 13448.30 601.65 o
-8 10 -15 12364.50 12717.20 468.43 o
-10 11 15 1643.10 1221.46 153.46 o
-1 11 -15 1494.27 1174.31 140.92 o
-7 11 15 3520.82 2911.83 244.74 o
-4 11 -15 3096.58 2659.70 197.60 o
-4 11 15 575.00 703.95 128.27 o
-7 11 -15 812.34 732.28 118.92 o
-1 11 15 1027.78 1073.61 162.76 o
-10 11 -15 1053.32 1011.03 122.07 o
-9 12 15 2172.40 2068.15 216.22 o
-3 12 -15 2071.80 1679.42 159.80 o
-6 12 15 2401.74 2432.20 238.21 o
-6 12 -15 2316.86 2209.48 209.98 o
-3 12 15 925.89 816.86 143.97 o
-9 12 -15 1139.33 957.90 134.61 o
-11 13 15 1020.69 726.17 137.72 o
-2 13 -15 985.18 942.11 137.72 o
-8 13 15 1575.64 1252.69 175.38 o
-5 13 -15 1452.40 1183.65 162.83 o
-5 13 15 2482.44 2125.20 172.40 o
-8 13 -15 2385.54 2397.68 209.99 o
-2 13 15 659.90 494.37 128.29 o
-11 13 -15 694.50 607.03 118.90 o
-13 14 15 579.77 563.16 131.40 o
-1 14 -15 572.59 503.72 112.63 o
-10 14 15 986.73 863.86 153.37 o
-4 14 -15 965.92 738.65 143.97 o
-7 14 15 298.86 300.27 125.11 <
-7 14 -15 266.95 140.75 140.75 <
-4 14 15 491.90 650.71 128.26 o
-10 14 -15 532.26 522.47 125.14 o
-1 14 15 439.67 275.29 118.87 <
-13 14 -15 474.72 525.57 118.88 o
-12 15 15 1517.92 1114.86 159.71 o
-3 15 -15 1636.67 1503.36 172.26 o
-9 15 15 4180.63 3767.82 301.42 o
-6 15 -15 4225.95 4129.08 301.44 o
-6 15 15 4612.69 3983.02 245.01 o
-9 15 -15 4379.64 3862.77 288.92 o
-3 15 15 1785.63 1735.38 181.68 o
-12 15 -15 1778.52 1500.44 169.15 o
-14 16 15 198.41 222.05 118.85 <
-2 16 -15 194.07 231.43 125.10 <
-11 16 15 207.50 131.36 115.72 <
-5 16 -15 178.56 118.84 118.84 <
-8 16 15 549.71 622.59 147.04 o
-8 16 -15 529.33 600.68 178.33 o
-5 16 15 47.51 50.03 93.81 <
-11 16 -15 59.61 34.40 93.81 <
-2 16 15 529.99 572.53 134.53 o
-14 16 -15 466.72 528.69 122.01 o
-16 17 15 2463.08 2307.18 225.70 o
-1 17 -15 2599.75 2081.77 219.46 o
-13 17 15 4692.48 4580.68 317.32 o
-4 17 -15 4365.05 4456.68 304.65 o
-10 17 15 4364.12 4368.63 358.03 o
-7 17 -15 4173.96 3755.49 326.56 o
-7 17 15 3465.33 3357.46 257.30 o
-10 17 -15 3679.36 3954.49 313.85 o
-4 17 15 2205.54 2190.58 200.57 o
-13 17 -15 2327.92 2435.33 210.00 o
-1 17 15 1224.04 1189.70 159.67 o
-16 17 -15 1227.26 1396.34 169.06 o
-15 18 15 1101.79 807.65 153.39 o
-3 18 -15 1008.25 820.09 169.03 o
-12 18 15 3893.23 4118.73 326.48 o
-6 18 -15 4199.95 4163.97 292.04 o
-9 18 15 6439.21 6335.54 418.59 o
-9 18 -15 6500.08 6345.38 503.60 o
-6 18 15 5283.80 5105.36 295.51 o
-12 18 -15 5041.60 5393.26 380.29 o
-3 18 15 1311.94 1048.91 147.16 o
-15 18 -15 1332.80 1255.59 162.82 o
-17 19 15 1062.87 1274.03 444.50 <
-2 19 -15 1028.77 1011.05 316.15 o
-14 19 15 295.14 353.45 137.62 <
-5 19 -15 267.54 278.37 150.13 <
-11 19 15 0.84 -43.78 131.33 <
-8 19 -15 2.89 206.38 175.11 <
-8 19 15 47.22 21.89 112.57 <
-11 19 -15 65.77 56.29 131.34 <
-5 19 15 106.11 103.20 109.45 <
-14 19 -15 127.30 247.06 121.96 <
-2 19 15 700.12 672.76 237.81 <
-17 19 -15 775.99 998.27 291.03 o
-16 20 15 2383.03 915.27 836.91 <
-4 20 -15 2595.21 1711.81 652.12 <
-13 20 15 5074.54 4428.66 524.90 o
-7 20 -15 5236.82 5029.83 506.13 o
-10 20 15 6979.39 6594.44 503.87 o
-10 20 -15 7204.72 7692.13 737.08 o
-7 20 15 6209.62 6233.71 443.69 o
-13 20 -15 6072.31 6091.26 676.46 o
-4 20 15 3000.60 2383.72 1125.99 <
-16 20 -15 2768.36 984.62 718.08 <
-12 21 15 6326.87 3307.58 934.68 o
-9 21 -15 6324.28 5400.37 856.00 o
-9 21 15 5137.13 4281.15 861.26 o
-12 21 -15 5161.35 4715.04 1078.17 o
-1 1 16 1193.80 1465.23 241.07 o
0 1 -16 899.93 910.79 150.23 o
0 2 16 4376.43 5440.62 477.47 o
-2 2 -16 4710.74 4612.94 339.37 o
-2 3 16 142.01 212.66 81.31 <
-1 3 -16 138.92 222.04 65.67 o
-4 4 16 8163.20 8532.42 529.73 o
0 4 -16 8337.78 7739.20 466.75 o
-1 4 16 4901.95 5669.49 260.85 o
-3 4 -16 4967.28 4591.84 207.43 o
-3 5 16 7246.58 7472.06 324.46 o
-2 5 -16 6801.53 6237.55 292.83 o
0 5 16 14276.70 15344.10 615.41 o
-5 5 -16 13949.00 12894.10 678.64 o
-5 6 16 228.61 287.74 96.96 <
-1 6 -16 162.22 109.46 68.80 <
-2 6 16 2459.31 2579.85 181.81 o
-4 6 -16 2629.26 2404.73 159.90 o
-7 7 16 5483.33 4992.62 424.44 o
0 7 -16 5392.19 5099.06 374.10 o
-4 7 16 9090.09 9630.41 429.14 o
-3 7 -16 9545.63 8776.10 369.35 o
-1 7 16 8410.59 9100.08 356.31 o
-6 7 -16 8514.57 8479.77 372.11 o
-6 8 16 7170.50 6840.00 384.20 o
-2 8 -16 7126.92 7063.29 324.35 o
-3 8 16 23675.80 24456.70 844.88 o
-5 8 -16 23936.60 22814.30 819.48 o
0 8 16 32713.70 34715.80 1636.23 o
-8 8 -16 33024.90 33257.10 1446.24 o
-8 9 16 322.89 250.23 109.48 <
-1 9 -16 426.31 419.18 100.10 o
-5 9 16 1311.98 1036.35 162.81 o
-4 9 -16 1265.64 986.21 118.97 o
-2 9 16 4973.95 5209.83 289.09 o
-7 9 -16 4642.56 4331.74 257.58 o
-10 10 16 3356.45 3454.06 360.78 o
0 10 -16 3184.93 2895.15 291.71 o
-7 10 16 4768.56 4193.98 317.30 o
-3 10 -16 4374.17 4123.27 248.09 o
-4 10 16 6497.37 6372.43 377.62 o
-6 10 -16 6488.65 6425.87 365.04 o
-1 10 16 8348.61 8360.44 469.72 o
-9 10 -16 8031.88 7595.19 346.67 o
-9 11 16 2695.99 1959.48 219.46 o
-2 11 -16 2761.99 2248.06 188.12 o
-6 11 16 18108.10 17700.00 754.21 o
-5 11 -16 18214.40 17870.50 681.08 o
-3 11 16 29720.10 31049.40 1081.10 o
-8 11 -16 29978.50 31765.00 1062.05 o
0 11 16 29156.50 32443.70 1662.71 o
-11 11 -16 28590.20 27974.40 1298.59 o
-11 12 16 237.10 197.04 115.72 <
-1 12 -16 266.10 131.36 90.70 <
-8 12 16 1155.91 986.09 172.17 o
-4 12 -16 1225.81 973.64 137.75 o
-5 12 16 5077.66 5229.10 345.67 o
-7 12 -16 5358.24 5337.40 317.48 o
-2 12 16 7984.27 8011.00 475.87 o
-10 12 -16 7761.69 7101.84 356.04 o
-13 13 16 13.12 -171.98 121.95 <
0 13 -16 34.58 -178.24 125.08 <
-10 13 16 1416.30 1321.40 187.88 o
-3 13 -16 1559.73 1352.90 165.98 o
-7 13 16 4252.41 3846.49 307.72 o
-6 13 -16 4212.65 4091.25 335.97 o
-4 13 16 5280.87 5315.12 311.17 o
-9 13 -16 5333.32 5195.95 326.91 o
-1 13 16 7124.69 7491.52 459.76 o
-12 13 -16 7380.81 7077.63 362.23 o
-12 14 16 338.53 325.31 137.63 <
-2 14 -16 363.51 172.04 109.48 <
-9 14 16 5584.39 5090.47 367.87 o
-5 14 -16 5250.89 4900.21 326.89 o
-6 14 16 14100.90 13122.60 621.41 o
-8 14 -16 13996.30 14465.50 668.90 o
-3 14 16 19505.30 20377.20 870.16 o
-11 14 -16 19558.60 20668.30 771.40 o
0 14 16 20507.40 21477.10 1311.60 o
-14 14 -16 20374.30 23382.40 1132.75 o
-14 15 16 864.04 985.83 159.61 o
-1 15 -16 900.81 691.67 140.84 o
-11 15 16 1459.55 961.36 175.36 o
-4 15 -16 1466.31 1578.27 191.02 o
-8 15 16 4147.87 4223.08 304.56 o
-7 15 -16 4052.77 4031.17 354.77 o
-5 15 16 3631.84 3295.16 229.09 o
-10 15 -16 3790.26 3813.58 276.21 o
-2 15 16 5202.53 4740.08 330.05 o
-13 15 -16 5336.15 5215.42 311.23 o
-16 16 16 1501.79 1669.19 263.06 o
0 16 -16 1603.85 1290.39 253.69 o
-13 16 16 767.65 769.81 168.98 o
-3 16 -16 750.47 700.96 153.33 o
-10 16 16 258.89 222.07 143.87 <
-6 16 -16 282.38 231.46 118.86 <
-7 16 16 2469.29 1946.63 216.29 o
-9 16 -16 2569.77 2360.64 288.42 o
-4 16 16 3348.12 3275.53 235.31 o
-12 16 -16 3327.67 3482.53 266.68 o
-1 16 16 3324.09 3052.78 238.45 o
-15 16 -16 3385.69 3275.75 232.19 o
-15 17 16 1.58 -28.14 112.57 <
-2 17 -16 0.40 -12.51 125.08 <
-12 17 16 986.13 591.58 156.50 o
-5 17 -16 1003.78 835.73 162.76 o
-9 17 16 4562.79 3870.15 304.71 o
-8 17 -16 4527.65 4196.70 380.09 o
-6 17 16 9889.31 9522.14 426.36 o
-11 17 -16 10184.70 11515.20 625.52 o
-3 17 16 12834.50 13770.30 592.37 o
-14 17 -16 12777.80 14453.70 658.86 o
0 17 16 7335.85 8653.99 967.16 o
-17 17 -16 7210.57 9774.27 1121.38 o
-17 18 16 1116.02 547.83 331.83 <
-1 18 -16 1045.96 547.79 363.11 <
-14 18 16 961.91 973.42 184.67 o
-4 18 -16 981.44 704.26 172.15 o
-11 18 16 1604.58 1481.44 219.24 o
-7 18 -16 1450.75 1465.55 219.21 o
-8 18 16 2421.55 1877.64 225.69 o
-10 18 -16 2417.56 2332.15 297.79 o
-5 18 16 1338.35 1070.86 153.43 o
-13 18 -16 1167.27 1092.59 175.32 o
-2 18 16 1659.04 2170.61 466.70 o
-16 18 -16 1650.26 989.77 294.42 o
-16 19 16 2100.96 3017.66 745.80 o
-3 19 -16 2195.36 1175.21 517.09 <
-13 19 16 848.81 572.72 215.94 <
-6 19 -16 878.57 791.82 234.73 o
-10 19 16 175.89 181.39 137.61 <
-9 19 -16 176.69 369.04 206.41 <
-7 19 16 1228.60 1374.43 228.55 o
-12 19 -16 1146.77 901.60 231.66 o
-4 19 16 1304.14 1221.11 281.80 o
-15 19 -16 1149.44 973.61 294.27 o
-12 20 16 678.50 826.07 303.52 <
-8 20 -16 693.50 366.11 325.43 <
-9 20 16 2609.14 3128.96 479.69 o
-11 20 -16 2579.69 1765.08 485.95 o
-1 3 17 4077.40 4367.44 304.56 o
-2 3 -17 4132.40 3541.87 304.58 o
-3 4 17 3827.34 4425.89 307.61 o
-1 4 -17 3930.38 3340.16 232.30 o
-2 5 17 1478.19 1653.44 175.37 o
-3 5 -17 1426.56 1193.05 137.78 o
-4 6 17 11804.20 12296.60 468.20 o
-2 6 -17 11561.70 9839.40 452.28 o
-1 6 17 5572.37 6128.01 311.27 o
-5 6 -17 5553.46 4750.77 314.41 o
-6 7 17 14932.60 15086.90 609.19 o
-1 7 -17 15111.80 14600.90 533.13 o
-3 7 17 4884.43 4694.15 273.35 o
-4 7 -17 4822.11 3760.75 229.35 o
-5 8 17 147.37 50.04 90.69 <
-3 8 -17 96.91 53.16 78.18 <
-2 8 17 1050.33 1042.33 147.12 o
-6 8 -17 1230.69 1058.17 140.88 o
-7 9 17 17075.90 16744.60 693.06 o
-2 9 -17 17089.20 15552.60 584.97 o
-4 9 17 10980.10 10606.90 502.53 o
-5 9 -17 10871.10 10128.60 461.39 o
-1 9 17 4135.05 4018.67 285.70 o
-8 9 -17 4262.22 3475.95 219.80 o
-9 10 17 22715.40 22991.70 952.53 o
-1 10 -17 22784.70 21848.90 732.03 o
-6 10 17 13240.70 12904.20 604.98 o
-4 10 -17 12893.00 12776.40 471.79 o
-3 10 17 3492.87 3896.92 298.07 o
-7 10 -17 3625.34 3771.91 279.28 o
-8 11 17 57.38 65.67 112.57 <
-3 11 -17 58.46 128.21 96.94 <
-5 11 17 605.15 553.79 140.79 o
-6 11 -17 573.82 488.07 122.02 o
-2 11 17 404.32 691.32 159.54 o
-9 11 -17 371.21 334.70 96.97 o
-10 12 17 16826.40 17134.10 785.18 o
-2 12 -17 17083.50 18073.20 632.75 o
-7 12 17 12200.10 12540.80 620.23 o
-5 12 -17 12367.60 12194.70 550.71 o
-4 12 17 6234.48 5524.61 386.98 o
-8 12 -17 6064.72 5552.00 358.60 o
-1 12 17 437.53 337.85 150.16 <
-11 12 -17 400.91 394.14 106.36 o
-12 13 17 16329.20 16414.00 749.99 o
-1 13 -17 16278.40 16349.60 603.78 o
-9 13 17 13900.00 13215.70 722.76 o
-4 13 -17 13974.00 13524.20 583.32 o
-6 13 17 8129.65 7293.93 416.08 o
-7 13 -17 7951.15 7547.92 444.37 o
-3 13 17 1214.16 1249.14 175.32 o
-10 13 -17 1366.26 1246.20 156.56 o
-11 14 17 131.35 87.56 131.35 <
-3 14 -17 126.82 93.82 115.71 <
-8 14 17 59.72 75.05 109.45 <
-6 14 -17 50.90 84.43 131.34 <
-5 14 17 265.89 300.26 140.75 <
-9 14 -17 271.80 319.03 140.75 <
-2 14 17 299.02 165.77 125.11 <
-12 14 -17 323.04 175.16 100.09 <
-13 15 17 11283.20 12097.20 623.04 o
-2 15 -17 10858.70 11194.20 578.52 o
-10 15 17 9630.28 9986.29 621.97 o
-5 15 -17 9696.76 10179.50 552.55 o
-7 15 17 4321.58 4063.79 317.19 o
-8 15 -17 4266.12 4019.60 351.71 o
-4 15 17 517.78 434.86 128.27 o
-11 15 -17 562.12 394.21 122.02 o
-1 15 17 280.26 328.42 137.62 <
-14 15 -17 242.85 319.02 109.47 <
-15 16 17 8982.22 8870.35 485.96 o
-1 16 -17 9007.37 9722.61 536.46 o
-12 16 17 9172.17 9455.52 523.90 o
-4 16 -17 9413.56 8766.47 501.93 o
-9 16 17 6255.56 5755.34 399.63 o
-7 16 -17 6180.15 6085.29 424.77 o
-6 16 17 4655.75 4857.01 380.14 o
-10 16 -17 4756.33 4364.21 386.46 o
-3 16 17 528.75 387.94 150.17 <
-13 16 -17 408.26 544.30 131.38 o
-14 17 17 107.43 56.29 140.73 <
-3 17 -17 95.36 -15.64 131.34 <
-11 17 17 164.17 25.02 143.86 <
-6 17 -17 217.66 184.53 134.49 <
-8 17 17 643.19 660.21 165.83 o
-9 17 -17 640.14 935.55 215.90 o
-5 17 17 764.08 935.67 150.21 o
-12 17 -17 708.66 879.29 175.23 o
-2 17 17 998.12 951.55 244.15 o
-15 17 -17 1046.99 676.13 281.72 <
-2 18 -17 4339.01 5197.91 2057.18 <
-13 18 17 5837.47 5514.17 503.29 o
-5 18 -17 5818.21 5498.34 509.57 o
-10 18 17 3157.48 2625.66 266.64 o
-8 18 -17 3225.45 3193.68 313.72 o
-7 18 17 329.23 275.26 134.50 <
-11 18 -17 313.38 137.63 168.91 <
-4 18 17 88.91 -15.64 222.03 <
-14 18 -17 70.24 -128.21 178.25 <
-12 19 17 3182.32 4147.20 548.99 o
-7 19 -17 3050.72 4143.51 677.52 o
-9 19 17 2565.03 2109.92 410.70 o
-10 19 -17 2521.17 1871.57 473.38 o
-6 19 17 1012.62 1208.23 325.53 o
-13 19 -17 1125.97 1039.32 428.88 <
0 0 18 42016.00 53036.20 4979.27 o
0 0 -18 39182.70 41930.30 4790.64 o
-1 2 18 12747.50 15262.20 728.28 o
-1 2 -18 12958.70 12611.30 674.59 o
-3 3 18 36732.20 40918.50 2484.92 o
0 3 -18 37778.70 40083.20 2435.47 o
0 3 18 46858.00 54788.40 3031.81 o
-3 3 -18 46601.80 45839.10 2929.72 o
-2 4 18 8336.33 9388.61 558.02 o
-2 4 -18 8222.49 8114.03 557.96 o
-4 5 18 7526.85 7393.23 437.86 o
-1 5 -18 7542.89 6996.43 396.92 o
-1 5 18 8111.74 9149.89 532.67 o
-4 5 -18 8046.28 7863.42 561.00 o
-6 6 18 18168.30 17752.10 1085.24 o
0 6 -18 18980.70 18600.40 1051.05 o
-3 6 18 26800.20 30093.10 1033.27 o
-3 6 -18 26950.20 25662.10 1046.25 o
0 6 18 21550.60 23639.60 1181.34 o
-6 6 -18 21618.30 22814.20 1280.40 o
-5 7 18 2860.29 2997.71 225.77 o
-2 7 -18 2819.98 2549.21 210.08 o
-2 7 18 3373.00 3400.78 229.02 o
-5 7 -18 3206.38 2863.85 219.57 o
-7 8 18 4519.06 3790.91 288.95 o
-1 8 -18 4398.65 3526.67 251.23 o
-4 8 18 4145.88 4329.54 276.29 o
-4 8 -18 4120.08 3789.43 257.44 o
-1 8 18 3132.43 3208.65 232.10 o
-7 8 -18 3257.19 2929.86 225.86 o
-9 9 18 4520.62 4042.25 480.55 o
0 9 -18 4407.78 3752.88 332.89 o
-6 9 18 7978.67 8190.46 431.74 o
-3 9 -18 7534.75 7515.97 406.35 o
-3 9 18 7433.16 8079.02 422.06 o
-6 9 -18 7167.85 6219.09 381.02 o
0 9 18 2666.66 2765.17 329.19 o
-9 9 -18 2903.70 2866.17 304.18 o
-8 10 18 568.93 434.88 137.66 o
-2 10 -18 621.47 528.77 109.51 o
-5 10 18 107.76 28.15 100.07 <
-5 10 -18 148.41 140.73 100.07 <
-2 10 18 1013.48 716.78 165.89 o
-8 10 -18 1042.86 1036.07 137.73 o
-10 11 18 751.90 572.65 165.85 o
-1 11 -18 688.63 450.58 112.64 o
-7 11 18 2158.83 2033.69 209.95 o
-4 11 -18 2229.39 1939.82 200.56 o
-4 11 18 2236.52 2121.59 219.37 o
-7 11 -18 2334.80 2027.77 200.58 o
-1 11 18 924.53 898.24 162.75 o
-10 11 -18 868.66 876.29 125.18 o
-12 12 18 111.83 -3.13 190.76 <
0 12 -18 142.43 209.53 140.73 <
-9 12 18 830.45 801.15 181.51 o
-3 12 -18 882.62 732.34 131.45 o
-6 12 18 1986.76 1638.60 187.98 o
-6 12 -18 1992.80 1622.94 209.92 o
-3 12 18 1214.13 1227.23 194.10 o
-9 12 -18 1264.35 1155.28 147.15 o
0 12 18 492.29 866.58 250.27 o
-12 12 -18 482.86 541.22 159.55 o
-11 13 18 127.23 128.22 131.35 <
-2 13 -18 138.95 87.57 96.95 <
-8 13 18 892.79 747.99 150.23 o
-5 13 -18 868.88 588.37 134.57 o
-5 13 18 641.01 675.84 162.70 o
-8 13 -18 674.75 434.93 147.06 <
-2 13 18 191.88 109.46 121.97 <
-11 13 -18 180.67 156.37 100.08 <
-13 14 18 21.83 40.65 131.33 <
-1 14 -18 33.65 25.02 109.44 <
-10 14 18 789.96 782.35 187.76 o
-4 14 -18 841.83 650.95 156.48 o
-7 14 18 2138.73 1720.36 200.55 o
-7 14 -18 2159.93 1977.36 244.43 o
-4 14 18 1129.05 1245.92 206.61 o
-10 14 -18 1060.79 857.69 150.25 o
-1 14 18 71.12 159.48 134.47 <
-13 14 -18 52.74 143.85 103.19 <
-15 15 18 614.28 212.76 184.60 <
0 15 -18 571.39 669.55 247.17 <
-12 15 18 192.39 172.01 131.35 <
-3 15 -18 195.08 112.59 121.97 <
-9 15 18 31.00 -43.78 121.95 <
-6 15 -18 27.21 -46.90 118.82 <
-6 15 18 48.75 -100.07 118.83 <
-9 15 -18 40.47 9.38 128.21 <
-3 15 18 240.90 250.21 137.62 <
-12 15 -18 238.99 240.83 118.85 <
0 15 18 175.45 200.16 187.65 <
-15 15 -18 189.78 287.73 175.14 <
-14 16 18 878.75 522.66 165.87 o
-2 16 -18 883.86 660.37 184.65 o
-11 16 18 1920.54 1798.36 250.64 o
-5 16 -18 1934.79 1729.46 225.58 o
-8 16 18 2947.22 2273.81 238.36 o
-8 16 -18 3144.02 3146.33 307.42 o
-5 16 18 2131.98 1911.56 238.16 o
-11 16 -18 2094.10 1692.13 250.69 o
-2 16 18 882.31 935.78 194.04 o
-14 16 -18 812.46 644.67 172.12 o
-13 17 18 455.22 522.43 212.73 <
-4 17 -18 466.16 244.01 203.35 <
-10 17 18 1366.96 1280.69 197.27 o
-7 17 -18 1283.18 1105.24 219.17 o
-7 17 18 1302.85 1290.00 197.26 o
-10 17 -18 1303.22 1412.11 228.57 o
-4 17 18 378.81 384.76 181.43 <
-13 17 -18 419.61 225.23 209.59 <
-12 18 18 1081.30 1386.74 381.90 o
-6 18 -18 1156.04 954.83 344.36 <
-9 18 18 923.43 779.33 334.89 <
-9 18 -18 875.10 1161.12 338.01 o
-6 18 18 961.98 948.38 338.04 <
-12 18 -18 979.57 391.25 334.91 <
-2 3 19 2350.32 2836.38 294.61 o
-1 3 -19 2517.79 2260.07 250.77 o
-1 4 19 3514.15 3991.14 357.70 o
-3 4 -19 3336.09 2826.56 307.44 o
-3 5 19 450.99 519.29 131.39 o
-2 5 -19 451.60 306.57 125.13 <
-5 6 19 4656.45 3807.12 304.70 o
-1 6 -19 4544.59 3919.78 282.68 o
-2 6 19 5954.05 6799.85 408.87 o
-4 6 -19 6083.47 6155.87 443.52 o
-4 7 19 2208.52 2033.76 206.82 o
-3 7 -19 2181.97 1447.72 181.75 o
-1 7 19 10675.00 11814.00 502.39 o
-6 7 -19 10619.40 10824.50 549.76 o
-6 8 19 1087.45 926.55 147.12 o
-2 8 -19 1097.03 795.09 131.47 o
-3 8 19 418.33 381.64 109.49 o
-5 8 -19 356.03 306.54 103.22 <
-8 9 19 3736.91 3508.82 323.26 o
-1 9 -19 3680.26 3069.26 238.51 o
-5 9 19 7663.14 7457.34 406.42 o
-4 9 -19 7611.59 7412.86 393.80 o
-2 9 19 9095.55 10045.50 485.87 o
-7 9 -19 9226.96 9936.39 467.00 o
-7 10 19 1381.02 1559.33 187.87 o
-3 10 -19 1671.55 1581.70 175.40 o
-4 10 19 9213.44 8926.77 463.85 o
-6 10 -19 9029.83 8817.89 466.92 o
-1 10 19 13666.80 15121.30 614.87 o
-9 10 -19 13684.50 14158.10 551.49 o
-9 11 19 21.10 -18.76 153.22 <
-2 11 -19 29.95 96.94 96.94 <
-6 11 19 97.25 118.83 112.58 <
-5 11 -19 155.79 109.46 112.59 <
-3 11 19 553.48 594.44 175.20 o
-8 11 -19 575.73 416.12 122.02 o
-11 12 19 563.93 506.85 165.82 o
-1 12 -19 514.61 344.14 106.37 o
-8 12 19 4291.73 3485.82 276.35 o
-4 12 -19 4253.01 3871.93 292.04 o
-5 12 19 6859.60 7804.90 443.93 o
-7 12 -19 6935.09 6971.10 443.96 o
-2 12 19 10133.50 12003.50 641.24 o
-10 12 -19 10237.00 10526.30 492.83 o
-10 13 19 1391.26 1308.88 212.93 o
-3 13 -19 1380.41 879.89 147.17 o
-7 13 19 3796.09 3678.77 279.36 o
-6 13 -19 3713.46 3543.50 329.55 o
-4 13 19 8887.29 8846.55 530.04 o
-9 13 -19 8722.83 8428.71 495.25 o
-1 13 19 8942.15 10371.60 520.63 o
-12 13 -19 9038.78 9119.78 476.50 o
-12 14 19 111.78 225.16 134.47 <
-2 14 -19 126.91 146.98 115.71 <
-9 14 19 206.82 293.99 134.49 <
-5 14 -19 211.02 240.82 134.49 <
-6 14 19 75.45 21.89 125.08 <
-8 14 -19 61.82 65.67 137.59 <
-3 14 19 11.30 93.81 125.08 <
-11 14 -19 10.16 87.55 100.06 <
-14 15 19 115.09 75.05 156.36 <
-1 15 -19 113.24 353.38 200.14 <
-11 15 19 354.17 162.66 131.38 <
-4 15 -19 361.41 412.90 140.76 <
-8 15 19 2858.21 2903.95 247.74 o
-7 15 -19 2946.07 2461.99 285.40 o
-5 15 19 6729.43 6602.13 440.77 o
-10 15 -19 6560.67 6799.32 554.02 o
-2 15 19 6947.94 8068.02 462.92 o
-13 15 -19 6878.86 7777.75 510.12 o
-13 16 19 461.45 -12.51 247.14 <
-3 16 -19 390.59 344.10 225.23 <
-10 16 19 1928.46 2240.14 241.25 o
-6 16 -19 1954.35 2130.54 278.85 o
-7 16 19 3905.24 3735.87 348.47 o
-9 16 -19 3937.97 4046.80 354.76 o
-4 16 19 4900.23 5112.96 493.38 o
-12 16 -19 4932.74 3626.64 619.11 o
-12 17 19 308.68 181.42 259.61 <
-5 17 -19 388.78 462.96 237.74 <
-9 17 19 211.47 487.90 290.86 <
-8 17 -19 243.09 290.87 256.47 <
-6 17 19 129.86 -53.16 228.29 <
-11 17 -19 102.27 -225.16 250.18 <
0 1 20 770.37 954.42 244.08 o
-1 1 -20 872.72 588.36 206.55 <
-2 2 20 884.15 672.87 215.94 o
0 2 -20 793.92 409.94 194.02 <
-1 3 20 2.57 15.63 109.44 <
-2 3 -20 0.98 43.78 100.06 <
-3 4 20 1243.04 870.34 178.45 o
-1 4 -20 1159.40 813.92 200.35 o
0 4 20 1244.58 1449.52 316.20 o
-4 4 -20 1226.21 1199.05 341.24 o
-5 5 20 8025.08 7935.76 627.17 o
0 5 -20 8132.54 7189.58 696.58 o
-2 5 20 2757.78 2749.73 301.00 o
-3 5 -20 2898.39 3051.15 322.99 o
-4 6 20 930.75 920.15 162.75 o
-2 6 -20 800.61 738.53 162.73 o
-1 6 20 312.92 319.04 150.14 <
-5 6 -20 317.92 -37.53 131.37 <
-6 7 20 2852.44 2608.93 257.13 o
-1 7 -20 2846.20 2590.10 235.18 o
-3 7 20 2863.33 2866.08 260.27 o
-4 7 -20 2819.62 2505.36 301.02 o
0 7 20 2165.67 1767.36 285.16 o
-7 7 -20 2092.03 1403.76 278.87 o
-8 8 20 11550.80 12986.80 939.37 o
0 8 -20 11135.70 11897.00 913.70 o
-5 8 20 8395.13 8134.56 501.32 o
-3 8 -20 8576.52 8006.71 476.18 o
-2 8 20 2344.62 2250.34 219.39 o
-6 8 -20 2243.66 2055.82 213.10 o
-7 9 20 2386.15 2463.60 304.03 o
-2 9 -20 2494.48 2188.01 219.43 o
-4 9 20 759.15 813.61 150.20 o
-5 9 -20 798.68 657.17 131.43 o
-1 9 20 54.31 243.91 150.10 <
-8 9 -20 36.21 137.59 100.06 <
-9 10 20 2797.38 2633.99 322.98 o
-1 10 -20 2954.41 2675.18 247.76 o
-6 10 20 3302.73 3065.09 263.53 o
-4 10 -20 3410.73 2852.06 244.73 o
-3 10 20 1905.16 1716.81 194.24 o
-7 10 -20 1936.65 1776.39 191.11 o
0 10 20 665.46 647.70 200.26 o
-10 10 -20 698.75 966.89 197.13 o
-11 11 20 11132.60 12459.10 1081.48 o
0 11 -20 11061.30 10551.60 673.50 o
-8 11 20 10795.90 11625.80 622.70 o
-3 11 -20 10631.40 10694.80 584.67 o
-5 11 20 4776.90 5287.88 336.19 o
-6 11 -20 4908.15 4763.80 348.80 o
-2 11 20 1231.35 1333.71 216.02 o
-9 11 -20 1139.95 923.50 156.52 o
-10 12 20 2521.49 2200.71 263.33 o
-2 12 -20 2484.19 2288.40 228.84 o
-7 12 20 2317.01 2262.92 216.26 o
-5 12 -20 2382.34 1908.87 222.54 o
-4 12 20 875.97 585.25 169.00 o
-8 12 -20 847.79 675.99 134.57 o
-1 12 20 103.59 172.00 121.96 <
-11 12 -20 90.90 265.81 106.32 <
-12 13 20 2783.54 2477.28 285.36 o
-1 13 -20 2705.40 2461.40 213.22 o
-9 13 20 2105.72 2155.92 247.55 o
-4 13 -20 1953.41 1597.89 194.25 o
-6 13 20 777.95 588.32 140.82 o
-7 13 -20 759.65 650.90 165.85 o
-3 13 20 253.23 168.90 156.38 <
-10 13 -20 278.47 412.87 131.37 o
0 13 20 7.27 218.88 175.11 <
-13 13 -20 4.41 -21.89 162.60 <
-14 14 20 8072.82 7115.57 1204.32 o
0 14 -20 8522.81 7528.84 1409.88 o
-11 14 20 9327.61 10732.80 609.24 o
-3 14 -20 9333.35 9009.25 640.81 o
-8 14 20 6769.12 6756.68 462.83 o
-6 14 -20 6830.20 7179.02 506.94 o
-5 14 20 1807.55 1290.66 200.49 o
-9 14 -20 1847.76 1951.73 234.96 o
-2 14 20 404.23 331.59 165.79 <
-12 14 -20 415.65 262.77 134.51 <
-13 15 20 1883.89 1882.88 432.34 o
-2 15 -20 1898.51 1864.11 328.96 o
-10 15 20 2103.38 1714.09 260.09 o
-5 15 -20 1982.32 1980.21 328.99 o
-7 15 20 912.18 832.53 172.14 o
-8 15 -20 886.82 760.52 194.04 o
-4 15 20 587.19 528.76 228.40 <
-11 15 -20 582.27 456.80 250.30 <
-12 16 20 1366.36 560.49 335.04 <
-4 16 -20 1399.22 1368.40 391.42 o
-9 16 20 594.26 306.62 228.40 <
-7 16 -20 594.67 591.34 287.85 <
-6 16 20 112.79 -137.60 222.04 <
-10 16 -20 102.92 -6.25 209.52 <
-1 2 21 16457.20 19481.80 908.79 o
-1 2 -21 16632.30 16968.00 864.45 o
-2 4 21 11575.80 14029.70 711.60 o
-2 4 -21 11411.50 11908.80 720.98 o
-4 5 21 10553.00 11630.60 644.56 o
-1 5 -21 10304.00 10408.40 761.28 o
-1 5 21 8538.82 10299.00 595.99 o
-4 5 -21 8620.97 7887.27 681.19 o
-3 6 21 13.61 150.09 128.20 <
-3 6 -21 10.86 62.54 134.46 <
-5 7 21 5996.84 6807.14 421.51 o
-2 7 -21 6011.32 6017.67 443.54 o
-2 7 21 5942.86 6215.43 468.67 o
-5 7 -21 5990.45 5275.19 588.23 o
-7 8 21 2904.46 2521.37 279.11 o
-1 8 -21 2858.72 2885.01 244.60 o
-4 8 21 4144.64 4480.62 351.67 o
-4 8 -21 4301.79 3752.75 361.14 o
-1 8 21 3625.17 3778.51 357.77 o
-7 8 -21 3620.11 4208.43 338.93 o
-6 9 21 125.63 150.11 143.85 <
-3 9 -21 153.05 96.95 106.33 <
-3 9 21 259.43 190.79 137.62 <
-6 9 -21 239.08 193.91 125.11 <
-8 10 21 1762.08 1713.47 263.13 o
-2 10 -21 1842.52 1582.03 203.63 o
-5 10 21 3061.14 3274.59 294.84 o
-5 10 -21 3107.15 2782.27 257.21 o
-2 10 21 2044.64 1898.83 263.20 o
-8 10 -21 1967.45 1895.55 219.32 o
-10 11 21 157.29 115.71 181.39 <
-1 11 -21 160.49 109.46 112.59 <
-7 11 21 463.78 312.84 131.39 <
-4 11 -21 462.52 359.76 122.01 <
-4 11 21 385.42 315.94 125.12 <
-7 11 -21 352.34 290.90 106.35 <
-1 11 21 229.13 362.80 156.38 <
-10 11 -21 223.75 400.33 125.10 o
-9 12 21 340.65 306.54 150.14 <
-3 12 -21 344.25 394.13 118.86 o
-6 12 21 370.12 391.01 128.25 o
-6 12 -21 372.29 297.17 125.12 <
-3 12 21 454.80 256.52 156.42 <
-9 12 -21 452.22 397.30 125.13 o
-11 13 21 129.02 43.78 153.24 <
-2 13 -21 125.82 156.37 143.85 <
-8 13 21 548.04 663.27 140.79 o
-5 13 -21 518.09 115.76 118.89 <
-5 13 21 409.25 513.03 159.54 o
-8 13 -21 388.05 444.20 147.02 o
-2 13 21 72.13 225.15 197.01 <
-11 13 -21 96.65 112.58 172.00 <
-10 14 21 129.52 212.66 256.44 <
-4 14 -21 140.87 40.66 162.62 <
-7 14 21 188.69 153.25 134.48 <
-7 14 -21 174.99 81.31 190.77 <
-4 14 21 72.01 81.31 237.66 <
-10 14 -21 82.15 56.29 175.12 <
-9 15 21 914.64 1010.93 322.37 o
-6 15 -21 931.92 754.30 278.56 <
-6 15 21 744.41 810.48 294.15 <
-9 15 -21 705.92 710.32 250.33 <
-1 1 22 294.18 131.37 168.90 <
0 1 -22 215.40 34.40 146.99 <
0 2 22 418.58 556.82 225.23 <
-2 2 -22 454.29 331.60 187.70 <
-2 3 22 70.80 25.02 118.83 <
-1 3 -22 66.40 -112.57 106.32 <
-4 4 22 1041.73 1333.45 303.62 o
0 4 -22 1061.44 923.41 303.63 o
-1 4 22 1083.18 1324.11 200.34 o
-3 4 -22 1092.81 698.06 190.95 o
-3 5 22 1467.89 1578.28 228.60 o
-2 5 -22 1445.32 1052.16 228.59 o
0 5 22 3626.60 3533.72 480.16 o
-5 5 -22 3599.07 3392.41 536.63 o
-5 6 22 105.63 203.27 134.47 <
-1 6 -22 90.73 53.16 131.34 <
-2 6 22 417.22 550.56 159.54 o
-4 6 -22 453.73 322.22 190.83 <
-7 7 22 708.25 644.60 225.30 <
0 7 -22 799.88 819.91 240.97 o
-4 7 22 2010.80 2199.54 275.73 o
-3 7 -22 2085.87 1757.88 275.75 o
-1 7 22 1915.46 2174.27 269.43 o
-6 7 -22 1940.77 1933.08 294.51 o
-6 8 22 1665.75 1700.77 212.99 o
-2 8 -22 1693.03 1290.49 206.73 o
-3 8 22 4581.66 5151.91 452.36 o
-5 8 -22 4562.66 3678.52 477.48 o
0 8 22 6812.76 8919.84 1530.19 o
-8 8 -22 6863.93 6152.58 768.29 o
-8 9 22 67.65 190.75 143.85 <
-1 9 -22 84.01 12.51 100.07 <
-5 9 22 442.23 469.24 162.67 <
-4 9 -22 407.13 319.08 150.15 <
-2 9 22 993.49 707.39 228.49 o
-7 9 -22 886.15 497.62 206.56 <
-10 10 22 586.40 719.62 312.88 <
0 10 -22 597.85 431.77 197.12 <
-7 10 22 1172.90 1164.60 216.01 o
-3 10 -22 1054.37 666.74 147.12 o
-4 10 22 1686.90 1700.82 234.92 o
-6 10 -22 1622.91 1302.94 216.11 o
-1 10 22 1085.15 1330.40 303.64 o
-9 10 -22 1120.40 1098.80 190.96 o
-9 11 22 702.27 450.60 212.78 <
-2 11 -22 689.80 272.23 128.29 <
-6 11 22 2685.12 3122.93 322.95 o
-5 11 -22 2697.22 2420.62 266.52 o
-3 11 22 5910.55 5715.89 588.26 o
-8 11 -22 5967.24 6980.90 437.29 o
0 11 22 6165.67 8615.41 1623.65 o
-11 11 -22 6096.24 7724.38 893.57 o
-11 12 22 47.46 -9.38 250.16 <
-1 12 -22 53.67 71.92 134.46 <
-8 12 22 323.37 315.92 140.76 <
-4 12 -22 330.51 215.83 137.63 <
-5 12 22 1139.37 1189.60 169.05 o
-7 12 -22 1180.78 1011.21 190.97 o
-2 12 22 1553.36 1143.13 303.79 o
-10 12 -22 1559.92 1547.15 259.95 o
-10 13 22 203.64 381.56 281.48 <
-3 13 -22 215.48 331.52 162.63 <
-7 13 22 828.28 1386.39 297.31 o
-6 13 -22 814.19 769.86 212.81 o
-4 13 22 1153.93 1042.48 316.19 o
-9 13 -22 1218.16 986.20 272.38 o
-1 3 23 684.33 638.33 162.71 o
-2 3 -23 628.69 560.07 162.70 o
-3 4 23 1008.39 882.68 181.54 o
-1 4 -23 1054.51 939.07 209.73 o
-2 5 23 192.60 403.45 143.87 <
-3 5 -23 211.02 344.03 175.14 <
-4 6 23 1616.78 1512.77 228.64 o
-2 6 -23 1608.11 1672.49 259.96 o
-1 6 23 1373.50 1578.16 219.19 o
-5 6 -23 1363.86 1471.68 266.15 o
-6 7 23 2769.57 2866.05 322.98 o
-1 7 -23 2777.20 2373.76 326.12 o
-3 7 23 914.59 1032.84 194.05 o
-4 7 -23 975.48 757.46 228.49 o
-5 8 23 64.54 353.36 165.74 <
-3 8 -23 64.21 143.85 140.72 <
-2 8 23 134.91 500.37 200.15 <
-6 8 -23 162.97 293.98 178.26 <
-7 9 23 2796.30 3697.15 354.35 o
-2 9 -23 2854.24 1981.97 254.02 o
-4 9 23 2070.83 2296.87 338.42 o
-5 9 -23 1983.93 1616.75 310.19 o
-1 9 23 892.48 976.48 397.48 <
-8 9 -23 924.97 1120.49 262.91 o
-9 10 23 4603.59 6349.21 552.92 o
-1 10 -23 4574.56 4530.08 527.78 o
-6 10 23 2800.74 2991.61 304.18 o
-4 10 -23 2618.92 2467.46 332.34 o
-3 10 23 279.27 609.92 222.07 <
-7 10 -23 298.73 287.76 184.54 <
-8 11 23 80.42 -200.14 209.52 <
-3 11 -23 74.10 115.70 131.34 <
-5 11 23 4.26 56.28 153.22 <
-6 11 -23 2.01 100.06 137.58 <
-9 11 -23 11.95 81.30 171.98 <
-7 12 23 1942.57 2074.11 545.16 o
-5 12 -23 1994.44 1983.36 325.86 o
-4 12 23 1374.12 770.29 566.76 <
-8 12 -23 1337.38 876.72 259.89 o
0 0 24 7828.31 9036.18 1478.19 o
0 0 -24 8141.04 9994.32 1469.20 o
-1 2 24 1898.43 1992.55 250.63 o
-1 2 -24 1781.12 1522.43 231.81 o
-3 3 24 6424.54 6527.64 673.54 o
0 3 -24 6435.95 7147.75 818.33 o
0 3 24 6542.01 8565.00 730.28 o
-3 3 -24 6555.92 7148.62 881.38 o
-2 4 24 1327.84 1418.40 212.92 o
-2 4 -24 1360.01 1490.47 259.89 o
-4 5 24 1309.17 1581.19 222.31 o
-1 5 -24 1396.98 1503.05 259.90 o
-1 5 24 1549.56 1738.17 231.76 o
-4 5 -24 1600.23 1440.72 291.28 o
-6 6 24 2968.48 2941.93 414.00 o
0 6 -24 3001.89 2531.15 617.89 o
-3 6 24 4352.05 5603.19 417.73 o
-3 6 -24 4246.80 4054.34 505.61 o
0 6 24 2951.19 3798.10 476.72 o
-6 6 -24 2861.91 2527.65 470.41 o
-5 7 24 491.13 635.08 178.32 o
-2 7 -24 536.95 384.82 165.82 <
-2 7 24 579.77 600.72 175.21 o
-5 7 -24 557.04 416.11 184.59 <
-7 8 24 531.23 425.49 231.52 <
-1 8 -24 493.10 381.67 156.42 <
-4 8 24 744.34 616.47 178.37 o
-4 8 -24 742.04 425.58 187.76 <
-1 8 24 449.47 753.93 228.37 o
-7 8 -24 444.60 375.40 178.31 <
0 9 -24 642.50 331.67 341.05 <
-6 9 24 1260.27 1324.38 801.52 <
-3 9 -24 1252.98 1061.37 266.13 o
-6 9 -24 1293.39 1230.49 259.88 o
-9 9 -24 566.17 804.08 491.21 <
-2 10 -24 91.29 509.73 641.07 <
-5 10 -24 8.00 143.84 171.98 <
-2 3 25 361.25 350.34 137.63 <
-1 3 -25 395.19 365.99 165.79 <
-1 4 25 506.71 581.90 153.30 o
-3 4 -25 481.34 506.81 200.22 <
-3 5 25 51.25 325.21 137.59 <
-2 5 -25 56.32 168.86 156.35 <
-1 6 -25 649.20 801.02 200.25 o
-4 6 -25 836.53 597.75 203.42 <
-3 7 -25 363.73 203.32 156.40 <
-6 7 -25 1183.07 331.85 385.07 <
-1 1 -26 111.75 118.83 240.80 <
0 2 -26 69.87 59.42 240.79 <
-2 3 -26 12.21 165.73 412.76 <
loop_
_jana_atom_site_adp_c_label
_jana_atom_site_adp_c_type_symbol
_jana_atom_site_adp_c_111
_jana_atom_site_adp_c_112
_jana_atom_site_adp_c_113
_jana_atom_site_adp_c_122
_jana_atom_site_adp_c_123
_jana_atom_site_adp_c_133
_jana_atom_site_adp_c_222
_jana_atom_site_adp_c_223
_jana_atom_site_adp_c_233
_jana_atom_site_adp_c_333
Ba1 Ba 0.00023(7) 0.00005(3) 0.00010(5) -0.00008(4) 0.00006(3) 0.000059(8)
-0.00027(7) 0.00012(5) -0.000057(9) -0.00028(9)
loop_
_jana_atom_site_adp_d_label
_jana_atom_site_adp_d_type_symbol
_jana_atom_site_adp_d_1111
_jana_atom_site_adp_d_1112
_jana_atom_site_adp_d_1113
_jana_atom_site_adp_d_1122
_jana_atom_site_adp_d_1123
_jana_atom_site_adp_d_1133
_jana_atom_site_adp_d_1222
_jana_atom_site_adp_d_1223
_jana_atom_site_adp_d_1233
_jana_atom_site_adp_d_1333
_jana_atom_site_adp_d_2222
_jana_atom_site_adp_d_2223
_jana_atom_site_adp_d_2233
_jana_atom_site_adp_d_2333
_jana_atom_site_adp_d_3333
Ba1 Ba 0.000025(18) 0.000017(9) 0.000018(8) 0.000009(7) 0.000015(6)
-0.000034(4) 0.000009(11) 0.000003(6) -0.000012(2) -0.000006(6) -0.00001(2)
-0.000001(8) -0.000038(4) -0.000009(6) -0.000166(7)
