#------------------------------------------------------------------------------
#$Date: 2021-09-07 17:02:59 +0300 (Tue, 07 Sep 2021) $
#$Revision: 269030 $
#$URL: file:///home/coder/svn-repositories/cod/cif/3/00/03/3000312.cif $
#------------------------------------------------------------------------------
#
# This file is available in the Crystallography Open Database (COD),
# http://www.crystallography.net/
#
# All data on this site have been placed in the public domain by the
# contributors.
#
data_3000312
loop_
_publ_author_name
'M\"unchhalfen, Marie'
'Schreuer, J\"urgen'
'Reuther, Christoph'
'Mehner, Erik'
'St\"ocker, Hartmut'
_publ_section_title
;
 Elastic, piezoelectric, and dielectric properties of rare-earth calcium
 oxoborates RCa4O(BO3)3 (R&#x2009;=&#x2009;Er, Y, Dy, Gd, Sm, Nd, La)
;
_journal_issue                   9
_journal_name_full               'Journal of Applied Physics'
_journal_page_first              095102
_journal_paper_doi               10.1063/5.0061747
_journal_volume                  130
_journal_year                    2021
_chemical_formula_moiety         'Sm Ca4 O (B O3 )3'
_chemical_formula_sum            'B3 Ca4 O10 Sm'
_chemical_formula_weight         503.10
_chemical_name_common            'samarium calcium oxoborate'
_space_group_crystal_system      monoclinic
_space_group_IT_number           8
_space_group_name_Hall           'C -2y'
_space_group_name_H-M_alt        'C 1 m 1'
_atom_sites_solution_hydrogens   .
_audit_creation_method           SHELXL-2014/7
_cell_angle_alpha                90
_cell_angle_beta                 101.315(7)
_cell_angle_gamma                90
_cell_formula_units_Z            2
_cell_length_a                   8.1267(6)
_cell_length_b                   16.0711(16)
_cell_length_c                   3.5862(3)
_cell_measurement_reflns_used    4117
_cell_measurement_temperature    293(2)
_cell_measurement_theta_max      42.4660
_cell_measurement_theta_min      3.7700
_cell_volume                     459.27(7)
_computing_cell_refinement       'CrysAlisPro 1.171.36.24 (Rigaku OD, 2012)'
_computing_data_collection       'CrysAlisCCD (Oxford Diffraction, 2002)'
_computing_data_reduction        'CrysAlisPro 1.171.36.24 (Rigaku OD, 2012)'
_computing_molecular_graphics    'VESTA 3 ( Momma & Izumi, 2011 )'
_computing_structure_refinement  'SHELXL-2014/7 (Sheldrick, 2014)'
_computing_structure_solution    'SHELXS-2013/1 (Sheldrick, 2013)'
_diffrn_ambient_temperature      293(2)
_diffrn_measured_fraction_theta_full 0.998
_diffrn_measured_fraction_theta_max 0.850
_diffrn_measurement_device_type  'Xcalibur with Sapphire2 CCD-area detector'
_diffrn_measurement_method       '\w and \f'
_diffrn_radiation_type           MoK\a
_diffrn_radiation_wavelength     0.71073
_diffrn_reflns_av_R_equivalents  0.0528
_diffrn_reflns_av_unetI/netI     0.0612
_diffrn_reflns_Laue_measured_fraction_full 0.998
_diffrn_reflns_Laue_measured_fraction_max 0.850
_diffrn_reflns_limit_h_max       14
_diffrn_reflns_limit_h_min       -14
_diffrn_reflns_limit_k_max       27
_diffrn_reflns_limit_k_min       -25
_diffrn_reflns_limit_l_max       5
_diffrn_reflns_limit_l_min       -6
_diffrn_reflns_number            4376
_diffrn_reflns_point_group_measured_fraction_full 0.985
_diffrn_reflns_point_group_measured_fraction_max 0.682
_diffrn_reflns_theta_full        25.242
_diffrn_reflns_theta_max         42.729
_diffrn_reflns_theta_min         2.853
_exptl_absorpt_coefficient_mu    8.668
_exptl_absorpt_correction_T_max  0.658
_exptl_absorpt_correction_T_min  0.299
_exptl_absorpt_correction_type   analytical
_exptl_absorpt_process_details
;
CrysAlisPro, Agilent Technologies,
Version 1.171.36.24 (release 03-12-2012 CrysAlis171 .NET)
(compiled Dec  3 2012,18:21:49)
Analytical numeric absorption correction using a multifaceted crystal
			model based on expressions derived by R.C. Clark & J.S. Reid.
(Clark, R. C. & Reid, J. S. (1995). Acta Cryst. A51, 887-897)
;
_exptl_crystal_colour            yellow
_exptl_crystal_density_diffrn    3.638
_exptl_crystal_density_meas      3.661(1)
_exptl_crystal_density_method    buoyancy
_exptl_crystal_F_000             474
_exptl_crystal_size_max          0.2288
_exptl_crystal_size_mid          0.1608
_exptl_crystal_size_min          0.0829
_refine_diff_density_max         2.723
_refine_diff_density_min         -3.983
_refine_diff_density_rms         0.327
_refine_ls_abs_structure_details
;
 Flack x determined using 860 quotients [(I+)-(I-)]/[(I+)+(I-)]
 (Parsons, Flack and Wagner, Acta Cryst. B69 (2013) 249-259).
;
_refine_ls_abs_structure_Flack   -0.045(16)
_refine_ls_extinction_coef       0.056(3)
_refine_ls_extinction_expression Fc^*^=kFc[1+0.001xFc^2^\l^3^/sin(2\q)]^-1/4^
_refine_ls_extinction_method     'SHELXL-2014/7 (Sheldrick 2014'
_refine_ls_goodness_of_fit_ref   1.075
_refine_ls_hydrogen_treatment    undef
_refine_ls_matrix_type           full
_refine_ls_number_parameters     92
_refine_ls_number_reflns         2333
_refine_ls_number_restraints     3
_refine_ls_restrained_S_all      1.074
_refine_ls_R_factor_all          0.0336
_refine_ls_R_factor_gt           0.0335
_refine_ls_shift/su_max          0.000
_refine_ls_shift/su_mean         0.000
_refine_ls_structure_factor_coef Fsqd
_refine_ls_weighting_details
'w=1/[\s^2^(Fo^2^)+(0.0387P)^2^] where P=(Fo^2^+2Fc^2^)/3'
_refine_ls_weighting_scheme      calc
_refine_ls_wR_factor_gt          0.0793
_refine_ls_wR_factor_ref         0.0794
_reflns_Friedel_coverage         0.598
_reflns_Friedel_fraction_full    0.972
_reflns_Friedel_fraction_max     0.513
_reflns_number_gt                2325
_reflns_number_total             2333
_reflns_threshold_expression     'I > 2\s(I)'
_cod_data_source_file            SmCOB.cif
_cod_data_source_block           SmCOB
_cod_depositor_comments
'Releasing structure 3000312 into public domain as published material.'
_cod_original_cell_volume        459.28(7)
_cod_original_sg_symbol_H-M      'C m'
_cod_database_code               3000312
_shelx_shelxl_version_number     2014/7
_shelx_space_group_comment
;
The symmetry employed for this shelxl refinement is uniquely defined
by the following loop, which should always be used as a source of
symmetry information in preference to the above space-group names.
They are only intended as comments.
;
_shelx_res_file
;

    SmCOB01-05-kT.res created by SHELXL-2014/7


TITL SmCOB01-05-kT in Cm
REM Cm (#8 in standard setting)
CELL 0.71073   8.126715  16.071088   3.586248  90.0000 101.3145  90.0000
ZERR    2.00   0.000634   0.001629   0.000276   0.0000   0.0069   0.0000
LATT -7
SYMM  x,-y, z
SFAC B O Ca Sm
UNIT 6.00 20.00 8.00 2.00

L.S. 10
BOND
FMAP 2
PLAN 20
ACTA

sump 0.50 0.001 0.5 2 1.0 3 1.0 4
exyz Sm-X Ca-X
exyz Ca-Z Sm-Z
exyz CA-Y Sm-Y
eadp Sm-X Ca-X
eadp Ca-Z Sm-Z
eadp Ca-Y Sm-Y

WGHT    0.038700
EXTI    0.056253
FVAR       5.52852   0.97024   0.01196   0.00277
SM-X  4    0.001504    0.000000    0.014388    20.50000    0.00426    0.01037 =
         0.00363    0.00000    0.00130    0.00000
CA-Y  3   -0.356057   -0.113003    0.344143   -31.00000    0.00495    0.00629 =
         0.00575    0.00026    0.00109   -0.00057
CA-Z  3    0.266072    0.181680   -0.328931   -41.00000    0.00758    0.01235 =
         0.00654   -0.00101    0.00246   -0.00101
CA-X  3    0.001504    0.000000    0.014388   -20.50000    0.00426    0.01037 =
         0.00363    0.00000    0.00130    0.00000
SM-Y  4   -0.356057   -0.113003    0.344143    31.00000    0.00495    0.00629 =
         0.00575    0.00026    0.00109   -0.00057
SM-Z  4    0.266072    0.181680   -0.328931    41.00000    0.00758    0.01235 =
         0.00654   -0.00101    0.00246   -0.00101
O1    2   -0.172781    0.000000    0.431785    10.50000    0.00450    0.00465 =
         0.00635    0.00000    0.00158    0.00000
O2    2    0.206010    0.000000   -0.378395    10.50000    0.00158    0.02677 =
         0.00993    0.00000    0.00276    0.00000
O3    2    0.092240    0.144046   -0.904045    11.00000    0.00794    0.01063 =
         0.00853    0.00037    0.00392    0.00240
O4    2   -0.529385   -0.230723    0.293057    11.00000    0.01432    0.00739 =
         0.01378   -0.00412    0.00734   -0.00324
O5    2   -0.203398   -0.171022   -0.097871    11.00000    0.00676    0.01631 =
         0.00652    0.00251    0.00046    0.00520
O6    2    0.465249    0.074438   -0.233301    11.00000    0.01002    0.00972 =
         0.00904    0.00029    0.00176   -0.00372
B1    1    0.380370    0.000000   -0.282617    10.50000    0.00299    0.00711 =
         0.00731    0.00000   -0.00058    0.00000
B2    1   -0.046932   -0.194809    0.097524    11.00000    0.00598    0.00638 =
         0.00668   -0.00099    0.00185   -0.00028
HKLF 4

REM  SmCOB01-05-kT in Cm
REM R1 =  0.0335 for    2325 Fo > 4sig(Fo)  and  0.0336 for all    2333 data
REM     92 parameters refined using      3 restraints

END

WGHT      0.0387      0.0000

REM Highest difference peak  2.723,  deepest hole -3.983,  1-sigma level  0.327
Q1    1  -0.0461 -0.0387 -0.2165  11.00000  0.05    2.72
Q2    1  -0.0553 -0.0289  0.0044  11.00000  0.05    2.58
Q3    1   0.0419  0.0420  0.2308  11.00000  0.05    2.57
Q4    1   0.0521  0.0340  0.0101  11.00000  0.05    2.52
Q5    1   0.0143  0.0524  0.0021  11.00000  0.05    2.37
Q6    1   0.0912  0.0700 -0.9569  11.00000  0.05    1.38
Q7    1  -0.1294 -0.1033  0.0874  11.00000  0.05    1.28
Q8    1   0.0358  0.0000 -0.3062  10.50000  0.05    1.24
Q9    1  -0.2313  0.0000  0.2214  10.50000  0.05    1.23
Q10   1   0.1353  0.1057 -1.0316  11.00000  0.05    1.20
Q11   1  -0.0894 -0.0636  0.0031  11.00000  0.05    1.09
Q12   1  -0.3128 -0.0770  0.5606  11.00000  0.05    1.08
Q13   1  -0.1338 -0.0271  0.7746  11.00000  0.05    1.05
Q14   1   0.2058  0.0000 -0.6845  10.50000  0.05    1.00
Q15   1   0.1380  0.0288  0.2373  11.00000  0.05    1.00
Q16   1  -0.3854 -0.0618  0.3617  11.00000  0.05    1.00
Q17   1   0.1296  0.0789 -0.3043  11.00000  0.05    0.99
Q18   1   0.0382  0.0902 -1.3153  11.00000  0.05    0.97
Q19   1   0.3188  0.1473 -0.0891  11.00000  0.05    0.96
Q20   1  -0.1282 -0.0353  0.4701  11.00000  0.05    0.95
;
_shelx_res_checksum              96502
_shelx_hkl_file
;
 -14   0   0 61907.2 7379.90   3
 -14   0   1 45016.4 5362.45   3
 -14  -2   0 42746.1 5455.11   3
 -14   2   0 41664.6 5529.15   3
 -14  -2   1 23712.1 3904.21   3
 -14   2   1 21315.3 3760.52   3
 -14   2   2 52544.6 5776.59   3
 -14   4   1 46009.3 5725.65   3
 -14   4   2 77393.0 7433.25   3
 -14   6   1 75908.9 7661.74   3
 -13   1  -1 34379.0 5063.75   3
 -13  -1  -1 31083.3 4501.11   3
 -13  -1   0 23638.8 3927.73   3
 -13   1   0 18807.4 3389.55   3
 -13  -1   1 101100. 7833.25   3
 -13   1   1 98423.8 8043.96   3
 -13   1   2 38241.5 4551.45   3
 -13   3  -1 34928.5 5179.72   3
 -13  -3  -1 28123.6 4167.11   3
 -13   3   0 134148. 10226.1   3
 -13  -3   0 151212. 10394.0   3
 -13  -3   1 26763.4 3836.92   3
 -13   3   1 23987.7 3809.57   3
 -13   3   2 25613.5 3937.83   3
 -13  -5  -1 85418.3 7535.65   3
 -13   5  -1 91188.8 8340.68   3
 -13   5   0 29032.1 4381.68   3
 -13  -5   0 31985.5 4164.61   3
 -13  -5   1 24050.1 3452.91   3
 -13   5   1 17256.9 3364.99   3
 -13   5   2 77942.9 7250.47   3
 -13  -7  -1 26220.5 3955.35   3
 -13   7   0 31547.0 4560.06   3
 -13  -7   0 25250.1 3600.40   3
 -13   7   1 58258.7 6381.50   3
 -13   7   2 45496.3 5603.21   3
 -13   7   3 35661.5 4939.27   3
 -13  -9   0 39922.0 4565.71   3
 -13   9   0 38419.9 5173.59   3
 -13   9   1 99333.5 8604.57   3
 -13   9   2 33911.1 4976.34   3
 -13   9   3 28690.6 4532.19   3
 -13  11   1 30290.1 4540.71   3
 -13  11   2 44404.6 5849.56   3
 -12   0  -2 9720.23 2537.42   3
 -12   0  -1 138578. 10469.5   3
 -12   0   0 33982.8 4207.08   3
 -12   0   1 2942.41 1269.07   3
 -12   0   2 236251. 12633.4   3
 -12   2  -2 81862.1 7584.87   3
 -12  -2  -2 72464.5 7024.97   3
 -12   2  -1 51152.2 5852.49   3
 -12  -2  -1 47179.9 5321.34   3
 -12  -2   0 54211.4 5511.91   3
 -12   2   0 43909.2 5107.62   3
 -12   2   1 107246. 8108.56   3
 -12  -2   1 115512. 7918.16   3
 -12   2   2 47486.3 4959.88   3
 -12   4  -2 108789. 9138.72   3
 -12  -4  -2 86317.0 7714.83   3
 -12  -4  -1 12358.6 2516.82   3
 -12   4  -1 10475.3 2496.37   3
 -12   4   0 45749.7 5265.58   3
 -12  -4   0 52276.6 5252.47   3
 -12   4   1 86270.9 7464.69   3
 -12  -4   1 104905. 7368.46   3
 -12   4   2 10458.1 2338.72   3
 -12   6  -2 20529.8 3986.65   3
 -12  -6  -2 19923.8 3505.39   3
 -12  -6  -1 34648.9 4319.91   3
 -12   6  -1 35907.3 4843.69   3
 -12   6   0 84838.2 7488.72   3
 -12  -6   0 86756.4 6701.98   3
 -12  -6   1 46606.5 4556.41   3
 -12   6   1 33216.9 4478.21   3
 -12   6   2 62738.9 6367.23   3
 -12   6   3 56635.4 6046.43   3
 -12  -8  -1 98622.2 7791.97   3
 -12   8  -1 101640. 8598.78   3
 -12  -8   0 72238.4 6031.81   3
 -12   8   0 76590.0 7196.29   3
 -12   8   1 69156.5 6784.80   3
 -12   8   2 81462.4 7562.45   3
 -12   8   3 74700.4 7162.61   3
 -12 -10  -1 67408.7 6353.50   3
 -12  10  -1 71907.3 7071.61   3
 -12 -10   0 30714.8 3770.08   3
 -12  10   0 28235.6 4243.20   3
 -12  10   1 7177.95 2182.03   3
 -12  10   2 82523.9 7720.25   3
 -12  10   3 18939.0 3530.28   3
 -12  12  -1 16115.7 3252.48   3
 -12 -12  -1 17170.0 3106.18   3
 -12  12   0 32981.2 4650.21   3
 -12  12   1 56601.2 6299.34   3
 -12  12   2 37555.7 5013.06   3
 -12  12   3 31390.3 4671.36   3
 -12  14   0 33492.4 4640.18   3
 -12  14   1 146220. 10743.1   3
 -12  14   2 9960.14 2512.61   3
 -11   1  -3 72301.8 7279.53   3
 -11  -1  -3 72313.4 7277.63   3
 -11   1  -2 35647.5 4612.79   3
 -11  -1  -2 33720.8 4384.39   3
 -11  -1  -1 21180.2 3434.52   3
 -11   1  -1 18557.6 3111.39   3
 -11  -1   0 167664. 9881.50   3
 -11   1   0 161104. 10020.8   3
 -11   1   1 57920.7 5274.61   3
 -11  -1   1 59508.8 5069.69   3
 -11  -1   2 19921.4 2723.66   3
 -11   1   2 23170.8 3091.62   3
 -11   3  -3 11272.9 2660.33   3
 -11  -3  -2 46558.1 5190.42   3
 -11   3  -2 55008.9 6022.59   3
 -11   3  -1 146113. 9820.92   3
 -11  -3  -1 153619. 9783.52   3
 -11  -3   0 14868.0 2558.29   3
 -11   3   0 13474.2 2530.54   3
 -11  -3   1 42989.4 4087.82   3
 -11   3   1 38124.9 4298.24   3
 -11   3   2 146305. 9424.33   3
 -11   3   3 6790.76 1757.74   3
 -11   5  -2 81262.8 7908.23   3
 -11  -5  -2 52476.5 5592.74   3
 -11   5  -1 59889.7 5901.22   3
 -11  -5  -1 54183.5 5181.39   3
 -11   5   0 40776.7 4770.93   3
 -11  -5   0 50401.0 4748.67   3
 -11   5   1 64328.5 6176.25   3
 -11  -5   1 96527.3 6478.69   3
 -11   5   2 82601.5 6895.74   3
 -11   5   3 45120.4 4864.43   3
 -11  -7  -2 49585.6 5466.92   3
 -11   7  -2 56239.3 6308.22   3
 -11   7  -1 59834.5 5940.26   3
 -11  -7  -1 52986.9 5131.66   3
 -11   7   0 74158.8 6750.99   3
 -11  -7   0 86119.4 6164.48   3
 -11  -7   1 88356.2 6046.79   3
 -11   7   1 77660.6 6984.55   3
 -11   7   2 80181.7 6938.86   3
 -11   7   3 46796.5 5245.14   3
 -11   9  -2 74732.3 7035.95   3
 -11  -9  -2 75318.2 7076.92   3
 -11  -9  -1 33696.1 4057.58   3
 -11   9  -1 34408.5 4493.81   3
 -11  -9   0 97831.2 6763.19   3
 -11   9   0 91074.7 7561.52   3
 -11   9   1 94326.1 7825.02   3
 -11   9   2 32454.5 4315.10   3
 -11   9   3 46856.0 5473.15   3
 -11  11  -2 24508.5 3788.29   3
 -11 -11  -2 21304.2 3553.88   3
 -11  11  -1 23082.6 3663.39   3
 -11 -11  -1 20952.8 3259.42   3
 -11 -11   0 88852.0 6558.40   3
 -11  11   0 82707.9 7311.60   3
 -11  11   1 32419.6 4383.67   3
 -11  11   2 20648.6 3443.16   3
 -11  11   3 98731.8 8446.44   3
 -11  11   4 32332.5 4734.00   3
 -11  13  -1 137114. 9727.78   3
 -11 -13  -1 129778. 9101.81   3
 -11  13   0 18054.2 3243.14   3
 -11  13   1 52599.6 5677.58   3
 -11  13   2 134352. 9884.42   3
 -11  13   3 7947.31 2385.18   3
 -11  15  -1 61362.5 6185.71   3
 -11 -15  -1 58170.0 5676.71   3
 -11  15   0 23757.7 3768.23   3
 -11  15   1 18945.8 3354.38   3
 -11  15   2 47319.6 5465.88   3
 -11  15   3 24941.6 4170.46   3
 -11  17   0 111599. 9050.07   3
 -11  17   1 30341.7 4274.54   3
 -11  17   2 1973.78 1124.55   3
 -10   0  -3 5908.78 1909.00   3
 -10   0  -2 213934. 12266.6   3
 -10   0  -1 53183.6 5019.20   3
 -10   0   0 20302.9 2775.14   3
 -10   0   1 293465. 13840.0   3
 -10   0   2 59584.7 4752.60   3
 -10  -2  -3 71211.2 6772.03   3
 -10   2  -3 75349.8 6935.17   3
 -10   2  -2 50085.4 5308.71   3
 -10  -2  -2 43913.1 4689.22   3
 -10  -2  -1 55552.5 5373.73   3
 -10   2  -1 56441.6 5262.66   3
 -10  -2   0 98403.5 6520.77   3
 -10   2   0 90468.4 6699.04   3
 -10  -2   1 65600.2 4890.34   3
 -10   2   1 61398.4 5160.04   3
 -10  -2   2 118024. 6967.18   3
 -10   2   2 114003. 7555.59   3
 -10   2   3 79368.2 5941.63   3
 -10  -4  -3 87326.6 7628.80   3
 -10   4  -3 80883.1 7251.62   3
 -10   4  -2 11399.3 2554.63   3
 -10  -4  -2 7952.89 1915.91   3
 -10   4  -1 53499.1 5161.10   3
 -10  -4  -1 45712.1 4490.58   3
 -10   4   0 116189. 8373.66   3
 -10  -4   0 166989. 8913.81   3
 -10  -4   1 12708.6 1944.89   3
 -10   4   1 9996.95 2080.29   3
 -10   4   2 78034.4 5969.44   3
 -10   4   2 56176.0 5706.91   1
 -10   4   3 167289. 9998.44   3
 -10  -6  -3 43402.8 5334.00   3
 -10   6  -3 40252.6 4820.29   3
 -10   6  -2 88664.6 7265.54   3
 -10  -6  -2 70151.9 6206.65   3
 -10   6  -1 50109.4 5047.42   3
 -10  -6  -1 46471.4 4452.10   3
 -10  -6   0 124736. 7310.51   3
 -10   6   0 96461.5 7438.31   3
 -10  -6   1 159077. 8313.93   3
 -10   6   1 107926. 8255.63   3
 -10   6   2 37477.3 4233.13   3
 -10   6   3 72685.8 6345.69   3
 -10   8  -3 40149.0 4703.95   3
 -10  -8  -3 42029.8 5144.20   3
 -10   8  -2 73633.3 6452.85   3
 -10  -8  -2 62533.0 5919.85   3
 -10  -8  -1 144781. 8840.53   3
 -10   8  -1 148323. 9611.05   3
 -10  -8   0 81325.5 5938.16   5
 -10  -8   0 93216.2 6057.72   3
 -10   8   0 84229.0 6920.24   3
 -10  -8   1 49221.7 3898.50   3
 -10   8   1 40236.9 4556.54   3
 -10   8   2 140131. 9405.41   3
 -10   8   3 48077.6 5286.70   3
 -10   8   4 25846.1 3992.29   3
 -10 -10  -3 10465.7 2458.81   3
 -10 -10  -2 90779.8 7605.69   3
 -10  10  -2 85103.1 7066.16   3
 -10  10  -1 29104.5 3871.61   3
 -10 -10  -1 29179.9 3585.55   3
 -10  10   0 7273.15 1908.06   3
 -10 -10   0 8566.03 1686.78   3
 -10  10   1 90573.1 7191.82   3
 -10  10   2 34795.9 4369.15   3
 -10  10   3 25550.7 3900.37   3
 -10  10   4 98316.4 8534.00   3
 -10 -12  -2 35653.2 4360.59   3
 -10  12  -2 34757.9 4286.64   3
 -10  12  -1 45807.4 4929.11   3
 -10 -12  -1 43401.4 4667.62   3
 -10 -12   0 111517. 7186.50   3
 -10  12   0 104940. 8068.50   3
 -10  12   1 69900.1 6358.15   3
 -10  12   2 63920.0 6241.38   3
 -10  12   3 63524.5 6545.09   3
 -10  12   4 28564.7 4470.36   3
 -10  14  -2 4968.40 1488.25   3
 -10 -14  -2 6966.91 1990.82   3
 -10  14  -1 40084.2 4568.09   3
 -10 -14  -1 38814.4 4269.38   3
 -10  14   0 131082. 9176.04   3
 -10  14   1 14709.3 2744.11   3
 -10  14   2 60874.6 6161.33   3
 -10  14   3 99325.3 8584.43   3
 -10  14   4 17678.6 3586.42   3
 -10 -16  -1 12318.3 2460.64   3
 -10  16  -1 11038.4 2301.70   3
 -10  16   0 13411.9 2718.61   3
 -10  16   1 99127.4 7822.97   3
 -10  16   2 17373.6 3181.55   3
 -10  16   3 15569.6 3187.69   3
 -10  18  -1 51370.7 5357.81   3
 -10  18   0 20778.8 3394.57   3
 -10  18   1 79503.8 7114.10   3
 -10  18   2 42643.5 5249.88   3
 -10  20   0 46514.3 5369.20   3
 -10  20   1 10863.0 2606.03   3
  -9  -1  -4 98350.6 8656.70   3
  -9   1  -4 98165.4 8439.32   3
  -9  -1  -3 46088.7 4929.59   3
  -9   1  -3 47405.6 4995.24   3
  -9   1  -2 35864.6 4123.11   3
  -9  -1  -2 36109.1 3955.97   3
  -9  -1  -1 199770. 10623.8   3
  -9   1  -1 186458. 10350.5   3
  -9  -1   0 86985.5 5724.44   3
  -9   1   0 76854.3 5641.17   3
  -9  -1   1 28897.6 2914.61   3
  -9   1   1 27567.0 2996.18   3
  -9   1   2 141815. 7475.90   3
  -9  -1   2 147154. 7245.13   3
  -9   1   3 77624.0 5421.85   3
  -9  -3  -4 3564.15 1614.42   3
  -9  -3  -3 39749.3 4585.56   3
  -9   3  -3 37563.5 4467.11   3
  -9  -3  -2 110274. 7573.82   3
  -9   3  -2 122645. 8558.41   3
  -9   3  -1 9795.21 1920.10   3
  -9  -3  -1 12072.3 2119.21   3
  -9  -3   0 133118. 7197.97   3
  -9   3   0 105568. 7175.85   3
  -9   3   1 196050. 10568.3   3
  -9  -3   1 205684. 9678.01   3
  -9   3   2 43811.4 4476.84   1
  -9   3   2 48138.5 4326.47   3
  -9   3   3 186545. 10292.7   3
  -9  -5  -3 31571.8 4203.50   3
  -9   5  -3 36014.8 4288.24   3
  -9   5  -2 156356. 9527.94   3
  -9  -5  -2 135194. 8690.18   3
  -9  -5  -1 62370.8 4919.17   3
  -9   5  -1 58130.2 5119.68   3
  -9   5   0 56125.1 5089.92   3
  -9  -5   0 79837.7 5543.51   3
  -9  -5   1 220950. 8276.54   3
  -9   5   1 169253. 8956.26   3
  -9   5   2 44604.6 4864.04   1
  -9   5   2 57641.5 4939.42   3
  -9   5   3 65466.2 5712.36   3
  -9  -7  -4 31943.3 4552.47   4
  -9  -7  -3 58776.3 5980.76   3
  -9   7  -3 57289.5 5530.02   3
  -9  -7  -2 67495.5 5786.34   3
  -9   7  -2 79164.0 6291.06   3
  -9   7  -1 84042.4 6498.25   3
  -9  -7  -1 85756.0 5925.25   3
  -9  -7   0 118046. 6781.31   5
  -9  -7   0 107169. 6327.76   3
  -9   7   0 94358.9 7163.83   3
  -9   7   1 63364.6 6211.33   1
  -9   7   1 67884.9 5827.76   3
  -9   7   2 67371.3 5753.61   1
  -9   7   2 68231.6 5861.66   3
  -9   7   3 70523.2 6248.22   3
  -9   7   4 18174.0 3143.84   3
  -9  -9  -4 45099.6 5723.03   4
  -9  -9  -3 77542.7 6805.41   3
  -9  -9  -2 26652.0 3534.97   3
  -9   9  -2 27964.6 3607.53   3
  -9   9  -1 53159.3 4928.70   3
  -9  -9  -1 45720.6 4181.92   3
  -9   9   0 133568. 8942.87   3
  -9  -9   0 149980. 7906.69   3
  -9  -9   0 151644. 8281.67   5
  -9  -9   1 57279.4 4700.72   5
  -9  -9   1 51032.4 3702.91   3
  -9   9   2 72635.4 6332.78   3
  -9   9   3 138309. 9591.47   3
  -9   9   4 23376.3 3794.76   3
  -9 -11  -4 59384.2 6883.17   4
  -9 -11  -3 6898.97 1863.40   3
  -9  11  -2 44135.0 4555.59   3
  -9 -11  -2 45048.5 4662.29   3
  -9  11  -1 145884. 9133.76   3
  -9 -11  -1 156693. 8997.32   3
  -9 -11   0 23026.8 2915.94   5
  -9 -11   0 27446.7 2954.90   3
  -9  11   0 24506.8 3344.35   3
  -9  11   1 37491.3 4310.98   3
  -9 -11   1 41637.6 4100.36   5
  -9  11   2 113227. 8368.48   3
  -9  11   3 38997.2 4808.71   3
  -9  11   4 58039.4 6426.28   3
  -9 -13  -3 30908.4 4372.11   3
  -9  13  -2 122385. 8171.10   3
  -9 -13  -2 118846. 8324.60   3
  -9 -13  -1 22360.9 2999.27   3
  -9  13  -1 21157.9 3025.10   3
  -9 -13   0 103193. 6606.89   3
  -9  13   0 98583.3 7243.18   3
  -9  13   1 164650. 10231.6   3
  -9  13   2 53207.6 5518.52   3
  -9  13   3 67905.1 6746.61   3
  -9  13   4 98323.7 8929.40   3
  -9 -15  -2 47440.4 5220.68   3
  -9 -15  -1 40680.4 4172.29   3
  -9  15  -1 41618.6 4372.84   3
  -9  15   0 37871.2 4187.27   3
  -9  15   1 43907.7 4766.70   3
  -9  15   2 31836.1 4241.15   3
  -9  15   3 62939.4 6618.81   3
  -9  15   4 39217.0 5597.37   3
  -9 -17  -2 8032.90 2042.92   3
  -9  17  -1 118047. 8098.83   3
  -9 -17  -1 109613. 7780.87   3
  -9  17   0 21632.0 3189.42   3
  -9  17   1 18823.7 3092.78   3
  -9  17   2 115792. 8923.98   3
  -9  17   3 22457.0 3860.00   3
  -9  19   0 71091.0 6262.63   3
  -9  19   1 33421.8 4387.74   3
  -9  19   2 27272.3 4084.01   3
  -9  19   3 74055.9 7406.20   3
  -9  21   0 9443.46 2195.88   3
  -9  21   1 76367.5 7059.15   3
  -9  21   2 24207.1 3937.37   3
  -8   0  -4 39591.5 4911.05   3
  -8   0  -3 243224. 12837.3   3
  -8   0  -2 45990.6 4336.66   3
  -8   0  -1 51366.8 4260.94   3
  -8   0   0 230643. 10826.4   3
  -8   0   1 52375.4 3988.54   3
  -8   0   2 31150.8 2885.24   3
  -8   0   2 24068.5 2984.95   1
  -8   2  -4 30599.0 4101.43   3
  -8  -2  -4 29152.6 4212.33   3
  -8  -2  -3 36442.7 4055.51   3
  -8   2  -3 32613.2 3829.84   3
  -8   2  -2 116152. 7889.93   3
  -8  -2  -2 98009.2 6699.96   3
  -8  -2  -1 68967.8 5122.05   3
  -8   2  -1 59531.6 4808.96   3
  -8   2   0 76999.8 5348.12   3
  -8  -2   0 89411.7 5398.13   3
  -8  -2   1 331590. 13633.0   3
  -8   2   1 314293. 14223.7   3
  -8   2   2 58930.9 4995.15   1
  -8   2   2 78024.5 5341.16   3
  -8   2   3 67169.9 5085.52   3
  -8  -4  -4 83928.7 7326.14   3
  -8   4  -3 27632.3 3437.69   3
  -8  -4  -3 21411.0 3172.62   3
  -8  -4  -2 37254.5 3801.55   3
  -8   4  -2 50277.0 4510.70   3
  -8  -4  -1 219502. 10499.3   3
  -8   4  -1 187926. 10224.6   3
  -8   4   0 71544.3 5458.12   3
  -8  -4   0 84565.4 5118.93   3
  -8   4   1 132071. 7736.37   3
  -8  -4   1 138854. 6913.35   3
  -8   4   2 239574. 11765.8   1
  -8  -4   2 258220. 10479.4   3
  -8   4   3 91657.4 6591.01   3
  -8  -6  -4 83699.3 7496.19   3
  -8  -6  -4 86276.1 7532.63   4
  -8   6  -3 96260.0 7069.92   3
  -8  -6  -3 99352.2 7589.79   3
  -8  -6  -2 25735.4 3114.47   3
  -8   6  -2 29429.0 3385.05   3
  -8  -6  -1 153292. 8140.50   3
  -8   6  -1 150850. 8781.22   3
  -8  -6   0 116847. 6332.87   3
  -8   6   0 87443.5 6441.09   3
  -8   6   1 18820.8 2759.41   1
  -8   6   1 17284.0 2554.26   3
  -8   6   2 152799. 8592.51   1
  -8   6   2 143318. 8827.15   3
  -8   6   3 75995.1 6222.31   3
  -8   6   4 36597.5 4537.00   3
  -8  -8  -4 30272.4 4402.66   3
  -8  -8  -4 26405.4 4130.76   4
  -8   8  -3 26935.7 3404.22   3
  -8  -8  -3 27798.2 3709.67   3
  -8   8  -2 162905. 9201.30   3
  -8  -8  -2 131166. 8424.66   3
  -8  -8  -1 54028.9 4275.05   3
  -8   8  -1 55469.7 4693.83   3
  -8  -8   0 93398.1 5413.71   3
  -8  -8   0 97865.0 5733.81   5
  -8   8   0 84317.6 6242.16   3
  -8  -8   1 274127. 10981.8   3
  -8   8   1 247858. 13022.2   1
  -8   8   2 22799.8 3145.57   3
  -8   8   2 20068.0 2826.25   1
  -8   8   3 90201.1 6515.28   1
  -8   8   3 104710. 7892.35   3
  -8   8   4 167660. 11122.0   3
  -8 -10  -4 14398.0 3212.96   4
  -8 -10  -3 81838.9 6716.31   3
  -8  10  -2 49996.4 4638.74   3
  -8 -10  -2 57680.2 5213.67   3
  -8 -10  -1 31599.8 3217.22   3
  -8  10  -1 28746.1 3325.38   3
  -8 -10   0 138229. 6913.12   3
  -8  10   0 123082. 7744.52   3
  -8 -10   0 134757. 7294.04   5
  -8  10   1 83901.9 6552.53   1
  -8  10   1 84915.5 6684.05   3
  -8 -10   1 93782.6 6062.59   5
  -8 -10   1 101034. 5330.76   3
  -8 -10   2 39821.6 3738.31   5
  -8  10   2 36090.1 4228.87   3
  -8  10   2 41718.3 4618.21   1
  -8  10   3 131370. 9313.55   3
  -8  10   4 68035.1 6664.80   3
  -8 -12  -4 63839.4 7211.36   4
  -8 -12  -3 45522.4 5055.95   3
  -8 -12  -2 37818.6 4001.28   3
  -8  12  -2 36236.7 3821.96   3
  -8  12  -1 116021. 7596.57   3
  -8 -12  -1 122415. 7487.90   3
  -8 -12   0 62124.8 4388.87   3
  -8 -12   0 57268.4 4571.93   5
  -8  12   0 46164.9 4496.54   3
  -8  12   1 48893.6 4828.85   3
  -8 -12   1 50299.2 4358.74   5
  -8 -12   2 122665. 7490.11   5
  -8  12   2 120851. 8652.26   3
  -8  12   3 59155.0 6064.11   3
  -8  12   4 28202.6 4210.69   3
  -8 -14  -4 54703.3 6846.96   4
  -8 -14  -3 22948.7 3568.74   3
  -8  14  -2 62815.8 5234.35   3
  -8 -14  -2 66328.4 5717.70   3
  -8  14  -1 104008. 7100.89   3
  -8 -14  -1 100363. 6614.55   3
  -8 -14   0 81608.0 5366.20   3
  -8  14   0 86898.0 6363.34   3
  -8 -14   0 86014.9 6376.30   5
  -8 -14   1 124980. 7943.88   5
  -8  14   1 124712. 8418.98   3
  -8  14   2 89352.0 7357.55   3
  -8  14   3 35068.3 4641.75   3
  -8  14   4 68117.6 6952.05   3
  -8 -16  -2 15446.3 2723.71   3
  -8  16  -1 42087.2 4273.55   3
  -8 -16  -1 40453.4 4148.00   3
  -8  16   0 91649.8 6699.98   3
  -8  16   1 31697.6 3905.00   3
  -8  16   2 46846.7 5303.19   3
  -8  16   3 84296.8 7676.09   3
  -8  16   4 20315.4 3789.70   3
  -8  18  -1 18355.2 2816.15   3
  -8  18   0 80047.1 6320.58   3
  -8  18   1 71405.7 6281.88   3
  -8  18   2 10368.5 2453.45   3
  -8  18   3 87035.2 7931.63   3
  -8  18   4 83167.4 8079.60   3
  -8  20   0 24848.0 3445.79   3
  -8  20   1 55363.6 5643.50   3
  -8  20   2 19888.0 3478.51   3
  -8  20   3 18301.6 3491.37   3
  -8  22   0 25279.5 3576.28   3
  -8  22   1 16794.6 3130.52   3
  -8  22   2 86056.5 7873.88   3
  -7   1  -4 51232.3 5295.12   3
  -7  -1  -4 61338.7 5828.08   3
  -7  -1  -3 39897.2 4008.42   3
  -7   1  -3 42037.6 4042.87   3
  -7   1  -2 141107. 8241.96   3
  -7  -1  -2 132278. 7679.49   3
  -7  -1  -1 129876. 6997.48   3
  -7   1  -1 124447. 6952.61   3
  -7  -1   0 53419.2 3702.66   3
  -7   1   0 49922.2 3704.53   3
  -7  -1   1 193368. 8496.20   3
  -7   1   1 161099. 8351.79   3
  -7   1   2 154088. 7943.24   1
  -7  -1   2 169590. 7808.50   3
  -7  -1   2 157588. 7903.53   1
  -7   1   2 159652. 8173.04   3
  -7   1   3 53947.9 4266.02   3
  -7  -3  -4 49129.4 5105.87   3
  -7  -3  -3 68063.6 5504.42   3
  -7   3  -3 61807.1 5109.45   3
  -7  -3  -2 59385.1 4603.63   3
  -7   3  -2 69604.8 5099.06   3
  -7   3  -1 237158. 11894.6   3
  -7  -3  -1 321755. 13168.3   3
  -7   3   0 187388. 9478.44   3
  -7  -3   0 205521. 9109.11   3
  -7   3   1 142685. 7787.33   3
  -7  -3   1 159157. 7278.36   3
  -7   3   2 286531. 12882.5   3
  -7   3   2 272407. 12509.4   1
  -7   3   3 88606.5 6218.36   3
  -7  -5  -4 17696.4 3061.75   4
  -7  -5  -4 14388.8 2737.87   3
  -7  -5  -3 241663. 12364.4   3
  -7   5  -3 215078. 11439.8   3
  -7   5  -2 78838.7 5378.43   3
  -7  -5  -2 62319.1 4849.70   3
  -7  -5  -1 22379.1 1989.05   5
  -7   5  -1 18309.3 2360.84   3
  -7  -5  -1 21430.1 2345.06   3
  -7   5   0 267372. 13202.1   3
  -7  -5   0 339448. 13090.0   3
  -7   5   1 126301. 7474.38   3
  -7   5   1 119415. 7309.50   1
  -7  -5   1 144403. 6554.77   3
  -7  -5   2 28863.9 2235.54   3
  -7   5   2 23906.8 2585.90   1
  -7   5   2 24019.9 2956.75   3
  -7   5   3 194523. 9058.69   1
  -7   5   3 190791. 10682.2   3
  -7   5   4 72096.6 5975.16   3
  -7  -7  -4 66814.9 6250.49   3
  -7  -7  -4 53547.6 5779.52   4
  -7   7  -3 56504.4 4915.86   3
  -7  -7  -3 61760.7 5405.68   3
  -7   7  -2 72433.4 5212.15   3
  -7  -7  -2 56612.0 4768.53   3
  -7  -7  -1 106707. 5509.24   5
  -7   7  -1 92243.3 6148.83   3
  -7  -7  -1 105775. 6008.93   3
  -7   7   0 60273.2 4714.88   3
  -7  -7   0 73681.9 4340.71   3
  -7   7   1 100274. 7456.89   1
  -7   7   1 106718. 7194.93   3
  -7   7   2 141849. 7979.74   1
  -7   7   2 152641. 9163.37   3
  -7   7   3 33507.7 3749.73   3
  -7   7   3 28771.7 2966.43   1
  -7   7   4 90169.0 7097.52   3
  -7  -9  -5 22806.1 4202.36   4
  -7  -9  -4 77072.0 7346.60   4
  -7  -9  -4 88471.2 7542.38   3
  -7  -9  -3 12713.8 2331.42   3
  -7   9  -2 105823. 6680.50   3
  -7  -9  -2 95934.7 6662.99   3
  -7  -9  -1 203846. 9620.70   5
  -7  -9  -1 208564. 10075.5   3
  -7   9   0 9017.79 2283.43   1
  -7  -9   0 15014.0 1769.44   3
  -7  -9   0 14185.7 1806.72   5
  -7   9   0 13555.3 2110.03   3
  -7   9   1 204398. 10559.5   1
  -7  -9   1 212019. 8880.28   3
  -7  -9   1 219763. 9994.10   5
  -7   9   2 268431. 12720.2   1
  -7   9   2 217733. 12434.6   3
  -7   9   3 2254.79 841.133   1
  -7   9   3 3837.14 1259.89   3
  -7   9   4 84172.0 7053.25   3
  -7 -11  -4 9849.77 2340.74   3
  -7 -11  -4 10371.1 2741.51   4
  -7 -11  -3 70674.8 6057.37   3
  -7 -11  -2 83137.1 5977.95   3
  -7  11  -2 86431.2 5869.28   3
  -7 -11  -1 34386.0 3221.08   5
  -7  11  -1 36067.3 3564.63   3
  -7 -11  -1 33625.8 3250.13   3
  -7 -11   0 157218. 7489.27   3
  -7  11   0 134287. 8102.21   3
  -7 -11   0 149338. 7764.38   5
  -7  11   0 133179. 8934.07   1
  -7 -11   1 106994. 6195.60   5
  -7  11   1 94740.9 6340.69   1
  -7  11   1 95228.5 6834.24   3
  -7  11   2 35852.4 4088.25   3
  -7  11   2 42696.8 4154.84   1
  -7 -11   2 39578.0 3518.32   5
  -7 -11   3 155438. 8456.07   5
  -7  11   3 144587. 9498.46   3
  -7  11   4 83438.5 7216.67   3
  -7 -13  -4 28633.3 4661.24   4
  -7 -13  -3 84890.4 6904.66   3
  -7 -13  -2 62720.5 5233.37   3
  -7  13  -2 68601.5 5095.42   3
  -7 -13  -1 89581.8 5751.07   3
  -7  13  -1 90282.9 6119.89   3
  -7 -13   0 119720. 7238.67   5
  -7 -13   0 120819. 6515.72   3
  -7  13   0 131682. 7766.94   3
  -7  13   1 76734.6 6102.66   3
  -7 -13   1 88842.3 5826.98   5
  -7 -13   2 84147.9 5783.65   5
  -7  13   2 86928.3 6811.76   3
  -7  13   3 68355.9 6188.44   3
  -7  13   4 62891.2 6336.94   3
  -7  13   5 33815.5 4857.77   3
  -7 -15  -4 25845.5 4583.35   4
  -7 -15  -3 52951.4 5479.72   3
  -7 -15  -2 55082.4 5062.10   3
  -7 -15  -1 99093.6 6424.38   3
  -7  15  -1 93296.4 6381.48   3
  -7 -15   0 80993.2 5161.93   3
  -7 -15   0 76688.5 5914.88   5
  -7  15   0 77599.1 5792.22   3
  -7 -15   1 29156.6 3308.74   5
  -7  15   1 25176.9 3315.31   3
  -7  15   2 51269.3 5167.34   3
  -7  15   3 46642.8 5094.91   3
  -7  15   4 26153.0 4072.32   3
  -7 -17  -4 12969.4 3297.78   4
  -7  17  -1 22577.6 2887.90   3
  -7 -17  -1 25097.4 3086.29   3
  -7  17   0 28965.4 3419.42   3
  -7  17   1 170483. 10252.4   3
  -7  17   2 94579.6 7522.97   3
  -7  17   3 36077.8 4539.92   3
  -7  17   4 92482.5 8151.66   3
  -7  19   0 6460.49 1664.03   3
  -7  19   1 56930.7 5481.85   3
  -7  19   2 132870. 9564.73   3
  -7  19   3 2529.38 1179.29   3
  -7  19   4 47185.8 5713.11   3
  -7  21   0 75621.6 6194.81   3
  -7  21   1 33033.9 4241.38   3
  -7  21   2 11194.0 2657.16   3
  -7  21   3 23224.7 3869.08   3
  -7  23   1 22920.5 3670.85   3
  -7  23   2 19197.5 3720.24   3
  -6   0  -4 150521. 9433.86   3
  -6   0  -3 100165. 6391.60   3
  -6   0  -2 61344.8 4455.08   3
  -6   0  -1 172802. 8187.38   3
  -6   0   0 347485. 13756.9   3
  -6   0   1 139442. 6640.52   3
  -6   0   2 399015. 15905.5   1
  -6   0   2 452578. 16916.7   3
  -6   0   3 141920. 7472.23   3
  -6  -2  -4 54318.9 4996.16   3
  -6   2  -4 47830.6 4672.29   3
  -6  -2  -4 47933.6 4751.92   4
  -6   2  -3 158466. 8670.44   3
  -6  -2  -3 166243. 8987.01   3
  -6  -2  -2 41541.5 3457.46   3
  -6   2  -2 48255.5 3847.22   3
  -6   2  -1 100788. 5785.13   3
  -6  -2  -1 116622. 6030.25   3
  -6   2   0 307048. 12776.5   3
  -6  -2   0 307592. 12304.8   3
  -6  -2   1 86874.4 4582.92   3
  -6   2   1 79459.8 4903.04   3
  -6   2   2 228767. 10112.1   3
  -6  -2   2 236835. 8996.51   3
  -6   2   3 132396. 7409.26   3
  -6   2   3 117338. 5560.25   1
  -6  -4  -4 49083.7 5037.20   4
  -6  -4  -4 48547.1 4804.45   3
  -6   4  -3 60057.3 4658.90   3
  -6  -4  -3 63880.4 5072.09   3
  -6  -4  -2 156133. 8482.21   3
  -6   4  -2 193243. 8965.26   3
  -6  -4  -1 181183. 8108.30   3
  -6  -4  -1 166190. 7050.51   5
  -6  -4   0 189126. 8077.03   3
  -6   4   0 175138. 8601.60   3
  -6  -4   1 225356. 8999.20   3
  -6   4   1 200194. 9955.63   3
  -6   4   2 163443. 7594.79   1
  -6  -4   2 172516. 6927.06   3
  -6   4   2 180965. 8959.03   3
  -6   4   3 76491.6 4258.71   1
  -6   4   3 68949.9 5270.01   3
  -6   4   4 124358. 7785.60   3
  -6  -6  -5 99690.7 8705.97   4
  -6  -6  -4 38256.7 4585.80   4
  -6  -6  -4 41880.7 4533.17   3
  -6   6  -3 11859.5 1931.05   3
  -6  -6  -3 12357.0 2197.10   3
  -6  -6  -2 207374. 10399.2   3
  -6   6  -2 239704. 10806.1   3
  -6  -6  -1 97019.8 5307.96   3
  -6  -6  -1 88017.1 4652.12   5
  -6   6  -1 95056.8 5641.98   3
  -6  -6   0 28651.4 2339.39   3
  -6   6   0 21644.7 2380.33   3
  -6   6   1 287964. 13217.2   1
  -6  -6   1 313527. 11789.5   3
  -6   6   1 282647. 13244.2   3
  -6   6   2 132019. 7829.16   3
  -6   6   2 142870. 7289.64   1
  -6   6   3 26839.6 2492.74   1
  -6   6   3 26318.9 3116.91   3
  -6   6   4 172495. 10156.6   3
  -6  -8  -5 4271.21 1678.50   4
  -6  -8  -4 50621.3 5549.61   4
  -6  -8  -4 59693.6 5714.50   3
  -6   8  -3 179828. 9382.09   3
  -6  -8  -3 164401. 9466.34   3
  -6  -8  -2 1328.05 635.827   3
  -6   8  -2 3490.63 925.985   3
  -6  -8  -1 188544. 8559.57   3
  -6   8  -1 194046. 9217.84   3
  -6  -8   0 328906. 12373.6   3
  -6  -8   0 303742. 12423.6   5
  -6   8   1 13448.9 1977.30   1
  -6  -8   1 13231.1 1369.32   3
  -6   8   1 15396.9 2248.91   3
  -6   8   2 181835. 9931.64   3
  -6   8   2 192166. 9400.52   1
  -6   8   3 262234. 11674.6   1
  -6   8   3 240801. 12608.8   3
  -6   8   4 1308.12 867.548   3
  -6  -8   4 1514.33 663.078   5
  -6 -10  -5 22278.9 4233.06   4
  -6 -10  -4 60411.5 5909.54   3
  -6 -10  -4 65869.3 6624.65   4
  -6 -10  -3 79513.2 6121.78   3
  -6 -10  -2 57789.9 4610.80   3
  -6  10  -2 64105.3 4546.11   3
  -6 -10  -1 179337. 8668.86   3
  -6 -10  -1 161375. 8253.32   5
  -6  10  -1 189745. 9090.21   3
  -6  10   0 148795. 8595.58   1
  -6 -10   0 152409. 7530.15   5
  -6  10   0 139464. 8123.89   3
  -6 -10   0 170034. 7428.10   3
  -6  10   1 75029.4 5558.87   3
  -6 -10   1 65224.1 3739.65   3
  -6 -10   1 76861.8 4572.11   5
  -6 -10   2 154530. 7767.51   5
  -6  10   2 155060. 8294.95   1
  -6  10   2 138673. 8560.36   3
  -6  10   3 91406.7 6918.25   3
  -6  10   3 113076. 6821.19   1
  -6 -10   3 96159.3 5960.30   5
  -6  10   4 34593.9 4280.08   3
  -6 -10   4 34829.3 3391.61   5
  -6 -12  -5 57553.9 7125.34   4
  -6 -12  -4 26419.8 4349.13   4
  -6 -12  -3 22965.5 3213.37   3
  -6 -12  -2 91936.5 6323.10   3
  -6  12  -2 113035. 6442.63   3
  -6 -12  -1 48800.3 3698.92   3
  -6 -12  -1 44817.7 3757.12   5
  -6  12  -1 49742.9 3926.94   3
  -6  12  -1 41579.3 4409.93   1
  -6  12   0 55439.7 4609.34   1
  -6 -12   0 54592.2 4060.45   5
  -6 -12   0 58336.2 3764.93   3
  -6  12   0 50714.8 4297.50   3
  -6  12   1 196873. 10194.0   1
  -6  12   1 220139. 11403.9   3
  -6 -12   1 233415. 10337.2   5
  -6 -12   2 102473. 6166.62   5
  -6  12   2 97349.9 6919.31   3
  -6  12   2 110183. 6800.30   1
  -6  12   3 23279.5 3271.91   3
  -6 -12   3 28167.2 2988.27   5
  -6  12   4 112595. 8591.76   3
  -6  12   5 38433.0 5058.83   3
  -6 -14  -4 67403.6 7330.75   4
  -6 -14  -3 84512.5 6767.08   3
  -6 -14  -2 62527.5 5129.50   3
  -6  14  -1 100254. 7222.65   1
  -6 -14  -1 99698.6 6495.87   5
  -6  14  -1 98804.0 6134.18   3
  -6 -14  -1 110716. 6316.74   3
  -6 -14   0 113971. 6968.03   5
  -6  14   0 103079. 6704.86   1
  -6  14   0 113007. 6984.09   3
  -6 -14   0 121638. 6197.97   3
  -6  14   1 55866.9 4876.07   3
  -6  14   1 59696.2 4719.75   1
  -6 -14   1 53546.0 4319.47   5
  -6  14   2 72020.0 5892.10   3
  -6 -14   2 83257.5 5562.67   5
  -6  14   3 54256.2 5331.59   3
  -6 -14   3 57003.2 4655.19   5
  -6  14   4 45989.9 5283.93   3
  -6  14   5 78320.4 7658.86   3
  -6 -16  -4 40163.5 5741.91   4
  -6 -16  -2 67629.3 5585.13   3
  -6  16  -1 73294.2 5149.92   3
  -6 -16  -1 75240.5 5288.41   3
  -6 -16  -1 71388.2 5644.02   5
  -6 -16   0 62933.0 4331.40   3
  -6  16   0 57790.3 4765.81   3
  -6 -16   0 56133.9 4915.23   5
  -6 -16   1 86040.2 6057.44   5
  -6  16   1 72239.1 5945.24   3
  -6  16   2 72049.2 6014.38   3
  -6 -16   2 72651.3 5562.18   5
  -6  16   3 29510.1 3925.01   3
  -6  16   4 50374.4 5700.21   3
  -6 -18  -4 22368.7 4326.76   4
  -6  18  -1 97657.0 6256.92   3
  -6  18   0 136191. 8290.58   3
  -6  18   1 10630.2 2220.04   3
  -6  18   2 127266. 8679.92   3
  -6  18   3 125539. 9078.55   3
  -6  18   4 6010.21 2038.56   3
  -6  20   0 59936.9 5166.74   3
  -6  20   1 7941.35 1909.35   3
  -6  20   2 45555.8 4936.03   3
  -6  20   3 34492.4 4536.12   3
  -6  20   4 13632.7 2953.58   3
  -6 -22  -3 2356.19 1563.10   4
  -6  22   0 4005.41 1229.30   3
  -6  22   1 96222.4 7745.66   3
  -6  22   2 21051.2 3545.73   3
  -6  22   3 5482.99 1810.51   3
  -6  24   1 30842.9 4237.97   3
  -6  24   2 53800.1 6153.15   3
  -5   1  -4 32582.8 3638.90   3
  -5  -1  -4 34801.4 3757.25   4
  -5  -1  -4 29663.1 3398.15   3
  -5  -1  -3 101685. 6028.76   3
  -5   1  -3 96073.8 5871.24   4
  -5   1  -3 92337.1 5769.66   3
  -5   1  -2 278630. 10790.2   3
  -5  -1  -2 186707. 9504.56   3
  -5   1  -1 110959. 5612.33   3
  -5  -1  -1 113514. 5557.31   3
  -5   1   0 306685. 12170.8   3
  -5  -1   0 308179. 11920.8   3
  -5  -1   1 234949. 8323.25   3
  -5   1   1 223555. 8675.49   3
  -5  -1   2 101545. 4377.73   1
  -5   1   2 128441. 6236.22   3
  -5  -1   2 136207. 5731.61   3
  -5   1   2 97219.3 4715.40   1
  -5  -1   2 77089.3 4378.40   1
  -5   1   3 181148. 8980.32   3
  -5   1   3 174891. 7275.14   1
  -5  -3  -4 43148.9 4436.11   4
  -5  -3  -4 41094.1 4079.35   3
  -5  -3  -3 149980. 7954.29   3
  -5   3  -3 132048. 7328.04   3
  -5   3  -2 235134. 9781.80   3
  -5  -3  -2 187088. 9270.12   3
  -5   3  -1 83817.7 4773.38   3
  -5  -3  -1 92920.5 5025.54   3
  -5  -3   0 378969. 13698.8   3
  -5   3   0 338467. 13946.0   3
  -5   3   1 167756. 7857.51   3
  -5  -3   1 190948. 7090.53   3
  -5  -3   2 86573.6 3880.78   1
  -5   3   2 93096.7 5604.88   3
  -5  -3   2 96949.4 4547.66   3
  -5  -3   2 97547.4 4016.50   1
  -5   3   3 320602. 12299.8   1
  -5   3   3 326874. 14342.1   3
  -5  -5  -5 4338.39 1731.14   4
  -5  -5  -4 180891. 10858.1   4
  -5  -5  -4 180447. 10330.2   3
  -5  -5  -3 67170.1 5126.07   3
  -5   5  -3 70338.6 4738.89   3
  -5  -5  -2 34580.6 2977.90   3
  -5   5  -2 38471.9 3070.18   3
  -5  -5  -1 374834. 14333.4   3
  -5   5  -1 401040. 14855.1   3
  -5   5   0 174155. 8704.57   3
  -5  -5   0 223993. 8672.67   3
  -5   5   1 67534.3 4343.06   1
  -5   5   1 60966.5 4199.93   3
  -5  -5   1 63138.3 3110.99   3
  -5  -5   2 211650. 9754.18   3
  -5  -5   2 256914. 9388.20   1
  -5   5   2 417956. 12127.0   1
  -5   5   2 383212. 13248.9   3
  -5   5   3 31718.9 2430.67   1
  -5   5   3 33984.7 3467.75   3
  -5   5   4 6671.24 1600.14   3
  -5  -7  -5 53415.4 6159.85   4
  -5  -7  -4 49897.1 5284.83   4
  -5  -7  -4 47740.5 4797.24   3
  -5  -7  -3 67218.8 5190.45   3
  -5   7  -3 87227.7 5313.35   3
  -5  -7  -2 88144.0 5543.95   3
  -5   7  -2 94871.3 5455.83   3
  -5  -7  -1 27139.9 2140.26   5
  -5   7  -1 37039.8 2959.40   3
  -5  -7  -1 34466.8 2637.23   3
  -5   7   0 224233. 10253.4   3
  -5  -7   0 225415. 9194.87   3
  -5  -7   0 229054. 9373.90   5
  -5   7   1 175224. 7833.75   3
  -5   7   1 165977. 7388.40   1
  -5   7   2 72689.7 5179.73   3
  -5   7   2 73690.4 4461.71   1
  -5   7   3 135549. 8156.75   3
  -5   7   3 141845. 6938.56   1
  -5  -7   4 113151. 6369.47   5
  -5   7   4 109726. 7613.58   3
  -5  -9  -5 100481. 9050.54   4
  -5  -9  -4 2027.54 838.385   3
  -5  -9  -4 2623.28 1185.93   4
  -5  -9  -3 130354. 7873.23   3
  -5  -9  -2 223268. 10807.2   3
  -5   9  -2 244377. 10657.2   3
  -5  -9  -1 12992.5 1576.86   5
  -5  -9  -1 14961.1 1758.12   3
  -5   9  -1 15177.6 1864.40   3
  -5  -9   0 230724. 9122.02   3
  -5  -9   0 213879. 9263.45   5
  -5   9   0 198474. 9913.45   3
  -5   9   0 218224. 10368.0   1
  -5  -9   1 287701. 10869.3   5
  -5   9   1 254480. 11096.5   1
  -5   9   1 279156. 11936.4   3
  -5  -9   2 28677.4 2522.18   5
  -5   9   2 26744.8 2993.89   3
  -5   9   2 23434.2 2437.58   1
  -5  -9   3 140286. 7193.41   5
  -5   9   3 137659. 8451.52   3
  -5   9   3 143137. 7528.73   1
  -5   9   4 167034. 10163.4   3
  -5 -11  -5 12056.8 3022.59   4
  -5 -11  -4 87058.6 7819.62   4
  -5 -11  -3 49327.2 4580.28   3
  -5 -11  -2 55794.3 4309.40   3
  -5  11  -2 64210.8 4295.15   3
  -5 -11  -1 238880. 10834.4   5
  -5  11  -1 253082. 10964.9   3
  -5 -11  -1 265939. 10922.7   3
  -5  11   0 180643. 9024.65   1
  -5 -11   0 155562. 7921.56   5
  -5  11   0 183077. 8894.16   3
  -5 -11   0 179496. 7793.70   3
  -5  11   1 85892.0 5159.91   1
  -5  11   1 86727.3 5502.08   3
  -5  11   2 183037. 10008.2   3
  -5 -11   2 196090. 9045.64   5
  -5  11   2 189082. 9404.32   1
  -5 -11   3 62913.1 4464.35   5
  -5  11   3 74694.1 5296.35   1
  -5  11   3 61342.1 5321.94   3
  -5  11   4 44197.1 4749.27   3
  -5  11   5 56005.7 6040.96   3
  -5 -13  -5 31684.8 5112.88   4
  -5 -13  -4 38180.1 5187.65   4
  -5 -13  -3 73664.3 5910.92   3
  -5 -13  -2 62111.2 4821.52   3
  -5  13  -2 70194.7 4450.10   3
  -5 -13  -1 88030.5 5185.13   3
  -5 -13  -1 74855.5 5201.05   5
  -5  13  -1 95339.5 6188.46   1
  -5  13  -1 80877.5 5071.28   3
  -5 -13   0 107208. 5606.78   3
  -5  13   0 117765. 6630.02   3
  -5 -13   0 106591. 6202.49   5
  -5  13   0 97711.4 6186.06   1
  -5 -13   1 93088.6 5508.78   5
  -5  13   1 80644.4 5693.40   3
  -5  13   1 91263.5 5761.59   1
  -5 -13   2 126794. 6919.96   5
  -5  13   2 115251. 7642.56   3
  -5  13   2 129884. 7498.26   1
  -5  13   3 118886. 8245.00   3
  -5 -13   3 139413. 7487.37   5
  -5  13   4 54939.3 5574.21   3
  -5  13   5 67718.3 6919.53   3
  -5 -15  -5 38917.2 5774.08   4
  -5 -15  -4 54072.2 6514.67   4
  -5 -15  -2 50560.3 4430.25   3
  -5  15  -1 69565.9 4740.77   3
  -5 -15  -1 74437.8 5389.71   5
  -5  15  -1 73612.9 5351.69   1
  -5 -15  -1 74599.7 4909.43   3
  -5  15   0 80093.2 5513.85   1
  -5 -15   0 85188.5 5813.62   5
  -5  15   0 93453.4 5926.78   3
  -5 -15   1 18683.5 2393.33   5
  -5  15   1 13446.6 2172.15   3
  -5  15   1 21784.1 2525.33   1
  -5  15   2 51973.3 4843.39   3
  -5 -15   2 66530.5 4856.29   5
  -5 -15   3 89640.9 6099.53   5
  -5  15   3 80751.4 6669.75   3
  -5  15   4 26550.0 3918.51   3
  -5  15   5 35809.1 5010.15   3
  -5 -17  -4 15580.8 3550.20   4
  -5 -17  -1 56370.5 4967.44   5
  -5  17  -1 47987.9 3888.35   3
  -5  17   0 144301. 8125.56   3
  -5 -17   0 129981. 8239.36   5
  -5  17   1 164804. 9170.51   3
  -5 -17   1 151440. 8866.35   5
  -5  17   2 51649.6 4986.54   3
  -5 -17   2 63157.6 5024.64   5
  -5  17   3 39679.7 4623.79   3
  -5  17   4 58209.9 6158.59   3
  -5 -19  -4 3428.23 1746.22   4
  -5  19   0 125591. 7730.39   3
  -5  19   1 100525. 7029.79   3
  -5  19   2 781.814 754.575   3
  -5  19   3 85420.3 7374.14   3
  -5  19   4 57447.6 6374.97   3
  -5 -21  -3 27948.4 4506.63   4
  -5  21   0 33876.4 3710.83   3
  -5  21   1 9496.57 2087.20   3
  -5  21   2 66442.7 6097.39   3
  -5  21   3 20547.5 3513.27   3
  -5  21   4 9498.50 2541.48   3
  -5 -23  -3 14260.1 3357.84   4
  -5  23   1 16109.4 2901.63   3
  -5  23   2 86383.7 7462.20   3
  -5  23   3 29708.9 4429.42   3
  -5  25   1 47295.4 5362.21   3
  -5  25   2 5868.87 1934.52   3
  -4   0  -4 193427. 10114.4   3
  -4   0  -4 209578. 10939.6   4
  -4   0  -3 129303. 6957.59   4
  -4   0  -3 117148. 6529.15   3
  -4   0  -2 213362. 9209.23   3
  -4   0  -1 280357. 10545.6   5
  -4   0  -1 348984. 11866.5   3
  -4   0   0 312751. 10877.2   3
  -4   0   0 252972. 10479.9   1
  -4   0   1 335430. 12317.1   3
  -4   0   1 303531. 11758.9   1
  -4   0   2 197600. 8023.46   3
  -4   0   2 173533. 6481.37   1
  -4   0   3 121033. 4947.48   1
  -4   0   3 123199. 6564.98   3
  -4  -2  -5 77896.8 6864.08   4
  -4  -2  -4 98229.3 6821.92   4
  -4  -2  -4 87936.0 6059.69   3
  -4  -2  -3 25615.7 2621.38   3
  -4   2  -3 26261.4 2581.84   4
  -4   2  -3 23818.4 2414.20   3
  -4   2  -2 309402. 11092.7   3
  -4  -2  -2 198188. 9675.65   3
  -4  -2  -1 134719. 5438.79   3
  -4   2  -1 114782. 5034.65   3
  -4  -2   0 63837.5 3068.39   3
  -4   2   0 56456.5 3147.18   3
  -4  -2   1 490243. 16544.0   1
  -4   2   1 515693. 18194.0   3
  -4  -2   1 507669. 17084.9   3
  -4   2   2 180516. 8585.35   3
  -4  -2   2 189328. 6975.88   1
  -4  -2   2 174804. 6675.35   1
  -4  -2   2 199030. 7915.78   3
  -4   2   2 195361. 7372.03   1
  -4   2   3 75289.7 4884.75   3
  -4   2   3 70929.5 3531.31   1
  -4  -4  -5 67539.6 6716.19   4
  -4  -4  -4 60163.2 5312.13   4
  -4  -4  -4 57795.3 4885.38   3
  -4   4  -3 145564. 7336.81   3
  -4  -4  -3 145625. 7820.19   3
  -4  -4  -2 180329. 8520.08   3
  -4   4  -2 209044. 8683.75   3
  -4  -4  -1 111210. 5219.47   3
  -4  -4  -1 108584. 4698.94   5
  -4   4  -1 115779. 5427.61   3
  -4   4   0 391835. 15715.0   3
  -4  -4   0 437041. 15265.4   3
  -4  -4   1 367198. 13099.3   1
  -4   4   1 349309. 14644.2   3
  -4  -4   1 394552. 13660.5   3
  -4   4   1 393237. 15150.5   1
  -4  -4   2 32987.9 1241.86   1
  -4  -4   2 30432.8 1211.85   1
  -4   4   2 35530.8 2993.97   3
  -4   4   2 35424.7 2243.76   1
  -4   4   3 277509. 10695.8   1
  -4   4   3 260139. 12200.5   3
  -4   4   4 107030. 6770.67   3
  -4  -6  -5 27345.9 4309.55   4
  -4  -6  -4 27927.8 3687.87   4
  -4  -6  -4 29600.0 3462.99   3
  -4   6  -3 181160. 8260.65   3
  -4  -6  -3 155310. 8473.24   3
  -4   6  -2 150976. 6947.75   3
  -4  -6  -2 132924. 6954.80   3
  -4  -6  -1 110544. 5177.38   3
  -4   6  -1 112362. 5484.50   3
  -4  -6  -1 96853.4 4679.65   5
  -4  -6   0 357732. 12814.5   3
  -4   6   0 383851. 13932.1   3
  -4   6   1 75058.3 4238.79   1
  -4  -6   1 61773.3 3180.35   3
  -4  -6   1 60099.0 2716.87   1
  -4   6   1 75857.6 4391.01   3
  -4   6   2 100300. 5159.36   1
  -4   6   2 112977. 6204.22   3
  -4   6   3 254220. 12000.4   3
  -4   6   3 264150. 10745.1   1
  -4   6   4 12933.5 2126.48   3
  -4  -8  -5 91660.7 8441.05   4
  -4  -8  -4 129375. 9081.88   4
  -4  -8  -4 125234. 8183.06   3
  -4  -8  -3 26350.6 2896.10   3
  -4   8  -2 193658. 8356.24   3
  -4  -8  -2 164231. 8397.49   3
  -4  -8  -1 262678. 10218.0   3
  -4  -8  -1 229477. 9771.27   5
  -4   8  -1 235383. 10134.2   3
  -4  -8   0 17833.6 1669.49   5
  -4   8   0 21887.1 2243.43   3
  -4   8   0 21869.5 2409.65   1
  -4  -8   0 20811.6 1673.46   3
  -4  -8   1 129983. 6792.39   3
  -4  -8   1 235801. 8306.24   5
  -4   8   1 245801. 8845.39   1
  -4   8   1 285373. 9844.97   3
  -4  -8   1 172980. 6724.16   1
  -4   8   2 285902. 12332.9   3
  -4   8   2 270482. 11369.4   1
  -4  -8   2 266831. 11140.5   5
  -4  -8   3 56365.6 3758.04   5
  -4   8   3 61470.1 3991.14   1
  -4   8   3 59151.7 4591.95   3
  -4   8   4 174641. 8437.72   1
  -4   8   4 145631. 9048.00   3
  -4 -10  -5 53321.9 6424.99   4
  -4 -10  -4 69115.4 6589.64   4
  -4 -10  -3 44806.0 4059.89   3
  -4 -10  -2 166745. 8555.20   3
  -4  10  -2 187538. 8331.49   3
  -4 -10  -1 247060. 10374.0   3
  -4 -10  -1 235463. 10370.1   5
  -4  10  -1 255973. 10557.8   3
  -4 -10   0 124092. 5555.33   3
  -4  10   0 124007. 6523.34   1
  -4  10   0 141352. 6840.93   3
  -4 -10   1 69293.4 3517.33   1
  -4 -10   1 64338.7 3648.12   3
  -4  10   1 126840. 6047.52   3
  -4  10   1 131495. 5860.78   1
  -4 -10   1 121086. 5238.45   5
  -4  10   2 220758. 10187.5   3
  -4  10   2 212146. 9530.81   1
  -4 -10   2 188189. 8882.44   5
  -4  10   3 57044.9 4635.47   3
  -4 -10   3 54745.0 3857.41   5
  -4  10   3 64680.7 4481.92   1
  -4  10   4 24574.8 3199.36   3
  -4  10   5 75856.7 6816.12   3
  -4 -12  -5 19489.3 3878.55   4
  -4 -12  -4 27190.7 4181.20   4
  -4 -12  -3 133823. 8182.17   3
  -4 -12  -2 70609.9 4876.19   3
  -4  12  -2 76835.2 4361.17   3
  -4 -12  -1 38960.7 3255.46   5
  -4  12  -1 50602.1 3940.74   1
  -4 -12  -1 45422.8 3319.44   3
  -4  12  -1 44015.6 3241.46   3
  -4 -12   0 289408. 11282.2   3
  -4  12   0 247804. 11698.6   1
  -4  12   0 306907. 12491.9   3
  -4 -12   0 267792. 11787.2   5
  -4 -12   1 89729.1 5063.87   5
  -4  12   1 86752.0 5535.44   3
  -4  12   1 84885.6 5224.42   1
  -4  12   2 19859.7 2532.95   3
  -4  12   2 23877.3 2561.63   1
  -4 -12   2 21753.4 2226.30   5
  -4  12   3 128503. 8304.18   3
  -4 -12   3 145378. 7558.56   5
  -4  12   4 45339.9 4653.89   3
  -4  12   5 25096.6 3837.04   3
  -4 -14  -5 73265.0 8088.96   4
  -4 -14  -4 37702.0 5091.33   4
  -4 -14  -1 41695.7 3677.13   5
  -4 -14  -1 47334.9 3527.33   3
  -4  14  -1 42266.8 3316.08   3
  -4  14  -1 44696.2 3708.69   1
  -4 -14   0 77290.7 5109.80   5
  -4  14   0 82186.7 5267.19   3
  -4  14   0 77631.5 5069.56   1
  -4  14   1 205225. 10563.3   3
  -4  14   1 217117. 10377.0   1
  -4  14   2 74428.0 5619.11   3
  -4 -14   2 85145.5 5355.02   5
  -4  14   2 78927.2 5449.65   1
  -4  14   3 77072.5 6120.65   3
  -4 -14   3 93470.4 5896.66   5
  -4  14   4 148363. 9678.71   3
  -4  14   5 37299.4 4887.94   3
  -4 -16  -5 23243.1 4453.12   4
  -4 -16  -4 37378.6 5207.46   4
  -4  16  -1 119678. 6829.38   1
  -4 -16  -1 112372. 7221.60   5
  -4  16  -1 114744. 6345.48   3
  -4  16   0 108377. 6582.12   1
  -4  16   0 125709. 7013.00   3
  -4 -16   0 106186. 6756.96   5
  -4  16   1 51986.7 4256.36   1
  -4  16   1 48758.4 4245.57   3
  -4 -16   1 59770.9 4515.09   5
  -4  16   2 85691.7 6411.42   3
  -4 -16   2 97592.1 6196.26   5
  -4 -16   3 61203.8 4798.69   5
  -4  16   3 44492.8 4711.56   3
  -4  16   4 12518.5 2557.82   3
  -4  16   5 56022.8 6219.97   3
  -4 -18  -4 68136.1 7402.78   4
  -4  18  -1 167406. 8778.73   1
  -4 -18  -1 148939. 9373.27   5
  -4  18   0 15064.4 2222.11   3
  -4  18   0 14677.5 2111.95   1
  -4 -18   0 14815.0 2369.84   5
  -4  18   1 72409.2 5462.41   3
  -4 -18   1 68820.3 5322.42   5
  -4  18   2 89708.2 6828.37   3
  -4 -18   2 103217. 6791.13   5
  -4  18   3 18590.2 3018.12   3
  -4  18   4 29801.4 4227.77   3
  -4 -20  -4 27590.5 4565.06   4
  -4 -20  -3 9244.64 2487.48   4
  -4  20   0 10332.6 1925.62   3
  -4  20   1 92700.0 6616.84   3
  -4  20   2 54656.3 5363.58   3
  -4  20   3 28541.5 4054.57   3
  -4  20   4 33220.8 4744.86   3
  -4 -22  -4 2986.56 1373.68   4
  -4 -22  -3 72258.7 7383.06   4
  -4  22   0 160591. 9453.36   3
  -4  22   1 19663.9 2941.01   3
  -4  22   2 5749.47 1738.14   3
  -4  22   3 151157. 10755.5   3
  -4 -24  -3 12653.0 2977.54   4
  -4  24   1 68930.0 6086.84   3
  -4  24   2 17604.0 3142.84   3
  -4  24   3 13348.6 2984.69   3
  -4  26   2 31540.9 4507.26   3
  -3  -1  -5 39739.0 4604.95   4
  -3  -1  -4 79443.0 6027.38   4
  -3   1  -4 87297.4 6197.37   4
  -3  -1  -4 81913.3 5503.23   3
  -3   1  -4 75689.3 5114.18   3
  -3   1  -3 217843. 9476.64   3
  -3   1  -3 197983. 9686.73   4
  -3  -1  -3 218791. 9755.75   3
  -3  -1  -3 203687. 9961.90   4
  -3   1  -2 133710. 6121.77   3
  -3  -1  -2 136004. 6176.35   3
  -3   1  -1 268177. 9745.95   5
  -3   1  -1 279205. 10600.9   3
  -3  -1   0 251524. 8967.16   1
  -3   1   0 228280. 9003.20   1
  -3   1   0 234685. 9098.53   3
  -3  -1   0 251655. 9047.17   3
  -3   1   1 153873. 6552.83   3
  -3  -1   1 161675. 5744.76   1
  -3  -1   1 147798. 6106.02   3
  -3   1   1 134650. 6255.70   1
  -3   1   1 135048. 6154.50   1
  -3   1   2 111551. 5451.82   3
  -3  -1   2 89580.3 4420.90   1
  -3   1   2 101800. 4125.80   1
  -3  -1   2 105952. 3896.94   1
  -3  -1   2 96386.3 4982.20   3
  -3  -1   3 349121. 12108.1   1
  -3   1   3 349515. 14136.2   3
  -3   1   3 343877. 12374.4   1
  -3  -1   3 314760. 13463.4   3
  -3  -3  -5 29397.6 4054.49   4
  -3  -3  -4 186730. 9818.33   3
  -3  -3  -4 186176. 10457.5   4
  -3   3  -3 58701.5 3722.19   3
  -3  -3  -3 50862.2 4172.38   4
  -3   3  -3 59126.1 4036.74   4
  -3  -3  -3 55889.9 3932.38   3
  -3   3  -2 148963. 6083.18   3
  -3  -3  -2 138686. 5872.34   3
  -3   3  -2 98744.9 5352.73   4
  -3  -3  -2 111897. 4183.03   5
  -3   3  -1 528755. 18543.4   5
  -3  -3  -1 562722. 19147.8   3
  -3   3  -1 543475. 19233.0   3
  -3  -3  -1 526645. 18503.3   5
  -3  -3   0 104152. 4354.61   1
  -3  -3   0 116645. 4603.47   3
  -3   3   0 100751. 4910.64   1
  -3   3   0 108636. 4979.02   3
  -3   3   1 262971. 10978.9   1
  -3   3   1 264362. 10793.1   1
  -3   3   1 294389. 10980.1   3
  -3  -3   1 313991. 9486.83   1
  -3   3   2 342121. 10958.9   1
  -3  -3   2 308558. 9792.62   1
  -3  -3   2 288042. 9894.18   1
  -3   3   2 348587. 12354.8   3
  -3   3   3 105765. 4956.87   1
  -3   3   3 123931. 6446.29   3
  -3   3   4 72368.6 5176.58   3
  -3  -5  -6 7927.45 2477.73   4
  -3  -5  -5 140046. 10244.0   4
  -3  -5  -4 64763.9 5035.07   3
  -3  -5  -4 67241.0 5728.40   4
  -3   5  -3 66402.5 3914.39   3
  -3  -5  -3 54929.2 4009.70   3
  -3  -5  -2 440347. 16756.2   3
  -3   5  -2 465962. 16316.1   3
  -3  -5  -2 414009. 15248.4   5
  -3  -5  -1 137866. 5868.50   5
  -3  -5  -1 151093. 6252.28   3
  -3   5  -1 155681. 6500.97   3
  -3  -5   0 76155.2 3387.31   3
  -3  -5   0 63594.8 3123.03   1
  -3  -5   0 69569.9 3404.88   5
  -3   5   0 72396.5 4083.01   1
  -3   5   1 663116. 20301.8   3
  -3  -5   1 620868. 17972.4   1
  -3   5   1 683846. 19764.5   1
  -3   5   2 123257. 6060.36   3
  -3   5   2 108649. 5087.95   1
  -3   5   3 80810.5 5062.80   3
  -3   5   3 71236.0 3883.81   1
  -3   5   4 228637. 11336.5   3
  -3  -7  -6 38543.9 5535.82   4
  -3  -7  -5 33885.4 4809.85   4
  -3  -7  -4 90079.4 7177.40   4
  -3  -7  -4 104929. 6944.73   3
  -3  -7  -3 85207.6 5489.88   3
  -3  -7  -2 19756.6 1626.14   5
  -3   7  -2 24275.5 1972.02   3
  -3  -7  -2 19710.2 1986.47   3
  -3  -7  -1 135279. 6306.85   5
  -3   7  -1 144344. 6555.32   3
  -3   7   0 207952. 8845.72   1
  -3  -7   0 231940. 7835.63   3
  -3  -7   0 180142. 7667.43   5
  -3   7   0 246609. 8921.04   3
  -3  -7   0 152774. 7199.03   1
  -3  -7   1 152251. 3973.44   1
  -3  -7   1 163085. 5355.17   5
  -3   7   2 123448. 6334.48   3
  -3   7   2 118073. 5594.47   1
  -3  -7   2 116333. 5525.20   5
  -3  -7   3 196671. 8443.16   2
  -3   7   3 193859. 8571.26   1
  -3   7   3 196449. 9684.45   3
  -3  -7   3 205717. 8531.92   5
  -3   7   4 132583. 6838.97   1
  -3   7   4 125542. 7823.51   3
  -3  -9  -6 64901.1 7583.06   4
  -3  -9  -5 16208.6 3374.35   4
  -3  -9  -4 96426.9 7691.04   4
  -3  -9  -3 135197. 7572.94   3
  -3  -9  -2 55906.8 3435.52   5
  -3   9  -2 64179.8 3635.41   3
  -3  -9  -2 53833.6 3819.05   3
  -3  -9  -1 231564. 10206.6   5
  -3  -9  -1 263174. 10306.3   3
  -3   9  -1 264789. 10405.0   3
  -3   9   0 287834. 11190.5   1
  -3  -9   0 252589. 9712.17   3
  -3   9   0 286101. 10772.8   3
  -3   9   1 113002. 4654.08   1
  -3   9   1 117463. 4871.93   3
  -3   9   2 204197. 8876.13   1
  -3   9   2 216239. 9659.22   3
  -3  -9   2 195369. 8573.15   5
  -3   9   3 157030. 8409.58   3
  -3   9   3 162881. 7702.65   1
  -3  -9   3 150627. 7199.18   5
  -3   9   4 27741.3 2908.80   1
  -3   9   4 28798.4 3327.64   3
  -3   9   5 69959.3 6312.64   3
  -3 -11  -5 67795.7 7460.49   4
  -3 -11  -4 40069.8 4947.43   4
  -3  11  -2 171647. 9165.82   1
  -3 -11  -2 199763. 9237.32   3
  -3 -11  -2 185822. 8665.65   5
  -3  11  -2 204651. 8449.32   3
  -3 -11  -1 99041.8 5144.97   3
  -3  11  -1 91924.9 4979.72   3
  -3  11  -1 103154. 5815.55   1
  -3 -11  -1 88858.6 5158.69   5
  -3 -11   0 219674. 8638.44   3
  -3  11   0 213706. 9292.70   1
  -3  11   0 222632. 9386.14   3
  -3 -11   1 132976. 5989.22   5
  -3  11   1 138489. 6470.32   3
  -3  11   1 138687. 6267.92   1
  -3 -11   2 8329.84 1213.71   5
  -3  11   2 8330.71 1491.44   3
  -3  11   2 6311.16 1154.37   1
  -3  11   3 178320. 8528.35   1
  -3 -11   3 160542. 7691.35   5
  -3  11   4 82327.4 6307.32   3
  -3  11   5 3048.68 1373.26   3
  -3 -13  -5 43063.4 6052.39   4
  -3 -13  -4 76851.4 7265.08   4
  -3 -13  -2 114222. 6560.70   5
  -3  13  -2 123408. 6792.07   1
  -3 -13  -1 189027. 9481.18   5
  -3  13  -1 210250. 9024.50   3
  -3  13  -1 205079. 9347.44   1
  -3 -13   0 75537.6 4797.44   5
  -3  13   0 81850.5 4842.50   3
  -3  13   0 86179.3 5205.15   1
  -3  13   1 150263. 7932.14   3
  -3  13   1 167374. 8065.08   1
  -3 -13   1 164775. 7888.65   5
  -3  13   2 225486. 11503.6   3
  -3  13   2 252426. 11488.4   1
  -3  13   3 57460.6 4497.65   1
  -3 -13   3 49368.4 3801.19   5
  -3  13   4 92460.5 7065.99   3
  -3  13   5 101039. 8180.27   3
  -3 -15  -5 21225.8 4272.74   4
  -3 -15  -4 37373.8 5031.71   4
  -3 -15  -2 70671.1 5114.82   5
  -3 -15  -1 143339. 8175.90   5
  -3  15  -1 155520. 7800.37   1
  -3  15  -1 154937. 7408.51   3
  -3 -15   0 71851.4 4890.73   5
  -3  15   0 71859.8 4614.38   3
  -3  15   0 70565.4 4638.35   1
  -3  15   1 108782. 6499.89   1
  -3  15   1 101448. 6374.39   3
  -3  15   2 93636.1 6020.65   1
  -3 -15   2 96011.0 5840.88   5
  -3  15   2 89073.8 6061.26   3
  -3  15   3 61080.5 5356.01   3
  -3 -15   3 74722.4 5121.15   5
  -3  15   4 41641.5 4627.99   3
  -3  15   5 18496.4 3377.47   3
  -3 -17  -5 18936.1 3998.03   4
  -3 -17  -4 40280.3 5433.66   4
  -3 -17  -3 112381. 8688.05   4
  -3 -17  -2 62871.5 5234.97   5
  -3  17  -1 43848.8 3329.74   3
  -3 -17  -1 41694.1 4027.65   5
  -3  17  -1 36727.3 3285.06   1
  -3  17   0 145763. 7907.37   1
  -3  17   0 153966. 7872.17   3
  -3 -17   0 149090. 8488.38   5
  -3  17   1 50873.9 4208.62   1
  -3 -17   1 45906.0 4051.50   5
  -3  17   1 55636.3 4399.85   3
  -3 -17   2 9257.38 1694.25   5
  -3  17   2 8417.23 1743.87   3
  -3  17   3 118189. 8169.39   3
  -3 -17   3 133629. 7797.41   5
  -3  17   4 27958.8 3900.87   3
  -3  17   5 11949.3 2797.24   3
  -3 -19  -4 66134.8 7169.67   4
  -3 -19  -3 63043.3 6358.43   4
  -3 -19  -1 109439. 7567.46   5
  -3 -19   0 94719.7 6766.26   5
  -3  19   0 95027.3 6231.33   1
  -3  19   0 89283.6 5871.63   3
  -3  19   1 31451.7 3445.05   3
  -3 -19   1 26478.4 3195.90   5
  -3  19   2 75807.3 5979.54   3
  -3 -19   2 69960.6 5570.70   5
  -3  19   3 52540.1 5232.65   3
  -3  19   4 31462.5 4282.45   3
  -3 -21  -4 27408.8 4578.75   4
  -3 -21  -3 7728.56 2213.30   4
  -3  21   0 25141.2 2932.95   3
  -3  21   1 141102. 8668.06   3
  -3  21   2 41183.1 4501.29   3
  -3  21   3 14792.0 2825.39   3
  -3  21   4 57476.7 6150.04   3
  -3 -23  -3 12050.6 2852.72   4
  -3 -23  -2 63711.0 6150.44   4
  -3  23   1 81115.5 6420.15   3
  -3  23   2 25845.7 3745.74   3
  -3  23   3 13334.1 2912.14   3
  -3 -25  -3 24228.8 4034.91   4
  -3  25   1 21126.1 3243.15   3
  -3  25   2 43673.5 5231.99   3
  -2   0  -5 153702. 9931.83   4
  -2   0  -4 85552.9 6324.66   4
  -2   0  -4 89106.9 5547.12   3
  -2   0  -3 101835. 5944.24   4
  -2   0  -3 106228. 5536.76   3
  -2   0  -2 296670. 11320.4   3
  -2   0  -1 170859. 5868.43   5
  -2   0  -1 170346. 6736.49   3
  -2   0  -1 175768. 6676.17   1
  -2   0   0 98739.9 4141.57   3
  -2   0   0 109403. 4117.10   1
  -2   0   1 698124. 25750.6   1
  -2   0   1 650992. 25934.0   3
  -2   0   2 101846. 4597.20   3
  -2   0   2 82254.0 3429.90   1
  -2   0   3 33100.0 1858.94   1
  -2   0   3 28331.6 1865.40   2
  -2  -2  -5 50474.4 5328.48   4
  -2   2  -4 74054.3 5430.35   4
  -2  -2  -4 65118.6 4786.68   3
  -2  -2  -4 78979.4 5995.23   4
  -2   2  -3 256027. 11320.6   4
  -2   2  -3 257895. 10623.2   3
  -2  -2  -3 256967. 11658.1   4
  -2  -2  -3 243965. 10637.7   3
  -2   2  -2 137049. 5548.64   3
  -2  -2  -2 145397. 5843.04   3
  -2   2  -1 312721. 10484.2   5
  -2  -2  -1 324610. 11156.4   3
  -2  -2  -1 274380. 10971.3   1
  -2   2  -1 307283. 11184.2   1
  -2   2  -1 292609. 11049.5   3
  -2  -2  -1 303928. 10520.4   5
  -2  -2   0 290306. 9635.27   1
  -2   2   0 300267. 9711.45   5
  -2   2   0 282674. 10101.5   1
  -2   2   0 267925. 10095.8   3
  -2   2   1 284109. 11490.2   5
  -2   2   1 395721. 11825.5   1
  -2   2   1 365888. 12263.4   3
  -2  -2   1 268874. 11025.9   1
  -2  -2   1 347434. 10911.8   1
  -2  -2   2 157616. 4652.57   1
  -2   2   2 162609. 5284.48   1
  -2  -2   2 79740.4 5095.08   3
  -2  -2   2 93254.6 4879.17   2
  -2  -2   3 132766. 4569.18   1
  -2   2   3 117185. 4867.70   1
  -2   2   3 91494.5 4585.06   2
  -2  -2   3 90234.8 5126.89   3
  -2  -2   3 107480. 4782.07   2
  -2  -4  -6 59477.0 6813.12   4
  -2  -4  -5 16477.2 3051.14   4
  -2  -4  -4 179721. 10286.9   4
  -2  -4  -4 172198. 9119.94   3
  -2   4  -3 294842. 11573.9   3
  -2   4  -3 267010. 12092.4   4
  -2  -4  -3 296239. 12106.8   3
  -2  -4  -3 279925. 12963.0   4
  -2  -4  -2 26528.4 1338.03   5
  -2  -4  -2 30786.9 2218.50   3
  -2   4  -2 34452.7 2261.46   3
  -2   4  -1 512537. 16448.8   5
  -2  -4  -1 402754. 16497.3   1
  -2  -4  -1 548400. 16971.5   3
  -2   4  -1 461112. 16888.1   1
  -2   4  -1 458910. 16780.8   3
  -2  -4  -1 459362. 16465.8   5
  -2  -4   0 344400. 12853.6   3
  -2   4   0 360238. 13070.2   5
  -2  -4   0 382209. 12780.0   1
  -2   4   0 411837. 13690.7   3
  -2  -4   0 327548. 12882.3   5
  -2   4   0 439187. 13995.8   1
  -2   4   1 15273.4 1284.76   1
  -2   4   1 15494.1 1418.68   3
  -2   4   2 243140. 9250.90   1
  -2   4   3 138968. 5884.63   1
  -2  -4   3 153043. 6082.26   2
  -2   4   4 27729.0 2333.96   1
  -2  -6  -6 29881.3 4936.32   4
  -2  -6  -5 58161.3 6224.28   4
  -2  -6  -4 105436. 7625.99   4
  -2  -6  -3 32292.2 3416.88   4
  -2  -6  -3 45875.9 3431.98   3
  -2  -6  -2 166773. 7225.53   3
  -2   6  -2 161435. 6703.60   3
  -2  -6  -2 152379. 6315.43   5
  -2   6  -1 334069. 14021.7   1
  -2   6  -1 368768. 13807.9   3
  -2  -6  -1 358659. 13765.0   5
  -2   6   0 36204.6 2473.05   1
  -2   6   0 34466.8 2238.56   3
  -2   6   0 31248.0 2445.72   1
  -2  -6   0 26601.1 1757.34   5
  -2  -6   0 25885.1 1551.11   1
  -2  -6   0 28413.5 1750.44   3
  -2   6   1 354887. 13033.5   3
  -2  -6   1 336634. 11661.1   1
  -2   6   1 372379. 12937.4   1
  -2  -6   1 324348. 12433.3   5
  -2   6   2 435428. 16323.1   1
  -2  -6   2 462654. 16286.2   5
  -2  -6   3 93814.1 4796.88   2
  -2  -6   3 95037.8 4514.81   5
  -2   6   3 94511.0 4775.32   1
  -2   6   4 146074. 7257.80   1
  -2  -8  -6 80333.5 8455.35   4
  -2  -8  -5 55453.3 6296.92   4
  -2  -8  -4 40623.8 4615.20   4
  -2  -8  -3 137500. 8408.20   4
  -2  -8  -3 152307. 7792.03   3
  -2  -8  -2 139402. 6686.91   3
  -2   8  -2 137409. 5993.09   3
  -2  -8  -2 132019. 6066.28   5
  -2  -8  -1 117910. 5217.44   3
  -2   8  -1 109487. 5115.80   3
  -2  -8  -1 101636. 5142.51   5
  -2  -8   0 348331. 10894.8   3
  -2   8   0 357654. 11616.3   3
  -2   8   0 287072. 11332.8   1
  -2  -8   0 297568. 11050.2   5
  -2   8   1 237489. 9112.88   3
  -2   8   1 246953. 9116.20   1
  -2  -8   1 221901. 8608.54   5
  -2   8   2 125434. 5928.54   1
  -2   8   2 138841. 6610.64   3
  -2  -8   2 130472. 5823.89   5
  -2  -8   3 236252. 10060.3   2
  -2   8   3 240424. 10101.6   1
  -2  -8   3 230346. 9567.27   5
  -2   8   4 126745. 6860.94   1
  -2   8   4 109384. 7124.94   3
  -2   8   5 69789.6 6097.88   3
  -2 -10  -6 23651.5 4478.78   4
  -2 -10  -5 79635.4 7939.06   4
  -2 -10  -4 38196.0 4577.00   4
  -2 -10  -3 76215.5 5963.89   4
  -2 -10  -2 271726. 11748.7   5
  -2  10  -2 306591. 11322.7   3
  -2 -10  -2 288552. 12271.9   3
  -2 -10  -1 158166. 7595.54   5
  -2  10  -1 182755. 8058.33   1
  -2 -10  -1 173616. 7424.74   3
  -2  10  -1 159011. 7154.31   3
  -2  10   0 49863.3 3264.18   1
  -2  10   0 54079.3 3301.77   3
  -2 -10   0 45102.0 3077.99   5
  -2  10   1 363452. 11931.8   3
  -2  10   1 339829. 11678.6   1
  -2  10   2 61811.9 3833.82   1
  -2  10   2 72149.3 4421.85   3
  -2 -10   2 63768.8 3730.33   5
  -2  10   3 16020.6 2139.40   3
  -2  10   3 13787.8 1792.86   1
  -2 -10   3 15151.2 1684.29   5
  -2  10   4 143202. 8528.05   3
  -2  10   5 12886.5 2560.68   3
  -2 -12  -5 30125.4 4902.53   4
  -2 -12  -4 96647.1 7951.81   4
  -2 -12  -3 64726.3 5684.44   4
  -2  12  -2 28801.4 2519.70   1
  -2 -12  -2 22061.8 2325.30   5
  -2  12  -1 167530. 7775.73   1
  -2  12  -1 183047. 7705.68   3
  -2 -12  -1 169185. 8291.76   5
  -2  12   0 121186. 5876.96   3
  -2  12   0 105865. 5640.79   1
  -2 -12   0 104180. 5706.69   5
  -2  12   1 77352.7 4693.73   3
  -2  12   1 91116.5 4923.08   1
  -2 -12   1 78850.0 4653.95   5
  -2  12   2 153670. 8244.43   3
  -2  12   2 173245. 8142.47   1
  -2 -12   2 175047. 7931.00   5
  -2  12   3 82270.8 5853.67   3
  -2  12   3 99141.8 5894.42   1
  -2 -12   3 87202.6 5148.33   5
  -2  12   4 80787.0 6279.98   3
  -2  12   5 88272.5 7425.42   3
  -2 -14  -5 2767.05 1614.14   4
  -2 -14  -4 43437.1 5288.56   4
  -2 -14  -3 132288. 8944.46   4
  -2 -14  -2 27534.7 2828.16   5
  -2 -14  -1 156230. 8208.26   5
  -2  14  -1 153402. 7613.41   1
  -2  14  -1 162018. 7317.37   3
  -2  14   0 320663. 12556.9   3
  -2 -14   0 299178. 12766.1   5
  -2  14   1 81273.8 4925.04   3
  -2  14   1 75844.8 4826.54   1
  -2 -14   1 77192.8 4857.47   5
  -2  14   2 124610. 6859.23   1
  -2  14   2 111141. 6808.37   3
  -2 -14   2 121422. 6541.03   5
  -2  14   3 131250. 8311.63   3
  -2 -14   3 158249. 7886.88   5
  -2  14   4 7089.26 1794.60   3
  -2  14   5 56193.5 5959.70   3
  -2 -16  -5 51246.1 6701.50   4
  -2 -16  -4 38998.6 5167.13   4
  -2 -16  -3 33154.1 4170.76   4
  -2 -16  -2 145943. 8292.06   5
  -2 -16  -1 95446.7 6292.83   5
  -2  16  -1 109241. 5593.87   3
  -2  16  -1 95628.9 5504.81   1
  -2  16   0 22280.9 2381.61   1
  -2 -16   0 25057.5 2812.34   5
  -2  16   0 22512.2 2366.89   3
  -2  16   1 184460. 9640.62   1
  -2  16   1 204997. 9693.29   3
  -2 -16   1 212163. 9962.32   5
  -2  16   2 45935.7 4198.38   3
  -2 -16   2 56403.0 4261.16   5
  -2  16   2 61533.2 4688.92   1
  -2 -16   3 4885.72 1193.86   5
  -2  16   3 7625.42 1757.95   3
  -2  16   4 117932. 8508.60   3
  -2  16   5 17182.3 3323.95   3
  -2 -18  -5 66787.9 7805.34   4
  -2 -18  -4 15131.9 3345.16   4
  -2 -18  -3 48427.4 5297.31   4
  -2 -18  -2 104276. 7070.71   5
  -2 -18  -1 20870.0 2860.01   5
  -2  18   0 32786.0 3167.86   1
  -2  18   0 33669.4 3107.86   3
  -2 -18   0 34207.3 3557.02   5
  -2  18   1 124312. 7078.38   3
  -2  18   1 104368. 6902.58   1
  -2 -18   1 121530. 7308.20   5
  -2  18   2 27729.4 3252.77   3
  -2 -18   2 28614.4 3212.46   5
  -2  18   3 58994.2 5431.60   3
  -2  18   4 110031. 8501.96   3
  -2 -20  -4 6563.31 2124.84   4
  -2 -20  -3 59380.6 6091.12   4
  -2 -20  -1 74758.1 6223.21   5
  -2  20   0 76544.7 5155.78   3
  -2 -20   0 69642.2 5648.39   5
  -2 -20   1 43789.5 4289.09   5
  -2  20   1 45148.1 4188.49   3
  -2  20   2 70574.1 5760.47   3
  -2  20   3 44433.7 4816.97   3
  -2  20   4 9243.07 2357.09   3
  -2 -22  -4 60214.4 7000.96   4
  -2 -22  -3 33606.3 4579.44   4
  -2 -22  -2 9473.61 2116.24   4
  -2  22   1 27794.8 3403.18   3
  -2  22   2 110956. 7922.05   3
  -2  22   3 33685.4 4347.06   3
  -2 -24  -3 45380.6 5498.56   4
  -2  24   1 15878.6 2618.93   3
  -2  24   2 36275.0 4530.64   3
  -2  24   3 26427.1 4107.93   3
  -2  26   2 4757.22 1717.86   3
  -1   1  -5 43513.3 4727.09   4
  -1  -1  -5 40550.7 4712.77   4
  -1   1  -4 148978. 8574.99   4
  -1  -1  -4 143665. 8752.01   4
  -1  -1  -3 70306.8 4834.48   4
  -1  -1  -3 77090.2 4266.44   3
  -1   1  -3 69675.7 3967.04   3
  -1   1  -3 80634.4 5095.35   4
  -1  -1  -2 103619. 5109.23   4
  -1   1  -2 89933.4 4728.69   4
  -1   1  -2 99345.0 4200.16   3
  -1   1  -1 660337. 21561.2   1
  -1  -1  -1 655880. 21580.2   1
  -1  -1  -1 619195. 21597.0   3
  -1   1  -1 584184. 21597.9   3
  -1   1   0 166300. 5818.99   5
  -1  -1   1 114401. 3989.90   1
  -1   1   1 105320. 4206.80   1
  -1  -1   2 769666. 22775.8   1
  -1   1   2 733541. 22949.5   1
  -1  -1   2 683921. 23153.6   2
  -1   1   2 642904. 23030.2   2
  -1  -1   3 71584.1 3385.21   1
  -1   1   3 66350.8 3407.05   1
  -1  -1   3 72743.5 3621.21   2
  -1   1   3 72568.2 3572.58   2
  -1  -3  -6 62602.9 6753.94   4
  -1  -3  -5 178094. 11345.7   4
  -1  -3  -4 25561.9 3343.72   4
  -1   3  -4 28510.0 3190.23   4
  -1   3  -3 285760. 12767.2   4
  -1   3  -3 313121. 11829.2   3
  -1  -3  -3 300225. 13369.3   4
  -1  -3  -3 305177. 12402.3   3
  -1   3  -2 402722. 12957.4   3
  -1   3  -2 275413. 13314.3   4
  -1  -3  -2 428865. 13519.5   3
  -1  -3  -2 388093. 12147.5   5
  -1   3  -2 253523. 12620.4   1
  -1  -3  -1 60189.9 2639.62   5
  -1  -3  -1 70482.8 3094.85   3
  -1  -3  -1 63084.8 2859.47   1
  -1   3  -1 69119.4 2853.69   1
  -1   3  -1 62301.3 2506.67   5
  -1   3   0 239053. 8947.80   1
  -1   3   0 248491. 8586.35   5
  -1   3   0 263602. 8973.03   1
  -1   3   0 214055. 8707.56   3
  -1  -3   0 245343. 8283.94   1
  -1  -3   0 224653. 8374.05   5
  -1   3   1 149638. 5701.29   1
  -1   3   1 150606. 5867.63   5
  -1  -3   2 16988.3 1397.42   2
  -1   3   2 16796.2 1253.79   1
  -1  -3   2 17170.0 955.103   1
  -1   3   2 16334.5 1221.23   2
  -1   3   3 138604. 6288.27   1
  -1  -3   3 150662. 6498.68   2
  -1  -3   3 158619. 5966.53   1
  -1   3   3 150383. 6367.84   2
  -1   3   4 212585. 9209.67   1
  -1  -5  -6 91421.5 8756.72   4
  -1  -5  -5 68941.8 6675.19   4
  -1  -5  -4 39571.2 4374.60   4
  -1  -5  -3 326347. 14849.3   4
  -1   5  -3 336540. 14044.0   4
  -1  -5  -3 352335. 14009.3   3
  -1   5  -2 117730. 5753.58   1
  -1   5  -2 90168.0 5883.05   4
  -1  -5  -2 199174. 7045.79   3
  -1   5  -2 159429. 5964.57   3
  -1  -5  -2 181932. 5792.60   5
  -1   5  -1 203046. 8195.64   3
  -1   5  -1 217166. 8315.30   5
  -1  -5  -1 219118. 8520.78   5
  -1  -5  -1 206169. 8416.61   1
  -1  -5   0 319986. 14149.0   3
  -1   5   0 451204. 14829.7   3
  -1   5   0 452189. 14826.0   5
  -1  -5   0 482143. 14259.2   1
  -1   5   0 444747. 14908.0   1
  -1  -5   0 368427. 14413.7   5
  -1   5   1 259439. 10335.7   1
  -1  -5   1 304914. 10324.9   5
  -1   5   2 237756. 7300.60   1
  -1  -5   2 253187. 7050.05   5
  -1   5   3 170259. 7086.94   2
  -1   5   3 163301. 7252.25   1
  -1  -5   3 177468. 7545.35   2
  -1  -5   3 172521. 6853.96   5
  -1   5   4 134092. 6753.07   1
  -1  -5   4 130635. 6473.57   2
  -1  -7  -6 21496.1 4212.37   4
  -1  -7  -5 55073.6 6105.23   4
  -1  -7  -4 72764.2 6298.16   4
  -1  -7  -3 69012.3 5277.72   4
  -1  -7  -2 52297.2 2599.63   5
  -1  -7  -2 55000.8 3165.42   3
  -1  -7  -1 260852. 8734.82   3
  -1   7  -1 213597. 8618.21   1
  -1   7  -1 177900. 8107.61   3
  -1   7  -1 255745. 9104.35   1
  -1  -7  -1 203479. 8591.52   5
  -1   7   0 358204. 13103.2   1
  -1  -7   0 337330. 12380.3   1
  -1  -7   0 325549. 12821.1   5
  -1   7   1 175762. 7452.07   1
  -1  -7   1 197688. 7483.72   5
  -1   7   2 216245. 8616.07   1
  -1  -7   2 210476. 8266.39   5
  -1  -7   3 122982. 6037.28   2
  -1   7   3 115407. 5457.96   2
  -1   7   3 117194. 5730.41   1
  -1  -7   3 119587. 5335.58   5
  -1   7   4 129105. 6845.28   1
  -1  -7   4 123286. 6486.80   2
  -1  -9  -6 26714.6 4733.64   4
  -1  -9  -5 87825.2 8156.09   4
  -1  -9  -4 92414.7 7476.96   4
  -1  -9  -3 92504.1 6546.83   4
  -1  -9  -2 213118. 8322.33   5
  -1   9  -2 174696. 8339.68   1
  -1  -9  -1 199586. 9116.59   5
  -1   9  -1 183243. 8886.67   1
  -1   9  -1 239050. 8808.47   3
  -1   9  -1 266634. 9396.25   1
  -1   9   0 136861. 5292.34   3
  -1   9   0 131021. 5412.07   1
  -1   9   1 259550. 9737.92   1
  -1  -9   1 224014. 9495.46   5
  -1   9   2 197198. 8519.65   1
  -1  -9   2 211482. 8508.46   5
  -1  -9   3 117381. 6233.24   2
  -1   9   3 117675. 6018.72   1
  -1  -9   3 119474. 5668.02   5
  -1   9   4 102610. 6322.89   1
  -1  -9   4 93766.7 5603.07   2
  -1 -11  -6 37948.8 5816.54   4
  -1 -11  -5 19733.1 3840.78   4
  -1 -11  -4 93996.9 7761.64   4
  -1 -11  -3 116285. 7790.38   4
  -1 -11  -2 44113.6 3201.93   5
  -1  11  -2 47840.5 3050.94   1
  -1 -11  -1 277936. 11876.9   5
  -1  11  -1 262210. 11215.2   1
  -1 -11   0 138018. 7000.35   5
  -1  11   0 158827. 6757.61   3
  -1  11   0 159307. 6961.29   1
  -1  11   1 107920. 5168.33   3
  -1  11   1 97333.1 4979.17   1
  -1  11   2 269895. 11357.8   1
  -1 -11   2 284879. 11356.3   5
  -1  11   3 95121.7 5550.54   1
  -1 -11   3 98032.1 5245.17   5
  -1 -11   4 35653.7 3293.28   2
  -1  11   5 82102.7 7034.03   3
  -1 -13  -5 98260.8 9251.42   4
  -1 -13  -4 2243.98 1259.42   4
  -1 -13  -3 104090. 7564.20   4
  -1 -13  -2 211057. 9749.36   5
  -1 -13  -1 15447.9 1953.12   5
  -1  13  -1 17212.2 1623.97   3
  -1  13  -1 12708.2 1478.59   1
  -1  13   0 135699. 6600.61   1
  -1  13   0 139479. 6454.39   3
  -1 -13   0 130751. 6937.91   5
  -1  13   1 220914. 9510.36   1
  -1  13   1 231993. 9707.46   3
  -1  13   2 43972.7 3357.61   1
  -1 -13   2 44475.4 3273.87   5
  -1  13   3 134095. 7358.80   1
  -1 -13   3 130858. 6841.04   5
  -1 -13   4 98495.0 6360.18   2
  -1  13   5 4702.17 1638.47   3
  -1 -15  -5 38450.9 5665.51   4
  -1 -15  -4 16456.1 3208.72   4
  -1 -15  -3 95151.4 7307.44   4
  -1 -15  -2 103352. 6272.80   5
  -1  15  -1 94235.7 5320.98   1
  -1 -15  -1 107795. 6453.13   5
  -1  15  -1 115019. 5518.16   3
  -1  15   0 157769. 7115.67   3
  -1 -15   0 152099. 7821.63   5
  -1  15   1 102301. 6009.86   1
  -1  15   1 109756. 6067.36   3
  -1 -15   1 106065. 6129.20   5
  -1  15   2 63751.1 4481.17   1
  -1  15   2 52848.4 4304.34   3
  -1 -15   2 60400.2 4306.87   5
  -1  15   3 59859.3 5002.44   3
  -1 -15   4 62952.9 4966.85   2
  -1  15   4 63931.8 5727.41   3
  -1  15   5 19863.8 3472.77   3
  -1 -17  -5 19271.2 3968.48   4
  -1 -17  -4 111475. 9327.57   4
  -1 -17  -3 24041.3 3445.37   4
  -1 -17  -2 9616.78 1790.64   5
  -1  17  -1 229538. 10370.6   1
  -1 -17  -1 251757. 12018.9   5
  -1 -17   0 15569.2 2217.83   5
  -1  17   0 15172.8 1952.17   1
  -1  17   0 18203.4 2086.03   3
  -1  17   1 7387.95 1507.09   1
  -1  17   1 11296.0 1731.49   3
  -1 -17   1 12137.7 1909.48   5
  -1  17   2 235230. 12088.9   3
  -1 -17   2 282795. 12461.8   5
  -1  17   3 7741.56 1752.32   3
  -1  17   4 11066.6 2372.65   3
  -1 -17   4 14847.2 2310.43   2
  -1  17   5 116331. 9376.02   3
  -1 -19  -5 43786.0 6129.61   4
  -1 -19  -4 32520.8 4934.04   4
  -1 -19  -3 53740.2 5520.95   4
  -1 -19  -2 53735.6 4886.42   4
  -1 -19  -2 55595.7 4961.53   5
  -1 -19  -1 55613.8 5066.64   5
  -1  19   0 91938.0 6004.58   1
  -1  19   0 104693. 6093.85   3
  -1 -19   0 96301.5 6541.82   5
  -1 -19   1 81075.4 5809.43   5
  -1  19   1 83046.7 5509.83   3
  -1  19   1 74344.9 5599.55   1
  -1  19   2 38698.9 3964.51   3
  -1 -19   2 41725.5 4034.66   5
  -1  19   3 57604.0 5434.35   3
  -1 -19   4 58016.8 4985.78   2
  -1  19   4 57693.6 5937.35   3
  -1 -21  -4 11619.9 3042.18   4
  -1 -21  -3 72734.2 6696.87   4
  -1 -21  -2 49951.8 4916.12   4
  -1 -21   0 108879. 7518.04   5
  -1  21   1 53757.1 4603.63   3
  -1  21   2 38610.8 4152.02   3
  -1  21   3 29338.5 3968.33   3
  -1  21   4 45107.4 5416.38   3
  -1 -23  -4 9349.82 2760.73   4
  -1 -23  -3 53245.9 5773.15   4
  -1  23   1 39553.2 4174.16   3
  -1  23   2 17322.2 2858.26   3
  -1  23   3 56364.1 5885.22   3
  -1  25   2 20216.4 3321.12   3
  -1  25   3 21847.3 3823.59   3
  -1  27   2 90346.3 8019.73   3
   0   0  -6 104271. 8583.02   4
   0   0  -5 7499.73 1936.63   4
   0   0  -4 17573.0 2555.96   4
   0   0  -3 587778. 21009.2   3
   0   0  -3 549235. 22373.8   4
   0   0  -2 22981.1 2088.43   4
   0   0  -2 23134.0 1563.17   3
   0   0  -2 17491.5 1334.36   1
   0   0  -1 84225.3 3833.64   3
   0   0  -1 121444. 3896.53   1
   0   0   1 97658.9 3643.52   1
   0   0   2 27964.8 1745.23   2
   0   0   2 25957.6 1514.17   1
   0   0   2 24892.3 1391.02   5
   0   0   3 527462. 19146.2   1
   0   0   3 540163. 19380.7   2
   0   0   4 24684.1 2183.03   2
   0  -2  -6 28723.8 4365.69   4
   0  -2  -5 137732. 9645.82   4
   0   2  -5 133885. 8873.23   4
   0  -2  -4 155363. 9244.33   4
   0   2  -4 154561. 8879.33   4
   0   2  -3 96897.9 4713.18   3
   0   2  -3 93696.2 5676.54   4
   0  -2  -3 102229. 6229.34   4
   0  -2  -2 261874. 10150.8   4
   0   2  -2 226494. 9658.26   4
   0   2  -2 225324. 8530.49   3
   0  -2  -2 273140. 9204.91   3
   0   2  -2 230622. 8420.76   1
   0  -2  -2 189733. 8720.66   1
   0  -2  -1 164759. 6621.05   3
   0   2  -1 181824. 6247.47   1
   0  -2  -1 186429. 6567.65   1
   0  -2  -1 175144. 6271.72   5
   0   2   1 151003. 5284.79   5
   0   2   1 133839. 5151.47   1
   0  -2   1 131439. 4944.26   1
   0   2   1 117755. 5092.58   2
   0  -2   1 158509. 4992.20   5
   0  -2   2 236229. 8431.86   1
   0   2   2 240484. 8661.97   1
   0  -2   2 266290. 9094.85   2
   0   2   2 253966. 8848.40   2
   0   2   3 97681.4 4651.75   1
   0  -2   3 107404. 4943.12   2
   0   2   3 105881. 4811.90   2
   0  -2   3 92365.6 3852.99   5
   0  -2   3 104345. 4556.88   1
   0   2   4 156396. 7279.35   1
   0  -2   4 141038. 6952.40   2
   0   2   4 142202. 6853.31   2
   0  -4  -6 11127.1 2686.11   4
   0  -4  -5 131653. 9560.69   4
   0  -4  -4 152715. 9924.75   4
   0   4  -4 189977. 9541.67   4
   0  -4  -3 57707.3 4498.69   4
   0   4  -3 56452.3 4015.49   4
   0  -4  -2 237840. 10088.6   4
   0   4  -2 214614. 8208.49   1
   0   4  -2 228454. 8337.71   3
   0  -4  -1 191040. 7066.56   1
   0   4  -1 197794. 6687.08   1
   0   4   0 62348.8 2814.98   1
   0   4   0 68087.1 3058.60   5
   0  -4   0 71286.3 3066.26   5
   0   4   1 156674. 5935.98   2
   0  -4   1 151213. 5879.17   1
   0   4   1 165545. 6079.46   1
   0   4   2 239611. 8913.16   1
   0  -4   2 272514. 9494.85   2
   0  -4   2 241167. 8535.70   1
   0  -4   2 267597. 8565.26   5
   0   4   2 269941. 9068.76   2
   0   4   3 42396.2 2770.12   1
   0  -4   3 45743.9 2990.31   2
   0  -4   3 44647.9 2474.81   1
   0  -4   3 44788.0 2272.12   5
   0   4   3 46640.2 2822.23   2
   0   4   4 179571. 8274.77   1
   0   4   4 165531. 7678.65   2
   0  -4   4 159583. 7735.50   2
   0  -6  -6 39622.5 5604.43   4
   0  -6  -5 75383.2 7128.76   4
   0  -6  -4 49414.6 5114.12   4
   0  -6  -3 153389. 8540.74   4
   0   6  -3 155825. 7595.30   4
   0   6  -2 271259. 9320.70   3
   0   6  -2 281973. 9492.10   1
   0   6  -1 314665. 10838.5   1
   0  -6  -1 285718. 10833.1   1
   0   6  -1 323162. 10684.4   1
   0  -6   0 408884. 13692.0   1
   0   6   0 382784. 13661.7   1
   0  -6   1 296877. 10320.7   5
   0   6   1 256877. 10166.9   1
   0   6   2 367461. 13550.5   2
   0   6   2 330942. 13527.8   1
   0  -6   2 368537. 13390.8   5
   0   6   3 154330. 6643.79   2
   0   6   3 147004. 6764.86   1
   0  -6   3 150466. 7084.55   2
   0  -6   3 142123. 6200.12   1
   0  -6   3 151203. 6155.18   5
   0   6   4 35609.6 2757.47   2
   0   6   4 34221.7 3085.47   1
   0  -6   4 36768.8 2993.06   2
   0  -8  -6 37946.3 5740.39   4
   0  -8  -5 77483.7 7444.06   4
   0  -8  -4 114393. 8501.67   4
   0  -8  -3 138775. 8237.52   4
   0  -8  -2 229686. 8986.20   4
   0   8  -2 112023. 6356.50   4
   0  -8  -2 232471. 7393.43   5
   0   8  -2 216816. 7191.45   1
   0   8  -2 135494. 6133.61   1
   0   8  -1 256856. 9049.80   1
   0   8  -1 278730. 9290.23   1
   0   8   0 188960. 7015.88   1
   0  -8   0 177761. 7429.73   5
   0  -8   1 350325. 12305.8   5
   0   8   1 300192. 11978.2   1
   0   8   2 200579. 8141.21   2
   0   8   2 200547. 8272.09   1
   0  -8   2 204695. 8132.03   5
   0  -8   3 130572. 6818.17   2
   0   8   3 143009. 6727.35   1
   0   8   3 135939. 6314.94   2
   0   8   4 145542. 7826.46   1
   0  -8   4 133552. 7181.87   2
   0   8   4 131219. 6734.76   2
   0 -10  -6 74339.4 8303.40   4
   0 -10  -5 39412.5 5359.58   4
   0 -10  -4 24265.2 3712.63   4
   0 -10  -3 210661. 11211.1   4
   0 -10  -2 81097.1 5116.86   4
   0 -10  -2 74258.8 4120.88   5
   0  10  -2 64550.8 3352.92   1
   0 -10  -1 26581.7 2310.67   5
   0  10  -1 26460.2 1742.33   3
   0  10  -1 30758.6 1943.30   1
   0  10   0 376689. 13710.9   1
   0  10   0 379360. 13574.5   3
   0 -10   1 31517.8 2409.24   5
   0  10   1 37195.7 2454.42   1
   0  10   2 65109.1 3823.65   1
   0 -10   2 72439.4 3885.45   5
   0 -10   3 224992. 10408.6   2
   0  10   3 233656. 10263.8   1
   0 -10   4 25799.8 2747.82   2
   0 -12  -6 17992.1 3981.67   4
   0 -12  -5 52665.5 6368.83   4
   0 -12  -4 77621.3 7146.06   4
   0 -12  -3 62301.1 5381.01   4
   0 -12  -2 113855. 6685.21   4
   0 -12  -2 100253. 5629.77   5
   0  12  -1 172763. 7318.47   1
   0  12  -1 171735. 7061.60   3
   0 -12  -1 169196. 8226.47   5
   0  12   0 205894. 8766.10   1
   0 -12   0 188168. 9239.57   5
   0  12   1 176167. 7463.50   1
   0 -12   1 146064. 7429.58   5
   0  12   2 103148. 5572.17   1
   0 -12   2 110809. 5700.42   5
   0 -12   3 60720.2 4416.61   2
   0  12   3 64810.1 4483.69   1
   0 -12   4 69122.1 5147.00   2
   0 -14  -5 80893.1 8177.80   4
   0 -14  -4 118800. 9313.27   4
   0 -14  -3 12477.0 2333.16   4
   0 -14  -2 162357. 8719.79   4
   0 -14  -2 145618. 7783.74   5
   0  14  -1 163477. 7640.42   1
   0  14  -1 178838. 7488.92   3
   0  14   0 16113.9 1772.41   1
   0  14   0 18866.5 1800.88   3
   0 -14   0 14841.1 1894.63   5
   0  14   1 201019. 8859.30   1
   0 -14   1 177190. 8830.26   5
   0  14   2 157570. 7908.75   1
   0 -14   2 161037. 7969.19   5
   0 -14   4 130317. 7902.85   2
   0  14   5 64940.4 6456.42   3
   0 -16  -5 23259.3 4309.14   4
   0 -16  -4 16281.5 3250.15   4
   0 -16  -3 143278. 9186.47   4
   0 -16  -2 46198.8 4221.84   4
   0 -16  -2 43739.3 3889.06   5
   0  16  -1 34579.2 2727.19   1
   0 -16  -1 41838.3 3769.86   5
   0  16   0 233931. 10957.6   1
   0  16   0 272170. 10911.0   3
   0 -16   0 257729. 11813.8   5
   0  16   1 35191.0 2987.81   3
   0  16   1 35074.1 3110.84   1
   0 -16   1 31013.9 3035.50   5
   0  16   2 56940.3 4298.99   1
   0 -16   2 47875.0 3948.34   5
   0 -16   4 13557.5 2246.23   2
   0  16   5 25022.7 3985.62   3
   0 -18  -5 19544.3 3903.77   4
   0 -18  -4 26160.2 4286.73   4
   0 -18  -3 118764. 8395.60   4
   0 -18  -2 73367.6 5641.56   4
   0 -18  -2 68317.0 5432.55   5
   0 -18  -1 29127.9 3332.71   5
   0  18   0 152847. 7652.83   3
   0  18   0 156843. 8114.34   1
   0 -18   0 161486. 8837.22   5
   0 -18   1 41966.5 3818.15   5
   0  18   1 44041.8 3642.77   3
   0  18   1 39537.7 3693.03   1
   0  18   2 53494.2 4523.51   3
   0 -18   2 49564.0 4227.54   5
   0  18   3 116275. 7937.72   3
   0 -18   4 24121.6 3124.08   2
   0  18   4 24104.8 3627.55   3
   0 -20  -5 28221.7 4742.14   4
   0 -20  -4 28487.7 4583.90   4
   0 -20  -3 20146.8 3249.45   4
   0 -20  -2 99247.1 7002.13   4
   0 -20  -1 76634.9 6056.51   5
   0  20   0 24246.4 2571.92   3
   0  20   0 19197.6 2528.53   1
   0 -20   0 22949.4 3000.01   5
   0  20   1 80520.1 5631.60   3
   0 -20   1 86695.0 6186.43   5
   0  20   2 96161.1 6778.21   3
   0 -20   2 93660.0 6570.32   5
   0  20   3 26614.7 3632.78   3
   0 -20   4 28346.8 3531.83   2
   0  20   4 32238.3 4413.00   3
   0 -22  -4 41550.6 5572.33   4
   0 -22  -3 27942.8 4019.12   4
   0  22   1 49352.7 4424.50   3
   0  22   2 80412.1 6405.12   3
   0  22   3 24105.0 3630.63   3
   0 -22   4 34276.6 3969.09   2
   0  24   1 27919.2 3456.90   3
   0  24   2 38848.1 4517.44   3
   0  24   3 5360.57 1804.27   3
   0  26   2 7084.73 2051.48   3
   1   1  -6 17009.3 3365.10   4
   1  -1  -6 15683.1 3188.62   4
   1   1  -5 156420. 10000.5   4
   1  -1  -5 155701. 10249.1   4
   1  -1  -4 42600.9 4255.33   4
   1   1  -4 39166.5 4013.09   4
   1  -1  -3 81783.8 5377.53   4
   1   1  -3 79465.7 5214.02   4
   1  -1  -2 768060. 24567.4   4
   1   1  -2 724778. 24193.1   4
   1   1  -2 608092. 22153.0   1
   1  -1  -2 633627. 22510.8   1
   1   1  -1 133060. 4611.49   1
   1  -1  -1 126743. 4878.06   1
   1  -1   0 146133. 4786.33   5
   1   1   0 126429. 4753.42   1
   1   1   1 574128. 20315.1   1
   1   1   1 620287. 20398.6   2
   1  -1   1 570918. 20303.6   1
   1  -1   1 622029. 20504.6   2
   1   1   2 109018. 4873.30   1
   1  -1   2 122575. 5182.32   2
   1   1   2 122155. 5110.40   2
   1  -1   2 115464. 4894.57   1
   1   1   3 73455.1 3913.48   1
   1  -1   3 66394.0 3846.30   2
   1   1   3 71587.7 3950.61   2
   1  -1   3 74234.1 3848.05   1
   1  -1   4 133742. 6836.39   2
   1   1   4 124268. 6596.60   2
   1  -3  -6 101569. 8963.10   4
   1  -3  -5 14878.5 2933.20   4
   1   3  -5 15459.0 2708.73   4
   1  -3  -4 176022. 10761.5   4
   1   3  -4 219968. 10716.7   4
   1  -3  -3 172789. 9091.44   4
   1   3  -3 165674. 8328.98   4
   1   3  -2 28536.5 1410.10   1
   1  -3  -2 37476.5 2929.15   4
   1   3  -2 32735.6 2481.41   4
   1  -3  -2 23256.8 1832.17   1
   1  -3  -1 161611. 5921.80   5
   1  -3  -1 148473. 6114.41   1
   1   3   0 222558. 7477.27   5
   1  -3   0 231168. 7576.02   5
   1  -3   1 94207.2 3998.21   2
   1  -3   1 87689.9 3680.67   1
   1   3   1 94429.7 3646.85   5
   1   3   1 90826.2 3698.16   2
   1  -3   1 90466.9 3544.33   5
   1   3   2 361610. 13338.8   1
   1  -3   2 388372. 13754.5   2
   1  -3   2 358960. 13063.8   1
   1   3   2 381742. 13426.0   2
   1   3   2 339178. 12876.0   5
   1  -3   2 373683. 12654.8   5
   1   3   3 263450. 10569.3   1
   1  -3   3 262391. 10768.6   2
   1  -3   3 261167. 10250.7   1
   1   3   3 270154. 10651.4   2
   1   3   4 28617.9 2689.06   1
   1  -3   4 22279.3 2283.74   2
   1   3   4 23632.9 2246.74   2
   1  -5  -6 69074.5 7415.09   4
   1  -5  -5 55208.0 6065.90   4
   1  -5  -4 93512.7 7439.92   4
   1   5  -4 129191. 7459.81   4
   1  -5  -3 210148. 10869.9   4
   1   5  -3 212207. 9832.34   4
   1  -5  -2 259810. 8464.49   5
   1  -5  -2 233565. 10067.6   4
   1   5  -2 181216. 8930.73   4
   1   5  -2 211971. 7540.95   1
   1   5  -1 272368. 8540.13   1
   1  -5  -1 212534. 9177.39   5
   1   5  -1 227934. 8641.24   1
   1  -5  -1 268387. 9624.94   1
   1   5   0 416506. 15616.5   1
   1   5   0 401049. 15924.0   5
   1   5   1 217193. 7989.01   2
   1  -5   1 240668. 8403.23   1
   1   5   1 194879. 7956.74   1
   1   5   1 187913. 8246.14   5
   1  -5   1 233537. 8228.28   5
   1   5   2 141865. 6026.87   1
   1  -5   2 141894. 6445.18   2
   1  -5   2 136439. 5852.23   1
   1  -5   2 144702. 5725.13   5
   1   5   2 147082. 6084.55   2
   1   5   3 362213. 13887.4   1
   1  -5   3 350005. 14083.4   2
   1  -5   3 341196. 13499.7   1
   1   5   3 372480. 13842.2   2
   1   5   4 52605.2 4052.04   1
   1  -5   4 42906.3 3426.65   2
   1   5   4 45817.4 3369.68   2
   1  -7  -6 17943.3 3761.70   4
   1  -7  -5 52228.6 5970.13   4
   1  -7  -4 98325.2 8055.35   4
   1   7  -4 140191. 7448.01   4
   1  -7  -3 120970. 7684.08   4
   1   7  -3 125620. 6494.92   4
   1   7  -2 184252. 6526.12   4
   1   7  -2 179759. 4633.57   1
   1  -7  -1 160993. 8525.36   4
   1   7  -1 221733. 7392.02   1
   1   7  -1 214566. 7617.96   1
   1  -7  -1 179185. 8101.23   5
   1   7   0 319412. 12334.1   1
   1  -7   0 350131. 13162.1   5
   1   7   1 238452. 8535.65   2
   1  -7   1 251392. 8989.11   5
   1   7   2 59567.9 3242.35   2
   1  -7   2 61735.2 3341.59   1
   1   7   2 56785.8 3240.97   1
   1  -7   2 60724.6 3188.61   5
   1   7   3 87612.4 4690.21   2
   1   7   3 92295.3 5021.35   1
   1  -7   3 95081.1 5318.16   2
   1  -7   3 87317.8 4668.90   1
   1   7   4 83340.5 4946.03   2
   1  -7   4 75405.0 5127.15   2
   1  -9  -6 45828.7 6299.75   4
   1  -9  -5 103698. 8955.34   4
   1  -9  -4 100502. 8053.24   4
   1  -9  -3 96254.7 6701.75   4
   1  -9  -3 91497.3 4601.06   5
   1  -9  -2 218933. 9162.21   4
   1   9  -2 157782. 7030.02   4
   1   9  -2 151619. 6053.76   1
   1  -9  -2 208502. 7628.40   5
   1  -9  -1 228902. 9251.47   4
   1  -9  -1 234166. 8719.52   5
   1   9   0 115953. 4760.85   1
   1  -9   0 93588.4 5201.40   5
   1   9   1 216806. 9255.17   1
   1  -9   1 271999. 9932.41   5
   1   9   2 248458. 9714.59   2
   1   9   2 223397. 9571.04   1
   1  -9   2 248795. 9764.60   5
   1   9   3 88004.8 4769.92   2
   1   9   3 84925.4 4941.77   1
   1  -9   3 86144.0 5344.42   2
   1   9   4 100622. 5701.48   2
   1  -9   4 93814.2 6048.53   2
   1 -11  -6 31752.5 5308.71   4
   1 -11  -5 79165.3 7839.69   4
   1 -11  -4 28300.8 4058.15   4
   1 -11  -3 128632. 6298.49   5
   1 -11  -3 126325. 8190.14   4
   1 -11  -2 290440. 12981.6   4
   1 -11  -2 282607. 11757.4   5
   1 -11  -1 70262.0 4232.19   4
   1  11  -1 69191.9 3055.71   1
   1  11  -1 60437.2 2800.40   3
   1 -11  -1 57629.9 3724.97   5
   1  11   0 165399. 6821.06   1
   1 -11   0 151022. 7528.69   5
   1  11   1 294779. 11146.4   1
   1 -11   1 260893. 11268.5   5
   1  11   2 26719.7 2254.75   1
   1 -11   2 27968.5 2304.86   5
   1  11   3 116637. 6291.33   1
   1 -11   3 100176. 6209.11   2
   1 -11   4 103625. 6585.82   2
   1 -13  -6 63823.6 7654.58   4
   1 -13  -5 4358.40 1758.97   4
   1 -13  -4 93942.8 8018.17   4
   1 -13  -3 140318. 9096.94   4
   1 -13  -3 155001. 7699.96   5
   1 -13  -2 45776.4 4000.28   4
   1 -13  -2 46982.5 3555.98   5
   1 -13  -1 217581. 9892.85   4
   1  13  -1 202827. 8469.36   1
   1 -13  -1 212613. 9796.24   5
   1  13   0 151442. 6716.11   1
   1 -13   0 138113. 7320.09   5
   1  13   1 27454.1 2286.71   1
   1 -13   1 23004.9 2277.71   5
   1  13   2 203592. 9438.18   1
   1 -13   2 225796. 9687.62   5
   1 -13   3 122378. 7145.46   2
   1 -13   4 7727.84 1707.62   2
   1 -15  -5 15295.8 3497.93   4
   1 -15  -4 49940.0 5772.03   4
   1 -15  -3 79012.4 6419.31   4
   1 -15  -3 83302.5 5480.48   5
   1 -15  -2 66680.6 5041.53   4
   1 -15  -2 57926.6 4457.01   5
   1 -15  -1 86872.2 5436.21   4
   1  15  -1 87049.8 4577.05   1
   1 -15  -1 91694.6 5717.68   5
   1  15   0 161199. 7196.88   3
   1  15   0 151233. 7276.38   1
   1 -15   0 153366. 8110.40   5
   1  15   1 123452. 6460.23   1
   1 -15   1 115885. 6601.88   5
   1  15   2 99668.4 5985.81   1
   1 -15   2 111798. 6223.29   5
   1 -15   3 96973.3 6342.33   2
   1 -15   4 23104.3 3041.88   2
   1 -17  -5 114177. 10109.1   4
   1 -17  -4 26729.5 4215.08   4
   1 -17  -3 11834.0 2313.61   4
   1 -17  -2 280970. 13303.7   4
   1 -17  -2 270963. 13079.7   5
   1 -17  -1 18249.8 2447.99   5
   1 -17   0 10737.4 1824.55   5
   1  17   0 12243.5 1622.71   3
   1  17   0 11522.5 1650.89   1
   1  17   1 232307. 10839.4   1
   1 -17   1 226367. 11005.9   5
   1 -17   2 11821.2 1912.20   5
   1 -17   4 104738. 7304.04   2
   1 -19  -5 21149.7 4060.64   4
   1 -19  -4 73470.8 7216.59   4
   1 -19  -3 49830.1 5276.72   4
   1 -19  -2 47702.7 4378.79   4
   1 -19  -2 46836.6 4553.96   5
   1 -19  -1 97085.2 6696.58   5
   1  19   0 88326.9 5218.74   3
   1  19   0 83792.7 5547.09   1
   1 -19   0 87184.3 6109.74   5
   1  19   1 50078.2 4067.49   3
   1  19   1 48185.8 4192.80   1
   1 -19   1 54625.7 4594.94   5
   1 -19   2 68824.0 5304.92   5
   1 -19   4 38831.1 4208.77   2
   1 -21  -4 44566.6 5595.74   4
   1 -21  -3 32651.6 4321.36   4
   1 -21   0 116131. 7601.36   5
   1  21   1 45466.0 4074.53   3
   1  21   2 41616.7 4300.89   3
   1  21   3 88724.6 7223.16   3
   1 -21   4 8390.96 1948.63   2
   1  21   4 9952.84 2395.59   3
   1  23   1 10295.9 1968.03   3
   1  23   2 31721.5 3928.67   3
   1  23   3 60400.2 6191.18   3
   1  25   2 45556.5 5079.21   3
   2   0  -6 14497.3 3127.72   4
   2   0  -5 26094.6 3719.62   4
   2   0  -4 541936. 22886.3   4
   2   0  -3 35713.3 3345.18   4
   2   0  -2 122694. 6274.06   4
   2   0  -2 114247. 4925.21   1
   2   0   0 98778.7 3902.50   1
   2   0   1 210695. 7666.28   2
   2   0   1 195545. 7648.13   1
   2   0   2 273852. 10287.1   2
   2   0   2 258586. 10162.3   1
   2   0   3 125204. 6168.34   2
   2   0   3 132234. 6179.18   1
   2   0   4 82867.4 5174.73   2
   2   0   4 97430.8 5689.07   1
   2   0   5 133139. 7743.24   2
   2  -2  -6 82515.6 7914.70   4
   2   2  -6 79549.2 7347.16   4
   2  -2  -5 72210.1 6680.34   4
   2   2  -5 75867.7 6528.66   4
   2  -2  -4 88258.0 6940.80   4
   2   2  -4 113422. 7139.25   4
   2  -2  -3 125166. 7559.13   4
   2   2  -3 141679. 7465.41   4
   2  -2  -2 152246. 6960.09   4
   2   2  -2 167842. 6911.59   4
   2  -2  -2 108589. 5349.81   1
   2   2  -2 112942. 4807.80   1
   2  -2  -1 425149. 15636.9   1
   2   2   0 272135. 10149.2   1
   2  -2   0 286041. 10626.8   1
   2   2   1 247970. 9744.11   1
   2  -2   1 285949. 9987.74   2
   2  -2   1 245009. 9719.39   1
   2   2   1 291096. 9819.37   2
   2   2   2 137251. 5917.76   1
   2  -2   2 138285. 6063.95   2
   2   2   2 140382. 5969.69   2
   2  -2   2 131647. 5799.68   1
   2  -2   3 232758. 10140.8   2
   2   2   3 237475. 10086.1   2
   2  -2   3 242056. 9953.29   1
   2   2   3 259104. 10270.5   1
   2  -2   4 49435.6 3766.64   2
   2   2   4 47566.5 3617.48   2
   2  -2   5 40851.2 3774.36   2
   2   2   5 43057.9 3794.93   2
   2  -4  -6 78697.7 7930.49   4
   2   4  -5 92339.6 6979.95   4
   2  -4  -5 69671.9 6915.80   4
   2  -4  -4 23196.6 3411.92   4
   2   4  -4 41479.5 4004.36   4
   2   4  -3 168835. 8407.73   4
   2  -4  -3 147006. 8616.63   4
   2  -4  -2 268838. 11826.2   4
   2   4  -2 268256. 11158.4   4
   2  -4  -1 5145.98 1043.87   1
   2  -4  -1 9993.51 918.348   5
   2  -4   0 373145. 13367.8   1
   2   4   0 357766. 12355.8   2
   2  -4   0 397216. 12714.2   5
   2  -4   1 503799. 17852.1   2
   2  -4   1 554319. 17756.0   1
   2   4   1 506467. 17397.2   2
   2  -4   1 511775. 17243.5   5
   2   4   2 27419.5 1979.17   1
   2  -4   2 29353.5 2245.65   2
   2  -4   2 28312.5 1412.24   5
   2  -4   2 30308.2 2053.44   1
   2   4   2 29651.7 2075.66   2
   2   4   3 261622. 10903.3   1
   2  -4   3 251006. 10915.6   2
   2  -4   3 263624. 10620.9   1
   2   4   3 256605. 10701.8   2
   2  -4   4 162098. 8175.82   2
   2   4   4 146819. 7730.23   2
   2   4   5 24199.9 2789.40   2
   2  -4   5 20471.8 2667.60   2
   2  -6  -6 28162.4 4698.86   4
   2  -6  -5 89420.0 8233.55   4
   2   6  -5 109542. 7396.60   4
   2  -6  -4 113577. 8680.52   4
   2   6  -4 156025. 8258.60   4
   2  -6  -3 86972.1 6187.35   4
   2   6  -3 88359.0 5285.20   4
   2  -6  -2 456723. 17900.2   4
   2   6  -2 400374. 16418.7   4
   2  -6  -2 448525. 15820.6   5
   2   6  -1 281874. 11508.5   4
   2  -6  -1 279998. 11424.0   5
   2   6   0 11375.1 898.974   1
   2  -6   0 14173.4 1278.11   5
   2   6   1 429032. 14743.7   2
   2  -6   1 469668. 15449.0   1
   2  -6   1 424193. 14938.3   5
   2   6   2 150754. 6676.09   1
   2  -6   2 155118. 7283.53   2
   2  -6   2 169539. 6964.06   1
   2  -6   2 146439. 6236.35   5
   2   6   2 162587. 6790.27   2
   2   6   3 41357.2 3039.75   1
   2  -6   3 39937.2 3174.82   2
   2  -6   3 39355.9 2909.14   1
   2   6   3 38365.6 2859.84   2
   2   6   4 140348. 7166.18   2
   2  -6   4 125792. 7200.85   2
   2  -6   5 43438.8 4075.84   2
   2  -8  -6 71430.0 7923.31   4
   2  -8  -5 48801.6 6049.97   4
   2  -8  -4 93642.0 7932.10   4
   2   8  -4 129505. 7171.88   4
   2  -8  -3 277163. 13804.8   4
   2   8  -3 275618. 11899.0   4
   2  -8  -2 140075. 7364.98   4
   2  -8  -2 133139. 5924.94   5
   2   8  -1 248294. 9699.33   4
   2   8  -1 249977. 8289.83   1
   2   8   0 358532. 12673.0   1
   2  -8   0 341256. 13465.3   5
   2   8   1 95701.1 4325.89   2
   2  -8   1 98535.3 4719.48   5
   2   8   2 142731. 6309.56   2
   2   8   2 122572. 6036.57   1
   2  -8   2 141323. 7032.14   2
   2  -8   2 143086. 6556.07   1
   2  -8   2 148130. 6225.79   5
   2   8   3 169607. 7809.37   2
   2  -8   3 161507. 8424.49   2
   2   8   3 176412. 8205.41   1
   2   8   4 26219.4 2631.47   2
   2  -8   4 30230.9 3068.87   2
   2  -8   5 53487.5 4709.75   2
   2 -10  -6 21229.2 4215.72   4
   2 -10  -5 13124.1 3072.33   4
   2 -10  -4 126784. 9185.61   4
   2 -10  -3 22571.6 2069.30   5
   2 -10  -3 23155.0 3155.98   4
   2  10  -3 23514.1 2281.28   4
   2 -10  -2 67161.3 4905.07   4
   2 -10  -2 65683.4 3975.90   5
   2  10  -2 65479.8 3823.16   4
   2 -10  -1 262186. 11083.1   5
   2  10  -1 260854. 9651.92   3
   2  10  -1 284931. 9744.93   1
   2  10   0 50578.5 2658.28   1
   2 -10   0 44769.1 3184.78   5
   2  10   1 138875. 6310.46   1
   2 -10   1 156134. 6984.77   5
   2  10   2 274475. 11038.2   2
   2 -10   2 280503. 11674.1   1
   2 -10   2 288453. 11083.7   5
   2  10   3 97779.7 5720.92   1
   2  10   3 100404. 5445.11   2
   2 -10   3 91904.0 5973.63   2
   2  10   4 45115.2 3683.02   2
   2 -10   4 41528.5 3939.11   2
   2 -10   5 69580.5 5613.05   2
   2 -12  -6 22829.9 4336.91   4
   2 -12  -5 82823.6 8119.76   4
   2 -12  -4 78626.6 7062.30   4
   2 -12  -3 83895.4 6479.96   4
   2 -12  -3 74645.3 4647.63   5
   2 -12  -2 217157. 10718.8   4
   2  12  -2 232150. 9598.39   4
   2 -12  -1 78145.7 5037.94   4
   2  12  -1 88591.3 3951.50   1
   2 -12  -1 83696.0 5019.91   5
   2  12   0 93672.9 4474.05   1
   2 -12   0 88323.2 5216.63   5
   2  12   1 176309. 7823.34   1
   2 -12   1 190662. 8599.36   5
   2  12   2 21235.4 2128.15   1
   2 -12   2 25279.8 2296.34   5
   2 -12   3 72370.6 5282.09   2
   2 -12   4 110639. 7196.65   2
   2 -12   5 19785.9 2901.52   2
   2 -14  -6 53951.0 6968.04   4
   2 -14  -5 52999.7 6477.58   4
   2 -14  -4 10795.5 2546.69   4
   2 -14  -3 155596. 8094.85   5
   2 -14  -3 152596. 9565.21   4
   2 -14  -2 152579. 8349.15   4
   2 -14  -2 126667. 7167.87   5
   2 -14  -1 94593.0 5636.67   4
   2  14  -1 93401.7 4528.83   1
   2 -14  -1 106562. 6052.78   5
   2  14   0 255930. 10636.6   1
   2 -14   0 275822. 11862.3   5
   2  14   1 142493. 7029.09   1
   2 -14   1 156610. 7712.37   5
   2  14   2 42425.4 3385.81   1
   2 -14   2 43744.9 3405.13   5
   2 -14   3 142486. 8320.59   2
   2 -14   4 45222.7 4424.27   2
   2 -16  -5 25121.0 4464.32   4
   2 -16  -4 111963. 8863.89   4
   2 -16  -3 5448.63 1341.80   5
   2 -16  -3 5540.49 1632.50   4
   2 -16  -2 74401.0 5539.32   4
   2 -16  -2 62870.9 4884.51   5
   2 -16  -1 203666. 10239.6   5
   2  16   0 18621.7 1989.68   1
   2 -16   0 22510.5 2553.56   5
   2  16   1 97365.1 5748.98   1
   2 -16   1 104880. 6186.37   5
   2 -16   2 138235. 7478.14   5
   2 -16   3 34275.4 3653.34   2
   2 -16   4 45337.2 4576.45   2
   2 -18  -5 15234.8 3465.92   4
   2 -18  -4 99494.1 8383.16   4
   2 -18  -3 80581.1 6626.65   4
   2 -18  -2 30716.6 3444.94   4
   2 -18  -2 23377.0 3035.63   5
   2 -18  -1 116024. 7290.34   5
   2  18   0 40706.3 3117.68   3
   2  18   0 36893.2 3133.32   1
   2 -18   0 39610.7 3707.60   5
   2  18   1 17798.6 2316.19   1
   2 -18   1 17160.1 2322.65   5
   2 -18   2 95499.6 6092.93   5
   2 -18   3 52926.0 4777.37   2
   2 -18   4 11850.2 2261.67   2
   2 -20  -5 13819.4 3292.06   4
   2 -20  -4 17054.7 3247.67   4
   2 -20  -3 54499.2 5453.69   4
   2 -20  -1 50710.8 4724.62   5
   2 -20   0 81313.4 5952.61   5
   2 -20   1 60934.4 4967.65   5
   2 -20   3 49985.6 4760.31   2
   2 -20   4 6324.67 1768.44   2
   2  22   1 165736. 9363.85   3
   2  22   2 8431.79 1925.30   3
   2 -22   3 23780.4 3284.50   2
   2  22   3 25012.0 3715.19   3
   2  24   2 12667.6 2524.69   3
   2 -24   3 47500.4 4852.37   2
   2  24   3 41922.8 5389.75   3
   2  26   2 27098.5 3969.62   3
   3  -1  -6 151418. 11401.9   4
   3   1  -6 141500. 10581.8   4
   3  -1  -5 31404.9 4286.98   4
   3   1  -5 41028.9 4851.75   4
   3  -1  -4 57335.4 5329.25   4
   3   1  -4 72515.0 5728.24   4
   3  -1  -3 353847. 16017.9   4
   3   1  -3 390124. 16189.2   4
   3  -1  -2 123835. 6174.23   4
   3   1  -2 148165. 6724.43   4
   3  -1  -1 145583. 6946.53   4
   3   1  -1 153873. 6954.81   4
   3   1  -1 168760. 6268.72   1
   3  -1   0 235907. 8286.80   2
   3  -1   0 232018. 8675.25   1
   3   1   0 234382. 8239.54   2
   3   1   0 206638. 8308.58   1
   3  -1   1 329253. 11495.0   2
   3   1   1 325879. 11388.3   2
   3  -1   1 296455. 11334.9   1
   3   1   1 282580. 11351.6   1
   3  -1   2 123877. 5753.41   2
   3   1   2 125520. 5736.38   2
   3  -1   2 125820. 5684.77   1
   3   1   2 121118. 5656.18   1
   3  -1   3 169496. 8247.72   2
   3   1   3 186476. 8441.19   2
   3  -1   3 185685. 8379.02   1
   3   1   3 190320. 8528.11   1
   3  -1   4 89351.9 5583.67   2
   3   1   4 84127.5 5368.77   2
   3   1   4 92995.5 6080.73   1
   3  -1   5 29754.6 3308.33   2
   3   1   5 26107.2 3080.82   2
   3  -3  -6 29560.5 4789.67   4
   3   3  -6 25301.1 3870.69   4
   3  -3  -5 89252.1 7946.76   4
   3   3  -5 111916. 8064.52   4
   3   3  -4 89502.9 6418.69   4
   3  -3  -4 69982.2 6189.40   4
   3  -3  -3 148599. 8659.45   4
   3   3  -3 157323. 8300.28   4
   3  -3  -2 324884. 14161.7   4
   3   3  -2 347241. 13822.3   4
   3   3  -1 264677. 10791.1   4
   3   3  -1 295886. 9846.92   1
   3  -3   0 114615. 4670.85   2
   3  -3   0 117761. 5201.07   1
   3   3   0 106362. 4507.03   1
   3   3   0 110823. 4424.88   2
   3  -3   1 569932. 19120.4   2
   3  -3   1 557788. 19113.9   1
   3   3   1 565609. 18781.1   2
   3   3   2 103619. 5077.42   1
   3  -3   2 106808. 5328.12   2
   3  -3   2 106011. 5084.92   1
   3   3   2 109120. 5129.66   2
   3  -3   3 63903.4 4243.51   2
   3  -3   3 70249.7 4200.35   1
   3   3   3 66781.5 4147.25   2
   3   3   3 73846.2 4466.16   1
   3  -3   4 152896. 8219.89   2
   3   3   4 164856. 8260.37   2
   3  -3   5 22116.6 2909.56   2
   3   3   5 24932.6 2992.45   2
   3  -5  -6 34402.1 5252.08   4
   3  -5  -5 21414.1 3731.26   4
   3   5  -5 32454.5 3868.08   4
   3  -5  -4 217594. 13044.3   4
   3   5  -4 261121. 12306.3   4
   3  -5  -3 64903.0 5285.06   4
   3   5  -3 62275.6 4444.39   4
   3  -5  -2 87630.9 5668.11   4
   3   5  -2 88458.0 5037.06   4
   3   5  -1 659474. 22375.3   4
   3   5  -1 651704. 20824.7   1
   3   5   0 63246.2 2890.41   2
   3  -5   0 72236.6 3368.21   5
   3  -5   0 64448.4 3683.78   1
   3  -5   1 126666. 5684.46   2
   3  -5   1 133008. 5790.67   1
   3   5   1 125606. 5241.63   2
   3  -5   1 133871. 5222.64   5
   3   5   2 455734. 17431.4   1
   3  -5   2 461042. 17990.7   2
   3  -5   2 481110. 17702.2   1
   3   5   2 491008. 17540.0   2
   3   5   3 78502.8 4686.15   1
   3  -5   3 64705.1 4461.78   2
   3  -5   3 69522.3 4402.34   1
   3   5   3 67966.9 4224.21   2
   3  -5   4 50424.3 4118.68   2
   3   5   4 54240.7 4068.37   2
   3   5   5 125299. 7616.94   2
   3  -5   5 119515. 7829.12   2
   3  -7  -6 58227.4 7018.92   4
   3  -7  -5 57798.1 6472.76   4
   3   7  -5 68293.6 5701.74   4
   3  -7  -4 111971. 8734.28   4
   3   7  -4 127780. 7533.04   4
   3  -7  -3 192854. 10970.0   4
   3   7  -3 220056. 10026.5   4
   3  -7  -2 156960. 6701.64   5
   3  -7  -2 155172. 8172.41   4
   3   7  -2 138909. 6964.56   4
   3   7  -1 210244. 8398.46   4
   3   7  -1 204434. 6894.84   1
   3  -7  -1 189021. 8095.96   5
   3   7   0 220274. 8149.20   1
   3  -7   0 204900. 8653.32   5
   3   7   1 156658. 6565.45   2
   3   7   1 153597. 6610.46   1
   3  -7   1 153869. 6655.76   5
   3  -7   1 173597. 7365.34   1
   3   7   2 28198.5 2246.37   2
   3   7   2 25045.2 2089.05   1
   3  -7   2 28121.0 2593.50   2
   3  -7   2 31114.9 2512.37   1
   3  -7   2 28297.5 1912.80   5
   3   7   3 104465. 5827.94   1
   3  -7   3 86061.1 5607.31   2
   3  -7   3 93650.5 5609.97   1
   3   7   3 95415.2 5377.31   2
   3   7   4 97608.0 5882.00   2
   3  -7   4 88395.1 6028.31   2
   3   7   5 17501.7 2510.71   2
   3  -7   5 18703.5 2771.47   2
   3  -9  -6 60746.3 7289.64   4
   3  -9  -5 66863.3 7053.48   4
   3  -9  -4 15391.4 2982.18   4
   3   9  -4 21910.4 2664.37   4
   3  -9  -3 168081. 9902.44   4
   3   9  -3 174529. 8495.58   4
   3  -9  -2 238724. 10040.1   5
   3  -9  -2 252756. 11599.3   4
   3   9  -2 231126. 10119.1   4
   3  -9  -1 91899.3 4943.33   5
   3   9  -1 99025.2 3799.18   1
   3   9   0 249016. 9325.23   1
   3  -9   0 237790. 10172.7   5
   3   9   1 244762. 9839.34   2
   3   9   1 239233. 9777.55   1
   3  -9   1 234326. 10038.7   5
   3   9   2 44015.0 3024.43   2
   3   9   2 41572.9 2917.24   1
   3  -9   2 43818.8 3516.04   2
   3  -9   2 39096.7 3155.94   1
   3  -9   2 40924.4 2715.93   5
   3   9   3 148663. 7437.42   2
   3   9   3 158704. 7915.27   1
   3  -9   3 141579. 8075.11   2
   3   9   4 112223. 6631.63   2
   3  -9   4 109167. 7078.94   2
   3  -9   5 4265.69 1424.71   2
   3   9   5 5094.66 1361.14   2
   3 -11  -6 67126.9 7677.97   4
   3 -11  -5 2907.52 1368.07   4
   3 -11  -4 89082.2 7577.66   4
   3 -11  -3 160498. 7977.38   5
   3 -11  -3 172245. 9995.46   4
   3  11  -3 173102. 8278.97   4
   3 -11  -2 3695.35 937.467   5
   3 -11  -2 2672.22 944.574   4
   3  11  -2 3884.29 919.941   4
   3 -11  -1 117996. 6940.79   4
   3 -11  -1 130588. 6925.52   5
   3  11   0 184822. 7370.33   1
   3 -11   0 164028. 8109.94   5
   3  11   1 84733.8 4473.92   1
   3 -11   1 94474.3 5038.63   5
   3  11   2 220811. 9340.35   2
   3  11   2 197103. 9094.89   1
   3 -11   2 187392. 9842.30   2
   3 -11   2 210957. 9046.58   5
   3  11   3 108692. 6130.66   2
   3 -11   3 103416. 6808.86   2
   3  11   4 59457.9 4596.80   2
   3 -11   4 54107.6 4901.14   2
   3  11   5 73867.2 5722.58   2
   3 -11   5 66616.0 5851.85   2
   3 -13  -6 10770.9 3010.09   4
   3 -13  -5 104055. 9320.85   4
   3 -13  -4 103944. 8281.50   4
   3 -13  -3 61380.4 4317.35   5
   3 -13  -3 59323.9 5284.49   4
   3 -13  -2 281280. 12988.0   4
   3 -13  -2 267755. 12173.9   5
   3  13  -1 187155. 7077.23   1
   3 -13  -1 189569. 8770.73   5
   3  13   0 100098. 4936.65   1
   3 -13   0 99582.0 5802.31   5
   3  13   1 173247. 8009.74   1
   3 -13   1 183969. 8565.14   5
   3  13   2 116261. 6396.08   1
   3 -13   2 118818. 6236.95   5
   3 -13   3 26161.0 3153.17   2
   3 -13   4 65641.6 5557.98   2
   3 -13   5 39197.2 4430.64   2
   3 -15  -5 16349.9 3520.56   4
   3 -15  -4 47206.9 5384.51   4
   3 -15  -3 86548.5 5742.49   5
   3 -15  -3 82974.0 6573.96   4
   3 -15  -2 108764. 6708.04   4
   3 -15  -2 91227.5 6147.86   5
   3 -15  -1 118397. 6923.77   5
   3  15   0 62133.4 3874.96   1
   3 -15   0 70388.1 4779.48   5
   3  15   1 133252. 6944.96   1
   3 -15   1 141266. 7421.37   5
   3 -15   2 69043.9 4635.86   5
   3 -15   3 14802.1 2412.33   2
   3 -15   4 44350.5 4552.33   2
   3 -15   5 26459.8 3613.04   2
   3 -17  -5 15492.7 3375.15   4
   3 -17  -4 25491.1 3957.89   4
   3 -17  -3 120032. 7715.70   5
   3 -17  -3 140987. 8915.86   4
   3 -17  -2 17932.5 2601.40   5
   3 -17  -1 56874.6 4646.30   5
   3  17   0 127259. 6760.63   1
   3 -17   0 138534. 7733.40   5
   3  17   1 42577.7 3669.41   1
   3 -17   1 47963.6 3964.64   5
   3 -17   3 109347. 7480.08   2
   3 -17   4 41891.8 4504.24   2
   3 -19  -5 40305.3 5594.28   4
   3 -19  -4 27633.6 4243.35   4
   3 -19  -3 69655.9 6045.16   4
   3 -19  -2 80600.4 6406.94   5
   3 -19  -1 19206.1 2730.47   5
   3 -19   0 90077.7 6222.83   5
   3 -19   1 107461. 6826.14   5
   3 -19   3 62248.3 5450.11   2
   3 -19   4 76077.8 6413.21   2
   3 -21   3 7778.88 1858.85   2
   3 -23   3 8094.32 1966.55   2
   3  25   2 4749.06 1580.59   3
   4   0  -6 57371.6 6421.33   4
   4   0  -5 212691. 13193.2   4
   4   0  -4 43604.1 4677.49   4
   4   0  -3 154898. 8973.70   4
   4   0  -2 176803. 8627.83   4
   4   0  -1 347854. 13989.3   4
   4   0  -1 367323. 13400.6   1
   4   0   0 255097. 10885.8   4
   4   0   0 246673. 10146.6   1
   4   0   1 343336. 12520.8   2
   4   0   1 327481. 12561.6   1
   4   0   2 249203. 9996.32   2
   4   0   2 229996. 9777.88   1
   4   0   3 110645. 6202.50   2
   4   0   3 115554. 6310.13   1
   4   0   4 162892. 8648.53   2
   4   0   5 54473.9 4945.76   2
   4  -2  -6 19439.2 3777.70   4
   4   2  -6 18574.5 3421.50   4
   4  -2  -5 100253. 8623.29   4
   4   2  -5 118036. 8517.28   4
   4  -2  -4 133506. 9258.21   4
   4   2  -4 171861. 9672.32   4
   4  -2  -3 70913.8 5452.87   4
   4   2  -3 71928.4 5172.07   4
   4  -2  -2 211590. 10273.6   4
   4   2  -2 206263. 9582.79   4
   4  -2  -1 509765. 19241.9   4
   4   2  -1 472973. 18731.8   4
   4   2  -1 525854. 18014.5   1
   4  -2   0 47819.1 2384.74   2
   4  -2   0 46098.7 2799.36   1
   4   2   0 47747.6 2301.93   2
   4  -2   1 124684. 5462.84   2
   4  -2   1 120918. 5557.25   1
   4   2   1 122544. 5329.38   2
   4   2   1 115401. 5369.63   1
   4  -2   2 247685. 10081.3   2
   4  -2   2 227962. 9799.50   1
   4   2   2 244849. 9999.38   2
   4   2   2 235844. 9834.09   1
   4  -2   3 26287.9 2578.42   2
   4  -2   3 26555.8 2595.50   1
   4   2   3 25427.0 2480.73   2
   4   2   3 30084.9 2780.46   1
   4  -2   4 99369.1 6321.77   2
   4   2   4 93484.6 6030.79   2
   4  -2   5 63894.9 5336.12   2
   4   2   5 58962.0 5046.74   2
   4  -4  -6 93176.0 9293.35   4
   4   4  -6 86637.9 7719.28   4
   4  -4  -5 22593.0 3811.86   4
   4   4  -5 25897.9 3572.80   4
   4  -4  -4 85235.0 7146.49   4
   4   4  -4 98577.5 6744.68   4
   4  -4  -3 290364. 14511.8   4
   4   4  -3 326498. 13976.3   4
   4  -4  -2 44103.2 3774.39   4
   4   4  -2 50620.7 3610.15   4
   4  -4  -1 337568. 13676.3   4
   4   4  -1 342180. 13322.1   4
   4   4  -1 333568. 12099.2   1
   4  -4   0 416192. 14794.3   2
   4  -4   0 366308. 15283.3   1
   4   4   0 403455. 14609.7   1
   4   4   0 419126. 14445.4   2
   4  -4   1 141763. 6207.92   2
   4  -4   1 129233. 6137.57   1
   4   4   1 135661. 5869.78   2
   4   4   1 132701. 5933.13   1
   4  -4   2 200360. 8909.14   2
   4  -4   2 192748. 8648.88   1
   4   4   2 209810. 8619.86   2
   4   4   2 183560. 8381.54   1
   4  -4   3 166224. 8288.28   1
   4   4   3 158941. 7915.43   2
   4   4   3 179845. 8421.96   1
   4  -4   4 68283.4 5184.16   2
   4   4   4 76156.7 5163.89   2
   4  -4   5 48874.5 4756.93   2
   4   4   5 47409.6 4496.25   2
   4  -6  -6 105780. 10028.6   4
   4  -6  -5 56688.8 6403.04   4
   4   6  -5 64045.2 5733.97   4
   4  -6  -4 15316.8 2884.48   4
   4   6  -4 18380.0 2610.27   4
   4  -6  -3 284866. 14372.5   4
   4   6  -3 313212. 13552.8   4
   4  -6  -2 93098.4 5952.77   4
   4   6  -2 92699.0 5286.47   4
   4  -6  -1 75394.1 4128.24   5
   4  -6  -1 80090.5 4960.81   4
   4   6  -1 88375.9 4792.17   4
   4   6  -1 81445.4 3409.66   1
   4  -6   0 377431. 14813.0   5
   4   6   0 401124. 14499.5   2
   4   6   0 399037. 14573.6   1
   4  -6   1 93482.8 4469.91   5
   4   6   1 101331. 4827.48   1
   4  -6   1 103507. 5278.50   2
   4  -6   1 101103. 5341.83   1
   4   6   1 100965. 4742.35   2
   4   6   2 129983. 6551.50   1
   4  -6   2 133040. 7073.26   2
   4  -6   2 155151. 7278.24   1
   4   6   2 148914. 6795.71   2
   4  -6   3 155940. 8735.79   2
   4  -6   3 179999. 9010.78   1
   4   6   3 168494. 8446.58   2
   4   6   4 21150.6 2587.64   2
   4  -6   4 19706.8 2627.59   2
   4   6   5 22177.8 2991.34   2
   4  -6   5 27045.9 3505.45   2
   4  -8  -6 15971.7 3691.37   4
   4  -8  -5 89585.3 8510.17   4
   4   8  -5 115281. 7789.67   4
   4  -8  -4 151614. 10500.3   4
   4   8  -4 174271. 9383.33   4
   4  -8  -3 53765.8 4980.00   4
   4   8  -3 57953.8 4285.57   4
   4   8  -2 306686. 12667.8   4
   4  -8  -2 281520. 12092.2   5
   4  -8  -1 255870. 11689.7   4
   4   8  -1 274566. 9866.49   1
   4   8   0 9204.49 1006.86   1
   4  -8   0 7951.31 1169.99   5
   4   8   1 248114. 9851.69   2
   4   8   1 219647. 9681.65   1
   4  -8   1 237744. 10629.7   2
   4  -8   1 270698. 10874.2   1
   4  -8   1 261503. 10232.6   5
   4   8   2 158514. 7653.39   2
   4   8   2 174573. 7856.96   1
   4  -8   2 148603. 8288.08   2
   4   8   3 16053.4 1994.89   2
   4   8   3 18335.7 2290.20   1
   4  -8   3 14646.3 2234.73   1
   4  -8   3 11943.8 1982.53   2
   4   8   4 121301. 7094.24   2
   4  -8   4 108964. 7339.47   2
   4   8   5 76708.5 5981.99   2
   4  -8   5 74480.9 6236.05   2
   4 -10  -6 20212.2 4207.99   4
   4 -10  -5 73639.0 7483.14   4
   4 -10  -4 40106.7 4848.74   4
   4  10  -4 43505.9 3978.35   4
   4 -10  -3 58647.4 5257.78   4
   4  10  -3 55009.8 4188.72   4
   4 -10  -2 190360. 9081.39   5
   4 -10  -2 215350. 10528.4   4
   4  10  -2 218421. 9689.02   4
   4  10  -1 146623. 5489.64   1
   4 -10  -1 134559. 6893.99   5
   4  10   0 99406.0 4569.43   1
   4 -10   0 88327.6 5192.21   5
   4  10   1 201668. 8369.76   1
   4  10   1 181402. 8273.87   2
   4 -10   1 199939. 8755.52   5
   4  10   2 172259. 8218.59   2
   4  10   2 176710. 8239.89   1
   4 -10   2 191921. 9210.91   1
   4 -10   2 163773. 8998.02   2
   4  10   3 47630.8 3751.31   2
   4 -10   3 41087.3 4021.68   2
   4  10   4 84888.7 5831.69   2
   4 -10   4 78042.7 6150.98   2
   4  10   5 54567.0 5007.89   2
   4 -10   5 56911.6 5451.90   2
   4 -12  -6 67459.0 7750.17   4
   4 -12  -5 31766.8 4871.69   4
   4 -12  -4 32766.4 4349.05   4
   4 -12  -3 172510. 10306.9   4
   4  12  -3 183766. 9155.23   4
   4 -12  -2 32025.0 3000.38   5
   4 -12  -2 34424.7 3465.40   4
   4  12  -2 37088.8 3385.31   4
   4  12  -1 97807.0 4152.10   1
   4 -12  -1 89986.1 5430.83   5
   4  12   0 250809. 9862.00   1
   4 -12   0 228341. 10660.3   5
   4  12   1 40395.0 2931.35   1
   4 -12   1 37709.1 3053.89   5
   4  12   2 76382.6 4715.33   1
   4  12   2 65870.4 4435.05   2
   4 -12   2 63619.3 5075.05   2
   4  12   3 119188. 6944.22   2
   4 -12   3 120771. 7792.79   2
   4  12   4 27851.2 3179.69   2
   4 -12   4 23626.6 3291.53   2
   4 -12   5 14235.7 2655.50   2
   4 -14  -6 29952.4 5074.71   4
   4 -14  -5 47406.4 5989.63   4
   4 -14  -4 158131. 10687.8   4
   4 -14  -3 103599. 6553.63   5
   4 -14  -3 103827. 7527.80   4
   4 -14  -2 128542. 7509.00   4
   4 -14  -2 109520. 6907.98   5
   4 -14  -1 227499. 10871.0   5
   4  14   0 66756.9 3972.85   1
   4 -14   0 72734.8 4820.99   5
   4  14   1 62644.1 4094.56   1
   4 -14   1 55707.7 4142.64   5
   4 -14   2 98647.4 6704.65   2
   4 -14   3 29669.1 3597.80   2
   4 -14   4 50539.1 5093.25   2
   4 -16  -5 53358.8 6399.36   4
   4 -16  -4 14381.2 2866.67   4
   4 -16  -3 63866.6 5178.36   5
   4 -16  -3 66133.2 5745.22   4
   4 -16  -2 90066.4 6420.16   5
   4 -16  -1 63957.2 4948.43   5
   4  16   0 108018. 5837.62   1
   4 -16   0 104106. 6479.10   5
   4  16   1 93042.6 5792.97   1
   4 -16   1 96594.8 5994.54   5
   4 -16   2 65850.4 5395.28   2
   4 -16   3 61395.4 5494.12   2
   4 -16   4 40678.7 4532.22   2
   4 -18  -5 52097.3 6349.63   4
   4 -18  -4 38817.2 4861.54   4
   4 -18  -3 18197.1 2900.86   4
   4 -18  -2 108133. 7625.10   5
   4 -18  -1 79146.9 5928.88   5
   4 -18   0 10137.1 1852.22   5
   4 -18   1 142600. 8080.65   5
   4 -18   3 7058.47 1893.51   2
   4 -18   4 66975.1 6030.53   2
   4 -20  -5 25542.1 4382.02   4
   4 -20   3 8207.70 1946.91   2
   4 -22   3 66519.6 6002.57   2
   4 -24   2 49622.5 5047.62   2
   5  -1  -6 48959.5 6057.83   4
   5   1  -6 41854.5 5480.77   4
   5  -1  -5 40680.0 5121.50   4
   5   1  -5 52168.6 5544.80   4
   5  -1  -4 102481. 7701.97   4
   5   1  -4 92489.1 7116.49   4
   5  -1  -3 214180. 11108.4   4
   5   1  -3 201821. 10710.3   4
   5  -1  -2 100534. 6138.81   4
   5   1  -2 108791. 6169.68   4
   5  -1  -1 204123. 8036.96   4
   5   1  -1 193326. 7847.60   4
   5  -1  -1 168446. 7376.37   1
   5   1  -1 214507. 7419.99   1
   5  -1  -1 144849. 5733.63   2
   5   1  -1 138683. 5708.54   2
   5  -1   0 269350. 11811.3   1
   5  -1   0 338484. 11497.4   2
   5   1   0 268839. 11698.9   1
   5   1   0 347372. 11520.3   2
   5  -1   1 97099.9 4605.45   2
   5  -1   1 85792.9 4603.53   1
   5   1   1 99320.0 4638.04   2
   5   1   1 83208.1 4393.52   1
   5  -1   2 184788. 8535.22   2
   5  -1   2 193789. 8581.57   1
   5   1   2 187769. 8601.88   2
   5   1   2 190042. 8477.98   1
   5  -1   3 96083.8 6085.16   2
   5  -1   3 121105. 6812.06   1
   5   1   3 93415.4 5974.84   2
   5   1   3 113808. 6555.91   1
   5  -1   4 23021.4 2876.13   2
   5   1   4 25483.3 2968.73   2
   5  -1   5 58663.1 5439.72   2
   5   1   5 60071.4 5376.07   2
   5  -3  -6 65300.0 7349.73   4
   5   3  -6 69441.7 6995.02   4
   5  -3  -5 41378.3 5471.85   4
   5   3  -5 46612.9 5140.91   4
   5  -3  -4 94218.9 7834.61   4
   5   3  -4 90601.3 6806.29   4
   5  -3  -3 352768. 15512.5   4
   5   3  -3 256718. 13237.0   4
   5  -3  -2 100257. 6075.77   4
   5   3  -2 93616.7 5646.84   4
   5   3  -1 159126. 6118.94   2
   5  -3  -1 181694. 8051.28   4
   5   3  -1 186451. 7970.58   4
   5  -3  -1 147294. 6113.03   2
   5   3  -1 184420. 6917.84   1
   5  -3   0 348000. 12870.7   1
   5  -3   0 350838. 12007.1   2
   5   3   0 312317. 11927.5   1
   5   3   0 346614. 11759.3   2
   5  -3   1 97380.1 4825.16   2
   5  -3   1 91428.8 4886.85   1
   5   3   1 98133.8 4649.73   2
   5   3   1 85965.1 4561.73   1
   5  -3   2 223798. 10466.1   2
   5   3   2 236097. 10383.2   2
   5   3   2 246729. 10470.9   1
   5  -3   3 104715. 6583.28   2
   5  -3   3 139294. 7608.03   1
   5   3   3 135286. 7342.64   1
   5   3   3 106154. 6453.30   2
   5  -3   4 40994.4 4053.40   2
   5   3   4 43465.4 3985.56   2
   5  -3   5 66625.7 5842.65   2
   5   3   5 73812.1 6043.73   2
   5  -5  -6 8141.90 2641.42   4
   5   5  -6 7581.94 2247.60   4
   5  -5  -5 189555. 13447.1   4
   5   5  -5 213853. 12301.4   4
   5  -5  -4 7408.90 2024.62   4
   5   5  -4 11371.2 2136.46   4
   5  -5  -3 27254.1 3487.07   4
   5   5  -3 27047.1 3025.87   4
   5  -5  -2 448008. 18247.2   4
   5   5  -2 415955. 17216.3   4
   5  -5  -1 55432.9 3979.02   4
   5  -5  -1 55613.4 2893.27   2
   5   5  -1 60408.0 3979.50   4
   5   5  -1 59517.4 2998.02   1
   5   5   0 165271. 5579.16   2
   5  -5   0 167485. 6784.71   1
   5  -5   0 171893. 6117.38   2
   5   5   0 159866. 5817.11   1
   5  -5   1 393506. 14529.7   2
   5  -5   1 366457. 14614.4   1
   5   5   1 383381. 13973.4   2
   5  -5   2 33029.0 3023.27   2
   5   5   2 32396.7 2729.89   2
   5   5   2 37849.5 2894.42   1
   5  -5   3 77185.3 5499.55   1
   5  -5   3 57767.8 4702.23   2
   5   5   3 83130.6 5417.61   1
   5   5   3 62528.5 4544.54   2
   5  -5   4 148681. 9144.55   2
   5   5   4 178759. 9376.29   2
   5  -5   5 10278.9 2237.44   2
   5   5   5 8802.52 1908.24   2
   5  -7  -6 40649.0 6074.92   4
   5  -7  -5 42022.1 5669.90   4
   5   7  -5 57431.7 5420.69   4
   5  -7  -4 97550.1 8035.85   4
   5   7  -4 107657. 7175.30   4
   5  -7  -3 147476. 9250.02   4
   5   7  -3 156585. 8438.14   4
   5  -7  -2 111257. 6868.68   4
   5   7  -2 101363. 6007.36   4
   5  -7  -1 151057. 7905.82   4
   5   7  -1 163659. 6665.13   1
   5  -7   0 196867. 8805.64   5
   5   7   0 208194. 8334.69   2
   5  -7   0 222023. 9852.77   1
   5  -7   0 208608. 8984.18   2
   5   7   0 214379. 8534.19   1
   5   7   1 22752.8 1994.23   2
   5  -7   1 23262.6 2338.72   2
   5  -7   1 25563.8 2519.45   1
   5   7   1 28576.0 2225.05   1
   5  -7   2 77148.1 5431.15   2
   5   7   2 95570.1 5319.87   1
   5   7   2 88384.5 5188.44   2
   5  -7   3 70102.1 5613.98   1
   5  -7   3 60183.6 4916.74   2
   5   7   3 68042.2 4759.04   2
   5   7   4 39969.8 3843.68   2
   5  -7   4 34824.9 3852.17   2
   5   7   5 39210.6 4203.10   2
   5  -7   5 36733.9 4452.51   2
   5  -9  -6 54925.7 7249.87   4
   5   9  -5 13742.9 2458.70   4
   5  -9  -5 12276.1 3009.80   4
   5  -9  -4 152925. 10621.4   4
   5   9  -4 174434. 9595.26   4
   5  -9  -3 137417. 8847.90   4
   5   9  -3 148142. 8066.68   4
   5  -9  -2 16793.5 2328.42   4
   5   9  -2 11755.0 1797.06   4
   5  -9  -1 237105. 10935.6   5
   5  -9  -1 225502. 10905.1   4
   5  -9   0 188110. 8912.44   5
   5   9   0 216722. 8552.04   1
   5  -9   1 5680.34 976.540   5
   5   9   1 6428.96 1040.80   1
   5   9   1 5292.13 950.214   2
   5  -9   1 4888.54 1111.77   2
   5  -9   1 7296.95 1383.33   1
   5   9   2 253549. 10758.4   1
   5   9   2 214592. 10319.5   2
   5  -9   2 266641. 11950.3   1
   5  -9   2 214419. 11191.9   2
   5   9   3 130823. 7287.90   2
   5  -9   3 128479. 8483.16   1
   5  -9   3 122681. 7910.70   2
   5  -9   4 1817.58 938.549   2
   5   9   4 2636.62 974.424   2
   5   9   5 79300.7 6372.63   2
   5  -9   5 75376.7 6647.38   2
   5 -11  -6 17616.6 4011.10   4
   5 -11  -5 64244.3 7023.38   4
   5 -11  -4 34282.5 4419.89   4
   5  11  -4 31611.2 3478.61   4
   5 -11  -3 75585.1 6131.77   4
   5  11  -3 81986.4 5603.13   4
   5 -11  -2 229532. 11038.1   4
   5  11  -2 240089. 11137.7   4
   5 -11  -1 71846.1 4760.61   5
   5  11  -1 79304.6 3853.69   1
   5  11   0 165872. 7382.04   1
   5 -11   0 164874. 8327.23   5
   5  11   1 256590. 10148.8   1
   5  11   1 199072. 9505.30   2
   5 -11   1 198623. 10454.6   2
   5 -11   1 246030. 10421.0   5
   5  11   2 62831.4 4377.33   1
   5  11   2 51955.0 3958.93   2
   5 -11   2 62064.8 5158.27   1
   5 -11   2 53558.0 4673.25   2
   5  11   3 50653.3 4182.54   2
   5 -11   3 47987.9 4631.50   2
   5  11   4 77827.7 5900.05   2
   5 -11   4 75473.1 6348.50   2
   5 -11   5 11221.1 2405.36   2
   5  11   5 11946.0 2278.82   2
   5 -13  -6 52750.7 7021.59   4
   5 -13  -5 67724.9 7242.69   4
   5 -13  -4 79028.9 7005.28   4
   5 -13  -3 139831. 8960.39   4
   5  13  -3 153446. 8568.84   4
   5 -13  -2 124739. 7501.47   5
   5 -13  -2 163708. 8430.92   4
   5 -13  -1 117775. 6946.76   5
   5  13   0 98292.7 5316.06   1
   5 -13   0 105929. 6412.13   5
   5  13   1 83085.3 5074.33   1
   5 -13   1 87512.6 5609.29   5
   5 -13   2 62862.1 5215.81   2
   5  13   3 58635.1 4699.63   2
   5 -13   3 50539.6 4943.94   2
   5  13   4 34462.1 3849.52   2
   5 -13   4 39682.4 4525.82   2
   5 -15  -5 40795.1 5476.30   4
   5 -15  -4 39050.1 4773.32   4
   5 -15  -3 95130.1 6950.56   4
   5 -15  -2 58791.7 4796.51   5
   5 -15  -1 19717.8 2629.11   5
   5  15   0 75045.4 4635.37   1
   5 -15   0 79389.1 5517.54   5
   5  15   1 73783.9 5000.82   1
   5 -15   1 78213.1 5370.55   5
   5 -15   2 45960.3 4512.47   2
   5 -15   3 44921.3 4721.69   2
   5 -15   4 51993.7 5400.64   2
   5 -17  -5 25015.1 4304.64   4
   5 -17  -4 54252.8 5781.92   4
   5 -17  -2 51610.4 4718.63   5
   5 -17  -1 153790. 9174.20   5
   5 -17   0 151142. 8712.67   5
   5 -17   1 43342.6 3980.52   5
   5 -17   2 93473.1 6923.00   2
   5 -17   3 87146.5 6974.98   2
   5 -17   4 8910.80 2182.95   2
   5 -19  -5 4246.58 1656.48   4
   5 -19   0 111832. 7457.15   5
   5 -19   1 716.473 596.500   5
   5 -19   2 91792.3 6912.72   2
   5 -19   3 48945.6 5089.16   2
   5 -21   2 13477.9 2561.71   2
   5 -21   3 28509.8 3852.05   2
   5 -23   2 10560.2 2279.19   2
   6   0  -6 51632.1 6344.32   4
   6   0  -5 143259. 10410.2   4
   6   0  -4 62926.1 5937.00   4
   6   0  -3 109314. 7421.16   4
   6   0  -2 393366. 16728.3   4
   6   0  -1 103117. 5582.19   4
   6   0  -1 104398. 5146.25   1
   6   0   0 288774. 11905.7   1
   6   0   0 304164. 11279.2   2
   6   0   1 200860. 9180.21   1
   6   0   1 231469. 9284.13   2
   6   0   2 51799.9 3692.39   1
   6   0   2 45364.7 3551.98   2
   6   0   3 74066.3 5293.07   2
   6   0   4 150918. 8987.29   2
   6   0   5 30280.3 3851.97   2
   6  -2  -6 53385.4 6576.15   4
   6   2  -6 58063.8 6593.44   4
   6  -2  -5 102064. 8765.14   4
   6   2  -5 117497. 8950.64   4
   6  -2  -4 35435.4 4437.66   4
   6   2  -4 29919.4 3880.06   4
   6  -2  -3 126991. 8099.70   4
   6   2  -3 109790. 7507.25   4
   6  -2  -2 211693. 10260.4   4
   6   2  -2 191870. 9791.87   4
   6   2  -1 75377.6 3385.92   2
   6  -2  -1 93671.8 5186.28   4
   6   2  -1 86752.1 5151.13   4
   6  -2  -1 87436.0 4838.99   1
   6   2  -1 85046.3 4526.23   1
   6  -2  -1 74635.5 3399.42   2
   6  -2   0 326013. 13128.9   1
   6  -2   0 320253. 12179.9   2
   6   2   0 324430. 12736.0   1
   6   2   0 327703. 12135.8   2
   6  -2   1 109091. 5754.63   1
   6  -2   1 119453. 5627.29   2
   6   2   1 117039. 5530.47   2
   6  -2   2 45801.2 3638.19   2
   6   2   2 52915.4 3673.03   1
   6   2   2 50517.4 3685.17   2
   6  -2   3 145911. 8229.04   2
   6   2   3 146113. 8016.31   2
   6  -2   4 39214.3 4119.90   2
   6   2   4 38833.9 4023.91   2
   6  -2   5 12132.1 2472.91   2
   6   2   5 13205.7 2498.86   2
   6  -4  -6 26682.1 4610.66   4
   6   4  -6 29577.6 4525.85   4
   6  -4  -5 42077.0 5514.66   4
   6   4  -5 52257.0 5567.11   4
   6  -4  -4 117273. 8985.76   4
   6   4  -4 118937. 8244.08   4
   6  -4  -3 81679.5 6308.64   4
   6   4  -3 71869.5 5593.45   4
   6  -4  -2 168859. 8917.84   4
   6   4  -2 160299. 8576.76   4
   6   4  -1 177698. 6944.49   2
   6   4  -1 194089. 8997.54   4
   6  -4  -1 168047. 7021.15   2
   6   4  -1 182262. 7648.75   1
   6  -4   0 187158. 8870.83   1
   6  -4   0 198914. 8056.12   2
   6   4   0 178690. 8016.59   1
   6   4   0 200724. 7845.84   2
   6  -4   1 158210. 7843.90   1
   6  -4   1 162218. 7544.87   2
   6   4   1 151719. 7286.85   1
   6   4   1 169543. 7353.70   2
   6  -4   2 164527. 8680.41   2
   6   4   2 184842. 8631.44   1
   6   4   2 172573. 8568.40   2
   6  -4   3 60693.1 4890.92   2
   6   4   3 68461.2 4921.76   2
   6  -4   4 42041.5 4376.20   2
   6   4   4 37586.3 3945.57   2
   6  -4   5 76828.8 6632.34   2
   6   4   5 73549.3 6356.50   2
   6  -6  -6 10340.9 2813.95   4
   6   6  -6 9411.40 2450.91   4
   6  -6  -5 31820.7 4959.15   4
   6   6  -5 41543.7 4755.00   4
   6  -6  -4 210857. 13256.3   4
   6   6  -4 216042. 11798.2   4
   6  -6  -3 36678.4 4150.34   4
   6   6  -3 35179.1 3630.70   4
   6  -6  -2 141449. 8004.28   4
   6   6  -2 137204. 7667.33   4
   6  -6  -1 245007. 11326.8   4
   6  -6  -1 257699. 10208.6   2
   6   6  -1 267859. 10388.3   1
   6   6   0 25915.9 1945.09   2
   6  -6   0 28408.5 2651.49   1
   6  -6   0 31064.6 2368.39   2
   6   6   0 27285.4 2155.49   1
   6  -6   1 89592.7 5452.14   1
   6  -6   1 83670.1 5036.72   2
   6   6   1 82493.6 4752.55   1
   6   6   1 89402.2 4752.53   2
   6  -6   2 181605. 9741.91   2
   6   6   2 199529. 9431.71   1
   6   6   2 190820. 9339.38   2
   6  -6   3 13485.8 2224.02   2
   6   6   3 16211.3 2258.43   2
   6  -6   4 40168.6 4366.32   2
   6   6   4 44234.2 4309.08   2
   6   6   5 93513.4 7213.90   2
   6  -6   5 90901.6 7556.50   2
   6  -8  -6 86817.6 8835.38   4
   6  -8  -5 73644.8 7864.88   4
   6   8  -5 84039.7 6912.74   4
   6  -8  -4 4460.61 1826.41   4
   6   8  -4 2373.15 894.568   4
   6  -8  -3 293639. 14669.8   4
   6   8  -3 274176. 13337.2   4
   6  -8  -2 219473. 10677.2   4
   6   8  -2 203195. 10420.8   4
   6  -8  -1 16145.0 1924.36   4
   6  -8  -1 19681.4 1788.59   2
   6   8  -1 17019.3 1501.65   1
   6   8   0 307250. 12229.2   2
   6  -8   0 346757. 14336.6   1
   6  -8   0 312875. 13019.8   2
   6   8   0 316670. 12516.4   1
   6  -8   1 185272. 8940.01   1
   6  -8   1 175350. 8595.73   2
   6   8   1 173934. 7905.29   1
   6  -8   2 3122.37 974.899   2
   6   8   2 2441.02 739.366   2
   6   8   2 5349.95 1124.97   1
   6  -8   2 4416.26 1322.35   1
   6   8   3 136036. 7732.23   2
   6  -8   3 123020. 8072.28   2
   6   8   4 42270.7 4257.54   2
   6  -8   4 50198.6 4968.78   2
   6  -8   5 6711.21 1916.19   2
   6   8   5 6101.47 1705.35   2
   6 -10  -6 31184.6 5115.41   4
   6 -10  -5 65669.5 7465.01   4
   6  10  -5 67731.1 6094.54   4
   6 -10  -4 38105.6 4841.40   4
   6  10  -4 38861.9 4114.21   4
   6 -10  -3 98315.9 7226.61   4
   6  10  -3 86073.9 6205.12   4
   6 -10  -2 193869. 9837.12   4
   6  10  -2 186972. 10073.4   4
   6 -10   0 142348. 7293.26   5
   6 -10   0 131674. 7184.49   2
   6  10   0 142592. 6658.59   1
   6  10   1 145773. 7525.49   2
   6 -10   1 140454. 8315.72   2
   6  10   2 52860.1 4056.83   2
   6 -10   2 58610.7 5247.74   1
   6 -10   2 47800.8 4433.14   2
   6  10   3 68151.1 5084.52   2
   6 -10   3 57444.8 5311.07   2
   6  10   4 64959.4 5498.46   2
   6 -10   4 64741.3 5934.16   2
   6 -12  -6 6860.55 2268.09   4
   6 -12  -5 35460.0 5367.95   4
   6 -12  -4 126839. 9459.31   4
   6  12  -4 125867. 8265.80   4
   6 -12  -3 37680.7 4208.17   4
   6  12  -3 34570.5 3710.12   4
   6 -12  -2 128140. 7488.16   4
   6 -12  -1 212277. 10383.9   5
   6 -12   0 50874.2 4029.03   5
   6  12   0 53285.1 3576.36   1
   6 -12   1 39882.9 3434.74   5
   6 -12   1 33583.2 3531.02   2
   6  12   2 93141.6 5878.42   2
   6 -12   2 86577.0 6544.83   2
   6  12   3 26803.5 3133.61   2
   6 -12   3 22392.4 3281.22   2
   6  12   4 20673.9 3010.27   2
   6 -12   4 19726.1 3188.38   2
   6 -14  -5 75694.3 8029.12   4
   6 -14  -4 49201.9 5531.20   4
   6 -14  -3 93205.9 7075.87   4
   6  14  -3 96476.8 7046.68   4
   6 -14  -1 66139.4 4996.02   5
   6 -14   0 120782. 7264.64   5
   6  14   0 127108. 6626.84   1
   6 -14   1 73490.7 5213.51   5
   6  14   1 81818.9 5410.36   1
   6 -14   1 78244.9 5834.96   2
   6 -14   2 62831.0 5547.43   2
   6 -14   3 91057.7 7158.76   2
   6 -14   4 58571.7 5848.52   2
   6 -16  -5 48260.6 6281.10   4
   6 -16  -4 53569.6 5795.38   4
   6 -16  -2 77600.9 6024.61   5
   6 -16  -1 66948.9 5289.74   5
   6 -16   0 50122.8 4429.58   5
   6 -16   1 82768.6 5909.97   5
   6 -16   1 98592.7 6726.78   2
   6 -16   2 55740.1 5327.76   2
   6 -16   3 29648.4 3951.67   2
   6 -16   4 46950.6 5209.91   2
   6 -18  -5 33060.1 5023.51   4
   6 -18   0 122780. 7980.81   5
   6 -18   1 104654. 7240.61   2
   6 -18   2 2302.85 1086.86   2
   6 -18   3 35953.4 4397.42   2
   6 -20   1 50224.4 4841.90   2
   6 -20   2 24006.1 3427.00   2
   6 -20   3 48500.4 5145.71   2
   6 -22   1 23106.0 3282.06   2
   6 -22   2 90666.9 7303.73   2
   6 -24   1 16060.9 2825.53   2
   7  -1  -6 26403.0 4588.81   4
   7   1  -6 30353.3 4877.69   4
   7  -1  -5 55616.3 6277.52   4
   7   1  -5 51653.8 5973.33   4
   7  -1  -4 156864. 10715.5   4
   7   1  -4 162895. 10738.4   4
   7  -1  -3 46239.2 4656.25   4
   7   1  -3 33783.3 3966.06   4
   7  -1  -2 143005. 7982.75   4
   7   1  -2 124817. 7668.61   4
   7  -1  -1 189654. 9122.16   4
   7   1  -1 190854. 9254.53   4
   7  -1  -1 166430. 8388.01   1
   7   1  -1 177518. 8467.17   1
   7  -1   0 40780.8 3195.36   1
   7   1   0 35204.6 2859.17   1
   7  -1   0 41131.3 2602.04   2
   7   1   0 37707.4 2474.35   2
   7  -1   1 137496. 7111.01   1
   7   1   1 133499. 6941.23   1
   7  -1   1 135176. 6680.57   2
   7   1   1 140014. 6709.28   2
   7  -1   2 157067. 8086.35   1
   7   1   2 138676. 7502.24   1
   7  -1   2 132381. 7403.69   2
   7   1   2 130000. 7302.91   2
   7  -1   3 32866.0 3521.02   2
   7   1   3 29819.8 3282.62   2
   7  -1   4 49929.2 4926.52   2
   7   1   4 54491.5 5161.56   2
   7  -3  -6 23744.2 4374.78   4
   7   3  -6 27243.7 4487.89   4
   7  -3  -5 60618.5 6749.44   4
   7   3  -5 68475.5 6736.41   4
   7  -3  -4 89507.6 7688.65   4
   7   3  -4 88478.2 7261.46   4
   7  -3  -3 83519.3 6530.63   4
   7   3  -3 69000.9 5820.76   4
   7  -3  -2 328792. 14406.7   4
   7   3  -2 293085. 14044.0   4
   7   3  -1 123287. 5371.13   2
   7  -3  -1 141211. 7187.71   4
   7  -3  -1 130467. 7085.19   1
   7   3  -1 143395. 7782.52   4
   7   3  -1 128821. 6460.33   1
   7  -3   0 207217. 9621.58   1
   7  -3   0 204514. 8494.42   2
   7   3   0 200414. 8991.90   1
   7   3   0 206266. 8395.31   2
   7  -3   1 285226. 12722.9   1
   7  -3   1 293713. 12231.0   2
   7   3   1 276896. 12204.3   1
   7   3   1 321233. 12331.9   2
   7  -3   2 55669.3 4476.26   1
   7  -3   2 51981.0 4065.10   2
   7   3   2 47053.8 3710.19   1
   7   3   2 50367.2 3910.08   2
   7  -3   3 62508.2 5172.93   2
   7   3   3 61121.2 4958.38   2
   7  -3   4 46597.0 4900.87   2
   7   3   4 51237.2 4821.49   2
   7  -5  -6 114737. 10273.9   4
   7   5  -6 116291. 9630.90   4
   7   5  -5 22988.8 3670.13   4
   7  -5  -5 15448.2 3328.85   4
   7  -5  -4 63940.3 6348.99   4
   7   5  -4 69157.2 6127.89   4
   7  -5  -3 197212. 10870.5   4
   7   5  -3 160125. 9880.51   4
   7  -5  -2 35260.7 3480.41   4
   7   5  -2 26800.6 3157.36   4
   7  -5  -1 118912. 6565.36   4
   7   5  -1 115821. 5894.43   1
   7   5   0 285532. 10858.1   2
   7  -5   0 268791. 12087.8   1
   7  -5   0 277112. 11107.9   2
   7   5   0 254493. 11069.2   1
   7  -5   1 37622.0 3399.05   1
   7  -5   1 38417.8 3122.79   2
   7   5   1 33899.3 2862.99   1
   7   5   1 40845.3 2998.65   2
   7  -5   2 59348.5 4679.32   2
   7   5   2 65093.7 4570.90   1
   7   5   2 60699.4 4412.32   2
   7  -5   3 179532. 10269.9   2
   7   5   3 186855. 9904.32   2
   7  -5   4 20990.5 3291.35   2
   7   5   4 25147.6 3344.09   2
   7  -7  -6 30122.6 5004.91   4
   7   7  -6 33863.2 4806.47   4
   7  -7  -5 62150.7 6955.23   4
   7   7  -5 70135.9 6494.90   4
   7  -7  -4 79113.8 7175.19   4
   7   7  -4 86897.3 6838.72   4
   7  -7  -3 31513.9 3767.91   4
   7   7  -3 29429.6 3512.38   4
   7  -7  -2 167646. 8817.24   4
   7   7  -2 128257. 8259.81   4
   7  -7  -1 108983. 5997.35   4
   7   7  -1 106844. 5412.86   1
   7   7   0 54691.9 3360.08   2
   7  -7   0 55467.0 4401.10   1
   7  -7   0 61035.9 3833.94   2
   7   7   0 53602.0 3459.86   1
   7   7   1 110485. 5895.05   2
   7  -7   1 112607. 6922.33   1
   7  -7   1 114340. 6479.98   2
   7   7   1 107340. 6084.19   1
   7  -7   2 55391.1 4763.62   2
   7   7   2 62617.2 4551.83   2
   7  -7   3 47062.1 4655.29   2
   7   7   3 51157.0 4484.08   2
   7   7   4 54949.7 5030.62   2
   7  -7   4 41714.3 4823.83   2
   7  -9  -6 1794.22 1057.69   4
   7  -9  -5 111978. 9645.88   4
   7   9  -5 123635. 8948.14   4
   7  -9  -4 91957.4 7730.65   4
   7   9  -4 96539.6 7249.90   4
   7  -9  -3 8413.96 1917.50   4
   7   9  -3 7293.60 1713.41   4
   7  -9  -2 269133. 12243.2   4
   7   9  -2 231920. 12539.7   4
   7  -9  -1 161754. 8372.49   4
   7  -9  -1 210104. 8554.37   2
   7   9   0 23562.0 2101.77   2
   7  -9   0 23166.7 2457.89   2
   7   9   0 24905.6 2292.23   1
   7  -9   1 218905. 10906.4   1
   7  -9   1 193109. 9835.12   2
   7   9   1 209488. 9510.41   1
   7   9   2 86134.3 5491.28   2
   7  -9   2 73417.4 5896.12   2
   7   9   3 14536.1 2288.43   2
   7  -9   3 15210.5 2587.62   2
   7   9   4 67428.6 5736.20   2
   7  -9   4 60296.7 5956.30   2
   7 -11  -6 50322.8 6481.41   4
   7 -11  -5 10222.4 2702.64   4
   7  11  -5 8616.86 2095.49   4
   7 -11  -4 97678.9 8003.73   4
   7  11  -4 103765. 7615.72   4
   7 -11  -3 149710. 9345.64   4
   7  11  -3 168780. 9784.93   4
   7 -11  -2 41827.0 3740.45   4
   7 -11  -1 109853. 6123.13   2
   7 -11   0 121456. 7103.25   2
   7  11   0 130627. 6647.28   1
   7  11   1 31228.7 2959.22   2
   7 -11   1 45009.6 4731.65   1
   7 -11   1 36815.9 3706.47   2
   7  11   1 40596.7 3471.71   1
   7  11   2 77592.9 5413.21   2
   7 -11   2 78588.7 6160.20   2
   7  11   3 58463.7 5021.10   2
   7 -11   3 58000.3 5579.28   2
   7 -11   4 11058.1 2426.74   2
   7  11   4 12686.2 2388.93   2
   7 -13  -5 43966.4 5695.23   4
   7 -13  -4 54200.1 5697.97   4
   7  13  -4 56412.5 5515.24   4
   7 -13  -3 93784.7 6872.17   4
   7  13  -3 108056. 7842.67   4
   7 -13   0 116845. 7369.32   2
   7  13   0 141845. 7166.12   1
   7 -13   1 102293. 7017.91   2
   7  13   2 57904.9 4624.51   2
   7 -13   2 48140.5 4916.64   2
   7  13   3 82607.1 6323.08   2
   7 -13   3 83363.6 7052.81   2
   7  13   4 36054.8 4260.96   2
   7 -13   4 33381.1 4427.17   2
   7 -15  -5 18813.1 3584.07   4
   7 -15  -4 26329.9 3822.13   4
   7 -15   0 64208.3 5247.82   5
   7 -15   0 64047.5 5065.01   2
   7 -15   1 94927.8 6919.06   2
   7 -15   2 39095.7 4466.83   2
   7 -15   3 41746.0 4853.57   2
   7 -17  -5 32245.3 4637.24   4
   7 -17   0 19924.8 2719.04   2
   7 -17   1 27210.3 3471.18   2
   7 -17   2 120553. 8659.45   2
   7 -17   3 17034.0 3061.18   2
   7 -19   1 94833.2 7124.13   2
   7 -19   2 23609.2 3526.18   2
   7 -19   3 16001.9 2944.18   2
   7 -21   1 12190.0 2453.90   2
   7 -21   2 30602.8 4146.42   2
   7 -23   0 69686.2 6031.51   2
   7 -23   1 21593.3 3374.31   2
   7 -25   0 6930.86 1825.67   2
   8   0  -6 188214. 13598.7   4
   8   0  -5 26104.8 4344.40   4
   8   0  -4 27226.8 4095.73   4
   8   0  -3 176955. 10722.2   4
   8   0  -2 17922.2 2580.13   4
   8   0  -1 46713.4 4083.05   4
   8   0  -1 35932.7 3194.59   1
   8   0   0 243793. 11008.3   1
   8   0   0 236904. 9812.24   2
   8   0   1 45936.1 3830.75   1
   8   0   1 49218.2 3556.44   2
   8   0   2 46075.9 3943.65   2
   8   0   3 235629. 12224.5   2
   8   0   4 32727.6 4144.23   2
   8  -2  -6 28351.3 4819.05   4
   8   2  -6 27765.6 4651.49   4
   8  -2  -5 25010.8 4365.11   4
   8   2  -5 29280.3 4416.76   4
   8  -2  -4 118919. 9259.88   4
   8   2  -4 114383. 8823.32   4
   8  -2  -3 56715.2 5389.82   4
   8   2  -3 48338.1 4964.78   4
   8  -2  -2 89803.5 6237.81   4
   8   2  -2 81793.9 6176.87   4
   8  -2  -1 298167. 13967.1   1
   8  -2  -1 349850. 14564.2   4
   8   2  -1 372960. 15799.9   4
   8   2  -1 298020. 13569.1   1
   8  -2   0 72313.0 5116.91   1
   8   2   0 77988.5 4889.71   1
   8  -2   0 84488.4 4444.70   2
   8   2   0 78137.8 4251.35   2
   8  -2   1 71250.5 5083.97   1
   8   2   1 80979.8 5227.00   1
   8  -2   1 76509.5 4793.80   2
   8   2   1 83553.5 4848.71   2
   8  -2   2 89216.3 6048.71   2
   8   2   2 94669.3 5969.87   2
   8  -2   3 35696.1 4002.57   2
   8   2   3 38429.4 4048.71   2
   8  -2   4 35182.7 4305.67   2
   8   2   4 34913.2 4165.71   2
   8  -4  -6 30349.4 5062.81   4
   8   4  -6 40410.8 5581.37   4
   8  -4  -5 60929.7 6945.17   4
   8   4  -5 74664.3 7175.90   4
   8  -4  -4 65047.0 6537.42   4
   8   4  -4 63778.2 6199.01   4
   8  -4  -3 86880.6 6785.00   4
   8   4  -3 66440.5 6020.30   4
   8  -4  -2 241113. 11622.6   4
   8   4  -2 207140. 11653.1   4
   8  -4  -1 154988. 8683.85   1
   8  -4  -1 160354. 8272.53   4
   8   4  -1 149655. 7632.90   1
   8  -4   0 60396.0 4653.49   1
   8  -4   0 64479.1 3845.17   2
   8   4   0 64725.4 4282.19   1
   8   4   0 64353.5 3765.97   2
   8  -4   1 228854. 11113.9   1
   8  -4   1 218060. 10137.8   2
   8   4   1 208294. 10222.4   1
   8   4   1 229514. 9984.83   2
   8  -4   2 47443.8 4189.71   2
   8   4   2 47771.7 3972.42   2
   8  -4   3 10152.4 2135.16   2
   8   4   3 14483.7 2323.71   2
   8  -4   4 83428.6 7071.03   2
   8   4   4 84344.9 6820.38   2
   8  -6  -6 51459.0 6643.39   4
   8   6  -6 47128.4 6001.24   4
   8  -6  -5 77439.8 7954.31   4
   8   6  -5 84025.4 7581.43   4
   8  -6  -4 36150.4 4681.05   4
   8   6  -4 31290.7 4172.37   4
   8  -6  -3 85969.2 6667.35   4
   8   6  -3 68433.0 6112.50   4
   8  -6  -2 146682. 8065.51   4
   8   6  -2 108985. 7977.36   4
   8  -6  -1 39765.3 3350.14   4
   8   6  -1 33432.0 2817.00   1
   8   6   0 107531. 5379.38   2
   8  -6   0 98512.7 6601.55   1
   8  -6   0 105148. 5642.24   2
   8   6   0 106252. 5922.01   1
   8  -6   1 177488. 9722.13   1
   8  -6   1 167923. 8635.15   2
   8   6   1 156061. 8378.07   1
   8   6   1 186434. 8511.12   2
   8  -6   2 30910.6 3444.72   2
   8   6   2 31236.6 3199.27   2
   8  -6   3 87752.2 6984.31   2
   8   6   3 97299.4 6804.36   2
   8   6   4 85452.3 6795.87   2
   8  -6   4 71895.2 6801.10   2
   8  -8  -6 32416.1 5197.15   4
   8   8  -6 35989.1 5025.98   4
   8  -8  -5 14765.1 3257.27   4
   8   8  -5 15347.7 3053.51   4
   8  -8  -4 162829. 10988.0   4
   8   8  -4 169897. 10764.6   4
   8  -8  -3 97705.9 7017.96   4
   8   8  -3 77909.0 6677.29   4
   8  -8  -2 32818.0 3370.57   4
   8   8  -2 31392.5 4017.77   4
   8  -8  -1 228162. 10406.2   4
   8   8   0 82690.0 4731.42   2
   8  -8   0 94140.7 6555.90   1
   8  -8   0 85764.3 5214.56   2
   8   8   0 84410.6 5119.13   1
   8   8   1 73154.7 4604.10   2
   8  -8   1 70380.1 5085.63   2
   8   8   1 58669.1 4491.86   1
   8   8   2 126229. 7326.87   2
   8  -8   2 115617. 7768.51   2
   8   8   3 25829.6 3248.52   2
   8  -8   3 25574.8 3571.42   2
   8   8   4 38280.4 4347.43   2
   8  -8   4 31664.6 4391.79   2
   8 -10  -6 59890.7 7166.78   4
   8  10  -5 18625.7 3360.08   4
   8 -10  -5 17525.2 3505.47   4
   8 -10  -4 61421.2 6140.43   4
   8  10  -4 68663.6 6351.36   4
   8 -10  -3 150678. 9421.92   4
   8  10  -3 168542. 10421.3   4
   8 -10  -2 32551.0 3296.37   4
   8 -10   0 130338. 7415.94   2
   8  10   0 139905. 7112.33   1
   8  10   1 28415.9 2792.52   2
   8 -10   1 24765.8 3010.15   2
   8  10   2 41021.0 3879.89   2
   8 -10   2 43239.0 4467.76   2
   8  10   3 86534.5 6521.58   2
   8 -10   3 84719.5 7147.74   2
   8 -10   4 8233.11 2129.72   2
   8  10   4 9913.14 2195.22   2
   8 -12  -5 60992.6 6861.10   4
   8  12  -5 76191.2 7140.00   4
   8 -12  -4 29493.5 4111.75   4
   8  12  -4 30950.8 4261.52   4
   8 -12  -3 49665.7 4783.86   4
   8  12  -3 56104.7 5762.65   4
   8 -12   0 44149.1 4032.66   2
   8 -12   1 98185.3 6913.14   2
   8  12   2 48358.2 4345.85   2
   8 -12   2 44289.1 4802.67   2
   8  12   3 41857.6 4461.80   2
   8 -12   3 42727.3 4961.01   2
   8 -14  -5 48423.1 5892.87   4
   8 -14  -4 72492.2 6735.12   4
   8  14  -4 89254.8 7830.31   4
   8 -14   0 57084.2 4871.96   2
   8 -14   1 100429. 7285.06   2
   8 -14   2 71508.9 6350.99   2
   8 -14   3 13639.5 2754.94   2
   8 -16  -5 25539.2 4101.78   4
   8 -16   0 94794.0 6739.47   2
   8 -16   1 28307.5 3678.06   2
   8 -16   2 15495.9 2907.14   2
   8 -16   3 70960.7 6783.52   2
   8 -18   0 91612.9 6794.67   2
   8 -18   1 27114.1 3667.15   2
   8 -18   2 37471.7 4635.56   2
   8 -20   0 21806.6 3101.22   2
   8 -20   1 39015.0 4600.26   2
   8 -20   2 37359.0 4710.93   2
   8 -22   0 21830.9 3229.07   2
   8 -22   1 102196. 8083.42   2
   9  -1  -6 31638.2 5135.77   4
   9   1  -6 33051.1 5253.52   4
   9  -1  -5 83879.2 8296.09   4
   9   1  -5 91169.1 8521.55   4
   9  -1  -4 10358.3 2597.45   4
   9   1  -4 13056.8 2863.23   4
   9  -1  -3 54247.6 5448.41   4
   9   1  -3 51345.5 5352.48   4
   9  -1  -2 144190. 8912.07   4
   9   1  -2 141418. 8997.69   4
   9  -1  -1 25013.3 2879.86   1
   9  -1  -1 32998.4 3645.27   4
   9   1  -1 26041.4 2903.15   1
   9  -1   0 80703.8 5751.88   1
   9   1   0 74772.6 5451.37   1
   9  -1   0 84366.2 4672.13   2
   9   1   0 86669.7 4734.78   2
   9  -1   1 223280. 10459.4   2
   9   1   1 224407. 10386.1   2
   9  -1   2 33769.6 3524.21   2
   9   1   2 36125.7 3591.82   2
   9  -1   3 38399.9 4311.58   2
   9   1   3 46459.1 4760.76   2
   9  -1   4 96317.8 7997.22   2
   9   1   4 100072. 7865.36   2
   9  -3  -6 63077.1 7427.57   4
   9   3  -6 76204.8 8007.92   4
   9  -3  -5 13227.5 3138.39   4
   9   3  -5 14714.2 3199.27   4
   9  -3  -4 84664.4 7785.51   4
   9   3  -4 91695.1 7988.74   4
   9  -3  -3 194904. 11167.7   4
   9   3  -3 153446. 10516.2   4
   9  -3  -2 45973.3 4391.39   4
   9   3  -2 43188.6 4632.68   4
   9  -3  -1 198480. 11012.4   1
   9   3  -1 187129. 10195.8   1
   9  -3   0 111581. 7277.40   1
   9   3   0 113337. 6799.54   1
   9  -3   0 120761. 6107.21   2
   9   3   0 118359. 5969.62   2
   9  -3   1 6586.56 1305.69   2
   9   3   1 7141.30 1303.36   2
   9  -3   2 132472. 8136.80   2
   9   3   2 131088. 7786.06   2
   9  -3   3 40007.9 4513.00   2
   9   3   3 33988.2 3955.22   2
   9  -3   4 4004.83 1544.76   2
   9   3   4 5480.54 1702.15   2
   9  -5  -6 29188.5 4994.15   4
   9   5  -6 35350.1 5245.18   4
   9  -5  -5 57005.4 6749.39   4
   9   5  -5 55963.0 6416.46   4
   9  -5  -4 100721. 8384.49   4
   9   5  -4 91212.7 7954.85   4
   9  -5  -3 88373.3 6832.02   4
   9   5  -3 73909.5 6746.83   4
   9  -5  -2 71264.0 5428.69   4
   9   5  -2 58585.4 5833.56   4
   9  -5  -1 228897. 11340.6   4
   9   5   0 80271.5 4548.30   2
   9  -5   0 72102.5 5639.90   1
   9   5   0 77329.3 5297.61   1
   9  -5   0 80081.5 4737.59   2
   9  -5   1 63260.8 4654.24   2
   9   5   1 64697.1 4502.42   2
   9  -5   2 137339. 8575.01   2
   9   5   2 149442. 8476.83   2
   9  -5   3 40148.8 4709.02   2
   9   5   3 39221.5 4281.47   2
   9   5   4 29981.2 4056.29   2
   9  -5   4 30029.2 4279.33   2
   9  -7  -6 41977.6 6057.90   4
   9   7  -6 46273.9 5995.86   4
   9  -7  -5 38047.3 5476.68   4
   9   7  -5 38184.8 5165.15   4
   9  -7  -4 14920.6 2953.71   4
   9   7  -4 14135.3 2886.58   4
   9  -7  -3 67403.0 5767.02   4
   9   7  -3 56685.6 5912.67   4
   9  -7  -2 83989.8 5883.63   4
   9   7  -2 80542.5 7321.89   4
   9  -7  -1 92418.6 5943.81   4
   9   7   0 88722.8 5056.90   2
   9  -7   0 90951.1 5387.64   2
   9   7   0 90626.4 5848.58   1
   9   7   1 102116. 6035.71   2
   9  -7   1 97321.7 6375.17   2
   9   7   2 93145.8 6278.97   2
   9  -7   2 78342.8 6333.16   2
   9   7   3 51732.4 4963.38   2
   9  -7   3 47559.0 5266.30   2
   9  -9  -5 62789.9 7003.19   4
   9   9  -5 64095.9 6777.39   4
   9  -9  -4 33323.2 4522.75   4
   9   9  -4 34654.6 4648.50   4
   9  -9  -3 139041. 8847.94   4
   9   9  -3 131652. 9786.33   4
   9  -9  -2 80860.2 5660.87   4
   9   9   0 129268. 6685.38   2
   9  -9   0 126379. 7131.56   2
   9   9   0 128898. 7361.32   1
   9   9   1 54778.0 4210.63   2
   9  -9   1 48012.9 4443.53   2
   9   9   2 35152.1 3629.10   2
   9  -9   2 31989.6 3891.21   2
   9   9   3 75229.3 6131.46   2
   9  -9   3 61643.6 6258.62   2
   9 -11  -5 70973.4 7474.64   4
   9  11  -5 83490.4 7864.88   4
   9 -11  -4 48319.9 5426.90   4
   9  11  -4 47109.3 5638.35   4
   9 -11  -3 41102.1 4353.95   4
   9  11  -3 52386.9 5815.48   4
   9 -11   0 30905.8 3240.89   2
   9  11   1 144047. 7844.75   2
   9 -11   1 122200. 8247.50   2
   9  11   2 35821.7 3799.11   2
   9 -11   2 29804.1 3958.57   2
   9 -11   3 9472.48 2315.06   2
   9  11   3 8450.67 2040.89   2
   9 -13  -5 13173.0 3024.84   4
   9  13  -5 10491.0 2727.97   4
   9 -13  -4 85813.1 7464.38   4
   9  13  -4 103232. 8954.16   4
   9 -13   0 89357.0 6331.60   2
   9 -13   1 14487.2 2593.28   2
   9  13   2 123092. 7973.80   2
   9 -13   2 113832. 8632.97   2
   9  13   3 39588.8 4505.76   2
   9 -13   3 36353.7 4794.14   2
   9 -15   0 33931.7 3865.92   2
   9 -15   1 33375.2 4073.33   2
   9 -15   2 43162.6 5102.63   2
   9 -17   1 121498. 8698.36   2
   9 -17   2 8950.09 2318.36   2
   9 -19   1 26667.8 3794.96   2
   9 -19   2 36607.2 4855.01   2
   9 -21   1 14046.9 2831.19   2
  10   0  -6 4746.38 2060.95   4
  10   0  -5 24577.6 4384.51   4
  10   0  -4 102492. 8844.18   4
  10   0  -3 3097.40 1317.76   4
  10   0  -2 72283.5 6276.75   4
  10   0  -1 248341. 12594.7   1
  10   0   0 15983.1 1851.22   2
  10   0   1 49967.2 4054.73   2
  10   0   2 241800. 12439.9   2
  10   0   3 3414.95 1288.87   2
  10  -2  -5 79087.4 8130.69   4
  10   2  -5 78298.6 8093.12   4
  10  -2  -4 25966.5 4166.87   4
  10   2  -4 22788.6 3951.94   4
  10  -2  -3 75679.7 6671.67   4
  10   2  -3 66464.9 6593.67   4
  10  -2  -2 98982.7 7263.64   4
  10   2  -2 94585.0 7703.14   4
  10  -2  -1 52561.3 4923.14   1
  10   2  -1 51791.4 4538.56   1
  10   2   0 121902. 6353.02   2
  10  -2   1 50640.5 4165.92   2
  10   2   1 52965.5 4127.90   2
  10  -2   2 53047.4 4872.02   2
  10   2   2 56332.1 4854.25   2
  10  -2   3 74928.4 6598.87   2
  10   2   3 66700.0 6097.29   2
  10  -4  -5 67365.3 7498.74   4
  10   4  -5 71417.0 7563.93   4
  10  -4  -4 17777.5 3373.16   4
  10   4  -4 18111.6 3510.85   4
  10  -4  -3 166300. 10351.6   4
  10   4  -3 140251. 10420.3   4
  10  -4  -2 104236. 7203.53   4
  10   4  -2 95124.2 8128.81   4
  10   4   0 132502. 6733.86   2
  10  -4   1 57907.5 4635.00   2
  10   4   1 59004.3 4476.68   2
  10  -4   2 10811.5 2154.89   2
  10   4   2 10007.1 2008.79   2
  10  -4   3 77904.5 7058.72   2
  10   4   3 82448.0 6802.74   2
  10  -6  -5 32781.2 5060.00   4
  10   6  -5 35243.8 5188.41   4
  10  -6  -4 64524.6 6607.63   4
  10   6  -4 74816.9 7415.52   4
  10  -6  -3 66591.6 5956.58   4
  10   6  -3 57780.4 6343.28   4
  10  -6  -2 47645.1 4479.54   4
  10   6  -2 50461.6 5911.59   4
  10   6   0 104225. 5825.54   2
  10   6   1 53142.5 4246.00   2
  10  -6   1 53176.5 4507.33   2
  10   6   2 73632.2 5791.41   2
  10  -6   2 71816.0 6134.76   2
  10   6   3 32274.5 4056.79   2
  10  -6   3 34159.5 4615.55   2
  10  -8  -5 70608.6 7467.66   4
  10   8  -5 64472.4 7251.42   4
  10  -8  -4 27483.0 4086.73   4
  10   8  -4 29678.9 4570.52   4
  10  -8  -3 52171.6 5105.88   4
  10   8  -3 48024.0 5914.54   4
  10  -8  -2 138603. 8275.93   4
  10   8   0 88182.8 5334.60   2
  10   8   1 119377. 7134.78   2
  10  -8   1 116125. 7541.71   2
  10   8   2 80828.6 6109.78   2
  10  -8   2 73414.1 6437.99   2
  10   8   3 51726.3 5281.95   2
  10  -8   3 48118.5 5704.09   2
  10 -10  -5 48369.4 6070.99   4
  10  10  -5 52659.4 6513.99   4
  10 -10  -4 110252. 8687.59   4
  10  10  -4 119272. 9978.70   4
  10 -10  -3 29166.8 3647.21   4
  10  10  -3 27930.4 4558.65   4
  10  10   1 20659.7 2665.50   2
  10 -10   1 16778.4 2670.08   2
  10  10   2 85461.6 6511.60   2
  10 -10   2 75215.1 6768.81   2
  10 -10   3 6193.59 1971.72   2
  10  10   3 7793.23 2037.61   2
  10 -12  -5 26073.6 4281.11   4
  10  12  -5 37142.7 5740.29   4
  10 -12  -4 21813.8 3506.69   4
  10  12  -4 22552.5 4156.32   4
  10 -12   1 39107.6 4388.36   2
  10  12   2 37610.2 4204.73   2
  10 -12   2 33855.4 4505.24   2
  10 -14   1 37837.7 4518.88   2
  10 -14   2 11527.7 2657.89   2
  10 -16   1 12450.6 2634.20   2
  10 -16   2 54917.3 6089.44   2
  10 -18   1 42184.8 4984.10   2
  11  -1  -5 8367.88 2605.96   4
  11   1  -5 9789.81 2771.77   4
  11  -1  -4 46444.9 5827.00   4
  11   1  -4 35998.2 5290.81   4
  11  -1  -3 145320. 10237.3   4
  11   1  -3 120446. 9749.83   4
  11  -1  -2 24494.7 3699.79   4
  11   1  -2 24396.2 3943.62   4
  11  -1   1 16429.4 2423.07   2
  11   1   1 17059.2 2349.75   2
  11  -1   2 31704.3 3915.29   2
  11   1   2 33347.8 3892.69   2
  11  -1   3 84604.9 7564.33   2
  11   1   3 91376.3 7716.75   2
  11  -3  -5 93543.3 9028.88   4
  11   3  -5 84759.4 8776.77   4
  11  -3  -4 47555.4 5766.73   4
  11   3  -4 32958.6 5100.13   4
  11  -3  -3 2869.43 1078.25   4
  11   3  -3 2660.03 1340.20   4
  11  -3  -2 173604. 10700.5   4
  11   3  -2 153467. 11377.7   4
  11  -3   1 149891. 8762.14   2
  11   3   1 164575. 8910.28   2
  11  -3   2 45845.4 4780.74   2
  11   3   2 50895.3 4936.18   2
  11  -3   3 12477.1 2838.84   2
  11   3   3 13551.6 2810.65   2
  11  -5  -5 62524.0 7220.75   4
  11   5  -5 60144.8 7215.81   4
  11  -5  -4 93157.9 8246.62   4
  11   5  -4 89375.5 8696.74   4
  11  -5  -3 56188.2 5612.19   4
  11   5  -3 40790.6 5652.63   4
  11  -5  -2 95827.4 7222.38   4
  11   5   1 39063.4 3749.16   2
  11  -5   1 41659.2 4117.33   2
  11   5   2 71321.3 5969.04   2
  11  -5   2 64894.4 6116.40   2
  11   5   3 25008.2 3788.28   2
  11  -5   3 25977.4 4110.13   2
  11  -7  -5 24324.1 4286.69   4
  11   7  -5 24373.1 4458.24   4
  11  -7  -4 25607.1 4047.73   4
  11   7  -4 23724.6 4446.25   4
  11  -7  -3 53069.6 5381.21   4
  11   7  -3 62075.0 7201.64   4
  11  -7  -2 96681.1 7008.17   4
  11   7   1 57588.5 4688.01   2
  11  -7   1 50791.3 4793.97   2
  11   7   2 46005.2 4672.09   2
  11  -7   2 43389.0 5042.85   2
  11  -9  -5 28959.9 4694.17   4
  11   9  -5 39484.5 6070.02   4
  11  -9  -4 65274.8 6514.30   4
  11   9  -4 68728.5 7879.37   4
  11  -9  -3 63024.9 5679.18   4
  11   9   1 39225.9 3922.39   2
  11  -9   1 39714.1 4316.92   2
  11   9   2 57702.8 5398.55   2
  11  -9   2 50826.7 5666.70   2
  11 -11  -5 17773.2 3462.46   4
  11  11  -5 25028.3 4879.45   4
  11 -11   1 8629.93 2041.27   2
  11  11   2 30246.6 3913.33   2
  11 -11   2 23697.8 3839.35   2
  11 -13   1 107687. 8195.32   2
  11 -13   2 28623.2 4281.58   2
  12   0  -5 126970. 11139.4   4
  12   0  -4 3947.09 1912.68   4
  12   0  -3 61361.3 6870.25   4
  12   0   2 16845.2 2916.64   2
  12  -2  -5 19918.9 4058.55   4
  12   2  -5 17565.4 3888.82   4
  12  -2  -4 59692.5 6895.17   4
  12   2  -4 53539.8 6892.48   4
  12  -2  -3 19512.2 3564.09   4
  12   2  -3 18790.6 3870.78   4
  12  -2  -2 69602.0 6919.35   4
  12  -2   2 64605.1 6232.32   2
  12   2   2 70218.8 6257.06   2
  12  -4  -5 9426.94 2707.43   4
  12   4  -5 13602.3 3440.89   4
  12  -4  -4 75557.0 7621.05   4
  12   4  -4 71176.8 8013.47   4
  12  -4  -3 48176.6 5584.01   4
  12   4  -3 45669.8 6304.09   4
  12  -4  -2 24535.7 3755.19   4
  12   4   2 85806.0 7077.80   2
  12  -4   2 83697.7 7206.55   2
  12  -6  -5 38067.9 5483.69   4
  12   6  -5 47403.8 6648.18   4
  12  -6  -4 46494.7 5699.38   4
  12   6  -4 46269.0 6543.72   4
  12  -6  -3 72767.1 6780.29   4
  12  -6   2 10836.5 2599.48   2
  12   6   2 11288.5 2383.09   2
  12  -8  -4 38745.0 5040.37   4
  12   8  -4 50722.1 7066.73   4
  12   8   2 41785.5 4791.14   2
  12  -8   2 45697.5 5467.59   2
  13  -1  -4 97534.5 9547.22   4
  13   1  -4 105194. 10260.4   4
  13  -1  -3 20549.3 4148.22   4
  13   1  -3 18049.0 3974.77   4
  13  -3  -4 29546.8 4840.41   4
  13   3  -4 32067.9 5570.38   4
  13  -3  -3 111661. 9756.13   4
  13  -5  -4 21232.0 3953.40   4
  13   5  -4 27756.0 5268.08   4
  13  -5  -3 37493.3 5090.93   4
  13  -7  -4 31741.4 4724.44   4
  14   0  -4 41881.0 6521.89   4
  14  -2  -4 15552.5 3859.27   4
  14   2  -4 13887.7 3980.88   4
   0   0   0    0.00    0.00   0
TITL SmCOB01-05-kT in Cm
REM Cm (#8 in standard setting)
CELL 0.71073   8.126715  16.071088   3.586248  90.0000 101.3145  90.0000
ZERR    2.00   0.000634   0.001629   0.000276   0.0000   0.0069   0.0000
LATT -7
SYMM  x,-y, z
SFAC B O Ca Sm
UNIT 6.00 20.00 8.00 2.00
TREF
HKLF 4
END
;
_shelx_hkl_checksum              26795
loop_
_space_group_symop_operation_xyz
'x, y, z'
'x, -y, z'
'x+1/2, y+1/2, z'
'x+1/2, -y+1/2, z'
loop_
_atom_site_label
_atom_site_type_symbol
_atom_site_fract_x
_atom_site_fract_y
_atom_site_fract_z
_atom_site_U_iso_or_equiv
_atom_site_adp_type
_atom_site_occupancy
_atom_site_site_symmetry_order
_atom_site_calc_flag
_atom_site_refinement_flags_posn
_atom_site_refinement_flags_adp
_atom_site_refinement_flags_occupancy
_atom_site_disorder_assembly
_atom_site_disorder_group
Sm-X Sm 0.00150(2) 0.0000 0.01439(2) 0.00601(11) Uani 0.970(5) 2 d S T P . .
Ca-Y Ca -0.35606(12) -0.11300(7) 0.3441(3) 0.0057(3) Uani 0.988(2) 1 d . . P .
.
Ca-Z Ca 0.26607(13) 0.18168(8) -0.3289(3) 0.0087(3) Uani 0.997(3) 1 d . . P . .
Ca-X Ca 0.00150(2) 0.0000 0.01439(2) 0.00601(11) Uani 0.030(5) 2 d S T P . .
Sm-Y Sm -0.35606(12) -0.11300(7) 0.3441(3) 0.0057(3) Uani 0.012(2) 1 d . . P .
.
Sm-Z Sm 0.26607(13) 0.18168(8) -0.3289(3) 0.0087(3) Uani 0.003(3) 1 d . . P . .
O1 O -0.1728(8) 0.0000 0.4318(19) 0.0051(10) Uani 1 2 d S T P . .
O2 O 0.2060(9) 0.0000 -0.378(2) 0.0125(14) Uani 1 2 d S T P . .
O3 O 0.0922(5) 0.1440(3) -0.9040(11) 0.0087(7) Uani 1 1 d . . . . .
O4 O -0.5294(6) -0.2307(3) 0.2931(13) 0.0112(7) Uani 1 1 d . . . . .
O5 O -0.2034(5) -0.1710(3) -0.0979(11) 0.0100(7) Uani 1 1 d . . . . .
O6 O 0.4652(5) 0.0744(3) -0.2333(12) 0.0096(7) Uani 1 1 d . . . . .
B1 B 0.3804(10) 0.0000 -0.283(2) 0.0060(12) Uani 1 2 d S T P . .
B2 B -0.0469(7) -0.1948(4) 0.0975(16) 0.0063(9) Uani 1 1 d . . . . .
loop_
_atom_site_aniso_label
_atom_site_aniso_U_11
_atom_site_aniso_U_22
_atom_site_aniso_U_33
_atom_site_aniso_U_23
_atom_site_aniso_U_13
_atom_site_aniso_U_12
Sm-X 0.00426(13) 0.01037(18) 0.00363(13) 0.000 0.00130(7) 0.000
Ca-Y 0.0049(4) 0.0063(5) 0.0057(4) 0.0003(3) 0.0011(3) -0.0006(3)
Ca-Z 0.0076(5) 0.0123(6) 0.0065(4) -0.0010(3) 0.0025(3) -0.0010(3)
Ca-X 0.00426(13) 0.01037(18) 0.00363(13) 0.000 0.00130(7) 0.000
Sm-Y 0.0049(4) 0.0063(5) 0.0057(4) 0.0003(3) 0.0011(3) -0.0006(3)
Sm-Z 0.0076(5) 0.0123(6) 0.0065(4) -0.0010(3) 0.0025(3) -0.0010(3)
O1 0.004(2) 0.005(2) 0.006(2) 0.000 0.0016(16) 0.000
O2 0.002(2) 0.027(4) 0.010(3) 0.000 0.0028(18) 0.000
O3 0.0079(15) 0.0106(18) 0.0085(16) 0.0004(13) 0.0039(11) 0.0024(14)
O4 0.0143(18) 0.0074(18) 0.0138(18) -0.0041(13) 0.0073(13) -0.0032(14)
O5 0.0068(15) 0.016(2) 0.0065(15) 0.0025(13) 0.0005(11) 0.0052(14)
O6 0.0100(16) 0.0097(18) 0.0090(16) 0.0003(13) 0.0018(12) -0.0037(14)
B1 0.003(3) 0.007(3) 0.007(3) 0.000 -0.001(2) 0.000
B2 0.006(2) 0.006(2) 0.007(2) -0.0010(16) 0.0019(15) -0.0003(17)
loop_
_atom_type_symbol
_atom_type_description
_atom_type_scat_dispersion_real
_atom_type_scat_dispersion_imag
_atom_type_scat_source
B B 0.0013 0.0007 'International Tables Vol C Tables 4.2.6.8 and 6.1.1.4'
O O 0.0106 0.0060 'International Tables Vol C Tables 4.2.6.8 and 6.1.1.4'
Ca Ca 0.2262 0.3064 'International Tables Vol C Tables 4.2.6.8 and 6.1.1.4'
Sm Sm -0.1638 3.4418 'International Tables Vol C Tables 4.2.6.8 and 6.1.1.4'
loop_
_geom_angle_atom_site_label_1
_geom_angle_atom_site_label_2
_geom_angle_atom_site_label_3
_geom_angle
_geom_angle_site_symmetry_1
_geom_angle_site_symmetry_3
Sm-Z Sm-X Sm-Z 164.381(3) 2_417 1_497
Sm-Z Sm-X Ca-X 83.980(2) 2_417 1_556
Sm-Z Sm-X Ca-X 83.980(2) 1_497 1_556
Sm-Z Sm-X O1 82.193(2) 2_417 .
Sm-Z Sm-X O1 82.193(2) 1_497 .
Ca-X Sm-X O1 38.05(16) 1_556 .
Sm-Z Sm-X O1 91.76(2) 2_417 1_554
Sm-Z Sm-X O1 91.76(2) 1_497 1_554
Ca-X Sm-X O1 142.52(18) 1_556 1_554
O1 Sm-X O1 104.5(3) . 1_554
Sm-Z Sm-X O2 97.793(2) 2_417 .
Sm-Z Sm-X O2 97.793(3) 1_497 .
Ca-X Sm-X O2 136.79(17) 1_556 .
O1 Sm-X O2 174.8(3) . .
O1 Sm-X O2 80.7(3) 1_554 .
Sm-Z Sm-X O3 164.42(10) 2_417 1_556
Sm-Z Sm-X O3 22.39(10) 1_497 1_556
Ca-X Sm-X O3 86.51(10) 1_556 1_556
O1 Sm-X O3 97.79(11) . 1_556
O1 Sm-X O3 103.26(10) 1_554 1_556
O2 Sm-X O3 80.83(11) . 1_556
Sm-Z Sm-X O3 22.39(10) 2_417 2_556
Sm-Z Sm-X O3 164.42(10) 1_497 2_556
Ca-X Sm-X O3 86.51(10) 1_556 2_556
O1 Sm-X O3 97.79(11) . 2_556
O1 Sm-X O3 103.26(10) 1_554 2_556
O2 Sm-X O3 80.83(11) . 2_556
O3 Sm-X O3 144.6(2) 1_556 2_556
Sm-Z Sm-X O2 88.76(2) 2_417 1_556
Sm-Z Sm-X O2 88.76(2) 1_497 1_556
Ca-X Sm-X O2 41.35(18) 1_556 1_556
O1 Sm-X O2 79.4(3) . 1_556
O1 Sm-X O2 176.1(3) 1_554 1_556
O2 Sm-X O2 95.4(2) . 1_556
O3 Sm-X O2 75.98(10) 1_556 1_556
O3 Sm-X O2 75.98(10) 2_556 1_556
Sm-Z Sm-X Sm-Z 161.981(3) 2_417 1_498
Sm-Z Sm-X Sm-Z 3.0 1_497 1_498
Ca-X Sm-X Sm-Z 80.987(2) 1_556 1_498
O1 Sm-X Sm-Z 79.849(5) . 1_498
O1 Sm-X Sm-Z 94.14(3) 1_554 1_498
O2 Sm-X Sm-Z 99.958(8) . 1_498
O3 Sm-X Sm-Z 22.86(10) 1_556 1_498
O3 Sm-X Sm-Z 162.45(9) 2_556 1_498
O2 Sm-X Sm-Z 86.51(3) 1_556 1_498
Sm-Z Sm-X Sm-Z 3.0 2_417 2_418
Sm-Z Sm-X Sm-Z 161.981(3) 1_497 2_418
Ca-X Sm-X Sm-Z 80.987(1) 1_556 2_418
O1 Sm-X Sm-Z 79.849(5) . 2_418
O1 Sm-X Sm-Z 94.14(3) 1_554 2_418
O2 Sm-X Sm-Z 99.958(9) . 2_418
O3 Sm-X Sm-Z 162.45(9) 1_556 2_418
O3 Sm-X Sm-Z 22.86(10) 2_556 2_418
O2 Sm-X Sm-Z 86.51(3) 1_556 2_418
Sm-Z Sm-X Sm-Z 159.422(3) 1_498 2_418
O1 Ca-Y O5 88.71(19) . 1_556
O1 Ca-Y O4 176.1(2) . .
O5 Ca-Y O4 87.40(17) 1_556 .
O1 Ca-Y O6 100.38(19) . 2_455
O5 Ca-Y O6 170.85(17) 1_556 2_455
O4 Ca-Y O6 83.50(17) . 2_455
O1 Ca-Y O6 99.5(2) . 2_456
O5 Ca-Y O6 81.14(15) 1_556 2_456
O4 Ca-Y O6 80.06(16) . 2_456
O6 Ca-Y O6 98.21(16) 2_455 2_456
O1 Ca-Y O5 89.6(2) . .
O5 Ca-Y O5 98.94(16) 1_556 .
O4 Ca-Y O5 90.89(16) . .
O6 Ca-Y O5 80.26(14) 2_455 .
O6 Ca-Y O5 170.94(17) 2_456 .
O1 Ca-Y Ca-X 33.16(15) . 1_556
O5 Ca-Y Ca-X 56.14(12) 1_556 1_556
O4 Ca-Y Ca-X 143.03(13) . 1_556
O6 Ca-Y Ca-X 133.01(12) 2_455 1_556
O6 Ca-Y Ca-X 87.69(11) 2_456 1_556
O5 Ca-Y Ca-X 99.92(11) . 1_556
O1 Ca-Y B2 80.64(18) . .
O5 Ca-Y B2 75.63(16) 1_556 .
O4 Ca-Y B2 98.22(17) . .
O6 Ca-Y B2 104.64(15) 2_455 .
O6 Ca-Y B2 156.77(15) 2_456 .
O5 Ca-Y B2 24.85(14) . .
Ca-X Ca-Y B2 79.87(11) 1_556 .
O1 Ca-Y Sm-Z 142.99(13) . 2_418
O5 Ca-Y Sm-Z 61.70(12) 1_556 2_418
O4 Ca-Y Sm-Z 33.80(12) . 2_418
O6 Ca-Y Sm-Z 109.51(11) 2_455 2_418
O6 Ca-Y Sm-Z 97.36(11) 2_456 2_418
O5 Ca-Y Sm-Z 74.94(12) . 2_418
Ca-X Ca-Y Sm-Z 115.896(16) 1_556 2_418
B2 Ca-Y Sm-Z 71.22(12) . 2_418
O1 Ca-Y B1 87.98(18) . 1_456
O5 Ca-Y B1 98.68(17) 1_556 1_456
O4 Ca-Y B1 92.76(15) . 1_456
O6 Ca-Y B1 82.80(17) 2_455 1_456
O6 Ca-Y B1 21.26(15) 2_456 1_456
O5 Ca-Y B1 162.14(16) . 1_456
Ca-X Ca-Y B1 87.56(11) 1_556 1_456
B2 Ca-Y B1 167.33(16) . 1_456
Sm-Z Ca-Y B1 116.44(9) 2_418 1_456
O1 Ca-Y Sm-Y 38.81(13) . 2
O5 Ca-Y Sm-Y 113.57(12) 1_556 2
O4 Ca-Y Sm-Y 143.81(12) . 2
O6 Ca-Y Sm-Y 74.82(11) 2_455 2
O6 Ca-Y Sm-Y 74.89(11) 2_456 2
O5 Ca-Y Sm-Y 113.00(12) . 2
Ca-X Ca-Y Sm-Y 61.809(16) 1_556 2
B2 Ca-Y Sm-Y 114.98(12) . 2
Sm-Z Ca-Y Sm-Y 171.784(2) 2_418 2
B1 Ca-Y Sm-Y 56.46(9) 1_456 2
O1 Ca-Y Ca-Z 123.08(13) . 3_446
O5 Ca-Y Ca-Z 44.20(12) 1_556 3_446
O4 Ca-Y Ca-Z 53.48(13) . 3_446
O6 Ca-Y Ca-Z 127.71(12) 2_455 3_446
O6 Ca-Y Ca-Z 101.33(11) 2_456 3_446
O5 Ca-Y Ca-Z 73.15(11) . 3_446
Ca-X Ca-Y Ca-Z 95.96(3) 1_556 3_446
B2 Ca-Y Ca-Z 61.06(12) . 3_446
Sm-Z Ca-Y Ca-Z 20.3 2_418 3_446
B1 Ca-Y Ca-Z 122.51(11) 1_456 3_446
Sm-Y Ca-Y Ca-Z 157.31(2) 2 3_446
O3 Ca-Z O6 102.66(16) . .
O3 Ca-Z O3 99.74(17) . 1_556
O6 Ca-Z O3 101.63(16) . 1_556
O3 Ca-Z O4 87.34(16) . 2_654
O6 Ca-Z O4 78.18(15) . 2_654
O3 Ca-Z O4 172.73(17) 1_556 2_654
O3 Ca-Z O5 122.66(15) . 3
O6 Ca-Z O5 128.76(14) . 3
O3 Ca-Z O5 93.55(16) 1_556 3
O4 Ca-Z O5 81.16(16) 2_654 3
O3 Ca-Z O4 176.38(16) . 2_655
O6 Ca-Z O4 78.03(14) . 2_655
O3 Ca-Z O4 83.54(15) 1_556 2_655
O4 Ca-Z O4 89.34(16) 2_654 2_655
O5 Ca-Z O4 55.28(13) 3 2_655
O3 Ca-Z B2 147.45(18) . 3
O6 Ca-Z B2 99.08(17) . 3
O3 Ca-Z B2 99.25(17) 1_556 3
O4 Ca-Z B2 73.69(17) 2_654 3
O5 Ca-Z B2 29.79(15) 3 3
O4 Ca-Z B2 29.48(16) 2_655 3
O3 Ca-Z O4 53.73(14) . 3_554
O6 Ca-Z O4 156.34(14) . 3_554
O3 Ca-Z O4 83.08(14) 1_556 3_554
O4 Ca-Z O4 100.03(13) 2_654 3_554
O5 Ca-Z O4 73.34(13) 3 3_554
O4 Ca-Z O4 125.64(10) 2_655 3_554
B2 Ca-Z O4 103.05(15) 3 3_554
O3 Ca-Z Sm-Z 106.53(12) . 1_497
O6 Ca-Z Sm-Z 143.56(11) . 1_497
O3 Ca-Z Sm-Z 94.50(12) 1_556 1_497
O4 Ca-Z Sm-Z 81.84(11) 2_654 1_497
O5 Ca-Z Sm-Z 16.35(9) 3 1_497
O4 Ca-Z Sm-Z 71.55(10) 2_655 1_497
B2 Ca-Z Sm-Z 45.69(13) 3 1_497
O4 Ca-Z Sm-Z 57.40(9) 3_554 1_497
O3 Ca-Z B2 27.66(17) . 2_554
O6 Ca-Z B2 129.16(17) . 2_554
O3 Ca-Z B2 85.68(16) 1_556 2_554
O4 Ca-Z B2 100.11(16) 2_654 2_554
O5 Ca-Z B2 100.32(16) 3 2_554
O4 Ca-Z B2 152.40(17) 2_655 2_554
B2 Ca-Z B2 129.68(10) 3 2_554
O4 Ca-Z B2 27.36(15) 3_554 2_554
Sm-Z Ca-Z B2 84.11(13) 1_497 2_554
O3 Ca-Z O2 68.17(19) . .
O6 Ca-Z O2 51.99(16) . .
O3 Ca-Z O2 70.86(19) 1_556 .
O4 Ca-Z O2 113.74(19) 2_654 .
O5 Ca-Z O2 163.1(2) 3 .
O4 Ca-Z O2 114.59(18) 2_655 .
B2 Ca-Z O2 143.70(19) 3 .
O4 Ca-Z O2 109.95(16) 3_554 .
Sm-Z Ca-Z O2 162.57(14) 1_497 .
B2 Ca-Z O2 85.37(18) 2_554 .
O3 Ca-Z B1 85.73(18) . .
O6 Ca-Z B1 25.33(18) . .
O3 Ca-Z B1 86.2(2) 1_556 .
O4 Ca-Z B1 96.0(2) 2_654 .
O5 Ca-Z B1 151.06(16) 3 .
O4 Ca-Z B1 96.05(17) 2_655 .
B2 Ca-Z B1 121.74(19) 3 .
O4 Ca-Z B1 135.06(16) 3_554 .
Sm-Z Ca-Z B1 167.37(13) 1_497 .
B2 Ca-Z B1 108.51(19) 2_554 .
O2 Ca-Z B1 26.66(19) . .
Ca-X O1 Sm-Y 112.9(2) 1_556 2
Ca-X O1 Sm-Z 86.32(2) 1_556 1_498
Sm-Y O1 Sm-Z 35.83(12) 2 1_498
Ca-X O1 Sm-Z 86.32(2) 1_556 2_418
Sm-Y O1 Sm-Z 136.95(14) 2 2_418
Sm-Z O1 Sm-Z 163.102(12) 1_498 2_418
Ca-X O1 Sm-X 104.5 1_556 .
Sm-Y O1 Sm-X 112.3(2) 2 .
Sm-Z O1 Sm-X 98.280(8) 1_498 .
Sm-Z O1 Sm-X 98.280(8) 2_418 .
Ca-X O1 Sm-X 0.0 1_556 1_556
Sm-Y O1 Sm-X 112.9(2) 2 1_556
Sm-Z O1 Sm-X 86.32(2) 1_498 1_556
Sm-Z O1 Sm-X 86.32(2) 2_418 1_556
Sm-X O1 Sm-X 104.5(3) . 1_556
Ca-X O1 Ca-Y 112.9(2) 1_556 2
Sm-Y O1 Ca-Y 0.0 2 2
Sm-Z O1 Ca-Y 35.83(12) 1_498 2
Sm-Z O1 Ca-Y 136.95(14) 2_418 2
Sm-X O1 Ca-Y 112.3(2) . 2
Sm-X O1 Ca-Y 112.9(2) 1_556 2
Ca-X O1 Ca-Y 112.9(2) 1_556 .
Sm-Y O1 Ca-Y 102.4 2 .
Sm-Z O1 Ca-Y 136.95(14) 1_498 .
Sm-Z O1 Ca-Y 35.83(12) 2_418 .
Sm-X O1 Ca-Y 112.3(2) . .
Sm-X O1 Ca-Y 112.9(2) 1_556 .
Ca-Y O1 Ca-Y 102.4(3) 2 .
B1 O2 Sm-Z 95.95(7) . 2_417
B1 O2 Sm-Z 95.95(7) . 1_497
Sm-Z O2 Sm-Z 160.425(13) 2_417 1_497
B1 O2 Sm-X 130.5(6) . .
Sm-Z O2 Sm-X 80.226(7) 2_417 .
Sm-Z O2 Sm-X 80.226(7) 1_497 .
B1 O2 Sm-X 134.1(6) . 1_554
Sm-Z O2 Sm-X 91.42(3) 2_417 1_554
Sm-Z O2 Sm-X 91.42(3) 1_497 1_554
Sm-X O2 Sm-X 95.4(2) . 1_554
B1 O2 Ca-Z 80.63(13) . 2
Sm-Z O2 Ca-Z 16.7 2_417 2
Sm-Z O2 Ca-Z 170.5 1_497 2
Sm-X O2 Ca-Z 95.20(16) . 2
Sm-X O2 Ca-Z 97.33(14) 1_554 2
B1 O2 Ca-Z 80.63(13) . .
Sm-Z O2 Ca-Z 170.5 2_417 .
Sm-Z O2 Ca-Z 16.7 1_497 .
Sm-X O2 Ca-Z 95.20(16) . .
Sm-X O2 Ca-Z 97.33(14) 1_554 .
Ca-Z O2 Ca-Z 161.1(3) 2 .
B2 O3 Sm-Z 47.5(3) 2_554 1_496
B2 O3 Ca-Z 101.2(3) 2_554 .
Sm-Z O3 Ca-Z 73.9 1_496 .
B2 O3 Ca-Z 116.3(4) 2_554 1_554
Sm-Z O3 Ca-Z 83.5 1_496 1_554
Ca-Z O3 Ca-Z 99.74(17) . 1_554
B2 O3 Sm-X 109.3(4) 2_554 1_554
Sm-Z O3 Sm-X 156.80(10) 1_496 1_554
Ca-Z O3 Sm-X 117.97(18) . 1_554
Ca-Z O3 Sm-X 111.95(18) 1_554 1_554
B2 O4 Ca-Y 137.7(4) 4_445 .
B2 O4 Ca-Z 122.8(4) 4_445 2_456
Ca-Y O4 Ca-Z 99.11(17) . 2_456
B2 O4 Ca-Z 81.0(3) 4_445 2_455
Ca-Y O4 Ca-Z 95.43(17) . 2_455
Ca-Z O4 Ca-Z 89.34(16) 2_456 2_455
B2 O4 Ca-Z 79.0(3) 4_445 3_446
Ca-Y O4 Ca-Z 85.70(15) . 3_446
Ca-Z O4 Ca-Z 119.06(18) 2_456 3_446
Ca-Z O4 Ca-Z 151.12(19) 2_455 3_446
B2 O5 Ca-Y 145.9(4) . 1_554
B2 O5 Ca-Y 108.6(3) . .
Ca-Y O5 Ca-Y 98.94(16) 1_554 .
B2 O5 Sm-Y 145.9(4) . 1_554
Ca-Y O5 Sm-Y 0.0 1_554 1_554
Ca-Y O5 Sm-Y 98.9 . 1_554
B2 O5 Sm-Z 75.4(3) . 2_417
Ca-Y O5 Sm-Z 116.49(12) 1_554 2_417
Ca-Y O5 Sm-Z 105.64(12) . 2_417
Sm-Y O5 Sm-Z 116.48(12) 1_554 2_417
B2 O5 Ca-Z 85.9(3) . 3_445
Ca-Y O5 Ca-Z 95.31(15) 1_554 3_445
Ca-Y O5 Ca-Z 124.0(2) . 3_445
Sm-Y O5 Ca-Z 95.31(15) 1_554 3_445
Sm-Z O5 Ca-Z 24.6 2_417 3_445
B1 O6 Ca-Z 107.8(4) . .
B1 O6 Ca-Y 123.1(4) . 2_655
Ca-Z O6 Ca-Y 102.89(18) . 2_655
B1 O6 Ca-Y 119.9(5) . 2_654
Ca-Z O6 Ca-Y 101.87(17) . 2_654
Ca-Y O6 Ca-Y 98.21(16) 2_655 2_654
B1 O6 Sm-Y 123.1(4) . 2_655
Ca-Z O6 Sm-Y 102.89(18) . 2_655
Ca-Y O6 Sm-Y 0.0 2_655 2_655
Ca-Y O6 Sm-Y 98.21(16) 2_654 2_655
B1 O6 Sm-Y 119.9(5) . 2_654
Ca-Z O6 Sm-Y 101.87(17) . 2_654
Ca-Y O6 Sm-Y 98.21(16) 2_655 2_654
Ca-Y O6 Sm-Y 0.0 2_654 2_654
Sm-Y O6 Sm-Y 98.21(16) 2_655 2_654
O6 B1 O6 120.9(7) 2 .
O6 B1 O2 119.5(3) 2 .
O6 B1 O2 119.5(3) . .
O6 B1 Ca-Z 46.8(2) 2 2
O6 B1 Ca-Z 167.7(5) . 2
O2 B1 Ca-Z 72.71(14) . 2
O6 B1 Ca-Z 167.7(5) 2 .
O6 B1 Ca-Z 46.8(2) . .
O2 B1 Ca-Z 72.71(14) . .
Ca-Z B1 Ca-Z 145.3(3) 2 .
O6 B1 Ca-Y 100.5(5) 2 2_654
O6 B1 Ca-Y 38.8(3) . 2_654
O2 B1 Ca-Y 127.8(4) . 2_654
Ca-Z B1 Ca-Y 136.1(3) 2 2_654
Ca-Z B1 Ca-Y 70.47(9) . 2_654
O6 B1 Ca-Y 38.8(3) 2 1_654
O6 B1 Ca-Y 100.5(5) . 1_654
O2 B1 Ca-Y 127.8(4) . 1_654
Ca-Z B1 Ca-Y 70.47(9) 2 1_654
Ca-Z B1 Ca-Y 136.1(3) . 1_654
Ca-Y B1 Ca-Y 67.08(18) 2_654 1_654
O5 B2 O4 119.4(5) . 4_545
O5 B2 O3 120.2(5) . 2_556
O4 B2 O3 120.4(5) 4_545 2_556
O5 B2 Sm-Z 103.4(3) . 2_417
O4 B2 Sm-Z 25.6(3) 4_545 2_417
O3 B2 Sm-Z 131.6(3) 2_556 2_417
O5 B2 Ca-Z 64.4(3) . 3_445
O4 B2 Ca-Z 69.5(3) 4_545 3_445
O3 B2 Ca-Z 140.7(4) 2_556 3_445
Sm-Z B2 Ca-Z 44.8 2_417 3_445
O5 B2 Ca-Z 156.5(4) . 2_556
O4 B2 Ca-Z 73.7(3) 4_545 2_556
O3 B2 Ca-Z 51.1(3) 2_556 2_556
Sm-Z B2 Ca-Z 95.0 2_417 2_556
Ca-Z B2 Ca-Z 137.8(2) 3_445 2_556
O5 B2 Ca-Y 46.6(3) . .
O4 B2 Ca-Y 103.3(4) 4_545 .
O3 B2 Ca-Y 117.0(4) 2_556 .
Sm-Z B2 Ca-Y 107.78(12) 2_417 .
Ca-Z B2 Ca-Y 94.22(17) 3_445 .
Ca-Z B2 Ca-Y 113.92(19) 2_556 .
O5 B2 Ca-Z 118.4(4) . 2
O4 B2 Ca-Z 106.6(4) 4_545 2
O3 B2 Ca-Z 40.9(3) 2_556 2
Sm-Z B2 Ca-Z 101.3 2_417 2
Ca-Z B2 Ca-Z 100.57(18) 3_445 2
Ca-Z B2 Ca-Z 70.91(13) 2_556 2
Ca-Y B2 Ca-Z 149.7(2) . 2
loop_
_geom_bond_atom_site_label_1
_geom_bond_atom_site_label_2
_geom_bond_distance
_geom_bond_site_symmetry_2
Sm-X Sm-Z 67.833(7) 2_417
Sm-X Sm-Z 67.833(7) 1_497
Sm-X Ca-X 3.5862(3) 1_556
Sm-X O1 2.254(7) .
Sm-X O1 2.283(6) 1_554
Sm-X O2 2.380(8) .
Sm-X O3 2.430(5) 1_556
Sm-X O3 2.430(5) 2_556
Sm-X O2 2.467(7) 1_556
Sm-X Sm-Z 68.302(7) 1_498
Sm-X Sm-Z 68.303(7) 2_418
Ca-Y O1 2.331(4) .
Ca-Y O5 2.332(4) 1_556
Ca-Y O4 2.344(5) .
Ca-Y O6 2.367(4) 2_455
Ca-Y O6 2.378(5) 2_456
Ca-Y O5 2.386(5) .
Ca-Y Ca-X 3.8443(10) 1_556
Ca-Y B2 3.113(6) .
Ca-Y Sm-Z 66.066(7) 2_418
Ca-Y B1 3.287(8) 1_456
Ca-Y Sm-Y 3.632(2) 2
Ca-Y Ca-Z 3.5765(16) 3_446
Ca-Z O3 2.339(4) .
Ca-Z O6 2.343(5) .
Ca-Z O3 2.351(4) 1_556
Ca-Z O4 2.471(5) 2_654
Ca-Z O5 2.504(5) 3
Ca-Z O4 2.628(5) 2_655
Ca-Z B2 2.771(6) 3
Ca-Z O4 2.882(5) 3_554
Ca-Z Sm-Z 65.367(6) 1_497
Ca-Z B2 2.948(6) 2_554
Ca-Z O2 2.9599(17) .
Ca-Z B1 3.059(3) .
O1 Ca-X 2.283(6) 1_556
O1 Sm-Y 2.331(4) 2
O1 Sm-Z 67.942(7) 1_498
O1 Sm-Z 67.942(7) 2_418
O1 Sm-X 2.283(6) 1_556
O1 Ca-Y 2.331(4) 2
O2 B1 1.391(10) .
O2 Sm-Z 68.197(7) 2_417
O2 Sm-Z 68.197(7) 1_497
O2 Sm-X 2.467(7) 1_554
O2 Ca-Z 2.9599(17) 2
O3 B2 1.396(8) 2_554
O3 Sm-Z 65.593(8) 1_496
O3 Ca-Z 2.351(4) 1_554
O3 Sm-X 2.430(5) 1_554
O4 B2 1.380(8) 4_445
O4 Ca-Z 2.471(5) 2_456
O4 Ca-Z 2.628(5) 2_455
O4 Ca-Z 2.882(5) 3_446
O5 B2 1.380(7) .
O5 Ca-Y 2.332(4) 1_554
O5 Sm-Y 2.332(4) 1_554
O5 Sm-Z 64.993(8) 2_417
O5 Ca-Z 2.504(5) 3_445
O6 B1 1.375(6) .
O6 Ca-Y 2.367(4) 2_655
O6 Ca-Y 2.378(5) 2_654
O6 Sm-Y 2.367(4) 2_655
O6 Sm-Y 2.378(5) 2_654
B1 O6 1.375(6) 2
B1 Ca-Z 3.059(3) 2
B1 Ca-Y 3.287(8) 2_654
B1 Ca-Y 3.287(8) 1_654
B2 O4 1.380(8) 4_545
B2 O3 1.395(8) 2_556
B2 Sm-Z 64.659(9) 2_417
B2 Ca-Z 2.771(6) 3_445
B2 Ca-Z 2.948(6) 2_556
B2 Ca-Z 3.222(6) 2
